MODEL 1
REMARK VINA RESULT:    -5.904      0.000      0.000
REMARK INTER + INTRA:          -6.962
REMARK INTER:                  -6.939
REMARK INTRA:                  -0.023
REMARK UNBOUND:                -0.023
REMARK SMILES O=c1c(O)c(-c2ccc(O)cc2)oc2cc(O)cc(O)c12
REMARK SMILES IDX 5 1 3 2 2 3 1 4 21 5 19 6 18 7 16 8 15 9 14 10 13 11 6 12
REMARK SMILES IDX 7 13 8 14 9 15 12 16 11 17 10 18 4 20 20 22 17 24
REMARK H PARENT 10 19 4 21 20 23 17 25
REMARK Flexibility Score: inf
ROOT
ATOM      1  C   UNL     1     174.357 169.938 172.929  1.00  0.00     0.180 A 
ATOM      2  C   UNL     1     174.331 168.543 173.091  1.00  0.00     0.208 A 
ATOM      3  C   UNL     1     173.090 167.891 173.187  1.00  0.00     0.238 A 
ATOM      4  O   UNL     1     173.074 166.650 173.387  1.00  0.00    -0.285 OA
ATOM      5  C   UNL     1     171.893 168.642 173.101  1.00  0.00     0.111 A 
ATOM      6  C   UNL     1     170.582 168.081 173.145  1.00  0.00     0.134 A 
ATOM      7  C   UNL     1     169.468 168.931 173.182  1.00  0.00     0.093 A 
ATOM      8  C   UNL     1     169.619 170.318 173.113  1.00  0.00     0.123 A 
ATOM      9  C   UNL     1     170.893 170.872 173.010  1.00  0.00     0.094 A 
ATOM     10  C   UNL     1     172.024 170.052 173.006  1.00  0.00     0.146 A 
ATOM     11  O   UNL     1     173.219 170.621 172.917  1.00  0.00    -0.452 OA
ENDROOT
BRANCH   1  12
ATOM     12  C   UNL     1     175.626 170.692 172.795  1.00  0.00     0.021 A 
ATOM     13  C   UNL     1     175.845 171.824 173.598  1.00  0.00     0.016 A 
ATOM     14  C   UNL     1     177.025 172.563 173.472  1.00  0.00     0.047 A 
ATOM     15  C   UNL     1     177.993 172.191 172.535  1.00  0.00     0.115 A 
ATOM     16  C   UNL     1     176.595 170.334 171.841  1.00  0.00     0.016 A 
ATOM     17  C   UNL     1     177.774 171.075 171.716  1.00  0.00     0.047 A 
BRANCH  15  18
ATOM     18  O   UNL     1     179.164 172.936 172.422  1.00  0.00    -0.508 OA
ATOM     19  H   UNL     1     179.715 172.931 171.571  1.00  0.00     0.293 HD
ENDBRANCH  15  18
ENDBRANCH   1  12
BRANCH   2  20
ATOM     20  O   UNL     1     175.526 167.824 173.196  1.00  0.00    -0.502 OA
ATOM     21  H   UNL     1     176.261 168.082 173.842  1.00  0.00     0.293 HD
ENDBRANCH   2  20
BRANCH   6  22
ATOM     22  O   UNL     1     170.317 166.708 173.124  1.00  0.00    -0.507 OA
ATOM     23  H   UNL     1     170.369 166.102 173.928  1.00  0.00     0.293 HD
ENDBRANCH   6  22
BRANCH   8  24
ATOM     24  O   UNL     1     168.505 171.155 173.136  1.00  0.00    -0.508 OA
ATOM     25  H   UNL     1     167.911 171.270 172.322  1.00  0.00     0.293 HD
ENDBRANCH   8  24
TORSDOF 5
ENDMDL
MODEL 2
REMARK VINA RESULT:    -5.902      3.602      4.090
REMARK INTER + INTRA:          -6.960
REMARK INTER:                  -6.942
REMARK INTRA:                  -0.019
REMARK UNBOUND:                -0.023
REMARK SMILES O=c1c(O)c(-c2ccc(O)cc2)oc2cc(O)cc(O)c12
REMARK SMILES IDX 5 1 3 2 2 3 1 4 21 5 19 6 18 7 16 8 15 9 14 10 13 11 6 12
REMARK SMILES IDX 7 13 8 14 9 15 12 16 11 17 10 18 4 20 20 22 17 24
REMARK H PARENT 10 19 4 21 20 23 17 25
REMARK Flexibility Score: inf
ROOT
ATOM      1  C   UNL     1     174.612 170.745 171.114  1.00  0.00     0.180 A 
ATOM      2  C   UNL     1     173.516 170.086 171.695  1.00  0.00     0.208 A 
ATOM      3  C   UNL     1     172.457 169.669 170.872  1.00  0.00     0.238 A 
ATOM      4  O   UNL     1     171.454 169.129 171.405  1.00  0.00    -0.285 OA
ATOM      5  C   UNL     1     172.516 169.901 169.476  1.00  0.00     0.111 A 
ATOM      6  C   UNL     1     171.520 169.486 168.543  1.00  0.00     0.134 A 
ATOM      7  C   UNL     1     171.620 169.884 167.204  1.00  0.00     0.093 A 
ATOM      8  C   UNL     1     172.714 170.627 166.753  1.00  0.00     0.123 A 
ATOM      9  C   UNL     1     173.721 170.986 167.645  1.00  0.00     0.094 A 
ATOM     10  C   UNL     1     173.632 170.634 168.994  1.00  0.00     0.146 A 
ATOM     11  O   UNL     1     174.609 171.006 169.812  1.00  0.00    -0.452 OA
ENDROOT
BRANCH   1  12
ATOM     12  C   UNL     1     175.777 171.192 171.913  1.00  0.00     0.021 A 
ATOM     13  C   UNL     1     176.247 172.508 171.773  1.00  0.00     0.016 A 
ATOM     14  C   UNL     1     177.359 172.943 172.501  1.00  0.00     0.047 A 
ATOM     15  C   UNL     1     178.023 172.068 173.364  1.00  0.00     0.115 A 
ATOM     16  C   UNL     1     176.461 170.309 172.769  1.00  0.00     0.016 A 
ATOM     17  C   UNL     1     177.573 170.747 173.494  1.00  0.00     0.047 A 
BRANCH  15  18
ATOM     18  O   UNL     1     179.128 172.515 174.084  1.00  0.00    -0.508 OA
ATOM     19  H   UNL     1     179.909 172.970 173.626  1.00  0.00     0.293 HD
ENDBRANCH  15  18
ENDBRANCH   1  12
BRANCH   2  20
ATOM     20  O   UNL     1     173.467 169.887 173.078  1.00  0.00    -0.502 OA
ATOM     21  H   UNL     1     172.975 169.108 173.499  1.00  0.00     0.293 HD
ENDBRANCH   2  20
BRANCH   6  22
ATOM     22  O   UNL     1     170.436 168.666 168.871  1.00  0.00    -0.507 OA
ATOM     23  H   UNL     1     170.417 167.664 168.750  1.00  0.00     0.293 HD
ENDBRANCH   6  22
BRANCH   8  24
ATOM     24  O   UNL     1     172.813 171.005 165.416  1.00  0.00    -0.508 OA
ATOM     25  H   UNL     1     172.105 170.746 164.738  1.00  0.00     0.293 HD
ENDBRANCH   8  24
TORSDOF 5
ENDMDL
MODEL 3
REMARK VINA RESULT:    -5.820      1.632      3.062
REMARK INTER + INTRA:          -6.865
REMARK INTER:                  -6.583
REMARK INTRA:                  -0.281
REMARK UNBOUND:                -0.023
REMARK SMILES O=c1c(O)c(-c2ccc(O)cc2)oc2cc(O)cc(O)c12
REMARK SMILES IDX 5 1 3 2 2 3 1 4 21 5 19 6 18 7 16 8 15 9 14 10 13 11 6 12
REMARK SMILES IDX 7 13 8 14 9 15 12 16 11 17 10 18 4 20 20 22 17 24
REMARK H PARENT 10 19 4 21 20 23 17 25
REMARK Flexibility Score: inf
ROOT
ATOM      1  C   UNL     1     174.427 169.867 172.575  1.00  0.00     0.180 A 
ATOM      2  C   UNL     1     173.373 170.052 171.664  1.00  0.00     0.208 A 
ATOM      3  C   UNL     1     172.225 169.252 171.780  1.00  0.00     0.238 A 
ATOM      4  O   UNL     1     171.309 169.384 170.929  1.00  0.00    -0.285 OA
ATOM      5  C   UNL     1     172.137 168.290 172.816  1.00  0.00     0.111 A 
ATOM      6  C   UNL     1     171.005 167.455 173.052  1.00  0.00     0.134 A 
ATOM      7  C   UNL     1     171.080 166.449 174.024  1.00  0.00     0.093 A 
ATOM      8  C   UNL     1     172.223 166.293 174.812  1.00  0.00     0.123 A 
ATOM      9  C   UNL     1     173.311 167.142 174.628  1.00  0.00     0.094 A 
ATOM     10  C   UNL     1     173.280 168.132 173.643  1.00  0.00     0.146 A 
ATOM     11  O   UNL     1     174.343 168.913 173.495  1.00  0.00    -0.452 OA
ENDROOT
BRANCH   1  12
ATOM     12  C   UNL     1     175.659 170.688 172.533  1.00  0.00     0.021 A 
ATOM     13  C   UNL     1     176.721 170.299 171.701  1.00  0.00     0.016 A 
ATOM     14  C   UNL     1     177.902 171.048 171.662  1.00  0.00     0.047 A 
ATOM     15  C   UNL     1     178.042 172.184 172.464  1.00  0.00     0.115 A 
ATOM     16  C   UNL     1     175.813 171.822 173.352  1.00  0.00     0.016 A 
ATOM     17  C   UNL     1     176.995 172.568 173.313  1.00  0.00     0.047 A 
BRANCH  15  18
ATOM     18  O   UNL     1     179.222 172.921 172.415  1.00  0.00    -0.508 OA
ATOM     19  H   UNL     1     180.125 172.484 172.556  1.00  0.00     0.293 HD
ENDBRANCH  15  18
ENDBRANCH   1  12
BRANCH   2  20
ATOM     20  O   UNL     1     173.490 170.991 170.635  1.00  0.00    -0.502 OA
ATOM     21  H   UNL     1     173.443 170.735 169.657  1.00  0.00     0.293 HD
ENDBRANCH   2  20
BRANCH   6  22
ATOM     22  O   UNL     1     169.783 167.588 172.384  1.00  0.00    -0.507 OA
ATOM     23  H   UNL     1     168.988 168.096 172.740  1.00  0.00     0.293 HD
ENDBRANCH   6  22
BRANCH   8  24
ATOM     24  O   UNL     1     172.282 165.299 175.787  1.00  0.00    -0.508 OA
ATOM     25  H   UNL     1     173.020 165.280 176.481  1.00  0.00     0.293 HD
ENDBRANCH   8  24
TORSDOF 5
ENDMDL
MODEL 4
REMARK VINA RESULT:    -5.811      4.148      6.311
REMARK INTER + INTRA:          -6.853
REMARK INTER:                  -6.789
REMARK INTRA:                  -0.065
REMARK UNBOUND:                -0.023
REMARK SMILES O=c1c(O)c(-c2ccc(O)cc2)oc2cc(O)cc(O)c12
REMARK SMILES IDX 5 1 3 2 2 3 1 4 21 5 19 6 18 7 16 8 15 9 14 10 13 11 6 12
REMARK SMILES IDX 7 13 8 14 9 15 12 16 11 17 10 18 4 20 20 22 17 24
REMARK H PARENT 10 19 4 21 20 23 17 25
REMARK Flexibility Score: inf
ROOT
ATOM      1  C   UNL     1     176.277 169.117 170.453  1.00  0.00     0.180 A 
ATOM      2  C   UNL     1     175.155 169.087 169.608  1.00  0.00     0.208 A 
ATOM      3  C   UNL     1     174.973 167.986 168.755  1.00  0.00     0.238 A 
ATOM      4  O   UNL     1     173.996 167.991 167.962  1.00  0.00    -0.285 OA
ATOM      5  C   UNL     1     175.906 166.921 168.772  1.00  0.00     0.111 A 
ATOM      6  C   UNL     1     175.798 165.738 167.981  1.00  0.00     0.134 A 
ATOM      7  C   UNL     1     176.847 164.810 167.982  1.00  0.00     0.093 A 
ATOM      8  C   UNL     1     177.969 164.991 168.795  1.00  0.00     0.123 A 
ATOM      9  C   UNL     1     178.055 166.113 169.615  1.00  0.00     0.094 A 
ATOM     10  C   UNL     1     177.041 167.075 169.610  1.00  0.00     0.146 A 
ATOM     11  O   UNL     1     177.168 168.134 170.399  1.00  0.00    -0.452 OA
ENDROOT
BRANCH   1  12
ATOM     12  C   UNL     1     176.523 170.231 171.397  1.00  0.00     0.021 A 
ATOM     13  C   UNL     1     177.762 170.893 171.377  1.00  0.00     0.016 A 
ATOM     14  C   UNL     1     178.023 171.933 172.275  1.00  0.00     0.047 A 
ATOM     15  C   UNL     1     177.059 172.314 173.212  1.00  0.00     0.115 A 
ATOM     16  C   UNL     1     175.563 170.607 172.355  1.00  0.00     0.016 A 
ATOM     17  C   UNL     1     175.828 171.646 173.252  1.00  0.00     0.047 A 
BRANCH  15  18
ATOM     18  O   UNL     1     177.333 173.353 174.098  1.00  0.00    -0.508 OA
ATOM     19  H   UNL     1     177.171 173.255 175.094  1.00  0.00     0.293 HD
ENDBRANCH  15  18
ENDBRANCH   1  12
BRANCH   2  20
ATOM     20  O   UNL     1     174.258 170.160 169.591  1.00  0.00    -0.502 OA
ATOM     21  H   UNL     1     173.845 170.536 170.435  1.00  0.00     0.293 HD
ENDBRANCH   2  20
BRANCH   6  22
ATOM     22  O   UNL     1     174.681 165.416 167.205  1.00  0.00    -0.507 OA
ATOM     23  H   UNL     1     174.114 166.087 166.709  1.00  0.00     0.293 HD
ENDBRANCH   6  22
BRANCH   8  24
ATOM     24  O   UNL     1     179.000 164.054 168.801  1.00  0.00    -0.508 OA
ATOM     25  H   UNL     1     179.763 164.108 169.466  1.00  0.00     0.293 HD
ENDBRANCH   8  24
TORSDOF 5
ENDMDL
MODEL 5
REMARK VINA RESULT:    -5.720      3.597      4.153
REMARK INTER + INTRA:          -6.746
REMARK INTER:                  -6.589
REMARK INTRA:                  -0.158
REMARK UNBOUND:                -0.023
REMARK SMILES O=c1c(O)c(-c2ccc(O)cc2)oc2cc(O)cc(O)c12
REMARK SMILES IDX 5 1 3 2 2 3 1 4 21 5 19 6 18 7 16 8 15 9 14 10 13 11 6 12
REMARK SMILES IDX 7 13 8 14 9 15 12 16 11 17 10 18 4 20 20 22 17 24
REMARK H PARENT 10 19 4 21 20 23 17 25
REMARK Flexibility Score: inf
ROOT
ATOM      1  C   UNL     1     175.914 168.629 172.427  1.00  0.00     0.180 A 
ATOM      2  C   UNL     1     176.036 167.831 171.277  1.00  0.00     0.208 A 
ATOM      3  C   UNL     1     175.535 166.519 171.302  1.00  0.00     0.238 A 
ATOM      4  O   UNL     1     175.696 165.793 170.288  1.00  0.00    -0.285 OA
ATOM      5  C   UNL     1     174.904 166.028 172.470  1.00  0.00     0.111 A 
ATOM      6  C   UNL     1     174.325 164.730 172.592  1.00  0.00     0.134 A 
ATOM      7  C   UNL     1     173.843 164.304 173.837  1.00  0.00     0.093 A 
ATOM      8  C   UNL     1     173.861 165.154 174.946  1.00  0.00     0.123 A 
ATOM      9  C   UNL     1     174.370 166.444 174.820  1.00  0.00     0.094 A 
ATOM     10  C   UNL     1     174.891 166.885 173.601  1.00  0.00     0.146 A 
ATOM     11  O   UNL     1     175.376 168.118 173.528  1.00  0.00    -0.452 OA
ENDROOT
BRANCH   1  12
ATOM     12  C   UNL     1     176.395 170.029 172.470  1.00  0.00     0.021 A 
ATOM     13  C   UNL     1     177.400 170.388 173.384  1.00  0.00     0.016 A 
ATOM     14  C   UNL     1     177.852 171.709 173.456  1.00  0.00     0.047 A 
ATOM     15  C   UNL     1     177.298 172.690 172.629  1.00  0.00     0.115 A 
ATOM     16  C   UNL     1     175.827 171.025 171.654  1.00  0.00     0.016 A 
ATOM     17  C   UNL     1     176.280 172.345 171.729  1.00  0.00     0.047 A 
BRANCH  15  18
ATOM     18  O   UNL     1     177.759 174.001 172.711  1.00  0.00    -0.508 OA
ATOM     19  H   UNL     1     178.176 174.467 171.913  1.00  0.00     0.293 HD
ENDBRANCH  15  18
ENDBRANCH   1  12
BRANCH   2  20
ATOM     20  O   UNL     1     176.683 168.328 170.142  1.00  0.00    -0.502 OA
ATOM     21  H   UNL     1     177.634 168.676 170.166  1.00  0.00     0.293 HD
ENDBRANCH   2  20
BRANCH   6  22
ATOM     22  O   UNL     1     174.173 163.838 171.526  1.00  0.00    -0.507 OA
ATOM     23  H   UNL     1     174.910 163.257 171.155  1.00  0.00     0.293 HD
ENDBRANCH   6  22
BRANCH   8  24
ATOM     24  O   UNL     1     173.365 164.726 176.176  1.00  0.00    -0.508 OA
ATOM     25  H   UNL     1     172.750 163.924 176.250  1.00  0.00     0.293 HD
ENDBRANCH   8  24
TORSDOF 5
ENDMDL
MODEL 6
REMARK VINA RESULT:    -5.706      3.835      4.707
REMARK INTER + INTRA:          -6.730
REMARK INTER:                  -6.455
REMARK INTRA:                  -0.275
REMARK UNBOUND:                -0.023
REMARK SMILES O=c1c(O)c(-c2ccc(O)cc2)oc2cc(O)cc(O)c12
REMARK SMILES IDX 5 1 3 2 2 3 1 4 21 5 19 6 18 7 16 8 15 9 14 10 13 11 6 12
REMARK SMILES IDX 7 13 8 14 9 15 12 16 11 17 10 18 4 20 20 22 17 24
REMARK H PARENT 10 19 4 21 20 23 17 25
REMARK Flexibility Score: inf
ROOT
ATOM      1  C   UNL     1     175.895 169.420 170.960  1.00  0.00     0.180 A 
ATOM      2  C   UNL     1     175.844 168.074 171.359  1.00  0.00     0.208 A 
ATOM      3  C   UNL     1     175.359 167.113 170.456  1.00  0.00     0.238 A 
ATOM      4  O   UNL     1     175.265 165.918 170.838  1.00  0.00    -0.285 OA
ATOM      5  C   UNL     1     174.949 167.509 169.160  1.00  0.00     0.111 A 
ATOM      6  C   UNL     1     174.481 166.615 168.151  1.00  0.00     0.134 A 
ATOM      7  C   UNL     1     173.978 167.132 166.950  1.00  0.00     0.093 A 
ATOM      8  C   UNL     1     173.989 168.507 166.697  1.00  0.00     0.123 A 
ATOM      9  C   UNL     1     174.499 169.382 167.653  1.00  0.00     0.094 A 
ATOM     10  C   UNL     1     174.974 168.899 168.875  1.00  0.00     0.146 A 
ATOM     11  O   UNL     1     175.443 169.769 169.761  1.00  0.00    -0.452 OA
ENDROOT
BRANCH   1  12
ATOM     12  C   UNL     1     176.417 170.486 171.846  1.00  0.00     0.021 A 
ATOM     13  C   UNL     1     175.559 171.088 172.782  1.00  0.00     0.016 A 
ATOM     14  C   UNL     1     176.025 172.111 173.613  1.00  0.00     0.047 A 
ATOM     15  C   UNL     1     177.347 172.556 173.511  1.00  0.00     0.115 A 
ATOM     16  C   UNL     1     177.740 170.950 171.735  1.00  0.00     0.016 A 
ATOM     17  C   UNL     1     178.203 171.974 172.566  1.00  0.00     0.047 A 
BRANCH  15  18
ATOM     18  O   UNL     1     177.797 173.575 174.346  1.00  0.00    -0.508 OA
ATOM     19  H   UNL     1     177.268 174.429 174.472  1.00  0.00     0.293 HD
ENDBRANCH  15  18
ENDBRANCH   1  12
BRANCH   2  20
ATOM     20  O   UNL     1     176.233 167.708 172.651  1.00  0.00    -0.502 OA
ATOM     21  H   UNL     1     176.652 168.363 173.299  1.00  0.00     0.293 HD
ENDBRANCH   2  20
BRANCH   6  22
ATOM     22  O   UNL     1     174.512 165.222 168.265  1.00  0.00    -0.507 OA
ATOM     23  H   UNL     1     174.302 164.710 169.108  1.00  0.00     0.293 HD
ENDBRANCH   6  22
BRANCH   8  24
ATOM     24  O   UNL     1     173.501 169.011 165.493  1.00  0.00    -0.508 OA
ATOM     25  H   UNL     1     173.404 168.424 164.673  1.00  0.00     0.293 HD
ENDBRANCH   8  24
TORSDOF 5
ENDMDL
MODEL 7
REMARK VINA RESULT:    -5.701      2.778      2.895
REMARK INTER + INTRA:          -6.724
REMARK INTER:                  -6.449
REMARK INTRA:                  -0.275
REMARK UNBOUND:                -0.023
REMARK SMILES O=c1c(O)c(-c2ccc(O)cc2)oc2cc(O)cc(O)c12
REMARK SMILES IDX 5 1 3 2 2 3 1 4 21 5 19 6 18 7 16 8 15 9 14 10 13 11 6 12
REMARK SMILES IDX 7 13 8 14 9 15 12 16 11 17 10 18 4 20 20 22 17 24
REMARK H PARENT 10 19 4 21 20 23 17 25
REMARK Flexibility Score: inf
ROOT
ATOM      1  C   UNL     1     174.555 170.375 171.073  1.00  0.00     0.180 A 
ATOM      2  C   UNL     1     174.670 169.530 169.957  1.00  0.00     0.208 A 
ATOM      3  C   UNL     1     173.501 169.063 169.333  1.00  0.00     0.238 A 
ATOM      4  O   UNL     1     173.610 168.263 168.368  1.00  0.00    -0.285 OA
ATOM      5  C   UNL     1     172.234 169.461 169.823  1.00  0.00     0.111 A 
ATOM      6  C   UNL     1     170.986 169.082 169.244  1.00  0.00     0.134 A 
ATOM      7  C   UNL     1     169.792 169.428 169.889  1.00  0.00     0.093 A 
ATOM      8  C   UNL     1     169.801 170.196 171.057  1.00  0.00     0.123 A 
ATOM      9  C   UNL     1     171.012 170.620 171.597  1.00  0.00     0.094 A 
ATOM     10  C   UNL     1     172.221 170.261 170.995  1.00  0.00     0.146 A 
ATOM     11  O   UNL     1     173.353 170.679 171.548  1.00  0.00    -0.452 OA
ENDROOT
BRANCH   1  12
ATOM     12  C   UNL     1     175.740 170.928 171.769  1.00  0.00     0.021 A 
ATOM     13  C   UNL     1     176.376 170.167 172.763  1.00  0.00     0.016 A 
ATOM     14  C   UNL     1     177.483 170.679 173.447  1.00  0.00     0.047 A 
ATOM     15  C   UNL     1     177.959 171.961 173.158  1.00  0.00     0.115 A 
ATOM     16  C   UNL     1     176.213 172.225 171.495  1.00  0.00     0.016 A 
ATOM     17  C   UNL     1     177.319 172.735 172.181  1.00  0.00     0.047 A 
BRANCH  15  18
ATOM     18  O   UNL     1     179.063 172.457 173.846  1.00  0.00    -0.508 OA
ATOM     19  H   UNL     1     179.222 172.236 174.822  1.00  0.00     0.293 HD
ENDBRANCH  15  18
ENDBRANCH   1  12
BRANCH   2  20
ATOM     20  O   UNL     1     175.931 169.131 169.503  1.00  0.00    -0.502 OA
ATOM     21  H   UNL     1     176.220 168.160 169.486  1.00  0.00     0.293 HD
ENDBRANCH   2  20
BRANCH   6  22
ATOM     22  O   UNL     1     170.864 168.395 168.032  1.00  0.00    -0.507 OA
ATOM     23  H   UNL     1     171.385 167.567 167.787  1.00  0.00     0.293 HD
ENDBRANCH   6  22
BRANCH   8  24
ATOM     24  O   UNL     1     168.607 170.548 171.683  1.00  0.00    -0.508 OA
ATOM     25  H   UNL     1     167.785 169.959 171.628  1.00  0.00     0.293 HD
ENDBRANCH   8  24
TORSDOF 5
ENDMDL
MODEL 8
REMARK VINA RESULT:    -5.627      2.729      4.809
REMARK INTER + INTRA:          -6.637
REMARK INTER:                  -6.367
REMARK INTRA:                  -0.271
REMARK UNBOUND:                -0.023
REMARK SMILES O=c1c(O)c(-c2ccc(O)cc2)oc2cc(O)cc(O)c12
REMARK SMILES IDX 5 1 3 2 2 3 1 4 21 5 19 6 18 7 16 8 15 9 14 10 13 11 6 12
REMARK SMILES IDX 7 13 8 14 9 15 12 16 11 17 10 18 4 20 20 22 17 24
REMARK H PARENT 10 19 4 21 20 23 17 25
REMARK Flexibility Score: inf
ROOT
ATOM      1  C   UNL     1     175.613 168.794 172.334  1.00  0.00     0.180 A 
ATOM      2  C   UNL     1     174.407 168.463 172.975  1.00  0.00     0.208 A 
ATOM      3  C   UNL     1     173.946 167.138 172.916  1.00  0.00     0.238 A 
ATOM      4  O   UNL     1     172.839 166.860 173.445  1.00  0.00    -0.285 OA
ATOM      5  C   UNL     1     174.706 166.157 172.234  1.00  0.00     0.111 A 
ATOM      6  C   UNL     1     174.355 164.777 172.146  1.00  0.00     0.134 A 
ATOM      7  C   UNL     1     175.112 163.922 171.335  1.00  0.00     0.093 A 
ATOM      8  C   UNL     1     176.245 164.386 170.661  1.00  0.00     0.123 A 
ATOM      9  C   UNL     1     176.629 165.718 170.788  1.00  0.00     0.094 A 
ATOM     10  C   UNL     1     175.874 166.603 171.561  1.00  0.00     0.146 A 
ATOM     11  O   UNL     1     176.269 167.867 171.647  1.00  0.00    -0.452 OA
ENDROOT
BRANCH   1  12
ATOM     12  C   UNL     1     176.176 170.164 172.372  1.00  0.00     0.021 A 
ATOM     13  C   UNL     1     175.728 171.122 171.448  1.00  0.00     0.016 A 
ATOM     14  C   UNL     1     176.262 172.414 171.452  1.00  0.00     0.047 A 
ATOM     15  C   UNL     1     177.259 172.761 172.368  1.00  0.00     0.115 A 
ATOM     16  C   UNL     1     177.193 170.513 173.279  1.00  0.00     0.016 A 
ATOM     17  C   UNL     1     177.726 171.806 173.281  1.00  0.00     0.047 A 
BRANCH  15  18
ATOM     18  O   UNL     1     177.781 174.052 172.362  1.00  0.00    -0.508 OA
ATOM     19  H   UNL     1     177.310 174.816 172.834  1.00  0.00     0.293 HD
ENDBRANCH  15  18
ENDBRANCH   1  12
BRANCH   2  20
ATOM     20  O   UNL     1     173.661 169.451 173.624  1.00  0.00    -0.502 OA
ATOM     21  H   UNL     1     173.300 170.266 173.142  1.00  0.00     0.293 HD
ENDBRANCH   2  20
BRANCH   6  22
ATOM     22  O   UNL     1     173.298 164.193 172.852  1.00  0.00    -0.507 OA
ATOM     23  H   UNL     1     173.408 163.557 173.627  1.00  0.00     0.293 HD
ENDBRANCH   6  22
BRANCH   8  24
ATOM     24  O   UNL     1     177.001 163.524 169.869  1.00  0.00    -0.508 OA
ATOM     25  H   UNL     1     176.672 162.596 169.631  1.00  0.00     0.293 HD
ENDBRANCH   8  24
TORSDOF 5
ENDMDL
MODEL 9
REMARK VINA RESULT:    -5.605      3.287      5.207
REMARK INTER + INTRA:          -6.612
REMARK INTER:                  -6.320
REMARK INTRA:                  -0.292
REMARK UNBOUND:                -0.023
REMARK SMILES O=c1c(O)c(-c2ccc(O)cc2)oc2cc(O)cc(O)c12
REMARK SMILES IDX 5 1 3 2 2 3 1 4 21 5 19 6 18 7 16 8 15 9 14 10 13 11 6 12
REMARK SMILES IDX 7 13 8 14 9 15 12 16 11 17 10 18 4 20 20 22 17 24
REMARK H PARENT 10 19 4 21 20 23 17 25
REMARK Flexibility Score: inf
ROOT
ATOM      1  C   UNL     1     175.986 168.864 171.689  1.00  0.00     0.180 A 
ATOM      2  C   UNL     1     174.864 168.235 172.252  1.00  0.00     0.208 A 
ATOM      3  C   UNL     1     174.475 166.975 171.769  1.00  0.00     0.238 A 
ATOM      4  O   UNL     1     173.438 166.441 172.239  1.00  0.00    -0.285 OA
ATOM      5  C   UNL     1     175.224 166.353 170.741  1.00  0.00     0.111 A 
ATOM      6  C   UNL     1     174.946 165.061 170.204  1.00  0.00     0.134 A 
ATOM      7  C   UNL     1     175.674 164.600 169.100  1.00  0.00     0.093 A 
ATOM      8  C   UNL     1     176.714 165.359 168.555  1.00  0.00     0.123 A 
ATOM      9  C   UNL     1     177.031 166.596 169.111  1.00  0.00     0.094 A 
ATOM     10  C   UNL     1     176.300 167.098 170.190  1.00  0.00     0.146 A 
ATOM     11  O   UNL     1     176.630 168.285 170.682  1.00  0.00    -0.452 OA
ENDROOT
BRANCH   1  12
ATOM     12  C   UNL     1     176.472 170.181 172.162  1.00  0.00     0.021 A 
ATOM     13  C   UNL     1     176.127 171.342 171.451  1.00  0.00     0.016 A 
ATOM     14  C   UNL     1     176.594 172.593 171.868  1.00  0.00     0.047 A 
ATOM     15  C   UNL     1     177.421 172.698 172.990  1.00  0.00     0.115 A 
ATOM     16  C   UNL     1     177.321 170.291 173.279  1.00  0.00     0.016 A 
ATOM     17  C   UNL     1     177.787 171.543 173.693  1.00  0.00     0.047 A 
BRANCH  15  18
ATOM     18  O   UNL     1     177.877 173.950 173.394  1.00  0.00    -0.508 OA
ATOM     19  H   UNL     1     178.390 174.073 174.259  1.00  0.00     0.293 HD
ENDBRANCH  15  18
ENDBRANCH   1  12
BRANCH   2  20
ATOM     20  O   UNL     1     174.125 168.876 173.251  1.00  0.00    -0.502 OA
ATOM     21  H   UNL     1     173.112 168.895 173.251  1.00  0.00     0.293 HD
ENDBRANCH   2  20
BRANCH   6  22
ATOM     22  O   UNL     1     173.992 164.185 170.731  1.00  0.00    -0.507 OA
ATOM     23  H   UNL     1     174.205 163.308 171.181  1.00  0.00     0.293 HD
ENDBRANCH   6  22
BRANCH   8  24
ATOM     24  O   UNL     1     177.442 164.886 167.466  1.00  0.00    -0.508 OA
ATOM     25  H   UNL     1     177.998 165.507 166.889  1.00  0.00     0.293 HD
ENDBRANCH   8  24
TORSDOF 5
ENDMDL
