MODEL 1
REMARK VINA RESULT:    -2.419      0.000      0.000
REMARK INTER + INTRA:          -2.226
REMARK INTER:                  -3.409
REMARK INTRA:                   1.183
REMARK UNBOUND:                 1.183
REMARK SMILES CC1=CCC(=C(C)C)C(=O)CC(C)=CCC1
REMARK SMILES IDX 12 1 14 2 13 3 15 4 16 5 2 6 1 7 3 8 11 10 9 11 10 12 5 13
REMARK SMILES IDX 6 14 7 15 8 16 4 17
REMARK H PARENT
REMARK Flexibility Score: 60.00
ROOT
ATOM      1  C   UNL     1       4.633  15.327  -8.778  1.00  0.00    -0.070 C 
ATOM      2  C   UNL     1       5.805  14.660  -8.897  1.00  0.00    -0.027 C 
ATOM      3  C   UNL     1       4.681  16.787  -8.403  1.00  0.00     0.039 C 
ENDROOT
BRANCH   2   4
ATOM      4  C   UNL     1       5.935  13.176  -9.120  1.00  0.00     0.032 C 
BRANCH   4   5
ATOM      5  C   UNL     1       5.507  12.421  -7.856  1.00  0.00     0.034 C 
BRANCH   5   6
ATOM      6  C   UNL     1       4.161  11.745  -8.013  1.00  0.00    -0.077 C 
ATOM      7  C   UNL     1       3.980  10.742  -9.125  1.00  0.00     0.039 C 
ATOM      8  C   UNL     1       3.121  11.935  -7.162  1.00  0.00    -0.023 CG0
ATOM      9  G   UNL     1       3.039  12.925  -6.013  1.00  0.00     0.000 G0
ENDBRANCH   5   6
ENDBRANCH   4   5
ENDBRANCH   2   4
BRANCH   1  10
ATOM     10  C   UNL     1       3.281  14.686  -9.022  1.00  0.00     0.111 C 
BRANCH  10  11
ATOM     11  C   UNL     1       2.411  14.720  -7.787  1.00  0.00     0.163 C 
ATOM     12  O   UNL     1       1.196  15.014  -7.951  1.00  0.00    -0.294 OA
BRANCH  11  13
ATOM     13  C   UNL     1       2.909  14.404  -6.407  1.00  0.00    -0.002 C 
ATOM     14  C   UNL     1       3.091  15.402  -5.488  1.00  0.00    -0.069 C 
ATOM     15  C   UNL     1       3.363  15.109  -4.031  1.00  0.00     0.039 C 
ATOM     16  C   UNL     1       3.080  16.859  -5.893  1.00  0.00     0.039 C 
BRANCH  13  17
ATOM     17  C   UNL     1       3.025  12.936  -6.012  1.00  0.00     0.066 CG0
ATOM     18  G   UNL     1       3.129  11.935  -7.150  1.00  0.00     0.000 G0
ENDBRANCH  13  17
ENDBRANCH  11  13
ENDBRANCH  10  11
ENDBRANCH   1  10
TORSDOF 0
ENDMDL
MODEL 2
REMARK VINA RESULT:    -2.139      2.005      3.041
REMARK INTER + INTRA:          -1.832
REMARK INTER:                  -2.515
REMARK INTRA:                   0.682
REMARK UNBOUND:                 1.183
REMARK SMILES CC1=CCC(=C(C)C)C(=O)CC(C)=CCC1
REMARK SMILES IDX 12 1 14 2 13 3 15 4 16 5 2 6 1 7 3 8 11 10 9 11 10 12 5 13
REMARK SMILES IDX 6 14 7 15 8 16 4 17
REMARK H PARENT
REMARK Flexibility Score: 60.00
ROOT
ATOM      1  C   UNL     1       2.438  13.524  -7.861  1.00  0.00    -0.070 C 
ATOM      2  C   UNL     1       3.324  12.561  -8.206  1.00  0.00    -0.027 C 
ATOM      3  C   UNL     1       1.886  14.405  -8.953  1.00  0.00     0.039 C 
ENDROOT
BRANCH   2   4
ATOM      4  C   UNL     1       4.080  11.694  -7.232  1.00  0.00     0.032 C 
BRANCH   4   5
ATOM      5  C   UNL     1       5.362  12.408  -6.788  1.00  0.00     0.034 C 
BRANCH   5   6
ATOM      6  C   UNL     1       5.797  13.480  -7.766  1.00  0.00    -0.077 C 
ATOM      7  C   UNL     1       6.299  13.058  -9.125  1.00  0.00     0.039 C 
ATOM      8  C   UNL     1       5.694  14.810  -7.519  1.00  0.00    -0.023 CG0
ATOM      9  G   UNL     1       5.277  15.476  -6.219  1.00  0.00     0.000 G0
ENDBRANCH   5   6
ENDBRANCH   4   5
ENDBRANCH   2   4
BRANCH   1  10
ATOM     10  C   UNL     1       1.962  13.748  -6.440  1.00  0.00     0.111 C 
BRANCH  10  11
ATOM     11  C   UNL     1       3.033  14.372  -5.577  1.00  0.00     0.163 C 
ATOM     12  O   UNL     1       3.313  13.786  -4.496  1.00  0.00    -0.294 OA
BRANCH  11  13
ATOM     13  C   UNL     1       3.782  15.618  -5.949  1.00  0.00    -0.002 C 
ATOM     14  C   UNL     1       3.170  16.842  -5.885  1.00  0.00    -0.069 C 
ATOM     15  C   UNL     1       3.945  18.132  -6.023  1.00  0.00     0.039 C 
ATOM     16  C   UNL     1       1.672  16.967  -5.723  1.00  0.00     0.039 C 
BRANCH  13  17
ATOM     17  C   UNL     1       5.277  15.497  -6.217  1.00  0.00     0.066 CG0
ATOM     18  G   UNL     1       5.679  14.806  -7.508  1.00  0.00     0.000 G0
ENDBRANCH  13  17
ENDBRANCH  11  13
ENDBRANCH  10  11
ENDBRANCH   1  10
TORSDOF 0
ENDMDL
MODEL 3
REMARK VINA RESULT:    -1.671      1.674      4.816
REMARK INTER + INTRA:          -1.173
REMARK INTER:                  -1.853
REMARK INTRA:                   0.680
REMARK UNBOUND:                 1.183
REMARK SMILES CC1=CCC(=C(C)C)C(=O)CC(C)=CCC1
REMARK SMILES IDX 12 1 14 2 13 3 15 4 16 5 2 6 1 7 3 8 11 10 9 11 10 12 5 13
REMARK SMILES IDX 6 14 7 15 8 16 4 17
REMARK H PARENT
REMARK Flexibility Score: 60.00
ROOT
ATOM      1  C   UNL     1       2.727  13.508  -5.743  1.00  0.00    -0.070 C 
ATOM      2  C   UNL     1       3.181  14.136  -4.633  1.00  0.00    -0.027 C 
ATOM      3  C   UNL     1       3.077  12.055  -5.931  1.00  0.00     0.039 C 
ENDROOT
BRANCH   2   4
ATOM      4  C   UNL     1       3.050  15.612  -4.360  1.00  0.00     0.032 C 
BRANCH   4   5
ATOM      5  C   UNL     1       4.212  16.367  -5.016  1.00  0.00     0.034 C 
BRANCH   5   6
ATOM      6  C   UNL     1       3.786  17.117  -6.262  1.00  0.00    -0.077 C 
ATOM      7  C   UNL     1       2.968  18.375  -6.105  1.00  0.00     0.039 C 
ATOM      8  C   UNL     1       4.160  16.763  -7.517  1.00  0.00    -0.023 CG0
ATOM      9  G   UNL     1       4.927  15.520  -7.934  1.00  0.00     0.000 G0
ENDBRANCH   5   6
ENDBRANCH   4   5
ENDBRANCH   2   4
BRANCH   1  10
ATOM     10  C   UNL     1       1.869  14.189  -6.792  1.00  0.00     0.111 C 
BRANCH  10  11
ATOM     11  C   UNL     1       2.611  14.370  -8.095  1.00  0.00     0.163 C 
ATOM     12  O   UNL     1       1.920  14.635  -9.116  1.00  0.00    -0.294 OA
BRANCH  11  13
ATOM     13  C   UNL     1       4.103  14.274  -8.226  1.00  0.00    -0.002 C 
ATOM     14  C   UNL     1       4.683  13.155  -8.762  1.00  0.00    -0.069 C 
ATOM     15  C   UNL     1       6.149  13.109  -9.125  1.00  0.00     0.039 C 
ATOM     16  C   UNL     1       3.895  11.881  -8.972  1.00  0.00     0.039 C 
BRANCH  13  17
ATOM     17  C   UNL     1       4.925  15.520  -7.919  1.00  0.00     0.066 CG0
ATOM     18  G   UNL     1       4.147  16.767  -7.537  1.00  0.00     0.000 G0
ENDBRANCH  13  17
ENDBRANCH  11  13
ENDBRANCH  10  11
ENDBRANCH   1  10
TORSDOF 0
ENDMDL
MODEL 4
REMARK VINA RESULT:    -1.556      1.699      2.602
REMARK INTER + INTRA:          -1.011
REMARK INTER:                  -1.719
REMARK INTRA:                   0.708
REMARK UNBOUND:                 1.183
REMARK SMILES CC1=CCC(=C(C)C)C(=O)CC(C)=CCC1
REMARK SMILES IDX 12 1 14 2 13 3 15 4 16 5 2 6 1 7 3 8 11 10 9 11 10 12 5 13
REMARK SMILES IDX 6 14 7 15 8 16 4 17
REMARK H PARENT
REMARK Flexibility Score: 60.00
ROOT
ATOM      1  C   UNL     1       5.192  14.177  -8.574  1.00  0.00    -0.070 C 
ATOM      2  C   UNL     1       4.016  13.797  -9.125  1.00  0.00    -0.027 C 
ATOM      3  C   UNL     1       6.390  13.283  -8.770  1.00  0.00     0.039 C 
ENDROOT
BRANCH   2   4
ATOM      4  C   UNL     1       2.696  14.491  -8.907  1.00  0.00     0.032 C 
BRANCH   4   5
ATOM      5  C   UNL     1       1.842  13.684  -7.923  1.00  0.00     0.034 C 
BRANCH   5   6
ATOM      6  C   UNL     1       2.646  12.635  -7.181  1.00  0.00    -0.077 C 
ATOM      7  C   UNL     1       2.869  11.296  -7.839  1.00  0.00     0.039 C 
ATOM      8  C   UNL     1       3.243  12.855  -5.983  1.00  0.00    -0.023 CG0
ATOM      9  G   UNL     1       3.120  14.087  -5.104  1.00  0.00     0.000 G0
ENDBRANCH   5   6
ENDBRANCH   4   5
ENDBRANCH   2   4
BRANCH   1  10
ATOM     10  C   UNL     1       5.368  15.462  -7.789  1.00  0.00     0.111 C 
BRANCH  10  11
ATOM     11  C   UNL     1       5.110  15.262  -6.315  1.00  0.00     0.163 C 
ATOM     12  O   UNL     1       6.110  15.025  -5.584  1.00  0.00    -0.294 OA
BRANCH  11  13
ATOM     13  C   UNL     1       3.750  15.351  -5.686  1.00  0.00    -0.002 C 
ATOM     14  C   UNL     1       3.017  16.504  -5.777  1.00  0.00    -0.069 C 
ATOM     15  C   UNL     1       1.563  16.562  -5.366  1.00  0.00     0.039 C 
ATOM     16  C   UNL     1       3.637  17.799  -6.247  1.00  0.00     0.039 C 
BRANCH  13  17
ATOM     17  C   UNL     1       3.146  14.074  -5.113  1.00  0.00     0.066 CG0
ATOM     18  G   UNL     1       3.250  12.829  -5.976  1.00  0.00     0.000 G0
ENDBRANCH  13  17
ENDBRANCH  11  13
ENDBRANCH  10  11
ENDBRANCH   1  10
TORSDOF 0
ENDMDL
MODEL 5
REMARK VINA RESULT:    -1.476      1.895      3.184
REMARK INTER + INTRA:          -0.897
REMARK INTER:                  -3.298
REMARK INTRA:                   2.401
REMARK UNBOUND:                 1.183
REMARK SMILES CC1=CCC(=C(C)C)C(=O)CC(C)=CCC1
REMARK SMILES IDX 12 1 14 2 13 3 15 4 16 5 2 6 1 7 3 8 11 10 9 11 10 12 5 13
REMARK SMILES IDX 6 14 7 15 8 16 4 17
REMARK H PARENT
REMARK Flexibility Score: 60.00
ROOT
ATOM      1  C   UNL     1       2.975  15.494  -6.945  1.00  0.00    -0.070 C 
ATOM      2  C   UNL     1       2.432  14.529  -6.167  1.00  0.00    -0.027 C 
ATOM      3  C   UNL     1       3.182  16.860  -6.343  1.00  0.00     0.039 C 
ENDROOT
BRANCH   2   4
ATOM      4  C   UNL     1       2.024  13.160  -6.646  1.00  0.00     0.032 C 
BRANCH   4   5
ATOM      5  C   UNL     1       2.598  12.907  -8.045  1.00  0.00     0.034 C 
BRANCH   5   6
ATOM      6  C   UNL     1       3.285  11.561  -8.154  1.00  0.00    -0.077 C 
ATOM      7  C   UNL     1       2.467  10.311  -7.939  1.00  0.00     0.039 C 
ATOM      8  C   UNL     1       4.586  11.408  -8.507  1.00  0.00    -0.023 CG0
ATOM      9  G   UNL     1       5.619  12.501  -8.717  1.00  0.00     0.000 G0
ENDBRANCH   5   6
ENDBRANCH   4   5
ENDBRANCH   2   4
BRANCH   1  10
ATOM     10  C   UNL     1       3.403  15.263  -8.381  1.00  0.00     0.111 C 
BRANCH  10  11
ATOM     11  C   UNL     1       4.880  14.963  -8.488  1.00  0.00     0.163 C 
ATOM     12  O   UNL     1       5.588  15.790  -9.123  1.00  0.00    -0.294 OA
BRANCH  11  13
ATOM     13  C   UNL     1       5.534  13.763  -7.868  1.00  0.00    -0.002 C 
ATOM     14  C   UNL     1       5.857  13.758  -6.537  1.00  0.00    -0.069 C 
ATOM     15  C   UNL     1       6.298  12.499  -5.825  1.00  0.00     0.039 C 
ATOM     16  C   UNL     1       5.839  15.027  -5.715  1.00  0.00     0.039 C 
BRANCH  13  17
ATOM     17  C   UNL     1       5.656  12.502  -8.714  1.00  0.00     0.066 CG0
ATOM     18  G   UNL     1       4.585  11.444  -8.510  1.00  0.00     0.000 G0
ENDBRANCH  13  17
ENDBRANCH  11  13
ENDBRANCH  10  11
ENDBRANCH   1  10
TORSDOF 0
ENDMDL
MODEL 6
REMARK VINA RESULT:    -1.351      1.827      3.483
REMARK INTER + INTRA:          -0.721
REMARK INTER:                  -3.240
REMARK INTRA:                   2.518
REMARK UNBOUND:                 1.183
REMARK SMILES CC1=CCC(=C(C)C)C(=O)CC(C)=CCC1
REMARK SMILES IDX 12 1 14 2 13 3 15 4 16 5 2 6 1 7 3 8 11 10 9 11 10 12 5 13
REMARK SMILES IDX 6 14 7 15 8 16 4 17
REMARK H PARENT
REMARK Flexibility Score: 60.00
ROOT
ATOM      1  C   UNL     1       3.132  11.388  -8.597  1.00  0.00    -0.070 C 
ATOM      2  C   UNL     1       4.462  11.191  -8.755  1.00  0.00    -0.027 C 
ATOM      3  C   UNL     1       2.254  10.181  -8.392  1.00  0.00     0.039 C 
ENDROOT
BRANCH   2   4
ATOM      4  C   UNL     1       5.458  12.263  -9.114  1.00  0.00     0.032 C 
BRANCH   4   5
ATOM      5  C   UNL     1       5.428  13.374  -8.058  1.00  0.00     0.034 C 
BRANCH   5   6
ATOM      6  C   UNL     1       5.725  14.739  -8.645  1.00  0.00    -0.077 C 
ATOM      7  C   UNL     1       7.125  15.031  -9.125  1.00  0.00     0.039 C 
ATOM      8  C   UNL     1       4.783  15.697  -8.833  1.00  0.00    -0.023 CG0
ATOM      9  G   UNL     1       3.332  15.663  -8.387  1.00  0.00     0.000 G0
ENDBRANCH   5   6
ENDBRANCH   4   5
ENDBRANCH   2   4
BRANCH   1  10
ATOM     10  C   UNL     1       2.489  12.761  -8.597  1.00  0.00     0.111 C 
BRANCH  10  11
ATOM     11  C   UNL     1       2.649  13.458  -7.267  1.00  0.00     0.163 C 
ATOM     12  O   UNL     1       2.475  12.761  -6.230  1.00  0.00    -0.294 OA
BRANCH  11  13
ATOM     13  C   UNL     1       3.018  14.905  -7.122  1.00  0.00    -0.002 C 
ATOM     14  C   UNL     1       3.211  15.453  -5.882  1.00  0.00    -0.069 C 
ATOM     15  C   UNL     1       3.807  16.830  -5.699  1.00  0.00     0.039 C 
ATOM     16  C   UNL     1       2.791  14.727  -4.625  1.00  0.00     0.039 C 
BRANCH  13  17
ATOM     17  C   UNL     1       3.348  15.685  -8.390  1.00  0.00     0.066 CG0
ATOM     18  G   UNL     1       4.800  15.672  -8.834  1.00  0.00     0.000 G0
ENDBRANCH  13  17
ENDBRANCH  11  13
ENDBRANCH  10  11
ENDBRANCH   1  10
TORSDOF 0
ENDMDL
MODEL 7
REMARK VINA RESULT:    -1.334      2.145      4.632
REMARK INTER + INTRA:          -0.698
REMARK INTER:                  -1.286
REMARK INTRA:                   0.588
REMARK UNBOUND:                 1.183
REMARK SMILES CC1=CCC(=C(C)C)C(=O)CC(C)=CCC1
REMARK SMILES IDX 12 1 14 2 13 3 15 4 16 5 2 6 1 7 3 8 11 10 9 11 10 12 5 13
REMARK SMILES IDX 6 14 7 15 8 16 4 17
REMARK H PARENT
REMARK Flexibility Score: 60.00
ROOT
ATOM      1  C   UNL     1       3.500  14.390  -5.313  1.00  0.00    -0.070 C 
ATOM      2  C   UNL     1       2.504  14.973  -6.018  1.00  0.00    -0.027 C 
ATOM      3  C   UNL     1       3.138  13.640  -4.057  1.00  0.00     0.039 C 
ENDROOT
BRANCH   2   4
ATOM      4  C   UNL     1       2.701  15.878  -7.207  1.00  0.00     0.032 C 
BRANCH   4   5
ATOM      5  C   UNL     1       3.226  15.067  -8.396  1.00  0.00     0.034 C 
BRANCH   5   6
ATOM      6  C   UNL     1       4.589  15.537  -8.862  1.00  0.00    -0.077 C 
ATOM      7  C   UNL     1       4.806  17.012  -9.093  1.00  0.00     0.039 C 
ATOM      8  C   UNL     1       5.656  14.713  -9.015  1.00  0.00    -0.023 CG0
ATOM      9  G   UNL     1       5.676  13.199  -8.898  1.00  0.00     0.000 G0
ENDBRANCH   5   6
ENDBRANCH   4   5
ENDBRANCH   2   4
BRANCH   1  10
ATOM     10  C   UNL     1       4.956  14.439  -5.733  1.00  0.00     0.111 C 
BRANCH  10  11
ATOM     11  C   UNL     1       5.420  13.123  -6.312  1.00  0.00     0.163 C 
ATOM     12  O   UNL     1       6.187  12.421  -5.599  1.00  0.00    -0.294 OA
BRANCH  11  13
ATOM     13  C   UNL     1       5.002  12.612  -7.660  1.00  0.00    -0.002 C 
ATOM     14  C   UNL     1       3.933  11.764  -7.780  1.00  0.00    -0.069 C 
ATOM     15  C   UNL     1       3.338  11.413  -9.125  1.00  0.00     0.039 C 
ATOM     16  C   UNL     1       3.320  11.089  -6.574  1.00  0.00     0.039 C 
BRANCH  13  17
ATOM     17  C   UNL     1       5.681  13.206  -8.888  1.00  0.00     0.066 CG0
ATOM     18  G   UNL     1       5.662  14.720  -9.006  1.00  0.00     0.000 G0
ENDBRANCH  13  17
ENDBRANCH  11  13
ENDBRANCH  10  11
ENDBRANCH   1  10
TORSDOF 0
ENDMDL
MODEL 8
REMARK VINA RESULT:    -1.209      2.121      4.546
REMARK INTER + INTRA:          -0.522
REMARK INTER:                  -2.126
REMARK INTRA:                   1.604
REMARK UNBOUND:                 1.183
REMARK SMILES CC1=CCC(=C(C)C)C(=O)CC(C)=CCC1
REMARK SMILES IDX 12 1 14 2 13 3 15 4 16 5 2 6 1 7 3 8 11 10 9 11 10 12 5 13
REMARK SMILES IDX 6 14 7 15 8 16 4 17
REMARK H PARENT
REMARK Flexibility Score: 60.00
ROOT
ATOM      1  C   UNL     1       2.699  13.817  -8.388  1.00  0.00    -0.070 C 
ATOM      2  C   UNL     1       1.741  14.086  -7.471  1.00  0.00    -0.027 C 
ATOM      3  C   UNL     1       2.790  12.413  -8.929  1.00  0.00     0.039 C 
ENDROOT
BRANCH   2   4
ATOM      4  C   UNL     1       1.602  15.387  -6.723  1.00  0.00     0.032 C 
BRANCH   4   5
ATOM      5  C   UNL     1       2.611  15.435  -5.571  1.00  0.00     0.034 C 
BRANCH   5   6
ATOM      6  C   UNL     1       3.706  16.457  -5.802  1.00  0.00    -0.077 C 
ATOM      7  C   UNL     1       3.328  17.916  -5.880  1.00  0.00     0.039 C 
ATOM      8  C   UNL     1       5.024  16.144  -5.871  1.00  0.00    -0.023 CG0
ATOM      9  G   UNL     1       5.643  14.757  -5.876  1.00  0.00     0.000 G0
ENDBRANCH   5   6
ENDBRANCH   4   5
ENDBRANCH   2   4
BRANCH   1  10
ATOM     10  C   UNL     1       3.668  14.859  -8.911  1.00  0.00     0.111 C 
BRANCH  10  11
ATOM     11  C   UNL     1       5.074  14.622  -8.412  1.00  0.00     0.163 C 
ATOM     12  O   UNL     1       6.016  15.073  -9.118  1.00  0.00    -0.294 OA
BRANCH  11  13
ATOM     13  C   UNL     1       5.395  13.910  -7.131  1.00  0.00    -0.002 C 
ATOM     14  C   UNL     1       5.624  12.560  -7.125  1.00  0.00    -0.069 C 
ATOM     15  C   UNL     1       6.175  11.847  -5.912  1.00  0.00     0.039 C 
ATOM     16  C   UNL     1       5.288  11.697  -8.321  1.00  0.00     0.039 C 
BRANCH  13  17
ATOM     17  C   UNL     1       5.637  14.757  -5.888  1.00  0.00     0.066 CG0
ATOM     18  G   UNL     1       5.018  16.144  -5.882  1.00  0.00     0.000 G0
ENDBRANCH  13  17
ENDBRANCH  11  13
ENDBRANCH  10  11
ENDBRANCH   1  10
TORSDOF 0
ENDMDL
MODEL 9
REMARK VINA RESULT:    -1.047      1.663      3.150
REMARK INTER + INTRA:          -0.293
REMARK INTER:                  -1.229
REMARK INTRA:                   0.936
REMARK UNBOUND:                 1.183
REMARK SMILES CC1=CCC(=C(C)C)C(=O)CC(C)=CCC1
REMARK SMILES IDX 12 1 14 2 13 3 15 4 16 5 2 6 1 7 3 8 11 10 9 11 10 12 5 13
REMARK SMILES IDX 6 14 7 15 8 16 4 17
REMARK H PARENT
REMARK Flexibility Score: 60.00
ROOT
ATOM      1  C   UNL     1       3.092  13.083  -6.001  1.00  0.00    -0.070 C 
ATOM      2  C   UNL     1       3.923  12.251  -6.671  1.00  0.00    -0.027 C 
ATOM      3  C   UNL     1       3.405  13.391  -4.560  1.00  0.00     0.039 C 
ENDROOT
BRANCH   2   4
ATOM      4  C   UNL     1       3.681  11.723  -8.062  1.00  0.00     0.032 C 
BRANCH   4   5
ATOM      5  C   UNL     1       4.294  12.677  -9.093  1.00  0.00     0.034 C 
BRANCH   5   6
ATOM      6  C   UNL     1       5.509  13.406  -8.558  1.00  0.00    -0.077 C 
ATOM      7  C   UNL     1       6.750  12.608  -8.240  1.00  0.00     0.039 C 
ATOM      8  C   UNL     1       5.574  14.754  -8.415  1.00  0.00    -0.023 CG0
ATOM      9  G   UNL     1       4.451  15.757  -8.614  1.00  0.00     0.000 G0
ENDBRANCH   5   6
ENDBRANCH   4   5
ENDBRANCH   2   4
BRANCH   1  10
ATOM     10  C   UNL     1       1.877  13.733  -6.634  1.00  0.00     0.111 C 
BRANCH  10  11
ATOM     11  C   UNL     1       2.260  14.681  -7.745  1.00  0.00     0.163 C 
ATOM     12  O   UNL     1       1.636  14.569  -8.835  1.00  0.00    -0.294 OA
BRANCH  11  13
ATOM     13  C   UNL     1       3.310  15.745  -7.609  1.00  0.00    -0.002 C 
ATOM     14  C   UNL     1       3.332  16.563  -6.511  1.00  0.00    -0.069 C 
ATOM     15  C   UNL     1       4.497  17.483  -6.223  1.00  0.00     0.039 C 
ATOM     16  C   UNL     1       2.166  16.629  -5.552  1.00  0.00     0.039 C 
BRANCH  13  17
ATOM     17  C   UNL     1       4.442  15.760  -8.629  1.00  0.00     0.066 CG0
ATOM     18  G   UNL     1       5.570  14.768  -8.403  1.00  0.00     0.000 G0
ENDBRANCH  13  17
ENDBRANCH  11  13
ENDBRANCH  10  11
ENDBRANCH   1  10
TORSDOF 0
ENDMDL
