MODEL 1
REMARK VINA RESULT:    -5.997      0.000      0.000
REMARK INTER + INTRA:          -6.446
REMARK INTER:                  -6.348
REMARK INTRA:                  -0.098
REMARK UNBOUND:                -0.098
REMARK SMILES C=C(C)[C@H]1CC=C(C)C(=O)C1
REMARK SMILES IDX 8 1 7 2 6 3 5 4 4 5 11 6 9 7 10 8 2 9 1 10 3 11
REMARK H PARENT
REMARK Flexibility Score: inf
ROOT
ATOM      1  C   UNL     1      -7.461  33.024  19.771  1.00  0.00     0.048 C 
ATOM      2  C   UNL     1      -7.568  33.346  21.235  1.00  0.00    -0.012 C 
ATOM      3  C   UNL     1      -7.572  34.627  21.640  1.00  0.00    -0.019 C 
ATOM      4  C   UNL     1      -7.659  35.005  23.095  1.00  0.00     0.036 C 
ATOM      5  C   UNL     1      -8.500  33.985  23.884  1.00  0.00     0.025 C 
ATOM      6  C   UNL     1      -7.943  32.563  23.682  1.00  0.00     0.089 C 
ATOM      7  C   UNL     1      -7.795  32.256  22.217  1.00  0.00     0.158 C 
ATOM      8  O   UNL     1      -7.827  31.055  21.836  1.00  0.00    -0.295 OA
ENDROOT
BRANCH   5   9
ATOM      9  C   UNL     1      -8.577  34.348  25.360  1.00  0.00    -0.077 C 
ATOM     10  C   UNL     1      -8.531  33.384  26.293  1.00  0.00     0.008 C 
ATOM     11  C   UNL     1      -8.706  35.781  25.812  1.00  0.00     0.039 C 
ENDBRANCH   5   9
TORSDOF 1
ENDMDL
MODEL 2
REMARK VINA RESULT:    -5.827      2.155      4.367
REMARK INTER + INTRA:          -6.266
REMARK INTER:                  -6.167
REMARK INTRA:                  -0.098
REMARK UNBOUND:                -0.098
REMARK SMILES C=C(C)[C@H]1CC=C(C)C(=O)C1
REMARK SMILES IDX 8 1 7 2 6 3 5 4 4 5 11 6 9 7 10 8 2 9 1 10 3 11
REMARK H PARENT
REMARK Flexibility Score: inf
ROOT
ATOM      1  C   UNL     1      -8.521  35.882  25.382  1.00  0.00     0.048 C 
ATOM      2  C   UNL     1      -8.472  34.550  24.686  1.00  0.00    -0.012 C 
ATOM      3  C   UNL     1      -8.212  34.492  23.369  1.00  0.00    -0.019 C 
ATOM      4  C   UNL     1      -8.169  33.187  22.619  1.00  0.00     0.036 C 
ATOM      5  C   UNL     1      -7.656  32.048  23.519  1.00  0.00     0.025 C 
ATOM      6  C   UNL     1      -8.503  31.957  24.803  1.00  0.00     0.089 C 
ATOM      7  C   UNL     1      -8.588  33.299  25.476  1.00  0.00     0.158 C 
ATOM      8  O   UNL     1      -8.796  33.350  26.718  1.00  0.00    -0.295 OA
ENDROOT
BRANCH   5   9
ATOM      9  C   UNL     1      -7.628  30.720  22.776  1.00  0.00    -0.077 C 
ATOM     10  C   UNL     1      -8.489  30.491  21.772  1.00  0.00     0.008 C 
ATOM     11  C   UNL     1      -6.644  29.635  23.140  1.00  0.00     0.039 C 
ENDBRANCH   5   9
TORSDOF 1
ENDMDL
MODEL 3
REMARK VINA RESULT:    -5.816      1.667      4.299
REMARK INTER + INTRA:          -6.255
REMARK INTER:                  -6.156
REMARK INTRA:                  -0.099
REMARK UNBOUND:                -0.098
REMARK SMILES C=C(C)[C@H]1CC=C(C)C(=O)C1
REMARK SMILES IDX 8 1 7 2 6 3 5 4 4 5 11 6 9 7 10 8 2 9 1 10 3 11
REMARK H PARENT
REMARK Flexibility Score: inf
ROOT
ATOM      1  C   UNL     1      -8.249  34.840  26.307  1.00  0.00     0.048 C 
ATOM      2  C   UNL     1      -8.379  34.347  24.893  1.00  0.00    -0.012 C 
ATOM      3  C   UNL     1      -7.874  35.073  23.882  1.00  0.00    -0.019 C 
ATOM      4  C   UNL     1      -7.992  34.636  22.446  1.00  0.00     0.036 C 
ATOM      5  C   UNL     1      -7.965  33.100  22.331  1.00  0.00     0.025 C 
ATOM      6  C   UNL     1      -9.056  32.478  23.223  1.00  0.00     0.089 C 
ATOM      7  C   UNL     1      -8.954  33.004  24.628  1.00  0.00     0.158 C 
ATOM      8  O   UNL     1      -9.397  32.305  25.579  1.00  0.00    -0.295 OA
ENDROOT
BRANCH   5   9
ATOM      9  C   UNL     1      -8.105  32.647  20.884  1.00  0.00    -0.077 C 
ATOM     10  C   UNL     1      -9.136  31.870  20.519  1.00  0.00     0.008 C 
ATOM     11  C   UNL     1      -7.101  33.052  19.833  1.00  0.00     0.039 C 
ENDBRANCH   5   9
TORSDOF 1
ENDMDL
MODEL 4
REMARK VINA RESULT:    -5.666      2.113      4.361
REMARK INTER + INTRA:          -6.096
REMARK INTER:                  -5.998
REMARK INTRA:                  -0.098
REMARK UNBOUND:                -0.098
REMARK SMILES C=C(C)[C@H]1CC=C(C)C(=O)C1
REMARK SMILES IDX 8 1 7 2 6 3 5 4 4 5 11 6 9 7 10 8 2 9 1 10 3 11
REMARK H PARENT
REMARK Flexibility Score: inf
ROOT
ATOM      1  C   UNL     1      -8.749  35.758  25.134  1.00  0.00     0.048 C 
ATOM      2  C   UNL     1      -8.382  34.341  24.791  1.00  0.00    -0.012 C 
ATOM      3  C   UNL     1      -8.662  33.349  25.654  1.00  0.00    -0.019 C 
ATOM      4  C   UNL     1      -8.300  31.916  25.369  1.00  0.00     0.036 C 
ATOM      5  C   UNL     1      -8.369  31.616  23.860  1.00  0.00     0.025 C 
ATOM      6  C   UNL     1      -7.488  32.608  23.076  1.00  0.00     0.089 C 
ATOM      7  C   UNL     1      -7.825  34.025  23.451  1.00  0.00     0.158 C 
ATOM      8  O   UNL     1      -7.595  34.950  22.626  1.00  0.00    -0.295 OA
ENDROOT
BRANCH   5   9
ATOM      9  C   UNL     1      -7.986  30.174  23.559  1.00  0.00    -0.077 C 
ATOM     10  C   UNL     1      -6.760  29.887  23.093  1.00  0.00     0.008 C 
ATOM     11  C   UNL     1      -8.958  29.040  23.773  1.00  0.00     0.039 C 
ENDBRANCH   5   9
TORSDOF 1
ENDMDL
MODEL 5
REMARK VINA RESULT:    -5.344      1.565      4.313
REMARK INTER + INTRA:          -5.754
REMARK INTER:                  -5.659
REMARK INTRA:                  -0.096
REMARK UNBOUND:                -0.098
REMARK SMILES C=C(C)[C@H]1CC=C(C)C(=O)C1
REMARK SMILES IDX 8 1 7 2 6 3 5 4 4 5 11 6 9 7 10 8 2 9 1 10 3 11
REMARK H PARENT
REMARK Flexibility Score: inf
ROOT
ATOM      1  C   UNL     1      -8.371  31.416  27.412  1.00  0.00     0.048 C 
ATOM      2  C   UNL     1      -8.432  31.961  26.012  1.00  0.00    -0.012 C 
ATOM      3  C   UNL     1      -8.488  33.289  25.813  1.00  0.00    -0.019 C 
ATOM      4  C   UNL     1      -8.569  33.888  24.434  1.00  0.00     0.036 C 
ATOM      5  C   UNL     1      -7.809  33.024  23.410  1.00  0.00     0.025 C 
ATOM      6  C   UNL     1      -8.324  31.573  23.447  1.00  0.00     0.089 C 
ATOM      7  C   UNL     1      -8.305  31.041  24.854  1.00  0.00     0.158 C 
ATOM      8  O   UNL     1      -8.216  29.797  25.039  1.00  0.00    -0.295 OA
ENDROOT
BRANCH   5   9
ATOM      9  C   UNL     1      -7.902  33.611  22.008  1.00  0.00    -0.077 C 
ATOM     10  C   UNL     1      -7.803  34.937  21.825  1.00  0.00     0.008 C 
ATOM     11  C   UNL     1      -8.103  32.731  20.799  1.00  0.00     0.039 C 
ENDBRANCH   5   9
TORSDOF 1
ENDMDL
MODEL 6
REMARK VINA RESULT:    -5.311     16.793     17.843
REMARK INTER + INTRA:          -5.720
REMARK INTER:                  -5.622
REMARK INTRA:                  -0.098
REMARK UNBOUND:                -0.098
REMARK SMILES C=C(C)[C@H]1CC=C(C)C(=O)C1
REMARK SMILES IDX 8 1 7 2 6 3 5 4 4 5 11 6 9 7 10 8 2 9 1 10 3 11
REMARK H PARENT
REMARK Flexibility Score: inf
ROOT
ATOM      1  C   UNL     1      -0.114  47.743  20.588  1.00  0.00     0.048 C 
ATOM      2  C   UNL     1       0.779  48.041  21.761  1.00  0.00    -0.012 C 
ATOM      3  C   UNL     1       0.239  48.377  22.945  1.00  0.00    -0.019 C 
ATOM      4  C   UNL     1       1.086  48.702  24.146  1.00  0.00     0.036 C 
ATOM      5  C   UNL     1       2.393  47.887  24.141  1.00  0.00     0.025 C 
ATOM      6  C   UNL     1       3.150  48.099  22.816  1.00  0.00     0.089 C 
ATOM      7  C   UNL     1       2.246  47.843  21.642  1.00  0.00     0.158 C 
ATOM      8  O   UNL     1       2.752  47.494  20.542  1.00  0.00    -0.295 OA
ENDROOT
BRANCH   5   9
ATOM      9  C   UNL     1       3.266  48.224  25.341  1.00  0.00    -0.077 C 
ATOM     10  C   UNL     1       4.254  49.125  25.223  1.00  0.00     0.008 C 
ATOM     11  C   UNL     1       3.050  47.565  26.681  1.00  0.00     0.039 C 
ENDBRANCH   5   9
TORSDOF 1
ENDMDL
MODEL 7
REMARK VINA RESULT:    -5.288     16.263     17.285
REMARK INTER + INTRA:          -5.695
REMARK INTER:                  -5.599
REMARK INTRA:                  -0.097
REMARK UNBOUND:                -0.098
REMARK SMILES C=C(C)[C@H]1CC=C(C)C(=O)C1
REMARK SMILES IDX 8 1 7 2 6 3 5 4 4 5 11 6 9 7 10 8 2 9 1 10 3 11
REMARK H PARENT
REMARK Flexibility Score: inf
ROOT
ATOM      1  C   UNL     1       3.821  48.045  23.567  1.00  0.00     0.048 C 
ATOM      2  C   UNL     1       2.392  47.998  23.102  1.00  0.00    -0.012 C 
ATOM      3  C   UNL     1       1.407  48.393  23.926  1.00  0.00    -0.019 C 
ATOM      4  C   UNL     1      -0.042  48.349  23.518  1.00  0.00     0.036 C 
ATOM      5  C   UNL     1      -0.201  48.606  22.009  1.00  0.00     0.025 C 
ATOM      6  C   UNL     1       0.662  47.617  21.204  1.00  0.00     0.089 C 
ATOM      7  C   UNL     1       2.083  47.632  21.696  1.00  0.00     0.158 C 
ATOM      8  O   UNL     1       3.009  47.294  20.911  1.00  0.00    -0.295 OA
ENDROOT
BRANCH   5   9
ATOM      9  C   UNL     1      -1.662  48.544  21.583  1.00  0.00    -0.077 C 
ATOM     10  C   UNL     1      -2.630  48.884  22.448  1.00  0.00     0.008 C 
ATOM     11  C   UNL     1      -2.058  48.103  20.195  1.00  0.00     0.039 C 
ENDBRANCH   5   9
TORSDOF 1
ENDMDL
MODEL 8
REMARK VINA RESULT:    -5.136      2.061      3.339
REMARK INTER + INTRA:          -5.535
REMARK INTER:                  -5.437
REMARK INTRA:                  -0.098
REMARK UNBOUND:                -0.098
REMARK SMILES C=C(C)[C@H]1CC=C(C)C(=O)C1
REMARK SMILES IDX 8 1 7 2 6 3 5 4 4 5 11 6 9 7 10 8 2 9 1 10 3 11
REMARK H PARENT
REMARK Flexibility Score: inf
ROOT
ATOM      1  C   UNL     1      -7.718  35.111  21.985  1.00  0.00     0.048 C 
ATOM      2  C   UNL     1      -7.868  33.781  22.671  1.00  0.00    -0.012 C 
ATOM      3  C   UNL     1      -8.118  33.733  23.990  1.00  0.00    -0.019 C 
ATOM      4  C   UNL     1      -8.259  32.430  24.730  1.00  0.00     0.036 C 
ATOM      5  C   UNL     1      -8.873  31.344  23.827  1.00  0.00     0.025 C 
ATOM      6  C   UNL     1      -8.050  31.195  22.534  1.00  0.00     0.089 C 
ATOM      7  C   UNL     1      -7.862  32.532  21.869  1.00  0.00     0.158 C 
ATOM      8  O   UNL     1      -7.663  32.576  20.626  1.00  0.00    -0.295 OA
ENDROOT
BRANCH   5   9
ATOM      9  C   UNL     1      -9.002  30.016  24.560  1.00  0.00    -0.077 C 
ATOM     10  C   UNL     1      -9.141  28.875  23.867  1.00  0.00     0.008 C 
ATOM     11  C   UNL     1      -8.976  29.943  26.067  1.00  0.00     0.039 C 
ENDBRANCH   5   9
TORSDOF 1
ENDMDL
