MODEL 1
REMARK VINA RESULT:    -3.892      0.000      0.000
REMARK INTER + INTRA:          -3.946
REMARK INTER:                  -4.802
REMARK INTRA:                   0.856
REMARK UNBOUND:                 0.856
REMARK SMILES CC1=CC=CC(C)(C)CC1=O
REMARK SMILES IDX 1 1 2 2 3 3 10 4 11 5 9 6 4 8 5 9 6 10 7 11 8 12
REMARK H PARENT
REMARK Flexibility Score: 80.00
ROOT
ATOM      1  C   UNL     1       0.475 -22.931  -6.803  1.00  0.00     0.048 C 
ATOM      2  C   UNL     1       0.863 -21.619  -6.160  1.00  0.00    -0.008 C 
ATOM      3  C   UNL     1       0.372 -21.351  -4.930  1.00  0.00     0.007 C 
ENDROOT
BRANCH   2   4
ATOM      4  C   UNL     1       1.715 -20.706  -6.967  1.00  0.00     0.159 C 
ATOM      5  O   UNL     1       2.140 -21.108  -8.084  1.00  0.00    -0.295 OA
BRANCH   4   6
ATOM      6  C   UNL     1       2.077 -19.310  -6.555  1.00  0.00     0.091 CG0
ATOM      7  G   UNL     1       2.690 -19.212  -5.140  1.00  0.00     0.000 G0
ENDBRANCH   4   6
ENDBRANCH   2   4
BRANCH   3   8
ATOM      8  C   UNL     1       0.588 -20.170  -4.063  1.00  0.00    -0.003 C 
ATOM      9  C   UNL     1       1.575 -19.268  -4.110  1.00  0.00    -0.020 C 
BRANCH   9  10
ATOM     10  C   UNL     1       2.685 -19.216  -5.132  1.00  0.00    -0.010 CG0
ATOM     11  C   UNL     1       3.729 -20.321  -4.846  1.00  0.00     0.016 C 
ATOM     12  C   UNL     1       3.395 -17.848  -5.005  1.00  0.00     0.016 C 
ATOM     13  G   UNL     1       2.084 -19.316  -6.552  1.00  0.00     0.000 G0
ENDBRANCH   9  10
ENDBRANCH   3   8
TORSDOF 0
ENDMDL
MODEL 2
REMARK VINA RESULT:    -3.673     11.271     12.655
REMARK INTER + INTRA:          -3.676
REMARK INTER:                  -4.534
REMARK INTRA:                   0.858
REMARK UNBOUND:                 0.856
REMARK SMILES CC1=CC=CC(C)(C)CC1=O
REMARK SMILES IDX 1 1 2 2 3 3 10 4 11 5 9 6 4 8 5 9 6 10 7 11 8 12
REMARK H PARENT
REMARK Flexibility Score: 80.00
ROOT
ATOM      1  C   UNL     1      -6.973 -30.430  -4.169  1.00  0.00     0.048 C 
ATOM      2  C   UNL     1      -6.959 -29.094  -3.461  1.00  0.00    -0.008 C 
ATOM      3  C   UNL     1      -5.918 -28.266  -3.697  1.00  0.00     0.007 C 
ENDROOT
BRANCH   2   4
ATOM      4  C   UNL     1      -8.075 -28.827  -2.515  1.00  0.00     0.159 C 
ATOM      5  O   UNL     1      -9.025 -29.655  -2.456  1.00  0.00    -0.295 OA
BRANCH   4   6
ATOM      6  C   UNL     1      -8.131 -27.648  -1.591  1.00  0.00     0.091 CG0
ATOM      7  G   UNL     1      -7.965 -26.286  -2.300  1.00  0.00     0.000 G0
ENDBRANCH   4   6
ENDBRANCH   2   4
BRANCH   3   8
ATOM      8  C   UNL     1      -5.646 -26.912  -3.163  1.00  0.00    -0.003 C 
ATOM      9  C   UNL     1      -6.500 -26.049  -2.602  1.00  0.00    -0.020 C 
BRANCH   9  10
ATOM     10  C   UNL     1      -7.962 -26.300  -2.318  1.00  0.00    -0.010 CG0
ATOM     11  C   UNL     1      -8.782 -26.224  -3.627  1.00  0.00     0.016 C 
ATOM     12  C   UNL     1      -8.470 -25.185  -1.375  1.00  0.00     0.016 C 
ATOM     13  G   UNL     1      -8.121 -27.654  -1.592  1.00  0.00     0.000 G0
ENDBRANCH   9  10
ENDBRANCH   3   8
TORSDOF 0
ENDMDL
MODEL 3
REMARK VINA RESULT:    -3.631      1.558      2.534
REMARK INTER + INTRA:          -3.624
REMARK INTER:                  -4.462
REMARK INTRA:                   0.838
REMARK UNBOUND:                 0.856
REMARK SMILES CC1=CC=CC(C)(C)CC1=O
REMARK SMILES IDX 1 1 2 2 3 3 10 4 11 5 9 6 4 8 5 9 6 10 7 11 8 12
REMARK H PARENT
REMARK Flexibility Score: 80.00
ROOT
ATOM      1  C   UNL     1       0.497 -22.223  -7.125  1.00  0.00     0.048 C 
ATOM      2  C   UNL     1       1.562 -21.273  -6.626  1.00  0.00    -0.008 C 
ATOM      3  C   UNL     1       2.574 -20.962  -7.465  1.00  0.00     0.007 C 
ENDROOT
BRANCH   2   4
ATOM      4  C   UNL     1       1.432 -20.802  -5.221  1.00  0.00     0.159 C 
ATOM      5  O   UNL     1       0.403 -21.130  -4.569  1.00  0.00    -0.295 OA
BRANCH   4   6
ATOM      6  C   UNL     1       2.469 -19.988  -4.507  1.00  0.00     0.091 CG0
ATOM      7  G   UNL     1       2.909 -18.721  -5.274  1.00  0.00     0.000 G0
ENDBRANCH   4   6
ENDBRANCH   2   4
BRANCH   3   8
ATOM      8  C   UNL     1       3.733 -20.064  -7.258  1.00  0.00    -0.003 C 
ATOM      9  C   UNL     1       3.882 -19.089  -6.355  1.00  0.00    -0.020 C 
BRANCH   9  10
ATOM     10  C   UNL     1       2.898 -18.720  -5.271  1.00  0.00    -0.010 CG0
ATOM     11  C   UNL     1       1.708 -17.937  -5.871  1.00  0.00     0.016 C 
ATOM     12  C   UNL     1       3.615 -17.795  -4.261  1.00  0.00     0.016 C 
ATOM     13  G   UNL     1       2.456 -19.997  -4.522  1.00  0.00     0.000 G0
ENDBRANCH   9  10
ENDBRANCH   3   8
TORSDOF 0
ENDMDL
MODEL 4
REMARK VINA RESULT:    -3.605     11.779     13.625
REMARK INTER + INTRA:          -3.591
REMARK INTER:                  -4.448
REMARK INTRA:                   0.857
REMARK UNBOUND:                 0.856
REMARK SMILES CC1=CC=CC(C)(C)CC1=O
REMARK SMILES IDX 1 1 2 2 3 3 10 4 11 5 9 6 4 8 5 9 6 10 7 11 8 12
REMARK H PARENT
REMARK Flexibility Score: 80.00
ROOT
ATOM      1  C   UNL     1      -5.134 -26.707  -3.312  1.00  0.00     0.048 C 
ATOM      2  C   UNL     1      -6.243 -27.731  -3.221  1.00  0.00    -0.008 C 
ATOM      3  C   UNL     1      -6.094 -28.885  -3.906  1.00  0.00     0.007 C 
ENDROOT
BRANCH   2   4
ATOM      4  C   UNL     1      -7.437 -27.351  -2.420  1.00  0.00     0.159 C 
ATOM      5  O   UNL     1      -7.416 -26.261  -1.786  1.00  0.00    -0.295 OA
BRANCH   4   6
ATOM      6  C   UNL     1      -8.693 -28.168  -2.344  1.00  0.00     0.091 CG0
ATOM      7  G   UNL     1      -8.458 -29.645  -1.958  1.00  0.00     0.000 G0
ENDBRANCH   4   6
ENDBRANCH   2   4
BRANCH   3   8
ATOM      8  C   UNL     1      -6.995 -30.057  -3.993  1.00  0.00    -0.003 C 
ATOM      9  C   UNL     1      -7.981 -30.414  -3.163  1.00  0.00    -0.020 C 
BRANCH   9  10
ATOM     10  C   UNL     1      -8.452 -29.642  -1.954  1.00  0.00    -0.010 CG0
ATOM     11  C   UNL     1      -7.444 -29.798  -0.792  1.00  0.00     0.016 C 
ATOM     12  C   UNL     1      -9.802 -30.240  -1.494  1.00  0.00     0.016 C 
ATOM     13  G   UNL     1      -8.689 -28.167  -2.346  1.00  0.00     0.000 G0
ENDBRANCH   9  10
ENDBRANCH   3   8
TORSDOF 0
ENDMDL
MODEL 5
REMARK VINA RESULT:    -3.353     12.470     13.470
REMARK INTER + INTRA:          -3.281
REMARK INTER:                  -4.125
REMARK INTRA:                   0.843
REMARK UNBOUND:                 0.856
REMARK SMILES CC1=CC=CC(C)(C)CC1=O
REMARK SMILES IDX 1 1 2 2 3 3 10 4 11 5 9 6 4 8 5 9 6 10 7 11 8 12
REMARK H PARENT
REMARK Flexibility Score: 80.00
ROOT
ATOM      1  C   UNL     1       5.197 -25.113   9.514  1.00  0.00     0.048 C 
ATOM      2  C   UNL     1       5.070 -24.461   8.156  1.00  0.00    -0.008 C 
ATOM      3  C   UNL     1       5.752 -23.314   7.940  1.00  0.00     0.007 C 
ENDROOT
BRANCH   2   4
ATOM      4  C   UNL     1       4.154 -25.115   7.184  1.00  0.00     0.159 C 
ATOM      5  O   UNL     1       3.617 -26.210   7.505  1.00  0.00    -0.295 OA
BRANCH   4   6
ATOM      6  C   UNL     1       3.792 -24.536   5.849  1.00  0.00     0.091 CG0
ATOM      7  G   UNL     1       5.009 -24.135   4.987  1.00  0.00     0.000 G0
ENDBRANCH   4   6
ENDBRANCH   2   4
BRANCH   3   8
ATOM      8  C   UNL     1       5.827 -22.472   6.724  1.00  0.00    -0.003 C 
ATOM      9  C   UNL     1       5.542 -22.805   5.460  1.00  0.00    -0.020 C 
BRANCH   9  10
ATOM     10  C   UNL     1       5.001 -24.133   4.989  1.00  0.00    -0.010 CG0
ATOM     11  C   UNL     1       6.123 -25.198   4.983  1.00  0.00     0.016 C 
ATOM     12  C   UNL     1       4.501 -23.963   3.535  1.00  0.00     0.016 C 
ATOM     13  G   UNL     1       3.797 -24.539   5.867  1.00  0.00     0.000 G0
ENDBRANCH   9  10
ENDBRANCH   3   8
TORSDOF 0
ENDMDL
MODEL 6
REMARK VINA RESULT:    -3.299     11.910     13.585
REMARK INTER + INTRA:          -3.215
REMARK INTER:                  -4.062
REMARK INTRA:                   0.847
REMARK UNBOUND:                 0.856
REMARK SMILES CC1=CC=CC(C)(C)CC1=O
REMARK SMILES IDX 1 1 2 2 3 3 10 4 11 5 9 6 4 8 5 9 6 10 7 11 8 12
REMARK H PARENT
REMARK Flexibility Score: 80.00
ROOT
ATOM      1  C   UNL     1      -4.905 -28.345  -3.578  1.00  0.00     0.048 C 
ATOM      2  C   UNL     1      -6.222 -28.345  -2.835  1.00  0.00    -0.008 C 
ATOM      3  C   UNL     1      -6.324 -27.569  -1.733  1.00  0.00     0.007 C 
ENDROOT
BRANCH   2   4
ATOM      4  C   UNL     1      -7.282 -29.248  -3.355  1.00  0.00     0.159 C 
ATOM      5  O   UNL     1      -7.056 -29.897  -4.413  1.00  0.00    -0.295 OA
BRANCH   4   6
ATOM      6  C   UNL     1      -8.602 -29.471  -2.680  1.00  0.00     0.091 CG0
ATOM      7  G   UNL     1      -9.351 -28.169  -2.319  1.00  0.00     0.000 G0
ENDBRANCH   4   6
ENDBRANCH   2   4
BRANCH   3   8
ATOM      8  C   UNL     1      -7.476 -27.361  -0.826  1.00  0.00    -0.003 C 
ATOM      9  C   UNL     1      -8.775 -27.578  -1.063  1.00  0.00    -0.020 C 
BRANCH   9  10
ATOM     10  C   UNL     1      -9.364 -28.164  -2.324  1.00  0.00    -0.010 CG0
ATOM     11  C   UNL     1      -9.348 -27.116  -3.461  1.00  0.00     0.016 C 
ATOM     12  C   UNL     1     -10.839 -28.535  -2.041  1.00  0.00     0.016 C 
ATOM     13  G   UNL     1      -8.606 -29.458  -2.694  1.00  0.00     0.000 G0
ENDBRANCH   9  10
ENDBRANCH   3   8
TORSDOF 0
ENDMDL
MODEL 7
REMARK VINA RESULT:    -3.278     12.087     13.819
REMARK INTER + INTRA:          -3.189
REMARK INTER:                  -4.050
REMARK INTRA:                   0.861
REMARK UNBOUND:                 0.856
REMARK SMILES CC1=CC=CC(C)(C)CC1=O
REMARK SMILES IDX 1 1 2 2 3 3 10 4 11 5 9 6 4 8 5 9 6 10 7 11 8 12
REMARK H PARENT
REMARK Flexibility Score: 80.00
ROOT
ATOM      1  C   UNL     1      -5.181 -27.117  -3.265  1.00  0.00     0.048 C 
ATOM      2  C   UNL     1      -5.999 -28.061  -2.414  1.00  0.00    -0.008 C 
ATOM      3  C   UNL     1      -6.266 -27.692  -1.142  1.00  0.00     0.007 C 
ENDROOT
BRANCH   2   4
ATOM      4  C   UNL     1      -6.398 -29.350  -3.040  1.00  0.00     0.159 C 
ATOM      5  O   UNL     1      -6.114 -29.543  -4.254  1.00  0.00    -0.295 OA
BRANCH   4   6
ATOM      6  C   UNL     1      -7.088 -30.462  -2.309  1.00  0.00     0.091 CG0
ATOM      7  G   UNL     1      -8.351 -30.017  -1.538  1.00  0.00     0.000 G0
ENDBRANCH   4   6
ENDBRANCH   2   4
BRANCH   3   8
ATOM      8  C   UNL     1      -7.041 -28.397  -0.095  1.00  0.00    -0.003 C 
ATOM      9  C   UNL     1      -7.952 -29.366  -0.242  1.00  0.00    -0.020 C 
BRANCH   9  10
ATOM     10  C   UNL     1      -8.354 -30.022  -1.541  1.00  0.00    -0.010 CG0
ATOM     11  C   UNL     1      -9.251 -29.070  -2.367  1.00  0.00     0.016 C 
ATOM     12  C   UNL     1      -9.182 -31.285  -1.210  1.00  0.00     0.016 C 
ATOM     13  G   UNL     1      -7.088 -30.464  -2.308  1.00  0.00     0.000 G0
ENDBRANCH   9  10
ENDBRANCH   3   8
TORSDOF 0
ENDMDL
MODEL 8
REMARK VINA RESULT:    -3.263      2.183      3.268
REMARK INTER + INTRA:          -3.170
REMARK INTER:                  -4.001
REMARK INTRA:                   0.831
REMARK UNBOUND:                 0.856
REMARK SMILES CC1=CC=CC(C)(C)CC1=O
REMARK SMILES IDX 1 1 2 2 3 3 10 4 11 5 9 6 4 8 5 9 6 10 7 11 8 12
REMARK H PARENT
REMARK Flexibility Score: 80.00
ROOT
ATOM      1  C   UNL     1       0.847 -20.236  -3.802  1.00  0.00     0.048 C 
ATOM      2  C   UNL     1       1.837 -20.346  -4.939  1.00  0.00    -0.008 C 
ATOM      3  C   UNL     1       1.347 -20.477  -6.192  1.00  0.00     0.007 C 
ENDROOT
BRANCH   2   4
ATOM      4  C   UNL     1       3.278 -20.355  -4.572  1.00  0.00     0.159 C 
ATOM      5  O   UNL     1       3.594 -20.165  -3.365  1.00  0.00    -0.295 OA
BRANCH   4   6
ATOM      6  C   UNL     1       4.392 -20.616  -5.542  1.00  0.00     0.091 CG0
ATOM      7  G   UNL     1       4.352 -19.719  -6.799  1.00  0.00     0.000 G0
ENDBRANCH   4   6
ENDBRANCH   2   4
BRANCH   3   8
ATOM      8  C   UNL     1       2.066 -20.592  -7.482  1.00  0.00    -0.003 C 
ATOM      9  C   UNL     1       3.328 -20.253  -7.767  1.00  0.00    -0.020 C 
BRANCH   9  10
ATOM     10  C   UNL     1       4.351 -19.725  -6.790  1.00  0.00    -0.010 CG0
ATOM     11  C   UNL     1       4.070 -18.238  -6.472  1.00  0.00     0.016 C 
ATOM     12  C   UNL     1       5.745 -19.813  -7.454  1.00  0.00     0.016 C 
ATOM     13  G   UNL     1       4.363 -20.614  -5.526  1.00  0.00     0.000 G0
ENDBRANCH   9  10
ENDBRANCH   3   8
TORSDOF 0
ENDMDL
MODEL 9
REMARK VINA RESULT:    -3.217     11.918     12.872
REMARK INTER + INTRA:          -3.113
REMARK INTER:                  -3.953
REMARK INTRA:                   0.840
REMARK UNBOUND:                 0.856
REMARK SMILES CC1=CC=CC(C)(C)CC1=O
REMARK SMILES IDX 1 1 2 2 3 3 10 4 11 5 9 6 4 8 5 9 6 10 7 11 8 12
REMARK H PARENT
REMARK Flexibility Score: 80.00
ROOT
ATOM      1  C   UNL     1       4.296 -23.577   2.625  1.00  0.00     0.048 C 
ATOM      2  C   UNL     1       4.787 -23.807   4.036  1.00  0.00    -0.008 C 
ATOM      3  C   UNL     1       4.920 -22.731   4.842  1.00  0.00     0.007 C 
ENDROOT
BRANCH   2   4
ATOM      4  C   UNL     1       5.136 -25.206   4.402  1.00  0.00     0.159 C 
ATOM      5  O   UNL     1       4.933 -26.119   3.555  1.00  0.00    -0.295 OA
BRANCH   4   6
ATOM      6  C   UNL     1       5.756 -25.604   5.708  1.00  0.00     0.091 CG0
ATOM      7  G   UNL     1       5.000 -25.075   6.948  1.00  0.00     0.000 G0
ENDBRANCH   4   6
ENDBRANCH   2   4
BRANCH   3   8
ATOM      8  C   UNL     1       5.360 -22.654   6.254  1.00  0.00    -0.003 C 
ATOM      9  C   UNL     1       5.384 -23.624   7.174  1.00  0.00    -0.020 C 
BRANCH   9  10
ATOM     10  C   UNL     1       5.019 -25.072   6.952  1.00  0.00    -0.010 CG0
ATOM     11  C   UNL     1       3.484 -25.230   6.862  1.00  0.00     0.016 C 
ATOM     12  C   UNL     1       5.509 -25.887   8.172  1.00  0.00     0.016 C 
ATOM     13  G   UNL     1       5.748 -25.600   5.696  1.00  0.00     0.000 G0
ENDBRANCH   9  10
ENDBRANCH   3   8
TORSDOF 0
ENDMDL
