MODEL 1
REMARK VINA RESULT:    -3.886      0.000      0.000
REMARK INTER + INTRA:          -4.612
REMARK INTER:                  -4.568
REMARK INTRA:                  -0.044
REMARK UNBOUND:                -0.044
REMARK SMILES O=C([O-])CCC(=O)[O-]
REMARK SMILES IDX 4 1 2 2 1 3 3 4 5 5 6 6 7 7 8 8
REMARK H PARENT
REMARK Flexibility Score: inf
ROOT
ATOM      1  C   UNL     1      95.228 124.009 124.357  1.00  0.00     0.059 C 
ENDROOT
BRANCH   1   2
ATOM      2  C   UNL     1      93.923 123.278 124.418  1.00  0.00     0.042 C 
ATOM      3  O   UNL     1      93.658 122.538 125.401  1.00  0.00    -0.550 OA
ATOM      4  O   UNL     1      93.022 123.375 123.366  1.00  0.00    -0.550 OA
ENDBRANCH   1   2
BRANCH   1   5
ATOM      5  C   UNL     1      96.088 123.671 125.575  1.00  0.00     0.059 C 
BRANCH   5   6
ATOM      6  C   UNL     1      97.233 124.628 125.688  1.00  0.00     0.042 C 
ATOM      7  O   UNL     1      97.266 125.665 124.974  1.00  0.00    -0.550 OA
ATOM      8  O   UNL     1      98.239 124.400 126.618  1.00  0.00    -0.550 OA
ENDBRANCH   5   6
ENDBRANCH   1   5
TORSDOF 3
ENDMDL
MODEL 2
REMARK VINA RESULT:    -3.859      0.584      4.273
REMARK INTER + INTRA:          -4.579
REMARK INTER:                  -4.542
REMARK INTRA:                  -0.037
REMARK UNBOUND:                -0.044
REMARK SMILES O=C([O-])CCC(=O)[O-]
REMARK SMILES IDX 4 1 2 2 1 3 3 4 5 5 6 6 7 7 8 8
REMARK H PARENT
REMARK Flexibility Score: inf
ROOT
ATOM      1  C   UNL     1      95.757 123.386 125.628  1.00  0.00     0.059 C 
ENDROOT
BRANCH   1   2
ATOM      2  C   UNL     1      97.087 124.045 125.820  1.00  0.00     0.042 C 
ATOM      3  O   UNL     1      97.255 125.244 125.474  1.00  0.00    -0.550 OA
ATOM      4  O   UNL     1      98.154 123.320 126.335  1.00  0.00    -0.550 OA
ENDBRANCH   1   2
BRANCH   1   5
ATOM      5  C   UNL     1      95.082 123.903 124.358  1.00  0.00     0.059 C 
BRANCH   5   6
ATOM      6  C   UNL     1      93.717 123.308 124.210  1.00  0.00     0.042 C 
ATOM      7  O   UNL     1      93.103 123.394 123.115  1.00  0.00    -0.550 OA
ATOM      8  O   UNL     1      93.144 122.614 125.268  1.00  0.00    -0.550 OA
ENDBRANCH   5   6
ENDBRANCH   1   5
TORSDOF 3
ENDMDL
MODEL 3
REMARK VINA RESULT:    -3.845      0.351      4.289
REMARK INTER + INTRA:          -4.563
REMARK INTER:                  -4.522
REMARK INTRA:                  -0.041
REMARK UNBOUND:                -0.044
REMARK SMILES O=C([O-])CCC(=O)[O-]
REMARK SMILES IDX 4 1 2 2 1 3 3 4 5 5 6 6 7 7 8 8
REMARK H PARENT
REMARK Flexibility Score: inf
ROOT
ATOM      1  C   UNL     1      96.373 123.721 125.771  1.00  0.00     0.059 C 
ENDROOT
BRANCH   1   2
ATOM      2  C   UNL     1      97.507 124.688 125.913  1.00  0.00     0.042 C 
ATOM      3  O   UNL     1      98.430 124.466 126.739  1.00  0.00    -0.550 OA
ATOM      4  O   UNL     1      97.517 125.861 125.168  1.00  0.00    -0.550 OA
ENDBRANCH   1   2
BRANCH   1   5
ATOM      5  C   UNL     1      95.558 124.033 124.517  1.00  0.00     0.059 C 
BRANCH   5   6
ATOM      6  C   UNL     1      94.239 123.326 124.560  1.00  0.00     0.042 C 
ATOM      7  O   UNL     1      93.985 122.516 125.490  1.00  0.00    -0.550 OA
ATOM      8  O   UNL     1      93.273 123.598 123.600  1.00  0.00    -0.550 OA
ENDBRANCH   5   6
ENDBRANCH   1   5
TORSDOF 3
ENDMDL
MODEL 4
REMARK VINA RESULT:    -3.842      0.557      1.257
REMARK INTER + INTRA:          -4.559
REMARK INTER:                  -4.523
REMARK INTRA:                  -0.036
REMARK UNBOUND:                -0.044
REMARK SMILES O=C([O-])CCC(=O)[O-]
REMARK SMILES IDX 4 1 2 2 1 3 3 4 5 5 6 6 7 7 8 8
REMARK H PARENT
REMARK Flexibility Score: inf
ROOT
ATOM      1  C   UNL     1      95.098 123.909 124.335  1.00  0.00     0.059 C 
ENDROOT
BRANCH   1   2
ATOM      2  C   UNL     1      93.744 123.289 124.185  1.00  0.00     0.042 C 
ATOM      3  O   UNL     1      93.106 123.414 123.106  1.00  0.00    -0.550 OA
ATOM      4  O   UNL     1      93.166 122.615 125.253  1.00  0.00    -0.550 OA
ENDBRANCH   1   2
BRANCH   1   5
ATOM      5  C   UNL     1      95.767 123.426 125.622  1.00  0.00     0.059 C 
BRANCH   5   6
ATOM      6  C   UNL     1      97.107 124.071 125.789  1.00  0.00     0.042 C 
ATOM      7  O   UNL     1      97.280 125.270 125.445  1.00  0.00    -0.550 OA
ATOM      8  O   UNL     1      98.152 123.364 126.371  1.00  0.00    -0.550 OA
ENDBRANCH   5   6
ENDBRANCH   1   5
TORSDOF 3
ENDMDL
MODEL 5
REMARK VINA RESULT:    -3.648      1.723      4.348
REMARK INTER + INTRA:          -4.332
REMARK INTER:                  -4.274
REMARK INTRA:                  -0.057
REMARK UNBOUND:                -0.044
REMARK SMILES O=C([O-])CCC(=O)[O-]
REMARK SMILES IDX 4 1 2 2 1 3 3 4 5 5 6 6 7 7 8 8
REMARK H PARENT
REMARK Flexibility Score: inf
ROOT
ATOM      1  C   UNL     1      97.809 124.149 126.289  1.00  0.00     0.059 C 
ENDROOT
BRANCH   1   2
ATOM      2  C   UNL     1      98.877 123.122 126.499  1.00  0.00     0.042 C 
ATOM      3  O   UNL     1     100.091 123.437 126.383  1.00  0.00    -0.550 OA
ATOM      4  O   UNL     1      98.531 121.805 126.773  1.00  0.00    -0.550 OA
ENDBRANCH   1   2
BRANCH   1   5
ATOM      5  C   UNL     1      96.466 123.474 126.007  1.00  0.00     0.059 C 
BRANCH   5   6
ATOM      6  C   UNL     1      95.823 124.073 124.796  1.00  0.00     0.042 C 
ATOM      7  O   UNL     1      94.697 123.664 124.409  1.00  0.00    -0.550 OA
ATOM      8  O   UNL     1      96.445 125.118 124.124  1.00  0.00    -0.550 OA
ENDBRANCH   5   6
ENDBRANCH   1   5
TORSDOF 3
ENDMDL
MODEL 6
REMARK VINA RESULT:    -3.552      1.408      2.042
REMARK INTER + INTRA:          -4.218
REMARK INTER:                  -4.098
REMARK INTRA:                  -0.120
REMARK UNBOUND:                -0.044
REMARK SMILES O=C([O-])CCC(=O)[O-]
REMARK SMILES IDX 4 1 2 2 1 3 3 4 5 5 6 6 7 7 8 8
REMARK H PARENT
REMARK Flexibility Score: inf
ROOT
ATOM      1  C   UNL     1      96.336 124.142 124.698  1.00  0.00     0.059 C 
ENDROOT
BRANCH   1   2
ATOM      2  C   UNL     1      94.954 123.570 124.756  1.00  0.00     0.042 C 
ATOM      3  O   UNL     1      94.056 124.004 123.989  1.00  0.00    -0.550 OA
ATOM      4  O   UNL     1      94.646 122.591 125.693  1.00  0.00    -0.550 OA
ENDBRANCH   1   2
BRANCH   1   5
ATOM      5  C   UNL     1      96.864 124.408 126.108  1.00  0.00     0.059 C 
BRANCH   5   6
ATOM      6  C   UNL     1      98.036 123.524 126.403  1.00  0.00     0.042 C 
ATOM      7  O   UNL     1      99.189 124.018 126.515  1.00  0.00    -0.550 OA
ATOM      8  O   UNL     1      97.847 122.163 126.603  1.00  0.00    -0.550 OA
ENDBRANCH   5   6
ENDBRANCH   1   5
TORSDOF 3
ENDMDL
MODEL 7
REMARK VINA RESULT:    -3.304      2.978      5.121
REMARK INTER + INTRA:          -3.927
REMARK INTER:                  -3.888
REMARK INTRA:                  -0.039
REMARK UNBOUND:                -0.044
REMARK SMILES O=C([O-])CCC(=O)[O-]
REMARK SMILES IDX 4 1 2 2 1 3 3 4 5 5 6 6 7 7 8 8
REMARK H PARENT
REMARK Flexibility Score: inf
ROOT
ATOM      1  C   UNL     1      98.743 122.280 126.446  1.00  0.00     0.059 C 
ENDROOT
BRANCH   1   2
ATOM      2  C   UNL     1     100.076 121.601 126.500  1.00  0.00     0.042 C 
ATOM      3  O   UNL     1     101.098 122.176 126.043  1.00  0.00    -0.550 OA
ATOM      4  O   UNL     1     100.180 120.313 127.010  1.00  0.00    -0.550 OA
ENDBRANCH   1   2
BRANCH   1   5
ATOM      5  C   UNL     1      98.906 123.791 126.605  1.00  0.00     0.059 C 
BRANCH   5   6
ATOM      6  C   UNL     1      97.621 124.492 126.291  1.00  0.00     0.042 C 
ATOM      7  O   UNL     1      97.570 125.750 126.287  1.00  0.00    -0.550 OA
ATOM      8  O   UNL     1      96.492 123.756 125.953  1.00  0.00    -0.550 OA
ENDBRANCH   5   6
ENDBRANCH   1   5
TORSDOF 3
ENDMDL
MODEL 8
REMARK VINA RESULT:    -3.289      3.041      4.597
REMARK INTER + INTRA:          -3.909
REMARK INTER:                  -3.873
REMARK INTRA:                  -0.036
REMARK UNBOUND:                -0.044
REMARK SMILES O=C([O-])CCC(=O)[O-]
REMARK SMILES IDX 4 1 2 2 1 3 3 4 5 5 6 6 7 7 8 8
REMARK H PARENT
REMARK Flexibility Score: inf
ROOT
ATOM      1  C   UNL     1      99.001 123.721 126.534  1.00  0.00     0.059 C 
ENDROOT
BRANCH   1   2
ATOM      2  C   UNL     1      97.683 124.421 126.414  1.00  0.00     0.042 C 
ATOM      3  O   UNL     1      97.573 125.628 126.755  1.00  0.00    -0.550 OA
ATOM      4  O   UNL     1      96.565 123.725 125.971  1.00  0.00    -0.550 OA
ENDBRANCH   1   2
BRANCH   1   5
ATOM      5  C   UNL     1      98.810 122.206 126.467  1.00  0.00     0.059 C 
BRANCH   5   6
ATOM      6  C   UNL     1     100.135 121.511 126.473  1.00  0.00     0.042 C 
ATOM      7  O   UNL     1     100.214 120.299 126.805  1.00  0.00    -0.550 OA
ATOM      8  O   UNL     1     101.277 122.188 126.063  1.00  0.00    -0.550 OA
ENDBRANCH   5   6
ENDBRANCH   1   5
TORSDOF 3
ENDMDL
MODEL 9
REMARK VINA RESULT:    -3.195     14.621     15.727
REMARK INTER + INTRA:          -3.799
REMARK INTER:                  -3.681
REMARK INTRA:                  -0.118
REMARK UNBOUND:                -0.044
REMARK SMILES O=C([O-])CCC(=O)[O-]
REMARK SMILES IDX 4 1 2 2 1 3 3 4 5 5 6 6 7 7 8 8
REMARK H PARENT
REMARK Flexibility Score: inf
ROOT
ATOM      1  C   UNL     1      82.140 130.841 131.241  1.00  0.00     0.059 C 
ENDROOT
BRANCH   1   2
ATOM      2  C   UNL     1      82.959 131.986 131.751  1.00  0.00     0.042 C 
ATOM      3  O   UNL     1      82.646 133.169 131.456  1.00  0.00    -0.550 OA
ATOM      4  O   UNL     1      84.096 131.744 132.511  1.00  0.00    -0.550 OA
ENDBRANCH   1   2
BRANCH   1   5
ATOM      5  C   UNL     1      82.682 129.516 131.778  1.00  0.00     0.059 C 
BRANCH   5   6
ATOM      6  C   UNL     1      83.283 128.709 130.669  1.00  0.00     0.042 C 
ATOM      7  O   UNL     1      84.418 129.005 130.214  1.00  0.00    -0.550 OA
ATOM      8  O   UNL     1      82.609 127.600 130.174  1.00  0.00    -0.550 OA
ENDBRANCH   5   6
ENDBRANCH   1   5
TORSDOF 3
ENDMDL
