MODEL 1
REMARK VINA RESULT:    -3.654      0.000      0.000
REMARK INTER + INTRA:          -3.459
REMARK INTER:                  -5.150
REMARK INTRA:                   1.691
REMARK UNBOUND:                 1.691
REMARK SMILES CC1=CCC(=C(C)C)CCC(C)=CCC1
REMARK SMILES IDX 5 1 6 2 7 3 8 4 9 5 10 6 11 7 12 8 13 9 4 11 3 12 2 13 1 14
REMARK SMILES IDX 15 15 14 16
REMARK H PARENT
REMARK Flexibility Score: 60.00
ROOT
ATOM      1  C   UNL     1       4.311   8.666  12.959  1.00  0.00    -0.067 C 
ATOM      2  C   UNL     1       3.608   9.839  13.060  1.00  0.00    -0.077 C 
ATOM      3  C   UNL     1       3.542  10.607  14.365  1.00  0.00     0.039 C 
ATOM      4  C   UNL     1       2.817  10.402  11.898  1.00  0.00     0.039 C 
ENDROOT
BRANCH   1   5
ATOM      5  C   UNL     1       4.426   7.901  11.639  1.00  0.00     0.035 C 
BRANCH   5   6
ATOM      6  C   UNL     1       5.407   6.708  11.641  1.00  0.00     0.035 C 
BRANCH   6   7
ATOM      7  C   UNL     1       4.937   5.486  12.415  1.00  0.00    -0.077 C 
ATOM      8  C   UNL     1       3.572   4.912  12.125  1.00  0.00     0.039 C 
ATOM      9  C   UNL     1       5.642   4.929  13.423  1.00  0.00    -0.028 CG0
ATOM     10  G   UNL     1       7.023   5.345  13.875  1.00  0.00     0.000 G0
ENDBRANCH   6   7
ENDBRANCH   5   6
ENDBRANCH   1   5
BRANCH   1  11
ATOM     11  C   UNL     1       4.863   7.973  14.201  1.00  0.00     0.058 C 
BRANCH  11  12
ATOM     12  C   UNL     1       6.240   8.458  14.582  1.00  0.00    -0.024 C 
ATOM     13  C   UNL     1       7.410   7.876  14.227  1.00  0.00    -0.077 C 
ATOM     14  C   UNL     1       8.691   8.484  14.738  1.00  0.00     0.039 C 
BRANCH  13  15
ATOM     15  C   UNL     1       7.507   6.688  13.280  1.00  0.00     0.034 C 
BRANCH  15  16
ATOM     16  C   UNL     1       7.016   5.351  13.883  1.00  0.00     0.032 CG0
ATOM     17  G   UNL     1       5.638   4.931  13.425  1.00  0.00     0.000 G0
ENDBRANCH  15  16
ENDBRANCH  13  15
ENDBRANCH  11  12
ENDBRANCH   1  11
TORSDOF 0
ENDMDL
MODEL 2
REMARK VINA RESULT:    -0.934      2.157      4.670
REMARK INTER + INTRA:           0.375
REMARK INTER:                  -1.019
REMARK INTRA:                   1.394
REMARK UNBOUND:                 1.691
REMARK SMILES CC1=CCC(=C(C)C)CCC(C)=CCC1
REMARK SMILES IDX 5 1 6 2 7 3 8 4 9 5 10 6 11 7 12 8 13 9 4 11 3 12 2 13 1 14
REMARK SMILES IDX 15 15 14 16
REMARK H PARENT
REMARK Flexibility Score: 60.00
ROOT
ATOM      1  C   UNL     1       5.058   7.755  14.213  1.00  0.00    -0.067 C 
ATOM      2  C   UNL     1       6.384   7.431  14.344  1.00  0.00    -0.077 C 
ATOM      3  C   UNL     1       7.364   8.379  15.006  1.00  0.00     0.039 C 
ATOM      4  C   UNL     1       6.952   6.141  13.792  1.00  0.00     0.039 C 
ENDROOT
BRANCH   1   5
ATOM      5  C   UNL     1       4.046   6.793  13.590  1.00  0.00     0.035 C 
BRANCH   5   6
ATOM      6  C   UNL     1       3.939   6.840  12.050  1.00  0.00     0.035 C 
BRANCH   6   7
ATOM      7  C   UNL     1       5.007   7.667  11.353  1.00  0.00    -0.077 C 
ATOM      8  C   UNL     1       6.410   7.122  11.250  1.00  0.00     0.039 C 
ATOM      9  C   UNL     1       4.794   8.918  10.890  1.00  0.00    -0.028 CG0
ATOM     10  G   UNL     1       3.472   9.651  10.893  1.00  0.00     0.000 G0
ENDBRANCH   6   7
ENDBRANCH   5   6
ENDBRANCH   1   5
BRANCH   1  11
ATOM     11  C   UNL     1       4.562   9.165  14.519  1.00  0.00     0.058 C 
BRANCH  11  12
ATOM     12  C   UNL     1       3.081   9.333  14.281  1.00  0.00    -0.024 C 
ATOM     13  C   UNL     1       2.517  10.007  13.250  1.00  0.00    -0.077 C 
ATOM     14  C   UNL     1       1.014  10.101  13.199  1.00  0.00     0.039 C 
BRANCH  13  15
ATOM     15  C   UNL     1       3.314  10.609  12.102  1.00  0.00     0.034 C 
BRANCH  15  16
ATOM     16  C   UNL     1       3.495   9.666  10.889  1.00  0.00     0.032 CG0
ATOM     17  G   UNL     1       4.825   8.949  10.853  1.00  0.00     0.000 G0
ENDBRANCH  15  16
ENDBRANCH  13  15
ENDBRANCH  11  12
ENDBRANCH   1  11
TORSDOF 0
ENDMDL
