MODEL 1
REMARK VINA RESULT:    -5.063      0.000      0.000
REMARK INTER + INTRA:         -11.734
REMARK INTER:                  -9.206
REMARK INTRA:                  -2.527
REMARK UNBOUND:                -2.527
REMARK SMILES CCCCCC=CCC=CCCCCCCCC(=O)[O-]
REMARK SMILES IDX 11 1 12 2 13 3 14 4 15 5 16 6 17 7 18 8 19 9 20 10 10 11
REMARK SMILES IDX 9 12 8 13 7 14 6 15 5 16 4 17 3 18 2 19 1 20
REMARK H PARENT
REMARK Flexibility Score: inf
ROOT
ATOM      1  C   UNL     1     -23.184  18.117 -25.328  1.00  0.00     0.027 C 
ENDROOT
BRANCH   1   2
ATOM      2  C   UNL     1     -21.940  17.271 -25.632  1.00  0.00     0.004 C 
BRANCH   2   3
ATOM      3  C   UNL     1     -20.642  18.069 -25.461  1.00  0.00     0.000 C 
BRANCH   3   4
ATOM      4  C   UNL     1     -19.896  17.636 -24.195  1.00  0.00     0.000 C 
BRANCH   4   5
ATOM      5  C   UNL     1     -20.356  16.247 -23.733  1.00  0.00     0.000 C 
BRANCH   5   6
ATOM      6  C   UNL     1     -20.675  16.246 -22.233  1.00  0.00     0.006 C 
BRANCH   6   7
ATOM      7  C   UNL     1     -20.551  14.839 -21.644  1.00  0.00     0.053 C 
BRANCH   7   8
ATOM      8  C   UNL     1     -21.878  14.366 -21.138  1.00  0.00     0.041 C 
ATOM      9  O   UNL     1     -22.056  13.150 -20.859  1.00  0.00    -0.550 OA
ATOM     10  O   UNL     1     -22.898  15.280 -20.906  1.00  0.00    -0.550 OA
ENDBRANCH   7   8
ENDBRANCH   6   7
ENDBRANCH   5   6
ENDBRANCH   4   5
ENDBRANCH   3   4
ENDBRANCH   2   3
ENDBRANCH   1   2
BRANCH   1  11
ATOM     11  C   UNL     1     -23.852  17.673 -24.048  1.00  0.00    -0.031 C 
ATOM     12  C   UNL     1     -23.649  18.233 -22.842  1.00  0.00    -0.027 C 
BRANCH  12  13
ATOM     13  C   UNL     1     -22.693  19.364 -22.575  1.00  0.00     0.054 C 
BRANCH  13  14
ATOM     14  C   UNL     1     -22.937  19.976 -21.218  1.00  0.00    -0.027 C 
ATOM     15  C   UNL     1     -23.509  21.181 -21.051  1.00  0.00    -0.031 C 
BRANCH  15  16
ATOM     16  C   UNL     1     -23.952  22.049 -22.206  1.00  0.00     0.027 C 
BRANCH  16  17
ATOM     17  C   UNL     1     -23.096  23.315 -22.348  1.00  0.00     0.004 C 
BRANCH  17  18
ATOM     18  C   UNL     1     -22.479  23.449 -23.745  1.00  0.00     0.000 C 
BRANCH  18  19
ATOM     19  C   UNL     1     -22.926  22.300 -24.655  1.00  0.00    -0.003 C 
ATOM     20  C   UNL     1     -21.726  21.600 -25.284  1.00  0.00     0.004 C 
ENDBRANCH  18  19
ENDBRANCH  17  18
ENDBRANCH  16  17
ENDBRANCH  15  16
ENDBRANCH  13  14
ENDBRANCH  12  13
ENDBRANCH   1  11
TORSDOF 14
ENDMDL
MODEL 2
REMARK VINA RESULT:    -4.914      3.464      7.062
REMARK INTER + INTRA:         -11.463
REMARK INTER:                  -8.955
REMARK INTRA:                  -2.507
REMARK UNBOUND:                -2.527
REMARK SMILES CCCCCC=CCC=CCCCCCCCC(=O)[O-]
REMARK SMILES IDX 11 1 12 2 13 3 14 4 15 5 16 6 17 7 18 8 19 9 20 10 10 11
REMARK SMILES IDX 9 12 8 13 7 14 6 15 5 16 4 17 3 18 2 19 1 20
REMARK H PARENT
REMARK Flexibility Score: inf
ROOT
ATOM      1  C   UNL     1     -22.619  19.063 -21.665  1.00  0.00     0.027 C 
ENDROOT
BRANCH   1   2
ATOM      2  C   UNL     1     -22.997  20.482 -21.221  1.00  0.00     0.004 C 
BRANCH   2   3
ATOM      3  C   UNL     1     -24.465  20.810 -21.521  1.00  0.00     0.000 C 
BRANCH   3   4
ATOM      4  C   UNL     1     -24.575  22.026 -22.446  1.00  0.00     0.000 C 
BRANCH   4   5
ATOM      5  C   UNL     1     -23.202  22.418 -23.007  1.00  0.00     0.000 C 
BRANCH   5   6
ATOM      6  C   UNL     1     -23.163  22.247 -24.531  1.00  0.00     0.006 C 
BRANCH   6   7
ATOM      7  C   UNL     1     -21.728  22.051 -25.027  1.00  0.00     0.053 C 
BRANCH   7   8
ATOM      8  C   UNL     1     -21.101  23.372 -25.346  1.00  0.00     0.041 C 
ATOM      9  O   UNL     1     -20.025  23.716 -24.787  1.00  0.00    -0.550 OA
ATOM     10  O   UNL     1     -21.665  24.192 -26.314  1.00  0.00    -0.550 OA
ENDBRANCH   7   8
ENDBRANCH   6   7
ENDBRANCH   5   6
ENDBRANCH   4   5
ENDBRANCH   3   4
ENDBRANCH   2   3
ENDBRANCH   1   2
BRANCH   1  11
ATOM     11  C   UNL     1     -23.819  18.314 -22.193  1.00  0.00    -0.031 C 
ATOM     12  C   UNL     1     -24.001  17.962 -23.478  1.00  0.00    -0.027 C 
BRANCH  12  13
ATOM     13  C   UNL     1     -23.053  18.297 -24.598  1.00  0.00     0.054 C 
BRANCH  13  14
ATOM     14  C   UNL     1     -22.493  17.048 -25.232  1.00  0.00    -0.027 C 
ATOM     15  C   UNL     1     -21.249  16.602 -24.991  1.00  0.00    -0.031 C 
BRANCH  15  16
ATOM     16  C   UNL     1     -20.282  17.312 -24.072  1.00  0.00     0.027 C 
BRANCH  16  17
ATOM     17  C   UNL     1     -20.263  16.706 -22.663  1.00  0.00     0.004 C 
BRANCH  17  18
ATOM     18  C   UNL     1     -20.873  15.299 -22.624  1.00  0.00     0.000 C 
BRANCH  18  19
ATOM     19  C   UNL     1     -21.317  14.933 -21.205  1.00  0.00    -0.003 C 
ATOM     20  C   UNL     1     -22.838  14.895 -21.097  1.00  0.00     0.004 C 
ENDBRANCH  18  19
ENDBRANCH  17  18
ENDBRANCH  16  17
ENDBRANCH  15  16
ENDBRANCH  13  14
ENDBRANCH  12  13
ENDBRANCH   1  11
TORSDOF 14
ENDMDL
MODEL 3
REMARK VINA RESULT:    -4.873      1.324      3.220
REMARK INTER + INTRA:         -11.389
REMARK INTER:                  -9.054
REMARK INTRA:                  -2.336
REMARK UNBOUND:                -2.527
REMARK SMILES CCCCCC=CCC=CCCCCCCCC(=O)[O-]
REMARK SMILES IDX 11 1 12 2 13 3 14 4 15 5 16 6 17 7 18 8 19 9 20 10 10 11
REMARK SMILES IDX 9 12 8 13 7 14 6 15 5 16 4 17 3 18 2 19 1 20
REMARK H PARENT
REMARK Flexibility Score: inf
ROOT
ATOM      1  C   UNL     1     -21.593  17.590 -26.061  1.00  0.00     0.027 C 
ENDROOT
BRANCH   1   2
ATOM      2  C   UNL     1     -21.682  16.372 -25.134  1.00  0.00     0.004 C 
BRANCH   2   3
ATOM      3  C   UNL     1     -20.720  16.478 -23.944  1.00  0.00     0.000 C 
BRANCH   3   4
ATOM      4  C   UNL     1     -20.746  15.198 -23.103  1.00  0.00     0.000 C 
BRANCH   4   5
ATOM      5  C   UNL     1     -20.754  15.525 -21.604  1.00  0.00     0.000 C 
BRANCH   5   6
ATOM      6  C   UNL     1     -21.536  14.466 -20.817  1.00  0.00     0.006 C 
BRANCH   6   7
ATOM      7  C   UNL     1     -23.045  14.640 -21.007  1.00  0.00     0.053 C 
BRANCH   7   8
ATOM      8  C   UNL     1     -23.787  14.094 -19.828  1.00  0.00     0.041 C 
ATOM      9  O   UNL     1     -24.664  14.790 -19.251  1.00  0.00    -0.550 OA
ATOM     10  O   UNL     1     -23.560  12.790 -19.409  1.00  0.00    -0.550 OA
ENDBRANCH   7   8
ENDBRANCH   6   7
ENDBRANCH   5   6
ENDBRANCH   4   5
ENDBRANCH   3   4
ENDBRANCH   2   3
ENDBRANCH   1   2
BRANCH   1  11
ATOM     11  C   UNL     1     -20.679  18.649 -25.491  1.00  0.00    -0.031 C 
ATOM     12  C   UNL     1     -21.088  19.831 -24.995  1.00  0.00    -0.027 C 
BRANCH  12  13
ATOM     13  C   UNL     1     -22.519  20.298 -24.969  1.00  0.00     0.054 C 
BRANCH  13  14
ATOM     14  C   UNL     1     -22.628  21.692 -24.403  1.00  0.00    -0.027 C 
ATOM     15  C   UNL     1     -23.235  21.960 -23.235  1.00  0.00    -0.031 C 
BRANCH  15  16
ATOM     16  C   UNL     1     -23.881  20.895 -22.379  1.00  0.00     0.027 C 
BRANCH  16  17
ATOM     17  C   UNL     1     -22.893  20.264 -21.389  1.00  0.00     0.004 C 
BRANCH  17  18
ATOM     18  C   UNL     1     -22.634  18.782 -21.689  1.00  0.00     0.000 C 
BRANCH  18  19
ATOM     19  C   UNL     1     -23.945  17.989 -21.709  1.00  0.00    -0.003 C 
ATOM     20  C   UNL     1     -24.273  17.507 -23.118  1.00  0.00     0.004 C 
ENDBRANCH  18  19
ENDBRANCH  17  18
ENDBRANCH  16  17
ENDBRANCH  15  16
ENDBRANCH  13  14
ENDBRANCH  12  13
ENDBRANCH   1  11
TORSDOF 14
ENDMDL
MODEL 4
REMARK VINA RESULT:    -4.848      3.322      6.702
REMARK INTER + INTRA:         -11.344
REMARK INTER:                  -8.887
REMARK INTRA:                  -2.457
REMARK UNBOUND:                -2.527
REMARK SMILES CCCCCC=CCC=CCCCCCCCC(=O)[O-]
REMARK SMILES IDX 11 1 12 2 13 3 14 4 15 5 16 6 17 7 18 8 19 9 20 10 10 11
REMARK SMILES IDX 9 12 8 13 7 14 6 15 5 16 4 17 3 18 2 19 1 20
REMARK H PARENT
REMARK Flexibility Score: inf
ROOT
ATOM      1  C   UNL     1     -21.149  16.753 -21.924  1.00  0.00     0.027 C 
ENDROOT
BRANCH   1   2
ATOM      2  C   UNL     1     -20.343  16.755 -23.230  1.00  0.00     0.004 C 
BRANCH   2   3
ATOM      3  C   UNL     1     -21.140  16.171 -24.402  1.00  0.00     0.000 C 
BRANCH   3   4
ATOM      4  C   UNL     1     -21.347  17.219 -25.500  1.00  0.00     0.000 C 
BRANCH   4   5
ATOM      5  C   UNL     1     -20.622  18.527 -25.156  1.00  0.00     0.000 C 
BRANCH   5   6
ATOM      6  C   UNL     1     -21.386  19.738 -25.704  1.00  0.00     0.006 C 
BRANCH   6   7
ATOM      7  C   UNL     1     -22.422  20.239 -24.694  1.00  0.00     0.053 C 
BRANCH   7   8
ATOM      8  C   UNL     1     -22.538  21.730 -24.761  1.00  0.00     0.041 C 
ATOM      9  O   UNL     1     -23.505  22.318 -24.209  1.00  0.00    -0.550 OA
ATOM     10  O   UNL     1     -21.538  22.476 -25.371  1.00  0.00    -0.550 OA
ENDBRANCH   7   8
ENDBRANCH   6   7
ENDBRANCH   5   6
ENDBRANCH   4   5
ENDBRANCH   3   4
ENDBRANCH   2   3
ENDBRANCH   1   2
BRANCH   1  11
ATOM     11  C   UNL     1     -22.085  17.937 -21.854  1.00  0.00    -0.031 C 
ATOM     12  C   UNL     1     -23.427  17.858 -21.880  1.00  0.00    -0.027 C 
BRANCH  12  13
ATOM     13  C   UNL     1     -24.205  16.578 -22.025  1.00  0.00     0.054 C 
BRANCH  13  14
ATOM     14  C   UNL     1     -24.742  16.111 -20.694  1.00  0.00    -0.027 C 
ATOM     15  C   UNL     1     -24.375  14.951 -20.125  1.00  0.00    -0.031 C 
BRANCH  15  16
ATOM     16  C   UNL     1     -23.399  13.991 -20.765  1.00  0.00     0.027 C 
BRANCH  16  17
ATOM     17  C   UNL     1     -22.285  13.560 -19.801  1.00  0.00     0.004 C 
BRANCH  17  18
ATOM     18  C   UNL     1     -20.955  13.308 -20.522  1.00  0.00     0.000 C 
BRANCH  18  19
ATOM     19  C   UNL     1     -21.183  12.614 -21.868  1.00  0.00    -0.003 C 
ATOM     20  C   UNL     1     -20.111  13.008 -22.879  1.00  0.00     0.004 C 
ENDBRANCH  18  19
ENDBRANCH  17  18
ENDBRANCH  16  17
ENDBRANCH  15  16
ENDBRANCH  13  14
ENDBRANCH  12  13
ENDBRANCH   1  11
TORSDOF 14
ENDMDL
MODEL 5
REMARK VINA RESULT:    -4.846      1.789      4.893
REMARK INTER + INTRA:         -11.340
REMARK INTER:                  -9.162
REMARK INTRA:                  -2.178
REMARK UNBOUND:                -2.527
REMARK SMILES CCCCCC=CCC=CCCCCCCCC(=O)[O-]
REMARK SMILES IDX 11 1 12 2 13 3 14 4 15 5 16 6 17 7 18 8 19 9 20 10 10 11
REMARK SMILES IDX 9 12 8 13 7 14 6 15 5 16 4 17 3 18 2 19 1 20
REMARK H PARENT
REMARK Flexibility Score: inf
ROOT
ATOM      1  C   UNL     1     -23.300  18.923 -21.745  1.00  0.00     0.027 C 
ENDROOT
BRANCH   1   2
ATOM      2  C   UNL     1     -24.768  18.550 -21.987  1.00  0.00     0.004 C 
BRANCH   2   3
ATOM      3  C   UNL     1     -24.939  17.063 -22.325  1.00  0.00     0.000 C 
BRANCH   3   4
ATOM      4  C   UNL     1     -23.980  16.201 -21.498  1.00  0.00     0.000 C 
BRANCH   4   5
ATOM      5  C   UNL     1     -24.693  15.594 -20.283  1.00  0.00     0.000 C 
BRANCH   5   6
ATOM      6  C   UNL     1     -24.818  14.072 -20.426  1.00  0.00     0.006 C 
BRANCH   6   7
ATOM      7  C   UNL     1     -23.465  13.436 -20.756  1.00  0.00     0.053 C 
BRANCH   7   8
ATOM      8  C   UNL     1     -22.624  13.327 -19.523  1.00  0.00     0.041 C 
ATOM      9  O   UNL     1     -23.133  12.936 -18.439  1.00  0.00    -0.550 OA
ATOM     10  O   UNL     1     -21.262  13.590 -19.587  1.00  0.00    -0.550 OA
ENDBRANCH   7   8
ENDBRANCH   6   7
ENDBRANCH   5   6
ENDBRANCH   4   5
ENDBRANCH   3   4
ENDBRANCH   2   3
ENDBRANCH   1   2
BRANCH   1  11
ATOM     11  C   UNL     1     -23.072  20.404 -21.929  1.00  0.00    -0.031 C 
ATOM     12  C   UNL     1     -22.940  21.020 -23.117  1.00  0.00    -0.027 C 
BRANCH  12  13
ATOM     13  C   UNL     1     -22.959  20.319 -24.449  1.00  0.00     0.054 C 
BRANCH  13  14
ATOM     14  C   UNL     1     -21.575  20.243 -25.045  1.00  0.00    -0.027 C 
ATOM     15  C   UNL     1     -21.089  19.131 -25.622  1.00  0.00    -0.031 C 
BRANCH  15  16
ATOM     16  C   UNL     1     -21.873  17.843 -25.719  1.00  0.00     0.027 C 
BRANCH  16  17
ATOM     17  C   UNL     1     -21.802  17.017 -24.428  1.00  0.00     0.004 C 
BRANCH  17  18
ATOM     18  C   UNL     1     -20.403  17.035 -23.799  1.00  0.00     0.000 C 
BRANCH  18  19
ATOM     19  C   UNL     1     -20.380  16.240 -22.490  1.00  0.00    -0.003 C 
ATOM     20  C   UNL     1     -20.581  14.751 -22.748  1.00  0.00     0.004 C 
ENDBRANCH  18  19
ENDBRANCH  17  18
ENDBRANCH  16  17
ENDBRANCH  15  16
ENDBRANCH  13  14
ENDBRANCH  12  13
ENDBRANCH   1  11
TORSDOF 14
ENDMDL
MODEL 6
REMARK VINA RESULT:    -4.786      1.504      3.134
REMARK INTER + INTRA:         -11.230
REMARK INTER:                  -8.952
REMARK INTRA:                  -2.277
REMARK UNBOUND:                -2.527
REMARK SMILES CCCCCC=CCC=CCCCCCCCC(=O)[O-]
REMARK SMILES IDX 11 1 12 2 13 3 14 4 15 5 16 6 17 7 18 8 19 9 20 10 10 11
REMARK SMILES IDX 9 12 8 13 7 14 6 15 5 16 4 17 3 18 2 19 1 20
REMARK H PARENT
REMARK Flexibility Score: inf
ROOT
ATOM      1  C   UNL     1     -20.299  17.466 -24.117  1.00  0.00     0.027 C 
ENDROOT
BRANCH   1   2
ATOM      2  C   UNL     1     -20.213  16.743 -22.767  1.00  0.00     0.004 C 
BRANCH   2   3
ATOM      3  C   UNL     1     -20.643  15.275 -22.869  1.00  0.00     0.000 C 
BRANCH   3   4
ATOM      4  C   UNL     1     -21.769  14.964 -21.877  1.00  0.00     0.000 C 
BRANCH   4   5
ATOM      5  C   UNL     1     -21.202  14.474 -20.538  1.00  0.00     0.000 C 
BRANCH   5   6
ATOM      6  C   UNL     1     -21.812  13.122 -20.146  1.00  0.00     0.006 C 
BRANCH   6   7
ATOM      7  C   UNL     1     -22.713  13.260 -18.916  1.00  0.00     0.053 C 
BRANCH   7   8
ATOM      8  C   UNL     1     -24.124  13.536 -19.331  1.00  0.00     0.041 C 
ATOM      9  O   UNL     1     -24.812  12.637 -19.884  1.00  0.00    -0.550 OA
ATOM     10  O   UNL     1     -24.704  14.764 -19.041  1.00  0.00    -0.550 OA
ENDBRANCH   7   8
ENDBRANCH   6   7
ENDBRANCH   5   6
ENDBRANCH   4   5
ENDBRANCH   3   4
ENDBRANCH   2   3
ENDBRANCH   1   2
BRANCH   1  11
ATOM     11  C   UNL     1     -21.240  16.757 -25.061  1.00  0.00    -0.031 C 
ATOM     12  C   UNL     1     -22.525  17.098 -25.266  1.00  0.00    -0.027 C 
BRANCH  12  13
ATOM     13  C   UNL     1     -23.236  18.217 -24.553  1.00  0.00     0.054 C 
BRANCH  13  14
ATOM     14  C   UNL     1     -23.955  17.714 -23.327  1.00  0.00    -0.027 C 
ATOM     15  C   UNL     1     -23.708  18.182 -22.092  1.00  0.00    -0.031 C 
BRANCH  15  16
ATOM     16  C   UNL     1     -22.677  19.249 -21.806  1.00  0.00     0.027 C 
BRANCH  16  17
ATOM     17  C   UNL     1     -23.301  20.522 -21.219  1.00  0.00     0.004 C 
BRANCH  17  18
ATOM     18  C   UNL     1     -23.939  21.409 -22.295  1.00  0.00     0.000 C 
BRANCH  18  19
ATOM     19  C   UNL     1     -22.866  22.103 -23.140  1.00  0.00    -0.003 C 
ATOM     20  C   UNL     1     -23.110  21.880 -24.629  1.00  0.00     0.004 C 
ENDBRANCH  18  19
ENDBRANCH  17  18
ENDBRANCH  16  17
ENDBRANCH  15  16
ENDBRANCH  13  14
ENDBRANCH  12  13
ENDBRANCH   1  11
TORSDOF 14
ENDMDL
MODEL 7
REMARK VINA RESULT:    -4.763      3.531      7.056
REMARK INTER + INTRA:         -11.188
REMARK INTER:                  -8.865
REMARK INTRA:                  -2.322
REMARK UNBOUND:                -2.527
REMARK SMILES CCCCCC=CCC=CCCCCCCCC(=O)[O-]
REMARK SMILES IDX 11 1 12 2 13 3 14 4 15 5 16 6 17 7 18 8 19 9 20 10 10 11
REMARK SMILES IDX 9 12 8 13 7 14 6 15 5 16 4 17 3 18 2 19 1 20
REMARK H PARENT
REMARK Flexibility Score: inf
ROOT
ATOM      1  C   UNL     1     -23.838  17.511 -23.739  1.00  0.00     0.027 C 
ENDROOT
BRANCH   1   2
ATOM      2  C   UNL     1     -24.108  18.379 -22.503  1.00  0.00     0.004 C 
BRANCH   2   3
ATOM      3  C   UNL     1     -23.110  19.536 -22.379  1.00  0.00     0.000 C 
BRANCH   3   4
ATOM      4  C   UNL     1     -23.839  20.876 -22.233  1.00  0.00     0.000 C 
BRANCH   4   5
ATOM      5  C   UNL     1     -23.026  22.016 -22.860  1.00  0.00     0.000 C 
BRANCH   5   6
ATOM      6  C   UNL     1     -23.086  21.954 -24.391  1.00  0.00     0.006 C 
BRANCH   6   7
ATOM      7  C   UNL     1     -21.681  21.982 -24.999  1.00  0.00     0.053 C 
BRANCH   7   8
ATOM      8  C   UNL     1     -21.262  23.390 -25.283  1.00  0.00     0.041 C 
ATOM      9  O   UNL     1     -22.078  24.207 -25.786  1.00  0.00    -0.550 OA
ATOM     10  O   UNL     1     -19.991  23.820 -24.926  1.00  0.00    -0.550 OA
ENDBRANCH   7   8
ENDBRANCH   6   7
ENDBRANCH   5   6
ENDBRANCH   4   5
ENDBRANCH   3   4
ENDBRANCH   2   3
ENDBRANCH   1   2
BRANCH   1  11
ATOM     11  C   UNL     1     -23.228  18.323 -24.858  1.00  0.00    -0.031 C 
ATOM     12  C   UNL     1     -22.056  18.047 -25.457  1.00  0.00    -0.027 C 
BRANCH  12  13
ATOM     13  C   UNL     1     -21.149  16.907 -25.076  1.00  0.00     0.054 C 
BRANCH  13  14
ATOM     14  C   UNL     1     -20.241  17.291 -23.935  1.00  0.00    -0.027 C 
ATOM     15  C   UNL     1     -20.172  16.591 -22.790  1.00  0.00    -0.031 C 
BRANCH  15  16
ATOM     16  C   UNL     1     -21.007  15.359 -22.525  1.00  0.00     0.027 C 
BRANCH  16  17
ATOM     17  C   UNL     1     -22.014  15.571 -21.387  1.00  0.00     0.004 C 
BRANCH  17  18
ATOM     18  C   UNL     1     -22.668  14.259 -20.936  1.00  0.00     0.000 C 
BRANCH  18  19
ATOM     19  C   UNL     1     -24.194  14.393 -20.893  1.00  0.00    -0.003 C 
ATOM     20  C   UNL     1     -24.613  15.677 -20.186  1.00  0.00     0.004 C 
ENDBRANCH  18  19
ENDBRANCH  17  18
ENDBRANCH  16  17
ENDBRANCH  15  16
ENDBRANCH  13  14
ENDBRANCH  12  13
ENDBRANCH   1  11
TORSDOF 14
ENDMDL
MODEL 8
REMARK VINA RESULT:    -4.745      3.667      6.933
REMARK INTER + INTRA:         -11.155
REMARK INTER:                  -8.991
REMARK INTRA:                  -2.165
REMARK UNBOUND:                -2.527
REMARK SMILES CCCCCC=CCC=CCCCCCCCC(=O)[O-]
REMARK SMILES IDX 11 1 12 2 13 3 14 4 15 5 16 6 17 7 18 8 19 9 20 10 10 11
REMARK SMILES IDX 9 12 8 13 7 14 6 15 5 16 4 17 3 18 2 19 1 20
REMARK H PARENT
REMARK Flexibility Score: inf
ROOT
ATOM      1  C   UNL     1     -22.686  19.009 -21.697  1.00  0.00     0.027 C 
ENDROOT
BRANCH   1   2
ATOM      2  C   UNL     1     -23.095  20.417 -21.249  1.00  0.00     0.004 C 
BRANCH   2   3
ATOM      3  C   UNL     1     -24.026  21.099 -22.259  1.00  0.00     0.000 C 
BRANCH   3   4
ATOM      4  C   UNL     1     -23.250  22.081 -23.143  1.00  0.00     0.000 C 
BRANCH   4   5
ATOM      5  C   UNL     1     -22.869  21.434 -24.481  1.00  0.00     0.000 C 
BRANCH   5   6
ATOM      6  C   UNL     1     -21.555  22.016 -25.016  1.00  0.00     0.006 C 
BRANCH   6   7
ATOM      7  C   UNL     1     -21.721  23.487 -25.405  1.00  0.00     0.053 C 
BRANCH   7   8
ATOM      8  C   UNL     1     -20.389  24.167 -25.462  1.00  0.00     0.041 C 
ATOM      9  O   UNL     1     -19.498  23.892 -24.614  1.00  0.00    -0.550 OA
ATOM     10  O   UNL     1     -20.105  25.051 -26.494  1.00  0.00    -0.550 OA
ENDBRANCH   7   8
ENDBRANCH   6   7
ENDBRANCH   5   6
ENDBRANCH   4   5
ENDBRANCH   3   4
ENDBRANCH   2   3
ENDBRANCH   1   2
BRANCH   1  11
ATOM     11  C   UNL     1     -23.763  18.365 -22.539  1.00  0.00    -0.031 C 
ATOM     12  C   UNL     1     -24.471  17.279 -22.181  1.00  0.00    -0.027 C 
BRANCH  12  13
ATOM     13  C   UNL     1     -24.270  16.511 -20.902  1.00  0.00     0.054 C 
BRANCH  13  14
ATOM     14  C   UNL     1     -23.935  15.067 -21.180  1.00  0.00    -0.027 C 
ATOM     15  C   UNL     1     -22.676  14.628 -21.345  1.00  0.00    -0.031 C 
BRANCH  15  16
ATOM     16  C   UNL     1     -21.471  15.538 -21.284  1.00  0.00     0.027 C 
BRANCH  16  17
ATOM     17  C   UNL     1     -20.566  15.392 -22.514  1.00  0.00     0.004 C 
BRANCH  17  18
ATOM     18  C   UNL     1     -20.163  16.748 -23.107  1.00  0.00     0.000 C 
BRANCH  18  19
ATOM     19  C   UNL     1     -20.904  17.015 -24.420  1.00  0.00    -0.003 C 
ATOM     20  C   UNL     1     -20.523  18.373 -25.001  1.00  0.00     0.004 C 
ENDBRANCH  18  19
ENDBRANCH  17  18
ENDBRANCH  16  17
ENDBRANCH  15  16
ENDBRANCH  13  14
ENDBRANCH  12  13
ENDBRANCH   1  11
TORSDOF 14
ENDMDL
MODEL 9
REMARK VINA RESULT:    -4.689      2.186      3.597
REMARK INTER + INTRA:         -11.053
REMARK INTER:                  -8.611
REMARK INTRA:                  -2.443
REMARK UNBOUND:                -2.527
REMARK SMILES CCCCCC=CCC=CCCCCCCCC(=O)[O-]
REMARK SMILES IDX 11 1 12 2 13 3 14 4 15 5 16 6 17 7 18 8 19 9 20 10 10 11
REMARK SMILES IDX 9 12 8 13 7 14 6 15 5 16 4 17 3 18 2 19 1 20
REMARK H PARENT
REMARK Flexibility Score: inf
ROOT
ATOM      1  C   UNL     1     -23.829  18.994 -22.770  1.00  0.00     0.027 C 
ENDROOT
BRANCH   1   2
ATOM      2  C   UNL     1     -24.031  17.473 -22.757  1.00  0.00     0.004 C 
BRANCH   2   3
ATOM      3  C   UNL     1     -23.398  16.816 -21.524  1.00  0.00     0.000 C 
BRANCH   3   4
ATOM      4  C   UNL     1     -22.306  15.823 -21.933  1.00  0.00     0.000 C 
BRANCH   4   5
ATOM      5  C   UNL     1     -20.974  16.542 -22.185  1.00  0.00     0.000 C 
BRANCH   5   6
ATOM      6  C   UNL     1     -20.525  16.369 -23.641  1.00  0.00     0.006 C 
BRANCH   6   7
ATOM      7  C   UNL     1     -20.505  17.713 -24.375  1.00  0.00     0.053 C 
BRANCH   7   8
ATOM      8  C   UNL     1     -21.257  17.616 -25.665  1.00  0.00     0.041 C 
ATOM      9  O   UNL     1     -22.363  17.016 -25.713  1.00  0.00    -0.550 OA
ATOM     10  O   UNL     1     -20.769  18.249 -26.801  1.00  0.00    -0.550 OA
ENDBRANCH   7   8
ENDBRANCH   6   7
ENDBRANCH   5   6
ENDBRANCH   4   5
ENDBRANCH   3   4
ENDBRANCH   2   3
ENDBRANCH   1   2
BRANCH   1  11
ATOM     11  C   UNL     1     -22.874  19.431 -21.685  1.00  0.00    -0.031 C 
ATOM     12  C   UNL     1     -22.969  20.583 -20.996  1.00  0.00    -0.027 C 
BRANCH  12  13
ATOM     13  C   UNL     1     -24.020  21.634 -21.230  1.00  0.00     0.054 C 
BRANCH  13  14
ATOM     14  C   UNL     1     -23.407  23.009 -21.318  1.00  0.00    -0.027 C 
ATOM     15  C   UNL     1     -23.703  23.880 -22.297  1.00  0.00    -0.031 C 
BRANCH  15  16
ATOM     16  C   UNL     1     -24.669  23.565 -23.416  1.00  0.00     0.027 C 
BRANCH  16  17
ATOM     17  C   UNL     1     -23.961  23.013 -24.660  1.00  0.00     0.004 C 
BRANCH  17  18
ATOM     18  C   UNL     1     -22.612  23.697 -24.916  1.00  0.00     0.000 C 
BRANCH  18  19
ATOM     19  C   UNL     1     -21.482  22.666 -25.004  1.00  0.00    -0.003 C 
ATOM     20  C   UNL     1     -22.027  21.244 -24.907  1.00  0.00     0.004 C 
ENDBRANCH  18  19
ENDBRANCH  17  18
ENDBRANCH  16  17
ENDBRANCH  15  16
ENDBRANCH  13  14
ENDBRANCH  12  13
ENDBRANCH   1  11
TORSDOF 14
ENDMDL
