MODEL 1
REMARK VINA RESULT:    -3.964      0.000      0.000
REMARK INTER + INTRA:          -7.538
REMARK INTER:                  -6.281
REMARK INTRA:                  -1.257
REMARK UNBOUND:                -1.257
REMARK SMILES CCCCCCCCCCCC(=O)[O-]
REMARK SMILES IDX 7 1 8 2 9 3 10 4 11 5 12 6 13 7 14 8 6 9 5 10 4 11 3 12 2 13
REMARK SMILES IDX 1 14
REMARK H PARENT
REMARK Flexibility Score: inf
ROOT
ATOM      1  C   UNL     1      10.907 -18.298  30.774  1.00  0.00     0.000 C 
ENDROOT
BRANCH   1   2
ATOM      2  C   UNL     1      10.350 -17.285  31.788  1.00  0.00     0.000 C 
BRANCH   2   3
ATOM      3  C   UNL     1       9.571 -17.960  32.931  1.00  0.00     0.000 C 
BRANCH   3   4
ATOM      4  C   UNL     1       8.826 -16.948  33.815  1.00  0.00     0.006 C 
BRANCH   4   5
ATOM      5  C   UNL     1       9.386 -16.880  35.242  1.00  0.00     0.053 C 
BRANCH   5   6
ATOM      6  C   UNL     1       9.862 -15.496  35.550  1.00  0.00     0.041 C 
ATOM      7  O   UNL     1      10.818 -14.995  34.901  1.00  0.00    -0.550 OA
ATOM      8  O   UNL     1       9.285 -14.777  36.589  1.00  0.00    -0.550 OA
ENDBRANCH   5   6
ENDBRANCH   4   5
ENDBRANCH   3   4
ENDBRANCH   2   3
ENDBRANCH   1   2
BRANCH   1   9
ATOM      9  C   UNL     1      10.758 -19.753  31.252  1.00  0.00     0.000 C 
BRANCH   9  10
ATOM     10  C   UNL     1      10.281 -20.695  30.136  1.00  0.00    -0.000 C 
BRANCH  10  11
ATOM     11  C   UNL     1       9.001 -20.198  29.442  1.00  0.00    -0.000 C 
BRANCH  11  12
ATOM     12  C   UNL     1       7.723 -20.700  30.148  1.00  0.00    -0.000 C 
BRANCH  12  13
ATOM     13  C   UNL     1       6.985 -19.605  30.937  1.00  0.00    -0.003 C 
ATOM     14  C   UNL     1       7.041 -18.238  30.258  1.00  0.00     0.004 C 
ENDBRANCH  12  13
ENDBRANCH  11  12
ENDBRANCH  10  11
ENDBRANCH   9  10
ENDBRANCH   1   9
TORSDOF 10
ENDMDL
MODEL 2
REMARK VINA RESULT:    -3.923      1.037      2.249
REMARK INTER + INTRA:          -7.473
REMARK INTER:                  -6.423
REMARK INTRA:                  -1.051
REMARK UNBOUND:                -1.257
REMARK SMILES CCCCCCCCCCCC(=O)[O-]
REMARK SMILES IDX 7 1 8 2 9 3 10 4 11 5 12 6 13 7 14 8 6 9 5 10 4 11 3 12 2 13
REMARK SMILES IDX 1 14
REMARK H PARENT
REMARK Flexibility Score: inf
ROOT
ATOM      1  C   UNL     1       9.779 -17.901  32.968  1.00  0.00     0.000 C 
ENDROOT
BRANCH   1   2
ATOM      2  C   UNL     1       8.361 -17.425  33.323  1.00  0.00     0.000 C 
BRANCH   2   3
ATOM      3  C   UNL     1       8.235 -16.991  34.795  1.00  0.00     0.000 C 
BRANCH   3   4
ATOM      4  C   UNL     1       9.600 -16.733  35.452  1.00  0.00     0.006 C 
BRANCH   4   5
ATOM      5  C   UNL     1       9.719 -15.320  36.040  1.00  0.00     0.053 C 
BRANCH   5   6
ATOM      6  C   UNL     1      10.643 -14.486  35.211  1.00  0.00     0.041 C 
ATOM      7  O   UNL     1      10.552 -14.496  33.955  1.00  0.00    -0.550 OA
ATOM      8  O   UNL     1      11.640 -13.736  35.822  1.00  0.00    -0.550 OA
ENDBRANCH   5   6
ENDBRANCH   4   5
ENDBRANCH   3   4
ENDBRANCH   2   3
ENDBRANCH   1   2
BRANCH   1   9
ATOM      9  C   UNL     1      10.322 -17.236  31.691  1.00  0.00     0.000 C 
BRANCH   9  10
ATOM     10  C   UNL     1      10.924 -18.251  30.706  1.00  0.00    -0.000 C 
BRANCH  10  11
ATOM     11  C   UNL     1      10.797 -19.704  31.195  1.00  0.00    -0.000 C 
BRANCH  11  12
ATOM     12  C   UNL     1      10.165 -20.624  30.129  1.00  0.00    -0.000 C 
BRANCH  12  13
ATOM     13  C   UNL     1       8.830 -20.097  29.575  1.00  0.00    -0.003 C 
ATOM     14  C   UNL     1       7.722 -20.050  30.626  1.00  0.00     0.004 C 
ENDBRANCH  12  13
ENDBRANCH  11  12
ENDBRANCH  10  11
ENDBRANCH   9  10
ENDBRANCH   1   9
TORSDOF 10
ENDMDL
MODEL 3
REMARK VINA RESULT:    -3.788      3.503      6.612
REMARK INTER + INTRA:          -7.260
REMARK INTER:                  -6.394
REMARK INTRA:                  -0.865
REMARK UNBOUND:                -1.257
REMARK SMILES CCCCCCCCCCCC(=O)[O-]
REMARK SMILES IDX 7 1 8 2 9 3 10 4 11 5 12 6 13 7 14 8 6 9 5 10 4 11 3 12 2 13
REMARK SMILES IDX 1 14
REMARK H PARENT
REMARK Flexibility Score: inf
ROOT
ATOM      1  C   UNL     1       8.073 -17.283  33.382  1.00  0.00     0.000 C 
ENDROOT
BRANCH   1   2
ATOM      2  C   UNL     1       9.374 -17.901  32.843  1.00  0.00     0.000 C 
BRANCH   2   3
ATOM      3  C   UNL     1       9.117 -18.989  31.784  1.00  0.00     0.000 C 
BRANCH   3   4
ATOM      4  C   UNL     1      10.405 -19.444  31.081  1.00  0.00     0.006 C 
BRANCH   4   5
ATOM      5  C   UNL     1      10.207 -20.713  30.241  1.00  0.00     0.053 C 
BRANCH   5   6
ATOM      6  C   UNL     1       9.770 -20.358  28.855  1.00  0.00     0.041 C 
ATOM      7  O   UNL     1       9.877 -19.174  28.440  1.00  0.00    -0.550 OA
ATOM      8  O   UNL     1       9.197 -21.324  28.038  1.00  0.00    -0.550 OA
ENDBRANCH   5   6
ENDBRANCH   4   5
ENDBRANCH   3   4
ENDBRANCH   2   3
ENDBRANCH   1   2
BRANCH   1   9
ATOM      9  C   UNL     1       8.195 -16.840  34.851  1.00  0.00     0.000 C 
BRANCH   9  10
ATOM     10  C   UNL     1       9.651 -16.823  35.343  1.00  0.00    -0.000 C 
BRANCH  10  11
ATOM     11  C   UNL     1      10.025 -15.509  36.053  1.00  0.00    -0.000 C 
BRANCH  11  12
ATOM     12  C   UNL     1      10.449 -14.410  35.056  1.00  0.00    -0.000 C 
BRANCH  12  13
ATOM     13  C   UNL     1      11.292 -14.937  33.881  1.00  0.00    -0.003 C 
ATOM     14  C   UNL     1      10.750 -14.511  32.518  1.00  0.00     0.004 C 
ENDBRANCH  12  13
ENDBRANCH  11  12
ENDBRANCH  10  11
ENDBRANCH   9  10
ENDBRANCH   1   9
TORSDOF 10
ENDMDL
MODEL 4
REMARK VINA RESULT:    -3.775      4.031      6.586
REMARK INTER + INTRA:          -7.240
REMARK INTER:                  -6.385
REMARK INTRA:                  -0.854
REMARK UNBOUND:                -1.257
REMARK SMILES CCCCCCCCCCCC(=O)[O-]
REMARK SMILES IDX 7 1 8 2 9 3 10 4 11 5 12 6 13 7 14 8 6 9 5 10 4 11 3 12 2 13
REMARK SMILES IDX 1 14
REMARK H PARENT
REMARK Flexibility Score: inf
ROOT
ATOM      1  C   UNL     1      10.124 -17.277  31.735  1.00  0.00     0.000 C 
ENDROOT
BRANCH   1   2
ATOM      2  C   UNL     1      11.000 -18.278  30.963  1.00  0.00     0.000 C 
BRANCH   2   3
ATOM      3  C   UNL     1      10.777 -19.732  31.419  1.00  0.00     0.000 C 
BRANCH   3   4
ATOM      4  C   UNL     1      10.427 -20.668  30.251  1.00  0.00     0.006 C 
BRANCH   4   5
ATOM      5  C   UNL     1       9.029 -20.403  29.676  1.00  0.00     0.053 C 
BRANCH   5   6
ATOM      6  C   UNL     1       8.977 -20.787  28.232  1.00  0.00     0.041 C 
ATOM      7  O   UNL     1      10.042 -20.912  27.570  1.00  0.00    -0.550 OA
ATOM      8  O   UNL     1       7.752 -20.957  27.601  1.00  0.00    -0.550 OA
ENDBRANCH   5   6
ENDBRANCH   4   5
ENDBRANCH   3   4
ENDBRANCH   2   3
ENDBRANCH   1   2
BRANCH   1   9
ATOM      9  C   UNL     1       9.285 -17.952  32.834  1.00  0.00     0.000 C 
BRANCH   9  10
ATOM     10  C   UNL     1       8.516 -16.939  33.697  1.00  0.00    -0.000 C 
BRANCH  10  11
ATOM     11  C   UNL     1       8.860 -17.047  35.192  1.00  0.00    -0.000 C 
BRANCH  11  12
ATOM     12  C   UNL     1      10.036 -16.129  35.587  1.00  0.00    -0.000 C 
BRANCH  12  13
ATOM     13  C   UNL     1      10.112 -14.835  34.757  1.00  0.00    -0.003 C 
ATOM     14  C   UNL     1      11.442 -14.672  34.023  1.00  0.00     0.004 C 
ENDBRANCH  12  13
ENDBRANCH  11  12
ENDBRANCH  10  11
ENDBRANCH   9  10
ENDBRANCH   1   9
TORSDOF 10
ENDMDL
MODEL 5
REMARK VINA RESULT:    -3.737      1.240      1.908
REMARK INTER + INTRA:          -7.179
REMARK INTER:                  -6.603
REMARK INTRA:                  -0.576
REMARK UNBOUND:                -1.257
REMARK SMILES CCCCCCCCCCCC(=O)[O-]
REMARK SMILES IDX 7 1 8 2 9 3 10 4 11 5 12 6 13 7 14 8 6 9 5 10 4 11 3 12 2 13
REMARK SMILES IDX 1 14
REMARK H PARENT
REMARK Flexibility Score: inf
ROOT
ATOM      1  C   UNL     1      10.807 -18.216  30.893  1.00  0.00     0.000 C 
ENDROOT
BRANCH   1   2
ATOM      2  C   UNL     1      10.218 -17.353  32.022  1.00  0.00     0.000 C 
BRANCH   2   3
ATOM      3  C   UNL     1       8.952 -17.974  32.641  1.00  0.00     0.000 C 
BRANCH   3   4
ATOM      4  C   UNL     1       8.475 -17.216  33.890  1.00  0.00     0.006 C 
BRANCH   4   5
ATOM      5  C   UNL     1       9.525 -17.193  35.008  1.00  0.00     0.053 C 
BRANCH   5   6
ATOM      6  C   UNL     1       9.884 -15.784  35.358  1.00  0.00     0.041 C 
ATOM      7  O   UNL     1      10.301 -15.503  36.513  1.00  0.00    -0.550 OA
ATOM      8  O   UNL     1       9.710 -14.770  34.425  1.00  0.00    -0.550 OA
ENDBRANCH   5   6
ENDBRANCH   4   5
ENDBRANCH   3   4
ENDBRANCH   2   3
ENDBRANCH   1   2
BRANCH   1   9
ATOM      9  C   UNL     1      10.793 -19.717  31.230  1.00  0.00     0.000 C 
BRANCH   9  10
ATOM     10  C   UNL     1      10.232 -20.574  30.084  1.00  0.00    -0.000 C 
BRANCH  10  11
ATOM     11  C   UNL     1       8.694 -20.571  30.034  1.00  0.00    -0.000 C 
BRANCH  11  12
ATOM     12  C   UNL     1       8.140 -21.673  29.107  1.00  0.00    -0.000 C 
BRANCH  12  13
ATOM     13  C   UNL     1       6.729 -22.150  29.493  1.00  0.00    -0.003 C 
ATOM     14  C   UNL     1       6.475 -23.615  29.141  1.00  0.00     0.004 C 
ENDBRANCH  12  13
ENDBRANCH  11  12
ENDBRANCH  10  11
ENDBRANCH   9  10
ENDBRANCH   1   9
TORSDOF 10
ENDMDL
MODEL 6
REMARK VINA RESULT:    -3.734      3.481      5.953
REMARK INTER + INTRA:          -7.174
REMARK INTER:                  -5.882
REMARK INTRA:                  -1.291
REMARK UNBOUND:                -1.257
REMARK SMILES CCCCCCCCCCCC(=O)[O-]
REMARK SMILES IDX 7 1 8 2 9 3 10 4 11 5 12 6 13 7 14 8 6 9 5 10 4 11 3 12 2 13
REMARK SMILES IDX 1 14
REMARK H PARENT
REMARK Flexibility Score: inf
ROOT
ATOM      1  C   UNL     1       9.585 -16.515  31.360  1.00  0.00     0.000 C 
ENDROOT
BRANCH   1   2
ATOM      2  C   UNL     1      10.722 -17.548  31.434  1.00  0.00     0.000 C 
BRANCH   2   3
ATOM      3  C   UNL     1      10.235 -18.927  31.914  1.00  0.00     0.000 C 
BRANCH   3   4
ATOM      4  C   UNL     1       9.168 -19.531  30.987  1.00  0.00     0.006 C 
BRANCH   4   5
ATOM      5  C   UNL     1       9.726 -20.639  30.083  1.00  0.00     0.053 C 
BRANCH   5   6
ATOM      6  C   UNL     1       9.776 -20.176  28.662  1.00  0.00     0.041 C 
ATOM      7  O   UNL     1      10.056 -20.988  27.740  1.00  0.00    -0.550 OA
ATOM      8  O   UNL     1       9.565 -18.838  28.358  1.00  0.00    -0.550 OA
ENDBRANCH   5   6
ENDBRANCH   4   5
ENDBRANCH   3   4
ENDBRANCH   2   3
ENDBRANCH   1   2
BRANCH   1   9
ATOM      9  C   UNL     1       9.842 -15.289  32.253  1.00  0.00     0.000 C 
BRANCH   9  10
ATOM     10  C   UNL     1      10.812 -15.592  33.407  1.00  0.00    -0.000 C 
BRANCH  10  11
ATOM     11  C   UNL     1      10.109 -15.663  34.774  1.00  0.00    -0.000 C 
BRANCH  11  12
ATOM     12  C   UNL     1       9.539 -17.068  35.063  1.00  0.00    -0.000 C 
BRANCH  12  13
ATOM     13  C   UNL     1       8.017 -17.081  35.289  1.00  0.00    -0.003 C 
ATOM     14  C   UNL     1       7.227 -17.402  34.022  1.00  0.00     0.004 C 
ENDBRANCH  12  13
ENDBRANCH  11  12
ENDBRANCH  10  11
ENDBRANCH   9  10
ENDBRANCH   1   9
TORSDOF 10
ENDMDL
MODEL 7
REMARK VINA RESULT:    -3.731      1.021      2.605
REMARK INTER + INTRA:          -7.169
REMARK INTER:                  -5.965
REMARK INTRA:                  -1.204
REMARK UNBOUND:                -1.257
REMARK SMILES CCCCCCCCCCCC(=O)[O-]
REMARK SMILES IDX 7 1 8 2 9 3 10 4 11 5 12 6 13 7 14 8 6 9 5 10 4 11 3 12 2 13
REMARK SMILES IDX 1 14
REMARK H PARENT
REMARK Flexibility Score: inf
ROOT
ATOM      1  C   UNL     1       6.953 -19.303  31.299  1.00  0.00     0.000 C 
ENDROOT
BRANCH   1   2
ATOM      2  C   UNL     1       7.371 -17.907  31.789  1.00  0.00     0.000 C 
BRANCH   2   3
ATOM      3  C   UNL     1       7.598 -17.859  33.311  1.00  0.00     0.000 C 
BRANCH   3   4
ATOM      4  C   UNL     1       9.010 -17.377  33.681  1.00  0.00     0.006 C 
BRANCH   4   5
ATOM      5  C   UNL     1       9.212 -17.240  35.197  1.00  0.00     0.053 C 
BRANCH   5   6
ATOM      6  C   UNL     1       9.354 -15.800  35.576  1.00  0.00     0.041 C 
ATOM      7  O   UNL     1      10.381 -15.404  36.188  1.00  0.00    -0.550 OA
ATOM      8  O   UNL     1       8.331 -14.903  35.299  1.00  0.00    -0.550 OA
ENDBRANCH   5   6
ENDBRANCH   4   5
ENDBRANCH   3   4
ENDBRANCH   2   3
ENDBRANCH   1   2
BRANCH   1   9
ATOM      9  C   UNL     1       7.588 -19.668  29.946  1.00  0.00     0.000 C 
BRANCH   9  10
ATOM     10  C   UNL     1       8.671 -20.751  30.074  1.00  0.00    -0.000 C 
BRANCH  10  11
ATOM     11  C   UNL     1      10.094 -20.196  29.892  1.00  0.00    -0.000 C 
BRANCH  11  12
ATOM     12  C   UNL     1      10.670 -19.631  31.208  1.00  0.00    -0.000 C 
BRANCH  12  13
ATOM     13  C   UNL     1      11.201 -18.192  31.079  1.00  0.00    -0.003 C 
ATOM     14  C   UNL     1      10.521 -17.401  29.963  1.00  0.00     0.004 C 
ENDBRANCH  12  13
ENDBRANCH  11  12
ENDBRANCH  10  11
ENDBRANCH   9  10
ENDBRANCH   1   9
TORSDOF 10
ENDMDL
MODEL 8
REMARK VINA RESULT:    -3.673      1.148      1.702
REMARK INTER + INTRA:          -7.077
REMARK INTER:                  -5.779
REMARK INTRA:                  -1.298
REMARK UNBOUND:                -1.257
REMARK SMILES CCCCCCCCCCCC(=O)[O-]
REMARK SMILES IDX 7 1 8 2 9 3 10 4 11 5 12 6 13 7 14 8 6 9 5 10 4 11 3 12 2 13
REMARK SMILES IDX 1 14
REMARK H PARENT
REMARK Flexibility Score: inf
ROOT
ATOM      1  C   UNL     1      10.715 -19.743  31.265  1.00  0.00     0.000 C 
ENDROOT
BRANCH   1   2
ATOM      2  C   UNL     1      10.591 -18.342  30.644  1.00  0.00     0.000 C 
BRANCH   2   3
ATOM      3  C   UNL     1      10.155 -17.279  31.669  1.00  0.00     0.000 C 
BRANCH   3   4
ATOM      4  C   UNL     1       9.719 -17.895  33.007  1.00  0.00     0.006 C 
BRANCH   4   5
ATOM      5  C   UNL     1       8.495 -17.192  33.613  1.00  0.00     0.053 C 
BRANCH   5   6
ATOM      6  C   UNL     1       8.639 -17.081  35.097  1.00  0.00     0.041 C 
ATOM      7  O   UNL     1       9.743 -16.750  35.605  1.00  0.00    -0.550 OA
ATOM      8  O   UNL     1       7.568 -17.393  35.925  1.00  0.00    -0.550 OA
ENDBRANCH   5   6
ENDBRANCH   4   5
ENDBRANCH   3   4
ENDBRANCH   2   3
ENDBRANCH   1   2
BRANCH   1   9
ATOM      9  C   UNL     1      10.341 -20.861  30.276  1.00  0.00     0.000 C 
BRANCH   9  10
ATOM     10  C   UNL     1       9.154 -20.482  29.376  1.00  0.00    -0.000 C 
BRANCH  10  11
ATOM     11  C   UNL     1       7.945 -21.416  29.560  1.00  0.00    -0.000 C 
BRANCH  11  12
ATOM     12  C   UNL     1       6.696 -20.658  30.058  1.00  0.00    -0.000 C 
BRANCH  12  13
ATOM     13  C   UNL     1       7.017 -19.526  31.048  1.00  0.00    -0.003 C 
ATOM     14  C   UNL     1       6.596 -18.148  30.539  1.00  0.00     0.004 C 
ENDBRANCH  12  13
ENDBRANCH  11  12
ENDBRANCH  10  11
ENDBRANCH   9  10
ENDBRANCH   1   9
TORSDOF 10
ENDMDL
MODEL 9
REMARK VINA RESULT:    -3.669      1.820      3.825
REMARK INTER + INTRA:          -7.071
REMARK INTER:                  -5.894
REMARK INTRA:                  -1.177
REMARK UNBOUND:                -1.257
REMARK SMILES CCCCCCCCCCCC(=O)[O-]
REMARK SMILES IDX 7 1 8 2 9 3 10 4 11 5 12 6 13 7 14 8 6 9 5 10 4 11 3 12 2 13
REMARK SMILES IDX 1 14
REMARK H PARENT
REMARK Flexibility Score: inf
ROOT
ATOM      1  C   UNL     1       9.193 -17.510  34.044  1.00  0.00     0.000 C 
ENDROOT
BRANCH   1   2
ATOM      2  C   UNL     1       8.916 -16.699  35.321  1.00  0.00     0.000 C 
BRANCH   2   3
ATOM      3  C   UNL     1      10.132 -15.869  35.769  1.00  0.00     0.000 C 
BRANCH   3   4
ATOM      4  C   UNL     1      10.264 -14.550  34.991  1.00  0.00     0.006 C 
BRANCH   4   5
ATOM      5  C   UNL     1      11.585 -14.447  34.216  1.00  0.00     0.053 C 
BRANCH   5   6
ATOM      6  C   UNL     1      12.447 -13.372  34.795  1.00  0.00     0.041 C 
ATOM      7  O   UNL     1      12.664 -13.332  36.035  1.00  0.00    -0.550 OA
ATOM      8  O   UNL     1      12.972 -12.383  33.973  1.00  0.00    -0.550 OA
ENDBRANCH   5   6
ENDBRANCH   4   5
ENDBRANCH   3   4
ENDBRANCH   2   3
ENDBRANCH   1   2
BRANCH   1   9
ATOM      9  C   UNL     1       8.380 -17.008  32.838  1.00  0.00     0.000 C 
BRANCH   9  10
ATOM     10  C   UNL     1       9.271 -16.439  31.722  1.00  0.00    -0.000 C 
BRANCH  10  11
ATOM     11  C   UNL     1      10.703 -17.000  31.757  1.00  0.00    -0.000 C 
BRANCH  11  12
ATOM     12  C   UNL     1      10.929 -18.084  30.682  1.00  0.00    -0.000 C 
BRANCH  12  13
ATOM     13  C   UNL     1      10.670 -19.514  31.186  1.00  0.00    -0.003 C 
ATOM     14  C   UNL     1       9.456 -20.169  30.529  1.00  0.00     0.004 C 
ENDBRANCH  12  13
ENDBRANCH  11  12
ENDBRANCH  10  11
ENDBRANCH   9  10
ENDBRANCH   1   9
TORSDOF 10
ENDMDL
