MODEL 1
REMARK VINA RESULT:    -6.266      0.000      0.000
REMARK INTER + INTRA:          -7.497
REMARK INTER:                  -7.365
REMARK INTRA:                  -0.133
REMARK UNBOUND:                -0.133
REMARK SMILES O=C([O-])C=Cc1ccc(O)c(O)c1
REMARK SMILES IDX 6 1 13 2 7 3 11 4 8 5 9 6 5 7 4 8 2 9 1 10 3 11 12 12 10 14
REMARK H PARENT 12 13 10 15
REMARK Flexibility Score: inf
ROOT
ATOM      1  C   UNL     1     -31.887  -3.426 -18.028  1.00  0.00    -0.022 A 
ATOM      2  C   UNL     1     -32.686  -2.915 -19.066  1.00  0.00     0.058 A 
ATOM      3  C   UNL     1     -30.486  -3.363 -18.156  1.00  0.00     0.012 A 
ATOM      4  C   UNL     1     -32.106  -2.329 -20.196  1.00  0.00     0.157 A 
ATOM      5  C   UNL     1     -29.903  -2.778 -19.285  1.00  0.00     0.051 A 
ATOM      6  C   UNL     1     -30.707  -2.257 -20.307  1.00  0.00     0.157 A 
ENDROOT
BRANCH   1   7
ATOM      7  C   UNL     1     -32.555  -4.046 -16.857  1.00  0.00     0.010 C 
ATOM      8  C   UNL     1     -33.880  -4.228 -16.765  1.00  0.00     0.025 C 
BRANCH   8   9
ATOM      9  C   UNL     1     -34.507  -4.857 -15.592  1.00  0.00     0.064 C 
ATOM     10  O   UNL     1     -35.046  -5.994 -15.671  1.00  0.00    -0.545 OA
ATOM     11  O   UNL     1     -34.504  -4.189 -14.376  1.00  0.00    -0.545 OA
ENDBRANCH   8   9
ENDBRANCH   1   7
BRANCH   4  12
ATOM     12  O   UNL     1     -32.934  -1.824 -21.197  1.00  0.00    -0.504 OA
ATOM     13  H   UNL     1     -33.941  -1.785 -21.095  1.00  0.00     0.293 HD
ENDBRANCH   4  12
BRANCH   6  14
ATOM     14  O   UNL     1     -30.123  -1.673 -21.430  1.00  0.00    -0.504 OA
ATOM     15  H   UNL     1     -30.500  -0.831 -21.846  1.00  0.00     0.293 HD
ENDBRANCH   6  14
TORSDOF 4
ENDMDL
MODEL 2
REMARK VINA RESULT:    -5.872      4.055      8.365
REMARK INTER + INTRA:          -7.034
REMARK INTER:                  -6.907
REMARK INTRA:                  -0.127
REMARK UNBOUND:                -0.133
REMARK SMILES O=C([O-])C=Cc1ccc(O)c(O)c1
REMARK SMILES IDX 6 1 13 2 7 3 11 4 8 5 9 6 5 7 4 8 2 9 1 10 3 11 12 12 10 14
REMARK H PARENT 12 13 10 15
REMARK Flexibility Score: inf
ROOT
ATOM      1  C   UNL     1     -36.723  -6.856 -15.352  1.00  0.00    -0.022 A 
ATOM      2  C   UNL     1     -37.939  -7.445 -15.737  1.00  0.00     0.058 A 
ATOM      3  C   UNL     1     -36.155  -7.218 -14.115  1.00  0.00     0.012 A 
ATOM      4  C   UNL     1     -38.567  -8.394 -14.923  1.00  0.00     0.157 A 
ATOM      5  C   UNL     1     -36.780  -8.166 -13.299  1.00  0.00     0.051 A 
ATOM      6  C   UNL     1     -37.984  -8.759 -13.698  1.00  0.00     0.157 A 
ENDROOT
BRANCH   1   7
ATOM      7  C   UNL     1     -36.106  -5.847 -16.249  1.00  0.00     0.010 C 
ATOM      8  C   UNL     1     -34.873  -5.961 -16.763  1.00  0.00     0.025 C 
BRANCH   8   9
ATOM      9  C   UNL     1     -34.298  -4.946 -17.660  1.00  0.00     0.064 C 
ATOM     10  O   UNL     1     -34.820  -4.694 -18.779  1.00  0.00    -0.545 OA
ATOM     11  O   UNL     1     -33.162  -4.253 -17.266  1.00  0.00    -0.545 OA
ENDBRANCH   8   9
ENDBRANCH   1   7
BRANCH   4  12
ATOM     12  O   UNL     1     -39.767  -8.962 -15.347  1.00  0.00    -0.504 OA
ATOM     13  H   UNL     1     -40.298  -9.598 -14.764  1.00  0.00     0.293 HD
ENDBRANCH   4  12
BRANCH   6  14
ATOM     14  O   UNL     1     -38.604  -9.706 -12.883  1.00  0.00    -0.504 OA
ATOM     15  H   UNL     1     -38.507  -9.681 -11.876  1.00  0.00     0.293 HD
ENDBRANCH   6  14
TORSDOF 4
ENDMDL
MODEL 3
REMARK VINA RESULT:    -5.684      4.023      8.532
REMARK INTER + INTRA:          -6.813
REMARK INTER:                  -6.680
REMARK INTRA:                  -0.133
REMARK UNBOUND:                -0.133
REMARK SMILES O=C([O-])C=Cc1ccc(O)c(O)c1
REMARK SMILES IDX 6 1 13 2 7 3 11 4 8 5 9 6 5 7 4 8 2 9 1 10 3 11 12 12 10 14
REMARK H PARENT 12 13 10 15
REMARK Flexibility Score: inf
ROOT
ATOM      1  C   UNL     1     -36.969  -7.038 -15.715  1.00  0.00    -0.022 A 
ATOM      2  C   UNL     1     -36.256  -7.358 -14.546  1.00  0.00     0.058 A 
ATOM      3  C   UNL     1     -38.216  -7.653 -15.940  1.00  0.00     0.012 A 
ATOM      4  C   UNL     1     -36.784  -8.250 -13.606  1.00  0.00     0.157 A 
ATOM      5  C   UNL     1     -38.744  -8.546 -15.002  1.00  0.00     0.051 A 
ATOM      6  C   UNL     1     -38.035  -8.846 -13.833  1.00  0.00     0.157 A 
ENDROOT
BRANCH   1   7
ATOM      7  C   UNL     1     -36.358  -6.094 -16.683  1.00  0.00     0.010 C 
ATOM      8  C   UNL     1     -35.045  -5.828 -16.737  1.00  0.00     0.025 C 
BRANCH   8   9
ATOM      9  C   UNL     1     -34.472  -4.893 -17.719  1.00  0.00     0.064 C 
ATOM     10  O   UNL     1     -33.319  -4.407 -17.563  1.00  0.00    -0.545 OA
ATOM     11  O   UNL     1     -35.214  -4.540 -18.838  1.00  0.00    -0.545 OA
ENDBRANCH   8   9
ENDBRANCH   1   7
BRANCH   4  12
ATOM     12  O   UNL     1     -36.050  -8.532 -12.455  1.00  0.00    -0.504 OA
ATOM     13  H   UNL     1     -36.430  -8.391 -11.526  1.00  0.00     0.293 HD
ENDBRANCH   4  12
BRANCH   6  14
ATOM     14  O   UNL     1     -38.567  -9.735 -12.899  1.00  0.00    -0.504 OA
ATOM     15  H   UNL     1     -38.068 -10.571 -12.620  1.00  0.00     0.293 HD
ENDBRANCH   6  14
TORSDOF 4
ENDMDL
MODEL 4
REMARK VINA RESULT:    -5.583      4.671      9.163
REMARK INTER + INTRA:          -6.695
REMARK INTER:                  -6.568
REMARK INTRA:                  -0.126
REMARK UNBOUND:                -0.133
REMARK SMILES O=C([O-])C=Cc1ccc(O)c(O)c1
REMARK SMILES IDX 6 1 13 2 7 3 11 4 8 5 9 6 5 7 4 8 2 9 1 10 3 11 12 12 10 14
REMARK H PARENT 12 13 10 15
REMARK Flexibility Score: inf
ROOT
ATOM      1  C   UNL     1     -37.218  -7.220 -13.921  1.00  0.00    -0.022 A 
ATOM      2  C   UNL     1     -38.478  -6.596 -13.952  1.00  0.00     0.058 A 
ATOM      3  C   UNL     1     -37.150  -8.597 -13.633  1.00  0.00     0.012 A 
ATOM      4  C   UNL     1     -39.647  -7.329 -13.727  1.00  0.00     0.157 A 
ATOM      5  C   UNL     1     -38.318  -9.332 -13.406  1.00  0.00     0.051 A 
ATOM      6  C   UNL     1     -39.570  -8.705 -13.454  1.00  0.00     0.157 A 
ENDROOT
BRANCH   1   7
ATOM      7  C   UNL     1     -36.010  -6.393 -14.158  1.00  0.00     0.010 C 
ATOM      8  C   UNL     1     -35.596  -6.008 -15.374  1.00  0.00     0.025 C 
BRANCH   8   9
ATOM      9  C   UNL     1     -34.398  -5.176 -15.569  1.00  0.00     0.064 C 
ATOM     10  O   UNL     1     -34.163  -4.185 -14.827  1.00  0.00    -0.545 OA
ATOM     11  O   UNL     1     -33.509  -5.489 -16.589  1.00  0.00    -0.545 OA
ENDBRANCH   8   9
ENDBRANCH   1   7
BRANCH   4  12
ATOM     12  O   UNL     1     -40.877  -6.674 -13.777  1.00  0.00    -0.504 OA
ATOM     13  H   UNL     1     -41.138  -5.966 -13.102  1.00  0.00     0.293 HD
ENDBRANCH   4  12
BRANCH   6  14
ATOM     14  O   UNL     1     -40.732  -9.442 -13.230  1.00  0.00    -0.504 OA
ATOM     15  H   UNL     1     -41.514  -9.405 -13.872  1.00  0.00     0.293 HD
ENDBRANCH   6  14
TORSDOF 4
ENDMDL
MODEL 5
REMARK VINA RESULT:    -5.564      3.465      4.550
REMARK INTER + INTRA:          -6.673
REMARK INTER:                  -6.544
REMARK INTRA:                  -0.129
REMARK UNBOUND:                -0.133
REMARK SMILES O=C([O-])C=Cc1ccc(O)c(O)c1
REMARK SMILES IDX 6 1 13 2 7 3 11 4 8 5 9 6 5 7 4 8 2 9 1 10 3 11 12 12 10 14
REMARK H PARENT 12 13 10 15
REMARK Flexibility Score: inf
ROOT
ATOM      1  C   UNL     1     -31.821  -4.908 -17.112  1.00  0.00    -0.022 A 
ATOM      2  C   UNL     1     -33.052  -5.552 -17.326  1.00  0.00     0.058 A 
ATOM      3  C   UNL     1     -31.633  -3.611 -17.630  1.00  0.00     0.012 A 
ATOM      4  C   UNL     1     -34.086  -4.911 -18.017  1.00  0.00     0.157 A 
ATOM      5  C   UNL     1     -32.666  -2.969 -18.321  1.00  0.00     0.051 A 
ATOM      6  C   UNL     1     -33.895  -3.612 -18.516  1.00  0.00     0.157 A 
ENDROOT
BRANCH   1   7
ATOM      7  C   UNL     1     -30.756  -5.638 -16.382  1.00  0.00     0.010 C 
ATOM      8  C   UNL     1     -30.370  -6.888 -16.679  1.00  0.00     0.025 C 
BRANCH   8   9
ATOM      9  C   UNL     1     -29.300  -7.577 -15.939  1.00  0.00     0.064 C 
ATOM     10  O   UNL     1     -29.267  -7.566 -14.679  1.00  0.00    -0.545 OA
ATOM     11  O   UNL     1     -28.311  -8.251 -16.642  1.00  0.00    -0.545 OA
ENDBRANCH   8   9
ENDBRANCH   1   7
BRANCH   4  12
ATOM     12  O   UNL     1     -35.296  -5.580 -18.199  1.00  0.00    -0.504 OA
ATOM     13  H   UNL     1     -35.976  -5.286 -18.889  1.00  0.00     0.293 HD
ENDBRANCH   4  12
BRANCH   6  14
ATOM     14  O   UNL     1     -34.922  -2.967 -19.204  1.00  0.00    -0.504 OA
ATOM     15  H   UNL     1     -34.937  -1.961 -19.312  1.00  0.00     0.293 HD
ENDBRANCH   6  14
TORSDOF 4
ENDMDL
MODEL 6
REMARK VINA RESULT:    -5.474      3.991      5.693
REMARK INTER + INTRA:          -6.566
REMARK INTER:                  -6.434
REMARK INTRA:                  -0.132
REMARK UNBOUND:                -0.133
REMARK SMILES O=C([O-])C=Cc1ccc(O)c(O)c1
REMARK SMILES IDX 6 1 13 2 7 3 11 4 8 5 9 6 5 7 4 8 2 9 1 10 3 11 12 12 10 14
REMARK H PARENT 12 13 10 15
REMARK Flexibility Score: inf
ROOT
ATOM      1  C   UNL     1     -35.861  -6.017 -15.246  1.00  0.00    -0.022 A 
ATOM      2  C   UNL     1     -35.153  -6.299 -16.427  1.00  0.00     0.058 A 
ATOM      3  C   UNL     1     -35.385  -5.000 -14.395  1.00  0.00     0.012 A 
ATOM      4  C   UNL     1     -34.010  -5.568 -16.770  1.00  0.00     0.157 A 
ATOM      5  C   UNL     1     -34.243  -4.269 -14.736  1.00  0.00     0.051 A 
ATOM      6  C   UNL     1     -33.552  -4.546 -15.922  1.00  0.00     0.157 A 
ENDROOT
BRANCH   1   7
ATOM      7  C   UNL     1     -37.061  -6.830 -14.926  1.00  0.00     0.010 C 
ATOM      8  C   UNL     1     -37.245  -7.459 -13.757  1.00  0.00     0.025 C 
BRANCH   8   9
ATOM      9  C   UNL     1     -38.454  -8.247 -13.470  1.00  0.00     0.064 C 
ATOM     10  O   UNL     1     -38.444  -9.506 -13.539  1.00  0.00    -0.545 OA
ATOM     11  O   UNL     1     -39.627  -7.593 -13.116  1.00  0.00    -0.545 OA
ENDBRANCH   8   9
ENDBRANCH   1   7
BRANCH   4  12
ATOM     12  O   UNL     1     -33.342  -5.872 -17.956  1.00  0.00    -0.504 OA
ATOM     13  H   UNL     1     -32.702  -5.222 -18.396  1.00  0.00     0.293 HD
ENDBRANCH   4  12
BRANCH   6  14
ATOM     14  O   UNL     1     -32.415  -3.813 -16.259  1.00  0.00    -0.504 OA
ATOM     15  H   UNL     1     -31.999  -3.874 -17.180  1.00  0.00     0.293 HD
ENDBRANCH   6  14
TORSDOF 4
ENDMDL
MODEL 7
REMARK VINA RESULT:    -5.442      3.206      4.391
REMARK INTER + INTRA:          -6.529
REMARK INTER:                  -6.397
REMARK INTRA:                  -0.132
REMARK UNBOUND:                -0.133
REMARK SMILES O=C([O-])C=Cc1ccc(O)c(O)c1
REMARK SMILES IDX 6 1 13 2 7 3 11 4 8 5 9 6 5 7 4 8 2 9 1 10 3 11 12 12 10 14
REMARK H PARENT 12 13 10 15
REMARK Flexibility Score: inf
ROOT
ATOM      1  C   UNL     1     -35.690  -5.636 -17.146  1.00  0.00    -0.022 A 
ATOM      2  C   UNL     1     -36.515  -4.837 -17.956  1.00  0.00     0.058 A 
ATOM      3  C   UNL     1     -34.295  -5.459 -17.213  1.00  0.00     0.012 A 
ATOM      4  C   UNL     1     -35.967  -3.862 -18.797  1.00  0.00     0.157 A 
ATOM      5  C   UNL     1     -33.745  -4.486 -18.054  1.00  0.00     0.051 A 
ATOM      6  C   UNL     1     -34.575  -3.683 -18.846  1.00  0.00     0.157 A 
ENDROOT
BRANCH   1   7
ATOM      7  C   UNL     1     -36.324  -6.661 -16.280  1.00  0.00     0.010 C 
ATOM      8  C   UNL     1     -36.025  -6.829 -14.983  1.00  0.00     0.025 C 
BRANCH   8   9
ATOM      9  C   UNL     1     -36.684  -7.849 -14.151  1.00  0.00     0.064 C 
ATOM     10  O   UNL     1     -36.347  -8.028 -12.950  1.00  0.00    -0.545 OA
ATOM     11  O   UNL     1     -37.694  -8.628 -14.699  1.00  0.00    -0.545 OA
ENDBRANCH   8   9
ENDBRANCH   1   7
BRANCH   4  12
ATOM     12  O   UNL     1     -36.821  -3.083 -19.577  1.00  0.00    -0.504 OA
ATOM     13  H   UNL     1     -37.418  -3.485 -20.289  1.00  0.00     0.293 HD
ENDBRANCH   4  12
BRANCH   6  14
ATOM     14  O   UNL     1     -34.023  -2.713 -19.682  1.00  0.00    -0.504 OA
ATOM     15  H   UNL     1     -33.932  -1.749 -19.386  1.00  0.00     0.293 HD
ENDBRANCH   6  14
TORSDOF 4
ENDMDL
MODEL 8
REMARK VINA RESULT:    -5.408      1.992      2.715
REMARK INTER + INTRA:          -6.489
REMARK INTER:                  -6.360
REMARK INTRA:                  -0.129
REMARK UNBOUND:                -0.133
REMARK SMILES O=C([O-])C=Cc1ccc(O)c(O)c1
REMARK SMILES IDX 6 1 13 2 7 3 11 4 8 5 9 6 5 7 4 8 2 9 1 10 3 11 12 12 10 14
REMARK H PARENT 12 13 10 15
REMARK Flexibility Score: inf
ROOT
ATOM      1  C   UNL     1     -33.704  -4.661 -16.651  1.00  0.00    -0.022 A 
ATOM      2  C   UNL     1     -34.184  -4.030 -17.812  1.00  0.00     0.058 A 
ATOM      3  C   UNL     1     -32.348  -4.503 -16.303  1.00  0.00     0.012 A 
ATOM      4  C   UNL     1     -33.341  -3.237 -18.598  1.00  0.00     0.157 A 
ATOM      5  C   UNL     1     -31.504  -3.711 -17.088  1.00  0.00     0.051 A 
ATOM      6  C   UNL     1     -31.994  -3.074 -18.234  1.00  0.00     0.157 A 
ENDROOT
BRANCH   1   7
ATOM      7  C   UNL     1     -34.639  -5.498 -15.860  1.00  0.00     0.010 C 
ATOM      8  C   UNL     1     -35.496  -6.375 -16.403  1.00  0.00     0.025 C 
BRANCH   8   9
ATOM      9  C   UNL     1     -36.402  -7.198 -15.586  1.00  0.00     0.064 C 
ATOM     10  O   UNL     1     -36.417  -8.454 -15.692  1.00  0.00    -0.545 OA
ATOM     11  O   UNL     1     -37.254  -6.581 -14.680  1.00  0.00    -0.545 OA
ENDBRANCH   8   9
ENDBRANCH   1   7
BRANCH   4  12
ATOM     12  O   UNL     1     -33.859  -2.621 -19.737  1.00  0.00    -0.504 OA
ATOM     13  H   UNL     1     -34.651  -2.999 -20.241  1.00  0.00     0.293 HD
ENDBRANCH   4  12
BRANCH   6  14
ATOM     14  O   UNL     1     -31.149  -2.283 -19.013  1.00  0.00    -0.504 OA
ATOM     15  H   UNL     1     -30.163  -2.195 -18.802  1.00  0.00     0.293 HD
ENDBRANCH   6  14
TORSDOF 4
ENDMDL
MODEL 9
REMARK VINA RESULT:    -5.336      6.417      9.719
REMARK INTER + INTRA:          -6.404
REMARK INTER:                  -6.275
REMARK INTRA:                  -0.129
REMARK UNBOUND:                -0.133
REMARK SMILES O=C([O-])C=Cc1ccc(O)c(O)c1
REMARK SMILES IDX 6 1 13 2 7 3 11 4 8 5 9 6 5 7 4 8 2 9 1 10 3 11 12 12 10 14
REMARK H PARENT 12 13 10 15
REMARK Flexibility Score: inf
ROOT
ATOM      1  C   UNL     1     -38.622  -6.076 -13.398  1.00  0.00    -0.022 A 
ATOM      2  C   UNL     1     -40.015  -6.264 -13.382  1.00  0.00     0.058 A 
ATOM      3  C   UNL     1     -37.784  -7.207 -13.395  1.00  0.00     0.012 A 
ATOM      4  C   UNL     1     -40.565  -7.550 -13.391  1.00  0.00     0.157 A 
ATOM      5  C   UNL     1     -38.331  -8.494 -13.404  1.00  0.00     0.051 A 
ATOM      6  C   UNL     1     -39.720  -8.673 -13.405  1.00  0.00     0.157 A 
ENDROOT
BRANCH   1   7
ATOM      7  C   UNL     1     -38.093  -4.690 -13.377  1.00  0.00     0.010 C 
ATOM      8  C   UNL     1     -37.326  -4.170 -14.347  1.00  0.00     0.025 C 
BRANCH   8   9
ATOM      9  C   UNL     1     -36.829  -2.786 -14.298  1.00  0.00     0.064 C 
ATOM     10  O   UNL     1     -36.211  -2.280 -15.273  1.00  0.00    -0.545 OA
ATOM     11  O   UNL     1     -37.045  -2.023 -13.159  1.00  0.00    -0.545 OA
ENDBRANCH   8   9
ENDBRANCH   1   7
BRANCH   4  12
ATOM     12  O   UNL     1     -41.952  -7.694 -13.387  1.00  0.00    -0.504 OA
ATOM     13  H   UNL     1     -42.411  -8.479 -12.941  1.00  0.00     0.293 HD
ENDBRANCH   4  12
BRANCH   6  14
ATOM     14  O   UNL     1     -40.262  -9.957 -13.415  1.00  0.00    -0.504 OA
ATOM     15  H   UNL     1     -39.889 -10.694 -12.830  1.00  0.00     0.293 HD
ENDBRANCH   6  14
TORSDOF 4
ENDMDL
