MODEL 1
REMARK VINA RESULT:    -7.145      0.000      0.000
REMARK INTER + INTRA:         -11.484
REMARK INTER:                 -10.069
REMARK INTRA:                  -1.415
REMARK UNBOUND:                -1.415
REMARK SMILES OCC1=C[C@H](O)[C@H]2C=CO[C@H](O[C@H]3O[C@H](CO)[C@@H](O)[C@H](O)[C@@H]3O)[C@@H]12
REMARK SMILES IDX 12 1 11 2 8 3 9 4 7 5 10 6 24 7 5 8 3 9 4 10 6 11 2 13 1 14
REMARK SMILES IDX 13 16 22 17 14 18 20 19 15 20 18 21 23 22 21 24 16 26 17 27
REMARK SMILES IDX 19 29
REMARK H PARENT 6 12 1 15 23 23 21 25 17 28 19 30
REMARK Flexibility Score: inf
ROOT
ATOM      1  O   UNL     1       0.797  -0.181  -3.191  1.00  0.00    -0.310 OA
ENDROOT
BRANCH   1   2
ATOM      2  C   UNL     1      -0.498  -0.552  -3.646  1.00  0.00     0.316 C 
ATOM      3  C   UNL     1      -2.939  -2.023  -3.402  1.00  0.00     0.018 C 
ATOM      4  C   UNL     1      -1.800  -2.647  -3.684  1.00  0.00     0.186 C 
ATOM      5  C   UNL     1      -2.969  -0.586  -2.943  1.00  0.00     0.061 C 
ATOM      6  O   UNL     1      -0.583  -1.976  -3.599  1.00  0.00    -0.472 OA
ATOM      7  C   UNL     1      -1.583   0.082  -2.737  1.00  0.00     0.096 C 
ATOM      8  C   UNL     1      -3.700   0.308  -3.955  1.00  0.00     0.145 C 
ATOM      9  C   UNL     1      -1.866   1.506  -3.140  1.00  0.00    -0.036 C 
ATOM     10  C   UNL     1      -3.001   1.611  -3.827  1.00  0.00     0.007 C 
BRANCH   8  11
ATOM     11  O   UNL     1      -5.059   0.447  -3.633  1.00  0.00    -0.388 OA
ATOM     12  H   UNL     1      -5.122   1.252  -3.058  1.00  0.00     0.211 HD
ENDBRANCH   8  11
BRANCH   9  13
ATOM     13  C   UNL     1      -0.901   2.654  -3.015  1.00  0.00     0.187 C 
BRANCH  13  14
ATOM     14  O   UNL     1      -0.037   2.466  -1.920  1.00  0.00    -0.392 OA
ATOM     15  H   UNL     1      -0.509   1.831  -1.307  1.00  0.00     0.211 HD
ENDBRANCH  13  14
ENDBRANCH   9  13
ENDBRANCH   1   2
BRANCH   1  16
ATOM     16  C   UNL     1       1.720   0.208  -4.206  1.00  0.00     0.286 C 
ATOM     17  C   UNL     1       2.913  -0.781  -4.490  1.00  0.00     0.202 C 
ATOM     18  O   UNL     1       2.191   1.510  -3.885  1.00  0.00    -0.341 OA
ATOM     19  C   UNL     1       4.226  -0.024  -4.791  1.00  0.00     0.179 C 
ATOM     20  C   UNL     1       3.260   1.460  -2.948  1.00  0.00     0.178 C 
ATOM     21  C   UNL     1       4.557   0.967  -3.651  1.00  0.00     0.177 C 
BRANCH  17  22
ATOM     22  O   UNL     1       2.615  -1.690  -5.528  1.00  0.00    -0.385 OA
ATOM     23  H   UNL     1       1.695  -1.498  -5.847  1.00  0.00     0.211 HD
ENDBRANCH  17  22
BRANCH  19  24
ATOM     24  O   UNL     1       4.179   0.627  -6.045  1.00  0.00    -0.387 OA
ATOM     25  H   UNL     1       3.871  -0.025  -6.722  1.00  0.00     0.211 HD
ENDBRANCH  19  24
BRANCH  20  26
ATOM     26  C   UNL     1       3.418   2.852  -2.315  1.00  0.00     0.191 C 
BRANCH  26  27
ATOM     27  O   UNL     1       2.595   3.003  -1.178  1.00  0.00    -0.394 OA
ATOM     28  H   UNL     1       1.844   2.356  -1.279  1.00  0.00     0.210 HD
ENDBRANCH  26  27
ENDBRANCH  20  26
BRANCH  21  29
ATOM     29  O   UNL     1       5.376   0.305  -2.715  1.00  0.00    -0.387 OA
ATOM     30  H   UNL     1       6.185   0.862  -2.569  1.00  0.00     0.211 HD
ENDBRANCH  21  29
ENDBRANCH   1  16
TORSDOF 10
ENDMDL
MODEL 2
REMARK VINA RESULT:    -6.904      2.078      3.030
REMARK INTER + INTRA:         -11.144
REMARK INTER:                  -9.766
REMARK INTRA:                  -1.379
REMARK UNBOUND:                -1.415
REMARK SMILES OCC1=C[C@H](O)[C@H]2C=CO[C@H](O[C@H]3O[C@H](CO)[C@@H](O)[C@H](O)[C@@H]3O)[C@@H]12
REMARK SMILES IDX 12 1 11 2 8 3 9 4 7 5 10 6 24 7 5 8 3 9 4 10 6 11 2 13 1 14
REMARK SMILES IDX 13 16 22 17 14 18 20 19 15 20 18 21 23 22 21 24 16 26 17 27
REMARK SMILES IDX 19 29
REMARK H PARENT 6 12 1 15 23 23 21 25 17 28 19 30
REMARK Flexibility Score: inf
ROOT
ATOM      1  O   UNL     1      -0.464  -2.490  -3.651  1.00  0.00    -0.310 OA
ENDROOT
BRANCH   1   2
ATOM      2  C   UNL     1      -1.750  -3.089  -3.756  1.00  0.00     0.316 C 
ATOM      3  C   UNL     1      -3.655  -5.118  -3.098  1.00  0.00     0.018 C 
ATOM      4  C   UNL     1      -2.593  -5.406  -3.842  1.00  0.00     0.186 C 
ATOM      5  C   UNL     1      -3.777  -3.812  -2.354  1.00  0.00     0.061 C 
ATOM      6  O   UNL     1      -1.561  -4.484  -3.993  1.00  0.00    -0.472 OA
ATOM      7  C   UNL     1      -2.546  -2.870  -2.444  1.00  0.00     0.096 C 
ATOM      8  C   UNL     1      -4.959  -2.981  -2.875  1.00  0.00     0.145 C 
ATOM      9  C   UNL     1      -3.198  -1.512  -2.423  1.00  0.00    -0.036 C 
ATOM     10  C   UNL     1      -4.501  -1.582  -2.689  1.00  0.00     0.007 C 
BRANCH   8  11
ATOM     11  O   UNL     1      -6.125  -3.218  -2.129  1.00  0.00    -0.388 OA
ATOM     12  H   UNL     1      -6.293  -4.194  -2.187  1.00  0.00     0.211 HD
ENDBRANCH   8  11
BRANCH   9  13
ATOM     13  C   UNL     1      -2.468  -0.197  -2.356  1.00  0.00     0.187 C 
BRANCH  13  14
ATOM     14  O   UNL     1      -1.224  -0.347  -1.715  1.00  0.00    -0.392 OA
ATOM     15  H   UNL     1      -0.903  -1.263  -1.957  1.00  0.00     0.211 HD
ENDBRANCH  13  14
ENDBRANCH   9  13
ENDBRANCH   1   2
BRANCH   1  16
ATOM     16  C   UNL     1      -0.009  -1.798  -4.812  1.00  0.00     0.286 C 
ATOM     17  C   UNL     1       1.168  -2.468  -5.616  1.00  0.00     0.202 C 
ATOM     18  O   UNL     1       0.319  -0.471  -4.422  1.00  0.00    -0.341 OA
ATOM     19  C   UNL     1       2.161  -1.419  -6.162  1.00  0.00     0.179 C 
ATOM     20  C   UNL     1       1.632  -0.398  -3.879  1.00  0.00     0.178 C 
ATOM     21  C   UNL     1       2.683  -0.517  -5.018  1.00  0.00     0.177 C 
BRANCH  17  22
ATOM     22  O   UNL     1       0.696  -3.295  -6.659  1.00  0.00    -0.385 OA
ATOM     23  H   UNL     1       0.331  -2.708  -7.371  1.00  0.00     0.211 HD
ENDBRANCH  17  22
BRANCH  19  24
ATOM     24  O   UNL     1       1.592  -0.652  -7.204  1.00  0.00    -0.387 OA
ATOM     25  H   UNL     1       2.319  -0.154  -7.655  1.00  0.00     0.211 HD
ENDBRANCH  19  24
BRANCH  20  26
ATOM     26  C   UNL     1       1.758   0.913  -3.086  1.00  0.00     0.191 C 
BRANCH  26  27
ATOM     27  O   UNL     1       2.945   0.947  -2.323  1.00  0.00    -0.394 OA
ATOM     28  H   UNL     1       3.597   0.349  -2.779  1.00  0.00     0.210 HD
ENDBRANCH  26  27
ENDBRANCH  20  26
BRANCH  21  29
ATOM     29  O   UNL     1       3.864  -1.092  -4.509  1.00  0.00    -0.387 OA
ATOM     30  H   UNL     1       4.081  -1.886  -5.063  1.00  0.00     0.211 HD
ENDBRANCH  21  29
ENDBRANCH   1  16
TORSDOF 10
ENDMDL
MODEL 3
REMARK VINA RESULT:    -6.798      2.323      4.643
REMARK INTER + INTRA:         -10.995
REMARK INTER:                  -9.780
REMARK INTRA:                  -1.215
REMARK UNBOUND:                -1.415
REMARK SMILES OCC1=C[C@H](O)[C@H]2C=CO[C@H](O[C@H]3O[C@H](CO)[C@@H](O)[C@H](O)[C@@H]3O)[C@@H]12
REMARK SMILES IDX 12 1 11 2 8 3 9 4 7 5 10 6 24 7 5 8 3 9 4 10 6 11 2 13 1 14
REMARK SMILES IDX 13 16 22 17 14 18 20 19 15 20 18 21 23 22 21 24 16 26 17 27
REMARK SMILES IDX 19 29
REMARK H PARENT 6 12 1 15 23 23 21 25 17 28 19 30
REMARK Flexibility Score: inf
ROOT
ATOM      1  O   UNL     1       0.103   1.129  -3.311  1.00  0.00    -0.310 OA
ENDROOT
BRANCH   1   2
ATOM      2  C   UNL     1      -0.166   2.144  -4.271  1.00  0.00     0.316 C 
ATOM      3  C   UNL     1      -1.952   3.845  -5.719  1.00  0.00     0.018 C 
ATOM      4  C   UNL     1      -1.934   2.536  -5.946  1.00  0.00     0.186 C 
ATOM      5  C   UNL     1      -1.249   4.458  -4.534  1.00  0.00     0.061 C 
ATOM      6  O   UNL     1      -1.225   1.680  -5.109  1.00  0.00    -0.472 OA
ATOM      7  C   UNL     1      -0.583   3.455  -3.555  1.00  0.00     0.096 C 
ATOM      8  C   UNL     1      -0.119   5.396  -4.980  1.00  0.00     0.145 C 
ATOM      9  C   UNL     1       0.624   4.231  -3.095  1.00  0.00    -0.036 C 
ATOM     10  C   UNL     1       0.884   5.263  -3.894  1.00  0.00     0.007 C 
BRANCH   8  11
ATOM     11  O   UNL     1      -0.560   6.726  -5.079  1.00  0.00    -0.388 OA
ATOM     12  H   UNL     1       0.257   7.277  -5.190  1.00  0.00     0.211 HD
ENDBRANCH   8  11
BRANCH   9  13
ATOM     13  C   UNL     1       1.583   3.792  -2.022  1.00  0.00     0.187 C 
BRANCH  13  14
ATOM     14  O   UNL     1       0.940   2.967  -1.081  1.00  0.00    -0.392 OA
ATOM     15  H   UNL     1       1.672   2.479  -0.603  1.00  0.00     0.211 HD
ENDBRANCH  13  14
ENDBRANCH   9  13
ENDBRANCH   1   2
BRANCH   1  16
ATOM     16  C   UNL     1       1.340   0.438  -3.474  1.00  0.00     0.286 C 
ATOM     17  C   UNL     1       2.186   0.799  -4.753  1.00  0.00     0.202 C 
ATOM     18  O   UNL     1       1.066  -0.956  -3.409  1.00  0.00    -0.341 OA
ATOM     19  C   UNL     1       2.876  -0.446  -5.355  1.00  0.00     0.179 C 
ATOM     20  C   UNL     1       0.632  -1.459  -4.668  1.00  0.00     0.178 C 
ATOM     21  C   UNL     1       1.839  -1.557  -5.643  1.00  0.00     0.177 C 
BRANCH  17  22
ATOM     22  O   UNL     1       3.131   1.815  -4.496  1.00  0.00    -0.385 OA
ATOM     23  H   UNL     1       2.875   2.263  -3.648  1.00  0.00     0.211 HD
ENDBRANCH  17  22
BRANCH  19  24
ATOM     24  O   UNL     1       3.920  -0.916  -4.527  1.00  0.00    -0.387 OA
ATOM     25  H   UNL     1       3.579  -0.975  -3.600  1.00  0.00     0.211 HD
ENDBRANCH  19  24
BRANCH  20  26
ATOM     26  C   UNL     1      -0.059  -2.813  -4.437  1.00  0.00     0.191 C 
BRANCH  26  27
ATOM     27  O   UNL     1       0.582  -3.852  -5.146  1.00  0.00    -0.394 OA
ATOM     28  H   UNL     1      -0.088  -4.220  -5.785  1.00  0.00     0.210 HD
ENDBRANCH  26  27
ENDBRANCH  20  26
BRANCH  21  29
ATOM     29  O   UNL     1       1.385  -1.403  -6.968  1.00  0.00    -0.387 OA
ATOM     30  H   UNL     1       2.181  -1.363  -7.561  1.00  0.00     0.211 HD
ENDBRANCH  21  29
ENDBRANCH   1  16
TORSDOF 10
ENDMDL
MODEL 4
REMARK VINA RESULT:    -6.791      1.824      4.030
REMARK INTER + INTRA:         -10.984
REMARK INTER:                  -9.652
REMARK INTRA:                  -1.333
REMARK UNBOUND:                -1.415
REMARK SMILES OCC1=C[C@H](O)[C@H]2C=CO[C@H](O[C@H]3O[C@H](CO)[C@@H](O)[C@H](O)[C@@H]3O)[C@@H]12
REMARK SMILES IDX 12 1 11 2 8 3 9 4 7 5 10 6 24 7 5 8 3 9 4 10 6 11 2 13 1 14
REMARK SMILES IDX 13 16 22 17 14 18 20 19 15 20 18 21 23 22 21 24 16 26 17 27
REMARK SMILES IDX 19 29
REMARK H PARENT 6 12 1 15 23 23 21 25 17 28 19 30
REMARK Flexibility Score: inf
ROOT
ATOM      1  O   UNL     1       1.240   0.680  -3.768  1.00  0.00    -0.310 OA
ENDROOT
BRANCH   1   2
ATOM      2  C   UNL     1       0.282  -0.284  -3.346  1.00  0.00     0.316 C 
ATOM      3  C   UNL     1      -2.406  -1.217  -3.055  1.00  0.00     0.018 C 
ATOM      4  C   UNL     1      -1.971  -0.181  -2.346  1.00  0.00     0.186 C 
ATOM      5  C   UNL     1      -1.619  -1.777  -4.214  1.00  0.00     0.061 C 
ATOM      6  O   UNL     1      -0.741   0.407  -2.629  1.00  0.00    -0.472 OA
ATOM      7  C   UNL     1      -0.320  -1.009  -4.577  1.00  0.00     0.096 C 
ATOM      8  C   UNL     1      -1.171  -3.219  -3.939  1.00  0.00     0.145 C 
ATOM      9  C   UNL     1       0.577  -2.127  -5.042  1.00  0.00    -0.036 C 
ATOM     10  C   UNL     1       0.121  -3.319  -4.663  1.00  0.00     0.007 C 
BRANCH   8  11
ATOM     11  O   UNL     1      -2.090  -4.151  -4.449  1.00  0.00    -0.388 OA
ATOM     12  H   UNL     1      -1.618  -4.631  -5.176  1.00  0.00     0.211 HD
ENDBRANCH   8  11
BRANCH   9  13
ATOM     13  C   UNL     1       1.944  -1.951  -5.646  1.00  0.00     0.187 C 
BRANCH  13  14
ATOM     14  O   UNL     1       2.925  -1.837  -4.644  1.00  0.00    -0.392 OA
ATOM     15  H   UNL     1       3.721  -2.340  -4.984  1.00  0.00     0.211 HD
ENDBRANCH  13  14
ENDBRANCH   9  13
ENDBRANCH   1   2
BRANCH   1  16
ATOM     16  C   UNL     1       2.119   1.161  -2.753  1.00  0.00     0.286 C 
ATOM     17  C   UNL     1       1.977   2.679  -2.358  1.00  0.00     0.202 C 
ATOM     18  O   UNL     1       3.448   0.851  -3.153  1.00  0.00    -0.341 OA
ATOM     19  C   UNL     1       3.348   3.328  -2.069  1.00  0.00     0.179 C 
ATOM     20  C   UNL     1       3.963   1.831  -4.048  1.00  0.00     0.178 C 
ATOM     21  C   UNL     1       4.307   3.131  -3.268  1.00  0.00     0.177 C 
BRANCH  17  22
ATOM     22  O   UNL     1       1.100   2.864  -1.267  1.00  0.00    -0.385 OA
ATOM     23  H   UNL     1       0.317   2.270  -1.401  1.00  0.00     0.211 HD
ENDBRANCH  17  22
BRANCH  19  24
ATOM     24  O   UNL     1       3.915   2.842  -0.869  1.00  0.00    -0.387 OA
ATOM     25  H   UNL     1       4.348   1.973  -1.061  1.00  0.00     0.211 HD
ENDBRANCH  19  24
BRANCH  20  26
ATOM     26  C   UNL     1       5.179   1.233  -4.776  1.00  0.00     0.191 C 
BRANCH  26  27
ATOM     27  O   UNL     1       5.035  -0.157  -4.973  1.00  0.00    -0.394 OA
ATOM     28  H   UNL     1       4.662  -0.280  -5.889  1.00  0.00     0.210 HD
ENDBRANCH  26  27
ENDBRANCH  20  26
BRANCH  21  29
ATOM     29  O   UNL     1       4.175   4.242  -4.124  1.00  0.00    -0.387 OA
ATOM     30  H   UNL     1       3.604   4.914  -3.668  1.00  0.00     0.211 HD
ENDBRANCH  21  29
ENDBRANCH   1  16
TORSDOF 10
ENDMDL
MODEL 5
REMARK VINA RESULT:    -6.751      1.882      2.793
REMARK INTER + INTRA:         -10.929
REMARK INTER:                  -9.822
REMARK INTRA:                  -1.107
REMARK UNBOUND:                -1.415
REMARK SMILES OCC1=C[C@H](O)[C@H]2C=CO[C@H](O[C@H]3O[C@H](CO)[C@@H](O)[C@H](O)[C@@H]3O)[C@@H]12
REMARK SMILES IDX 12 1 11 2 8 3 9 4 7 5 10 6 24 7 5 8 3 9 4 10 6 11 2 13 1 14
REMARK SMILES IDX 13 16 22 17 14 18 20 19 15 20 18 21 23 22 21 24 16 26 17 27
REMARK SMILES IDX 19 29
REMARK H PARENT 6 12 1 15 23 23 21 25 17 28 19 30
REMARK Flexibility Score: inf
ROOT
ATOM      1  O   UNL     1      -0.814  -1.171  -3.123  1.00  0.00    -0.310 OA
ENDROOT
BRANCH   1   2
ATOM      2  C   UNL     1      -1.638  -2.239  -3.575  1.00  0.00     0.316 C 
ATOM      3  C   UNL     1      -2.606  -4.926  -3.419  1.00  0.00     0.018 C 
ATOM      4  C   UNL     1      -1.359  -4.679  -3.807  1.00  0.00     0.186 C 
ATOM      5  C   UNL     1      -3.473  -3.860  -2.799  1.00  0.00     0.061 C 
ATOM      6  O   UNL     1      -0.818  -3.402  -3.688  1.00  0.00    -0.472 OA
ATOM      7  C   UNL     1      -2.787  -2.488  -2.564  1.00  0.00     0.096 C 
ATOM      8  C   UNL     1      -4.695  -3.554  -3.678  1.00  0.00     0.145 C 
ATOM      9  C   UNL     1      -3.928  -1.531  -2.792  1.00  0.00    -0.036 C 
ATOM     10  C   UNL     1      -4.945  -2.113  -3.424  1.00  0.00     0.007 C 
BRANCH   8  11
ATOM     11  O   UNL     1      -5.809  -4.318  -3.297  1.00  0.00    -0.388 OA
ATOM     12  H   UNL     1      -5.446  -5.138  -2.874  1.00  0.00     0.211 HD
ENDBRANCH   8  11
BRANCH   9  13
ATOM     13  C   UNL     1      -3.875  -0.043  -2.569  1.00  0.00     0.187 C 
BRANCH  13  14
ATOM     14  O   UNL     1      -2.993   0.275  -1.520  1.00  0.00    -0.392 OA
ATOM     15  H   UNL     1      -2.268   0.829  -1.933  1.00  0.00     0.211 HD
ENDBRANCH  13  14
ENDBRANCH   9  13
ENDBRANCH   1   2
BRANCH   1  16
ATOM     16  C   UNL     1       0.062  -0.612  -4.100  1.00  0.00     0.286 C 
ATOM     17  C   UNL     1       1.541  -1.152  -4.114  1.00  0.00     0.202 C 
ATOM     18  O   UNL     1       0.027   0.802  -3.949  1.00  0.00    -0.341 OA
ATOM     19  C   UNL     1       2.560  -0.030  -4.412  1.00  0.00     0.179 C 
ATOM     20  C   UNL     1       0.912   1.237  -2.924  1.00  0.00     0.178 C 
ATOM     21  C   UNL     1       2.383   1.144  -3.419  1.00  0.00     0.177 C 
BRANCH  17  22
ATOM     22  O   UNL     1       1.706  -2.225  -5.016  1.00  0.00    -0.385 OA
ATOM     23  H   UNL     1       1.838  -1.845  -5.922  1.00  0.00     0.211 HD
ENDBRANCH  17  22
BRANCH  19  24
ATOM     24  O   UNL     1       2.475   0.410  -5.752  1.00  0.00    -0.387 OA
ATOM     25  H   UNL     1       1.608   0.873  -5.873  1.00  0.00     0.211 HD
ENDBRANCH  19  24
BRANCH  20  26
ATOM     26  C   UNL     1       0.512   2.663  -2.510  1.00  0.00     0.191 C 
BRANCH  26  27
ATOM     27  O   UNL     1       0.993   2.985  -1.222  1.00  0.00    -0.394 OA
ATOM     28  H   UNL     1       0.787   3.948  -1.071  1.00  0.00     0.210 HD
ENDBRANCH  26  27
ENDBRANCH  20  26
BRANCH  21  29
ATOM     29  O   UNL     1       3.235   0.923  -2.320  1.00  0.00    -0.387 OA
ATOM     30  H   UNL     1       4.168   1.088  -2.618  1.00  0.00     0.211 HD
ENDBRANCH  21  29
ENDBRANCH   1  16
TORSDOF 10
ENDMDL
MODEL 6
REMARK VINA RESULT:    -6.721      1.744      6.221
REMARK INTER + INTRA:         -10.887
REMARK INTER:                  -9.662
REMARK INTRA:                  -1.225
REMARK UNBOUND:                -1.415
REMARK SMILES OCC1=C[C@H](O)[C@H]2C=CO[C@H](O[C@H]3O[C@H](CO)[C@@H](O)[C@H](O)[C@@H]3O)[C@@H]12
REMARK SMILES IDX 12 1 11 2 8 3 9 4 7 5 10 6 24 7 5 8 3 9 4 10 6 11 2 13 1 14
REMARK SMILES IDX 13 16 22 17 14 18 20 19 15 20 18 21 23 22 21 24 16 26 17 27
REMARK SMILES IDX 19 29
REMARK H PARENT 6 12 1 15 23 23 21 25 17 28 19 30
REMARK Flexibility Score: inf
ROOT
ATOM      1  O   UNL     1       2.277   1.345  -3.560  1.00  0.00    -0.310 OA
ENDROOT
BRANCH   1   2
ATOM      2  C   UNL     1       3.491   1.632  -2.877  1.00  0.00     0.316 C 
ATOM      3  C   UNL     1       6.265   2.328  -2.835  1.00  0.00     0.018 C 
ATOM      4  C   UNL     1       5.875   1.136  -3.274  1.00  0.00     0.186 C 
ATOM      5  C   UNL     1       5.285   3.448  -2.594  1.00  0.00     0.061 C 
ATOM      6  O   UNL     1       4.527   0.866  -3.492  1.00  0.00    -0.472 OA
ATOM      7  C   UNL     1       3.811   3.146  -2.975  1.00  0.00     0.096 C 
ATOM      8  C   UNL     1       5.244   3.844  -1.111  1.00  0.00     0.145 C 
ATOM      9  C   UNL     1       3.058   3.930  -1.933  1.00  0.00    -0.036 C 
ATOM     10  C   UNL     1       3.838   4.276  -0.912  1.00  0.00     0.007 C 
BRANCH   8  11
ATOM     11  O   UNL     1       6.126   4.901  -0.834  1.00  0.00    -0.388 OA
ATOM     12  H   UNL     1       5.747   5.373  -0.048  1.00  0.00     0.211 HD
ENDBRANCH   8  11
BRANCH   9  13
ATOM     13  C   UNL     1       1.564   4.113  -1.892  1.00  0.00     0.187 C 
BRANCH  13  14
ATOM     14  O   UNL     1       0.945   3.038  -1.227  1.00  0.00    -0.392 OA
ATOM     15  H   UNL     1       0.077   3.397  -0.882  1.00  0.00     0.211 HD
ENDBRANCH  13  14
ENDBRANCH   9  13
ENDBRANCH   1   2
BRANCH   1  16
ATOM     16  C   UNL     1       1.772   0.022  -3.391  1.00  0.00     0.286 C 
ATOM     17  C   UNL     1       1.867  -0.934  -4.639  1.00  0.00     0.202 C 
ATOM     18  O   UNL     1       0.434   0.128  -2.919  1.00  0.00    -0.341 OA
ATOM     19  C   UNL     1       0.625  -1.845  -4.761  1.00  0.00     0.179 C 
ATOM     20  C   UNL     1      -0.480   0.328  -3.991  1.00  0.00     0.178 C 
ATOM     21  C   UNL     1      -0.670  -0.999  -4.779  1.00  0.00     0.177 C 
BRANCH  17  22
ATOM     22  O   UNL     1       3.049  -1.705  -4.629  1.00  0.00    -0.385 OA
ATOM     23  H   UNL     1       3.801  -1.107  -4.383  1.00  0.00     0.211 HD
ENDBRANCH  17  22
BRANCH  19  24
ATOM     24  O   UNL     1       0.590  -2.821  -3.740  1.00  0.00    -0.387 OA
ATOM     25  H   UNL     1       1.364  -2.672  -3.142  1.00  0.00     0.211 HD
ENDBRANCH  19  24
BRANCH  20  26
ATOM     26  C   UNL     1      -1.797   0.872  -3.412  1.00  0.00     0.191 C 
BRANCH  26  27
ATOM     27  O   UNL     1      -1.565   1.887  -2.458  1.00  0.00    -0.394 OA
ATOM     28  H   UNL     1      -1.667   2.756  -2.934  1.00  0.00     0.210 HD
ENDBRANCH  26  27
ENDBRANCH  20  26
BRANCH  21  29
ATOM     29  O   UNL     1      -0.988  -0.708  -6.120  1.00  0.00    -0.387 OA
ATOM     30  H   UNL     1      -0.164  -0.375  -6.563  1.00  0.00     0.211 HD
ENDBRANCH  21  29
ENDBRANCH   1  16
TORSDOF 10
ENDMDL
MODEL 7
REMARK VINA RESULT:    -6.686      2.098      3.022
REMARK INTER + INTRA:         -10.837
REMARK INTER:                  -9.379
REMARK INTRA:                  -1.457
REMARK UNBOUND:                -1.415
REMARK SMILES OCC1=C[C@H](O)[C@H]2C=CO[C@H](O[C@H]3O[C@H](CO)[C@@H](O)[C@H](O)[C@@H]3O)[C@@H]12
REMARK SMILES IDX 12 1 11 2 8 3 9 4 7 5 10 6 24 7 5 8 3 9 4 10 6 11 2 13 1 14
REMARK SMILES IDX 13 16 22 17 14 18 20 19 15 20 18 21 23 22 21 24 16 26 17 27
REMARK SMILES IDX 19 29
REMARK H PARENT 6 12 1 15 23 23 21 25 17 28 19 30
REMARK Flexibility Score: inf
ROOT
ATOM      1  O   UNL     1      -0.991  -1.357  -3.182  1.00  0.00    -0.310 OA
ENDROOT
BRANCH   1   2
ATOM      2  C   UNL     1      -2.293  -1.824  -2.851  1.00  0.00     0.316 C 
ATOM      3  C   UNL     1      -4.262  -2.703  -0.972  1.00  0.00     0.018 C 
ATOM      4  C   UNL     1      -3.204  -3.459  -1.244  1.00  0.00     0.186 C 
ATOM      5  C   UNL     1      -4.350  -1.265  -1.418  1.00  0.00     0.061 C 
ATOM      6  O   UNL     1      -2.144  -2.954  -1.992  1.00  0.00    -0.472 OA
ATOM      7  C   UNL     1      -3.092  -0.705  -2.134  1.00  0.00     0.096 C 
ATOM      8  C   UNL     1      -5.503  -1.058  -2.411  1.00  0.00     0.145 C 
ATOM      9  C   UNL     1      -3.703   0.250  -3.126  1.00  0.00    -0.036 C 
ATOM     10  C   UNL     1      -5.005   0.028  -3.291  1.00  0.00     0.007 C 
BRANCH   8  11
ATOM     11  O   UNL     1      -6.681  -0.658  -1.758  1.00  0.00    -0.388 OA
ATOM     12  H   UNL     1      -7.172  -1.493  -1.545  1.00  0.00     0.211 HD
ENDBRANCH   8  11
BRANCH   9  13
ATOM     13  C   UNL     1      -2.935   1.186  -4.019  1.00  0.00     0.187 C 
BRANCH  13  14
ATOM     14  O   UNL     1      -1.695   1.522  -3.445  1.00  0.00    -0.392 OA
ATOM     15  H   UNL     1      -1.905   2.140  -2.687  1.00  0.00     0.211 HD
ENDBRANCH  13  14
ENDBRANCH   9  13
ENDBRANCH   1   2
BRANCH   1  16
ATOM     16  C   UNL     1      -0.547  -1.655  -4.505  1.00  0.00     0.286 C 
ATOM     17  C   UNL     1       0.421  -2.888  -4.662  1.00  0.00     0.202 C 
ATOM     18  O   UNL     1       0.029  -0.472  -5.042  1.00  0.00    -0.341 OA
ATOM     19  C   UNL     1       1.513  -2.629  -5.724  1.00  0.00     0.179 C 
ATOM     20  C   UNL     1       1.384  -0.321  -4.633  1.00  0.00     0.178 C 
ATOM     21  C   UNL     1       2.284  -1.327  -5.405  1.00  0.00     0.177 C 
BRANCH  17  22
ATOM     22  O   UNL     1      -0.280  -4.080  -4.951  1.00  0.00    -0.385 OA
ATOM     23  H   UNL     1      -1.249  -3.869  -4.959  1.00  0.00     0.211 HD
ENDBRANCH  17  22
BRANCH  19  24
ATOM     24  O   UNL     1       0.976  -2.604  -7.031  1.00  0.00    -0.387 OA
ATOM     25  H   UNL     1       0.828  -1.659  -7.288  1.00  0.00     0.211 HD
ENDBRANCH  19  24
BRANCH  20  26
ATOM     26  C   UNL     1       1.799   1.143  -4.857  1.00  0.00     0.191 C 
BRANCH  26  27
ATOM     27  O   UNL     1       1.035   2.027  -4.064  1.00  0.00    -0.394 OA
ATOM     28  H   UNL     1       1.472   2.920  -4.127  1.00  0.00     0.210 HD
ENDBRANCH  26  27
ENDBRANCH  20  26
BRANCH  21  29
ATOM     29  O   UNL     1       3.401  -1.660  -4.613  1.00  0.00    -0.387 OA
ATOM     30  H   UNL     1       3.079  -2.196  -3.841  1.00  0.00     0.211 HD
ENDBRANCH  21  29
ENDBRANCH   1  16
TORSDOF 10
ENDMDL
MODEL 8
REMARK VINA RESULT:    -6.553      2.925      4.431
REMARK INTER + INTRA:         -10.650
REMARK INTER:                  -9.215
REMARK INTRA:                  -1.435
REMARK UNBOUND:                -1.415
REMARK SMILES OCC1=C[C@H](O)[C@H]2C=CO[C@H](O[C@H]3O[C@H](CO)[C@@H](O)[C@H](O)[C@@H]3O)[C@@H]12
REMARK SMILES IDX 12 1 11 2 8 3 9 4 7 5 10 6 24 7 5 8 3 9 4 10 6 11 2 13 1 14
REMARK SMILES IDX 13 16 22 17 14 18 20 19 15 20 18 21 23 22 21 24 16 26 17 27
REMARK SMILES IDX 19 29
REMARK H PARENT 6 12 1 15 23 23 21 25 17 28 19 30
REMARK Flexibility Score: inf
ROOT
ATOM      1  O   UNL     1      -1.786  -2.698  -2.346  1.00  0.00    -0.310 OA
ENDROOT
BRANCH   1   2
ATOM      2  C   UNL     1      -2.965  -3.419  -2.011  1.00  0.00     0.316 C 
ATOM      3  C   UNL     1      -4.516  -5.049  -0.245  1.00  0.00     0.018 C 
ATOM      4  C   UNL     1      -3.440  -5.542  -0.848  1.00  0.00     0.186 C 
ATOM      5  C   UNL     1      -4.822  -3.572  -0.243  1.00  0.00     0.061 C 
ATOM      6  O   UNL     1      -2.567  -4.707  -1.539  1.00  0.00    -0.472 OA
ATOM      7  C   UNL     1      -3.755  -2.664  -0.911  1.00  0.00     0.096 C 
ATOM      8  C   UNL     1      -6.130  -3.273  -0.990  1.00  0.00     0.145 C 
ATOM      9  C   UNL     1      -4.609  -1.575  -1.506  1.00  0.00    -0.036 C 
ATOM     10  C   UNL     1      -5.891  -1.929  -1.572  1.00  0.00     0.007 C 
BRANCH   8  11
ATOM     11  O   UNL     1      -7.228  -3.238  -0.114  1.00  0.00    -0.388 OA
ATOM     12  H   UNL     1      -6.956  -3.759   0.685  1.00  0.00     0.211 HD
ENDBRANCH   8  11
BRANCH   9  13
ATOM     13  C   UNL     1      -4.090  -0.330  -2.175  1.00  0.00     0.187 C 
BRANCH  13  14
ATOM     14  O   UNL     1      -2.841   0.041  -1.645  1.00  0.00    -0.392 OA
ATOM     15  H   UNL     1      -2.181  -0.095  -2.386  1.00  0.00     0.211 HD
ENDBRANCH  13  14
ENDBRANCH   9  13
ENDBRANCH   1   2
BRANCH   1  16
ATOM     16  C   UNL     1      -1.488  -2.615  -3.738  1.00  0.00     0.286 C 
ATOM     17  C   UNL     1      -0.337  -3.549  -4.270  1.00  0.00     0.202 C 
ATOM     18  O   UNL     1      -1.230  -1.250  -4.043  1.00  0.00    -0.341 OA
ATOM     19  C   UNL     1       0.522  -2.847  -5.346  1.00  0.00     0.179 C 
ATOM     20  C   UNL     1       0.115  -0.896  -3.745  1.00  0.00     0.178 C 
ATOM     21  C   UNL     1       1.070  -1.503  -4.813  1.00  0.00     0.177 C 
BRANCH  17  22
ATOM     22  O   UNL     1      -0.832  -4.779  -4.755  1.00  0.00    -0.385 OA
ATOM     23  H   UNL     1      -1.654  -4.999  -4.245  1.00  0.00     0.211 HD
ENDBRANCH  17  22
BRANCH  19  24
ATOM     24  O   UNL     1      -0.193  -2.671  -6.553  1.00  0.00    -0.387 OA
ATOM     25  H   UNL     1       0.452  -2.428  -7.262  1.00  0.00     0.211 HD
ENDBRANCH  19  24
BRANCH  20  26
ATOM     26  C   UNL     1       0.208   0.637  -3.665  1.00  0.00     0.191 C 
BRANCH  26  27
ATOM     27  O   UNL     1      -0.170   1.115  -2.392  1.00  0.00    -0.394 OA
ATOM     28  H   UNL     1       0.325   0.570  -1.721  1.00  0.00     0.210 HD
ENDBRANCH  26  27
ENDBRANCH  20  26
BRANCH  21  29
ATOM     29  O   UNL     1       2.331  -1.740  -4.233  1.00  0.00    -0.387 OA
ATOM     30  H   UNL     1       2.937  -1.002  -4.505  1.00  0.00     0.211 HD
ENDBRANCH  21  29
ENDBRANCH   1  16
TORSDOF 10
ENDMDL
MODEL 9
REMARK VINA RESULT:    -6.546      1.711      3.666
REMARK INTER + INTRA:         -10.639
REMARK INTER:                  -9.585
REMARK INTRA:                  -1.054
REMARK UNBOUND:                -1.415
REMARK SMILES OCC1=C[C@H](O)[C@H]2C=CO[C@H](O[C@H]3O[C@H](CO)[C@@H](O)[C@H](O)[C@@H]3O)[C@@H]12
REMARK SMILES IDX 12 1 11 2 8 3 9 4 7 5 10 6 24 7 5 8 3 9 4 10 6 11 2 13 1 14
REMARK SMILES IDX 13 16 22 17 14 18 20 19 15 20 18 21 23 22 21 24 16 26 17 27
REMARK SMILES IDX 19 29
REMARK H PARENT 6 12 1 15 23 23 21 25 17 28 19 30
REMARK Flexibility Score: inf
ROOT
ATOM      1  O   UNL     1      -1.332  -0.168  -4.059  1.00  0.00    -0.310 OA
ENDROOT
BRANCH   1   2
ATOM      2  C   UNL     1      -2.348  -1.056  -3.610  1.00  0.00     0.316 C 
ATOM      3  C   UNL     1      -3.758  -2.449  -1.548  1.00  0.00     0.018 C 
ATOM      4  C   UNL     1      -2.507  -2.778  -1.850  1.00  0.00     0.186 C 
ATOM      5  C   UNL     1      -4.399  -1.187  -2.069  1.00  0.00     0.061 C 
ATOM      6  O   UNL     1      -1.748  -1.978  -2.700  1.00  0.00    -0.472 OA
ATOM      7  C   UNL     1      -3.475  -0.260  -2.903  1.00  0.00     0.096 C 
ATOM      8  C   UNL     1      -5.588  -1.504  -2.988  1.00  0.00     0.145 C 
ATOM      9  C   UNL     1      -4.443   0.317  -3.904  1.00  0.00    -0.036 C 
ATOM     10  C   UNL     1      -5.573  -0.385  -3.962  1.00  0.00     0.007 C 
BRANCH   8  11
ATOM     11  O   UNL     1      -6.799  -1.518  -2.277  1.00  0.00    -0.388 OA
ATOM     12  H   UNL     1      -6.620  -1.047  -1.423  1.00  0.00     0.211 HD
ENDBRANCH   8  11
BRANCH   9  13
ATOM     13  C   UNL     1      -4.123   1.397  -4.902  1.00  0.00     0.187 C 
BRANCH  13  14
ATOM     14  O   UNL     1      -3.940   2.635  -4.259  1.00  0.00    -0.392 OA
ATOM     15  H   UNL     1      -4.819   3.110  -4.330  1.00  0.00     0.211 HD
ENDBRANCH  13  14
ENDBRANCH   9  13
ENDBRANCH   1   2
BRANCH   1  16
ATOM     16  C   UNL     1      -0.644   0.550  -3.036  1.00  0.00     0.286 C 
ATOM     17  C   UNL     1      -0.701   2.123  -3.118  1.00  0.00     0.202 C 
ATOM     18  O   UNL     1       0.697   0.080  -3.008  1.00  0.00    -0.341 OA
ATOM     19  C   UNL     1       0.640   2.767  -2.701  1.00  0.00     0.179 C 
ATOM     20  C   UNL     1       1.497   0.732  -3.988  1.00  0.00     0.178 C 
ATOM     21  C   UNL     1       1.806   2.187  -3.536  1.00  0.00     0.177 C 
BRANCH  17  22
ATOM     22  O   UNL     1      -1.766   2.656  -2.361  1.00  0.00    -0.385 OA
ATOM     23  H   UNL     1      -2.523   2.018  -2.409  1.00  0.00     0.211 HD
ENDBRANCH  17  22
BRANCH  19  24
ATOM     24  O   UNL     1       0.878   2.629  -1.315  1.00  0.00    -0.387 OA
ATOM     25  H   UNL     1       0.048   2.872  -0.832  1.00  0.00     0.211 HD
ENDBRANCH  19  24
BRANCH  20  26
ATOM     26  C   UNL     1       2.768  -0.105  -4.212  1.00  0.00     0.191 C 
BRANCH  26  27
ATOM     27  O   UNL     1       2.489  -1.489  -4.202  1.00  0.00    -0.394 OA
ATOM     28  H   UNL     1       2.420  -1.775  -5.154  1.00  0.00     0.210 HD
ENDBRANCH  26  27
ENDBRANCH  20  26
BRANCH  21  29
ATOM     29  O   UNL     1       1.985   3.003  -4.670  1.00  0.00    -0.387 OA
ATOM     30  H   UNL     1       1.087   3.278  -4.993  1.00  0.00     0.211 HD
ENDBRANCH  21  29
ENDBRANCH   1  16
TORSDOF 10
ENDMDL
