MODEL 1
REMARK VINA RESULT:    -5.456      0.000      0.000
REMARK INTER + INTRA:          -7.999
REMARK INTER:                  -7.370
REMARK INTRA:                  -0.629
REMARK UNBOUND:                -0.629
REMARK SMILES CC(=O)CCC=C(C)CCC=C(C)C
REMARK SMILES IDX 7 1 6 2 8 3 9 4 10 5 11 6 13 7 12 8 14 9 5 10 4 11 2 12 3 13
REMARK SMILES IDX 1 14
REMARK H PARENT
REMARK Flexibility Score: inf
ROOT
ATOM      1  C   UNL     1     -60.944 -76.616 218.860  1.00  0.00    -0.077 C 
ATOM      2  C   UNL     1     -59.772 -76.397 218.222  1.00  0.00    -0.028 C 
ATOM      3  C   UNL     1     -62.214 -75.899 218.465  1.00  0.00     0.039 C 
ENDROOT
BRANCH   1   4
ATOM      4  C   UNL     1     -60.977 -77.598 220.009  1.00  0.00     0.034 C 
BRANCH   4   5
ATOM      5  C   UNL     1     -61.239 -76.871 221.333  1.00  0.00     0.032 C 
BRANCH   5   6
ATOM      6  C   UNL     1     -62.553 -77.305 221.932  1.00  0.00    -0.028 C 
ATOM      7  C   UNL     1     -64.866 -77.060 222.722  1.00  0.00     0.039 C 
ATOM      8  C   UNL     1     -63.599 -76.478 222.151  1.00  0.00    -0.080 C 
ATOM      9  C   UNL     1     -63.526 -74.998 221.858  1.00  0.00     0.039 C 
ENDBRANCH   5   6
ENDBRANCH   4   5
ENDBRANCH   1   4
BRANCH   2  10
ATOM     10  C   UNL     1     -59.610 -75.519 217.004  1.00  0.00     0.035 C 
BRANCH  10  11
ATOM     11  C   UNL     1     -58.178 -74.981 216.887  1.00  0.00     0.079 C 
BRANCH  11  12
ATOM     12  C   UNL     1     -58.153 -73.602 216.277  1.00  0.00     0.130 C 
ATOM     13  O   UNL     1     -58.571 -72.652 216.922  1.00  0.00    -0.300 OA
ATOM     14  C   UNL     1     -57.620 -73.371 214.895  1.00  0.00     0.087 C 
ENDBRANCH  11  12
ENDBRANCH  10  11
ENDBRANCH   2  10
TORSDOF 6
ENDMDL
MODEL 2
REMARK VINA RESULT:    -5.211      0.847      1.269
REMARK INTER + INTRA:          -7.668
REMARK INTER:                  -7.165
REMARK INTRA:                  -0.503
REMARK UNBOUND:                -0.629
REMARK SMILES CC(=O)CCC=C(C)CCC=C(C)C
REMARK SMILES IDX 7 1 6 2 8 3 9 4 10 5 11 6 13 7 12 8 14 9 5 10 4 11 2 12 3 13
REMARK SMILES IDX 1 14
REMARK H PARENT
REMARK Flexibility Score: inf
ROOT
ATOM      1  C   UNL     1     -60.144 -76.953 218.735  1.00  0.00    -0.077 C 
ATOM      2  C   UNL     1     -60.163 -75.868 217.930  1.00  0.00    -0.028 C 
ATOM      3  C   UNL     1     -59.327 -78.180 218.403  1.00  0.00     0.039 C 
ENDROOT
BRANCH   1   4
ATOM      4  C   UNL     1     -60.977 -76.940 219.998  1.00  0.00     0.034 C 
BRANCH   4   5
ATOM      5  C   UNL     1     -62.371 -76.369 219.719  1.00  0.00     0.032 C 
BRANCH   5   6
ATOM      6  C   UNL     1     -63.391 -76.963 220.659  1.00  0.00    -0.028 C 
ATOM      7  C   UNL     1     -64.967 -77.013 222.543  1.00  0.00     0.039 C 
ATOM      8  C   UNL     1     -63.929 -76.307 221.711  1.00  0.00    -0.080 C 
ATOM      9  C   UNL     1     -63.507 -74.904 222.081  1.00  0.00     0.039 C 
ENDBRANCH   5   6
ENDBRANCH   4   5
ENDBRANCH   1   4
BRANCH   2  10
ATOM     10  C   UNL     1     -59.314 -75.704 216.692  1.00  0.00     0.035 C 
BRANCH  10  11
ATOM     11  C   UNL     1     -58.068 -74.855 216.975  1.00  0.00     0.079 C 
BRANCH  11  12
ATOM     12  C   UNL     1     -58.146 -73.512 216.293  1.00  0.00     0.130 C 
ATOM     13  O   UNL     1     -58.627 -72.561 216.891  1.00  0.00    -0.300 OA
ATOM     14  C   UNL     1     -57.640 -73.319 214.895  1.00  0.00     0.087 C 
ENDBRANCH  11  12
ENDBRANCH  10  11
ENDBRANCH   2  10
TORSDOF 6
ENDMDL
MODEL 3
REMARK VINA RESULT:    -5.020      4.835      8.726
REMARK INTER + INTRA:          -7.410
REMARK INTER:                  -6.709
REMARK INTRA:                  -0.701
REMARK UNBOUND:                -0.629
REMARK SMILES CC(=O)CCC=C(C)CCC=C(C)C
REMARK SMILES IDX 7 1 6 2 8 3 9 4 10 5 11 6 13 7 12 8 14 9 5 10 4 11 2 12 3 13
REMARK SMILES IDX 1 14
REMARK H PARENT
REMARK Flexibility Score: inf
ROOT
ATOM      1  C   UNL     1     -63.054 -78.793 224.655  1.00  0.00    -0.077 C 
ATOM      2  C   UNL     1     -64.301 -78.295 224.811  1.00  0.00    -0.028 C 
ATOM      3  C   UNL     1     -62.205 -79.204 225.835  1.00  0.00     0.039 C 
ENDROOT
BRANCH   1   4
ATOM      4  C   UNL     1     -62.492 -78.929 223.258  1.00  0.00     0.034 C 
BRANCH   4   5
ATOM      5  C   UNL     1     -61.642 -77.706 222.896  1.00  0.00     0.032 C 
BRANCH   5   6
ATOM      6  C   UNL     1     -61.760 -77.387 221.427  1.00  0.00    -0.028 C 
ATOM      7  C   UNL     1     -62.551 -76.194 219.430  1.00  0.00     0.039 C 
ATOM      8  C   UNL     1     -62.564 -76.428 220.918  1.00  0.00    -0.080 C 
ATOM      9  C   UNL     1     -63.481 -75.605 221.793  1.00  0.00     0.039 C 
ENDBRANCH   5   6
ENDBRANCH   4   5
ENDBRANCH   1   4
BRANCH   2  10
ATOM     10  C   UNL     1     -65.023 -78.190 226.133  1.00  0.00     0.035 C 
BRANCH  10  11
ATOM     11  C   UNL     1     -66.454 -78.734 226.035  1.00  0.00     0.079 C 
BRANCH  11  12
ATOM     12  C   UNL     1     -67.333 -77.835 225.201  1.00  0.00     0.130 C 
ATOM     13  O   UNL     1     -67.575 -76.703 225.591  1.00  0.00    -0.300 OA
ATOM     14  C   UNL     1     -67.913 -78.302 223.900  1.00  0.00     0.087 C 
ENDBRANCH  11  12
ENDBRANCH  10  11
ENDBRANCH   2  10
TORSDOF 6
ENDMDL
MODEL 4
REMARK VINA RESULT:    -5.014      5.551      8.196
REMARK INTER + INTRA:          -7.401
REMARK INTER:                  -6.477
REMARK INTRA:                  -0.925
REMARK UNBOUND:                -0.629
REMARK SMILES CC(=O)CCC=C(C)CCC=C(C)C
REMARK SMILES IDX 7 1 6 2 8 3 9 4 10 5 11 6 13 7 12 8 14 9 5 10 4 11 2 12 3 13
REMARK SMILES IDX 1 14
REMARK H PARENT
REMARK Flexibility Score: inf
ROOT
ATOM      1  C   UNL     1     -63.620 -76.269 222.125  1.00  0.00    -0.077 C 
ATOM      2  C   UNL     1     -64.686 -77.053 222.405  1.00  0.00    -0.028 C 
ATOM      3  C   UNL     1     -63.672 -74.767 222.280  1.00  0.00     0.039 C 
ENDROOT
BRANCH   1   4
ATOM      4  C   UNL     1     -62.346 -76.917 221.633  1.00  0.00     0.034 C 
BRANCH   4   5
ATOM      5  C   UNL     1     -62.266 -78.375 222.101  1.00  0.00     0.032 C 
BRANCH   5   6
ATOM      6  C   UNL     1     -61.229 -78.533 223.185  1.00  0.00    -0.028 C 
ATOM      7  C   UNL     1     -60.376 -78.940 225.452  1.00  0.00     0.039 C 
ATOM      8  C   UNL     1     -61.517 -78.766 224.485  1.00  0.00    -0.080 C 
ATOM      9  C   UNL     1     -62.939 -78.837 224.990  1.00  0.00     0.039 C 
ENDBRANCH   5   6
ENDBRANCH   4   5
ENDBRANCH   1   4
BRANCH   2  10
ATOM     10  C   UNL     1     -65.986 -76.556 222.991  1.00  0.00     0.035 C 
BRANCH  10  11
ATOM     11  C   UNL     1     -66.850 -77.715 223.502  1.00  0.00     0.079 C 
BRANCH  11  12
ATOM     12  C   UNL     1     -67.084 -77.619 224.989  1.00  0.00     0.130 C 
ATOM     13  O   UNL     1     -67.747 -76.695 225.434  1.00  0.00    -0.300 OA
ATOM     14  C   UNL     1     -66.520 -78.638 225.933  1.00  0.00     0.087 C 
ENDBRANCH  11  12
ENDBRANCH  10  11
ENDBRANCH   2  10
TORSDOF 6
ENDMDL
MODEL 5
REMARK VINA RESULT:    -4.934      4.445      8.564
REMARK INTER + INTRA:          -7.294
REMARK INTER:                  -6.330
REMARK INTRA:                  -0.964
REMARK UNBOUND:                -0.629
REMARK SMILES CC(=O)CCC=C(C)CCC=C(C)C
REMARK SMILES IDX 7 1 6 2 8 3 9 4 10 5 11 6 13 7 12 8 14 9 5 10 4 11 2 12 3 13
REMARK SMILES IDX 1 14
REMARK H PARENT
REMARK Flexibility Score: inf
ROOT
ATOM      1  C   UNL     1     -64.621 -77.660 223.012  1.00  0.00    -0.077 C 
ATOM      2  C   UNL     1     -63.665 -77.822 223.954  1.00  0.00    -0.028 C 
ATOM      3  C   UNL     1     -65.588 -78.765 222.658  1.00  0.00     0.039 C 
ENDROOT
BRANCH   1   4
ATOM      4  C   UNL     1     -64.714 -76.337 222.287  1.00  0.00     0.034 C 
BRANCH   4   5
ATOM      5  C   UNL     1     -63.331 -75.687 222.169  1.00  0.00     0.032 C 
BRANCH   5   6
ATOM      6  C   UNL     1     -62.779 -75.851 220.775  1.00  0.00    -0.028 C 
ATOM      7  C   UNL     1     -61.347 -76.776 219.006  1.00  0.00     0.039 C 
ATOM      8  C   UNL     1     -61.770 -76.688 220.449  1.00  0.00    -0.080 C 
ATOM      9  C   UNL     1     -61.049 -77.516 221.488  1.00  0.00     0.039 C 
ENDBRANCH   5   6
ENDBRANCH   4   5
ENDBRANCH   1   4
BRANCH   2  10
ATOM     10  C   UNL     1     -63.514 -79.050 224.820  1.00  0.00     0.035 C 
BRANCH  10  11
ATOM     11  C   UNL     1     -63.871 -78.753 226.281  1.00  0.00     0.079 C 
BRANCH  11  12
ATOM     12  C   UNL     1     -65.365 -78.690 226.484  1.00  0.00     0.130 C 
ATOM     13  O   UNL     1     -65.940 -77.616 226.386  1.00  0.00    -0.300 OA
ATOM     14  C   UNL     1     -66.160 -79.920 226.801  1.00  0.00     0.087 C 
ENDBRANCH  11  12
ENDBRANCH  10  11
ENDBRANCH   2  10
TORSDOF 6
ENDMDL
MODEL 6
REMARK VINA RESULT:    -4.901      5.071      7.452
REMARK INTER + INTRA:          -7.249
REMARK INTER:                  -6.163
REMARK INTRA:                  -1.087
REMARK UNBOUND:                -0.629
REMARK SMILES CC(=O)CCC=C(C)CCC=C(C)C
REMARK SMILES IDX 7 1 6 2 8 3 9 4 10 5 11 6 13 7 12 8 14 9 5 10 4 11 2 12 3 13
REMARK SMILES IDX 1 14
REMARK H PARENT
REMARK Flexibility Score: inf
ROOT
ATOM      1  C   UNL     1     -64.210 -78.891 224.913  1.00  0.00    -0.077 C 
ATOM      2  C   UNL     1     -62.963 -79.371 224.707  1.00  0.00    -0.028 C 
ATOM      3  C   UNL     1     -64.648 -78.358 226.258  1.00  0.00     0.039 C 
ENDROOT
BRANCH   1   4
ATOM      4  C   UNL     1     -65.194 -78.901 223.766  1.00  0.00     0.034 C 
BRANCH   4   5
ATOM      5  C   UNL     1     -64.529 -78.400 222.479  1.00  0.00     0.032 C 
BRANCH   5   6
ATOM      6  C   UNL     1     -64.510 -76.892 222.438  1.00  0.00    -0.028 C 
ATOM      7  C   UNL     1     -63.532 -74.651 222.199  1.00  0.00     0.039 C 
ATOM      8  C   UNL     1     -63.395 -76.150 222.257  1.00  0.00    -0.080 C 
ATOM      9  C   UNL     1     -62.027 -76.778 222.130  1.00  0.00     0.039 C 
ENDBRANCH   5   6
ENDBRANCH   4   5
ENDBRANCH   1   4
BRANCH   2  10
ATOM     10  C   UNL     1     -61.852 -79.338 225.730  1.00  0.00     0.035 C 
BRANCH  10  11
ATOM     11  C   UNL     1     -60.573 -78.722 225.148  1.00  0.00     0.079 C 
BRANCH  11  12
ATOM     12  C   UNL     1     -59.893 -79.663 224.185  1.00  0.00     0.130 C 
ATOM     13  O   UNL     1     -59.613 -79.274 223.061  1.00  0.00    -0.300 OA
ATOM     14  C   UNL     1     -59.549 -81.068 224.581  1.00  0.00     0.087 C 
ENDBRANCH  11  12
ENDBRANCH  10  11
ENDBRANCH   2  10
TORSDOF 6
ENDMDL
MODEL 7
REMARK VINA RESULT:    -4.889      4.894      8.429
REMARK INTER + INTRA:          -7.233
REMARK INTER:                  -6.110
REMARK INTRA:                  -1.123
REMARK UNBOUND:                -0.629
REMARK SMILES CC(=O)CCC=C(C)CCC=C(C)C
REMARK SMILES IDX 7 1 6 2 8 3 9 4 10 5 11 6 13 7 12 8 14 9 5 10 4 11 2 12 3 13
REMARK SMILES IDX 1 14
REMARK H PARENT
REMARK Flexibility Score: inf
ROOT
ATOM      1  C   UNL     1     -64.115 -76.988 222.863  1.00  0.00    -0.077 C 
ATOM      2  C   UNL     1     -65.409 -77.272 222.592  1.00  0.00    -0.028 C 
ATOM      3  C   UNL     1     -63.258 -77.901 223.710  1.00  0.00     0.039 C 
ENDROOT
BRANCH   1   4
ATOM      4  C   UNL     1     -63.515 -75.714 222.313  1.00  0.00     0.034 C 
BRANCH   4   5
ATOM      5  C   UNL     1     -63.161 -75.881 220.831  1.00  0.00     0.032 C 
BRANCH   5   6
ATOM      6  C   UNL     1     -61.812 -76.536 220.673  1.00  0.00    -0.028 C 
ATOM      7  C   UNL     1     -60.212 -78.291 220.041  1.00  0.00     0.039 C 
ATOM      8  C   UNL     1     -61.623 -77.779 220.177  1.00  0.00    -0.080 C 
ATOM      9  C   UNL     1     -62.778 -78.666 219.776  1.00  0.00     0.039 C 
ENDBRANCH   5   6
ENDBRANCH   4   5
ENDBRANCH   1   4
BRANCH   2  10
ATOM     10  C   UNL     1     -66.110 -78.547 222.995  1.00  0.00     0.035 C 
BRANCH  10  11
ATOM     11  C   UNL     1     -67.393 -78.256 223.783  1.00  0.00     0.079 C 
BRANCH  11  12
ATOM     12  C   UNL     1     -67.088 -77.741 225.167  1.00  0.00     0.130 C 
ATOM     13  O   UNL     1     -67.633 -76.722 225.563  1.00  0.00    -0.300 OA
ATOM     14  C   UNL     1     -66.132 -78.459 226.072  1.00  0.00     0.087 C 
ENDBRANCH  11  12
ENDBRANCH  10  11
ENDBRANCH   2  10
TORSDOF 6
ENDMDL
MODEL 8
REMARK VINA RESULT:    -4.887      3.995      7.289
REMARK INTER + INTRA:          -7.230
REMARK INTER:                  -6.034
REMARK INTRA:                  -1.195
REMARK UNBOUND:                -0.629
REMARK SMILES CC(=O)CCC=C(C)CCC=C(C)C
REMARK SMILES IDX 7 1 6 2 8 3 9 4 10 5 11 6 13 7 12 8 14 9 5 10 4 11 2 12 3 13
REMARK SMILES IDX 1 14
REMARK H PARENT
REMARK Flexibility Score: inf
ROOT
ATOM      1  C   UNL     1     -64.325 -78.154 223.146  1.00  0.00    -0.077 C 
ATOM      2  C   UNL     1     -63.768 -78.168 224.378  1.00  0.00    -0.028 C 
ATOM      3  C   UNL     1     -64.347 -79.382 222.266  1.00  0.00     0.039 C 
ENDROOT
BRANCH   1   4
ATOM      4  C   UNL     1     -64.932 -76.868 222.634  1.00  0.00     0.034 C 
BRANCH   4   5
ATOM      5  C   UNL     1     -63.841 -75.826 222.364  1.00  0.00     0.032 C 
BRANCH   5   6
ATOM      6  C   UNL     1     -63.373 -75.899 220.932  1.00  0.00    -0.028 C 
ATOM      7  C   UNL     1     -61.887 -76.493 219.068  1.00  0.00     0.039 C 
ATOM      8  C   UNL     1     -62.207 -76.458 220.540  1.00  0.00    -0.080 C 
ATOM      9  C   UNL     1     -61.218 -77.026 221.531  1.00  0.00     0.039 C 
ENDBRANCH   5   6
ENDBRANCH   4   5
ENDBRANCH   1   4
BRANCH   2  10
ATOM     10  C   UNL     1     -63.211 -79.398 225.053  1.00  0.00     0.035 C 
BRANCH  10  11
ATOM     11  C   UNL     1     -61.923 -79.081 225.823  1.00  0.00     0.079 C 
BRANCH  11  12
ATOM     12  C   UNL     1     -60.711 -79.154 224.928  1.00  0.00     0.130 C 
ATOM     13  O   UNL     1     -59.734 -78.465 225.182  1.00  0.00    -0.300 OA
ATOM     14  C   UNL     1     -60.678 -80.060 223.734  1.00  0.00     0.087 C 
ENDBRANCH  11  12
ENDBRANCH  10  11
ENDBRANCH   2  10
TORSDOF 6
ENDMDL
MODEL 9
REMARK VINA RESULT:    -4.848      1.699      3.057
REMARK INTER + INTRA:          -7.177
REMARK INTER:                  -6.378
REMARK INTRA:                  -0.798
REMARK UNBOUND:                -0.629
REMARK SMILES CC(=O)CCC=C(C)CCC=C(C)C
REMARK SMILES IDX 7 1 6 2 8 3 9 4 10 5 11 6 13 7 12 8 14 9 5 10 4 11 2 12 3 13
REMARK SMILES IDX 1 14
REMARK H PARENT
REMARK Flexibility Score: inf
ROOT
ATOM      1  C   UNL     1     -57.486 -77.646 218.027  1.00  0.00    -0.077 C 
ATOM      2  C   UNL     1     -58.401 -77.122 217.180  1.00  0.00    -0.028 C 
ATOM      3  C   UNL     1     -56.012 -77.340 217.898  1.00  0.00     0.039 C 
ENDROOT
BRANCH   1   4
ATOM      4  C   UNL     1     -57.955 -78.573 219.125  1.00  0.00     0.034 C 
BRANCH   4   5
ATOM      5  C   UNL     1     -59.480 -78.718 219.094  1.00  0.00     0.032 C 
BRANCH   5   6
ATOM      6  C   UNL     1     -60.099 -78.142 220.344  1.00  0.00    -0.028 C 
ATOM      7  C   UNL     1     -61.604 -76.728 221.674  1.00  0.00     0.039 C 
ATOM      8  C   UNL     1     -61.049 -77.182 220.349  1.00  0.00    -0.080 C 
ATOM      9  C   UNL     1     -61.552 -76.546 219.074  1.00  0.00     0.039 C 
ENDBRANCH   5   6
ENDBRANCH   4   5
ENDBRANCH   1   4
BRANCH   2  10
ATOM     10  C   UNL     1     -58.091 -76.113 216.100  1.00  0.00     0.035 C 
BRANCH  10  11
ATOM     11  C   UNL     1     -59.069 -74.932 216.139  1.00  0.00     0.079 C 
BRANCH  11  12
ATOM     12  C   UNL     1     -58.347 -73.612 216.033  1.00  0.00     0.130 C 
ATOM     13  O   UNL     1     -58.387 -72.828 216.969  1.00  0.00    -0.300 OA
ATOM     14  C   UNL     1     -57.576 -73.242 214.801  1.00  0.00     0.087 C 
ENDBRANCH  11  12
ENDBRANCH  10  11
ENDBRANCH   2  10
TORSDOF 6
ENDMDL
