MODEL 1
REMARK VINA RESULT:    -1.843      0.000      0.000
REMARK INTER + INTRA:          -6.435
REMARK INTER:                  -4.213
REMARK INTRA:                  -2.222
REMARK UNBOUND:                -2.222
REMARK SMILES CCCCCCCCCCCCCCCCCCCCCCCC(=O)[O-]
REMARK SMILES IDX 13 1 14 2 15 3 16 4 17 5 18 6 19 7 20 8 21 9 22 10 23 11
REMARK SMILES IDX 24 12 25 13 26 14 12 15 11 16 10 17 9 18 8 19 7 20 6 21 5 22
REMARK SMILES IDX 4 23 3 24 2 25 1 26
REMARK H PARENT
REMARK Flexibility Score: inf
ROOT
ATOM      1  C   UNL     1      17.094  43.284   9.907  1.00  0.00     0.000 C 
ENDROOT
BRANCH   1   2
ATOM      2  C   UNL     1      16.460  43.608   8.550  1.00  0.00     0.000 C 
BRANCH   2   3
ATOM      3  C   UNL     1      15.392  42.570   8.177  1.00  0.00     0.000 C 
BRANCH   3   4
ATOM      4  C   UNL     1      15.641  41.936   6.799  1.00  0.00     0.000 C 
BRANCH   4   5
ATOM      5  C   UNL     1      14.341  41.702   6.011  1.00  0.00     0.000 C 
BRANCH   5   6
ATOM      6  C   UNL     1      14.323  42.430   4.656  1.00  0.00     0.000 C 
BRANCH   6   7
ATOM      7  C   UNL     1      12.978  42.302   3.908  1.00  0.00     0.000 C 
BRANCH   7   8
ATOM      8  C   UNL     1      13.144  42.457   2.386  1.00  0.00     0.000 C 
BRANCH   8   9
ATOM      9  C   UNL     1      14.307  43.388   2.010  1.00  0.00     0.000 C 
BRANCH   9  10
ATOM     10  C   UNL     1      14.148  44.000   0.607  1.00  0.00     0.006 C 
BRANCH  10  11
ATOM     11  C   UNL     1      12.789  43.664  -0.023  1.00  0.00     0.053 C 
BRANCH  11  12
ATOM     12  C   UNL     1      12.177  44.859  -0.689  1.00  0.00     0.041 C 
ATOM     13  O   UNL     1      11.220  44.715  -1.494  1.00  0.00    -0.550 OA
ATOM     14  O   UNL     1      12.692  46.128  -0.452  1.00  0.00    -0.550 OA
ENDBRANCH  11  12
ENDBRANCH  10  11
ENDBRANCH   9  10
ENDBRANCH   8   9
ENDBRANCH   7   8
ENDBRANCH   6   7
ENDBRANCH   5   6
ENDBRANCH   4   5
ENDBRANCH   3   4
ENDBRANCH   2   3
ENDBRANCH   1   2
BRANCH   1  15
ATOM     15  C   UNL     1      16.416  42.066  10.552  1.00  0.00     0.000 C 
BRANCH  15  16
ATOM     16  C   UNL     1      17.125  41.608  11.836  1.00  0.00     0.000 C 
BRANCH  16  17
ATOM     17  C   UNL     1      16.148  41.377  13.000  1.00  0.00     0.000 C 
BRANCH  17  18
ATOM     18  C   UNL     1      16.136  39.921  13.497  1.00  0.00    -0.000 C 
BRANCH  18  19
ATOM     19  C   UNL     1      14.977  39.067  12.936  1.00  0.00    -0.000 C 
BRANCH  19  20
ATOM     20  C   UNL     1      15.342  37.613  12.568  1.00  0.00    -0.000 C 
BRANCH  20  21
ATOM     21  C   UNL     1      15.615  37.348  11.076  1.00  0.00    -0.000 C 
BRANCH  21  22
ATOM     22  C   UNL     1      16.502  38.416  10.419  1.00  0.00    -0.000 C 
BRANCH  22  23
ATOM     23  C   UNL     1      15.837  38.980   9.157  1.00  0.00    -0.000 C 
BRANCH  23  24
ATOM     24  C   UNL     1      14.331  38.678   9.145  1.00  0.00    -0.000 C 
BRANCH  24  25
ATOM     25  C   UNL     1      13.796  38.415   7.729  1.00  0.00    -0.003 C 
ATOM     26  C   UNL     1      14.890  38.466   6.663  1.00  0.00     0.004 C 
ENDBRANCH  24  25
ENDBRANCH  23  24
ENDBRANCH  22  23
ENDBRANCH  21  22
ENDBRANCH  20  21
ENDBRANCH  19  20
ENDBRANCH  18  19
ENDBRANCH  17  18
ENDBRANCH  16  17
ENDBRANCH  15  16
ENDBRANCH   1  15
TORSDOF 22
ENDMDL
MODEL 2
REMARK VINA RESULT:    -1.103      1.463      2.034
REMARK INTER + INTRA:          -4.743
REMARK INTER:                  -2.950
REMARK INTRA:                  -1.794
REMARK UNBOUND:                -2.222
REMARK SMILES CCCCCCCCCCCCCCCCCCCCCCCC(=O)[O-]
REMARK SMILES IDX 13 1 14 2 15 3 16 4 17 5 18 6 19 7 20 8 21 9 22 10 23 11
REMARK SMILES IDX 24 12 25 13 26 14 12 15 11 16 10 17 9 18 8 19 7 20 6 21 5 22
REMARK SMILES IDX 4 23 3 24 2 25 1 26
REMARK H PARENT
REMARK Flexibility Score: inf
ROOT
ATOM      1  C   UNL     1      15.689  42.442   8.622  1.00  0.00     0.000 C 
ENDROOT
BRANCH   1   2
ATOM      2  C   UNL     1      15.771  41.614   7.334  1.00  0.00     0.000 C 
BRANCH   2   3
ATOM      3  C   UNL     1      16.368  42.438   6.184  1.00  0.00     0.000 C 
BRANCH   3   4
ATOM      4  C   UNL     1      15.481  42.429   4.929  1.00  0.00     0.000 C 
BRANCH   4   5
ATOM      5  C   UNL     1      14.010  42.115   5.247  1.00  0.00     0.000 C 
BRANCH   5   6
ATOM      6  C   UNL     1      13.103  42.177   4.006  1.00  0.00     0.000 C 
BRANCH   6   7
ATOM      7  C   UNL     1      13.779  42.835   2.784  1.00  0.00     0.000 C 
BRANCH   7   8
ATOM      8  C   UNL     1      13.127  42.403   1.458  1.00  0.00     0.000 C 
BRANCH   8   9
ATOM      9  C   UNL     1      12.870  43.587   0.512  1.00  0.00     0.000 C 
BRANCH   9  10
ATOM     10  C   UNL     1      14.055  44.566   0.451  1.00  0.00     0.006 C 
BRANCH  10  11
ATOM     11  C   UNL     1      13.753  45.789  -0.428  1.00  0.00     0.053 C 
BRANCH  11  12
ATOM     12  C   UNL     1      15.008  46.492  -0.848  1.00  0.00     0.041 C 
ATOM     13  O   UNL     1      16.003  46.528  -0.078  1.00  0.00    -0.550 OA
ATOM     14  O   UNL     1      15.062  47.146  -2.074  1.00  0.00    -0.550 OA
ENDBRANCH  11  12
ENDBRANCH  10  11
ENDBRANCH   9  10
ENDBRANCH   8   9
ENDBRANCH   7   8
ENDBRANCH   6   7
ENDBRANCH   5   6
ENDBRANCH   4   5
ENDBRANCH   3   4
ENDBRANCH   2   3
ENDBRANCH   1   2
BRANCH   1  15
ATOM     15  C   UNL     1      16.405  41.729   9.778  1.00  0.00     0.000 C 
BRANCH  15  16
ATOM     16  C   UNL     1      16.713  42.671  10.951  1.00  0.00     0.000 C 
BRANCH  16  17
ATOM     17  C   UNL     1      17.028  41.913  12.251  1.00  0.00     0.000 C 
BRANCH  17  18
ATOM     18  C   UNL     1      16.867  40.389  12.115  1.00  0.00    -0.000 C 
BRANCH  18  19
ATOM     19  C   UNL     1      15.756  39.786  13.003  1.00  0.00    -0.000 C 
BRANCH  19  20
ATOM     20  C   UNL     1      15.280  38.373  12.601  1.00  0.00    -0.000 C 
BRANCH  20  21
ATOM     21  C   UNL     1      14.083  38.320  11.634  1.00  0.00    -0.000 C 
BRANCH  21  22
ATOM     22  C   UNL     1      14.417  37.669  10.284  1.00  0.00    -0.000 C 
BRANCH  22  23
ATOM     23  C   UNL     1      14.439  38.714   9.162  1.00  0.00    -0.000 C 
BRANCH  23  24
ATOM     24  C   UNL     1      13.757  38.177   7.894  1.00  0.00    -0.000 C 
BRANCH  24  25
ATOM     25  C   UNL     1      14.413  38.699   6.607  1.00  0.00    -0.003 C 
ATOM     26  C   UNL     1      15.919  38.441   6.562  1.00  0.00     0.004 C 
ENDBRANCH  24  25
ENDBRANCH  23  24
ENDBRANCH  22  23
ENDBRANCH  21  22
ENDBRANCH  20  21
ENDBRANCH  19  20
ENDBRANCH  18  19
ENDBRANCH  17  18
ENDBRANCH  16  17
ENDBRANCH  15  16
ENDBRANCH   1  15
TORSDOF 22
ENDMDL
MODEL 3
REMARK VINA RESULT:    -1.062      4.003     10.794
REMARK INTER + INTRA:          -4.649
REMARK INTER:                  -3.322
REMARK INTRA:                  -1.327
REMARK UNBOUND:                -2.222
REMARK SMILES CCCCCCCCCCCCCCCCCCCCCCCC(=O)[O-]
REMARK SMILES IDX 13 1 14 2 15 3 16 4 17 5 18 6 19 7 20 8 21 9 22 10 23 11
REMARK SMILES IDX 24 12 25 13 26 14 12 15 11 16 10 17 9 18 8 19 7 20 6 21 5 22
REMARK SMILES IDX 4 23 3 24 2 25 1 26
REMARK H PARENT
REMARK Flexibility Score: inf
ROOT
ATOM      1  C   UNL     1      15.595  41.582   7.389  1.00  0.00     0.000 C 
ENDROOT
BRANCH   1   2
ATOM      2  C   UNL     1      17.018  41.624   7.956  1.00  0.00     0.000 C 
BRANCH   2   3
ATOM      3  C   UNL     1      17.012  41.434   9.480  1.00  0.00     0.000 C 
BRANCH   3   4
ATOM      4  C   UNL     1      16.611  42.713  10.232  1.00  0.00     0.000 C 
BRANCH   4   5
ATOM      5  C   UNL     1      16.419  42.476  11.740  1.00  0.00     0.000 C 
BRANCH   5   6
ATOM      6  C   UNL     1      17.125  41.205  12.240  1.00  0.00     0.000 C 
BRANCH   6   7
ATOM      7  C   UNL     1      16.652  40.750  13.638  1.00  0.00     0.000 C 
BRANCH   7   8
ATOM      8  C   UNL     1      16.635  39.217  13.774  1.00  0.00     0.000 C 
BRANCH   8   9
ATOM      9  C   UNL     1      15.219  38.657  13.977  1.00  0.00     0.000 C 
BRANCH   9  10
ATOM     10  C   UNL     1      14.393  38.642  12.679  1.00  0.00     0.006 C 
BRANCH  10  11
ATOM     11  C   UNL     1      15.230  38.226  11.461  1.00  0.00     0.053 C 
BRANCH  11  12
ATOM     12  C   UNL     1      14.388  38.089  10.230  1.00  0.00     0.041 C 
ATOM     13  O   UNL     1      13.683  37.061  10.055  1.00  0.00    -0.550 OA
ATOM     14  O   UNL     1      14.416  39.078   9.254  1.00  0.00    -0.550 OA
ENDBRANCH  11  12
ENDBRANCH  10  11
ENDBRANCH   9  10
ENDBRANCH   8   9
ENDBRANCH   7   8
ENDBRANCH   6   7
ENDBRANCH   5   6
ENDBRANCH   4   5
ENDBRANCH   3   4
ENDBRANCH   2   3
ENDBRANCH   1   2
BRANCH   1  15
ATOM     15  C   UNL     1      15.577  42.032   5.921  1.00  0.00     0.000 C 
BRANCH  15  16
ATOM     16  C   UNL     1      14.164  42.017   5.318  1.00  0.00     0.000 C 
BRANCH  16  17
ATOM     17  C   UNL     1      14.128  42.564   3.881  1.00  0.00     0.000 C 
BRANCH  17  18
ATOM     18  C   UNL     1      12.826  42.220   3.137  1.00  0.00    -0.000 C 
BRANCH  18  19
ATOM     19  C   UNL     1      12.943  42.267   1.597  1.00  0.00    -0.000 C 
BRANCH  19  20
ATOM     20  C   UNL     1      13.607  43.537   1.021  1.00  0.00    -0.000 C 
BRANCH  20  21
ATOM     21  C   UNL     1      12.803  44.280  -0.062  1.00  0.00    -0.000 C 
BRANCH  21  22
ATOM     22  C   UNL     1      13.385  45.657  -0.416  1.00  0.00    -0.000 C 
BRANCH  22  23
ATOM     23  C   UNL     1      14.761  45.854   0.232  1.00  0.00    -0.000 C 
BRANCH  23  24
ATOM     24  C   UNL     1      15.613  46.846  -0.574  1.00  0.00    -0.000 C 
BRANCH  24  25
ATOM     25  C   UNL     1      14.774  47.683  -1.552  1.00  0.00    -0.003 C 
ATOM     26  C   UNL     1      15.432  47.827  -2.924  1.00  0.00     0.004 C 
ENDBRANCH  24  25
ENDBRANCH  23  24
ENDBRANCH  22  23
ENDBRANCH  21  22
ENDBRANCH  20  21
ENDBRANCH  19  20
ENDBRANCH  18  19
ENDBRANCH  17  18
ENDBRANCH  16  17
ENDBRANCH  15  16
ENDBRANCH   1  15
TORSDOF 22
ENDMDL
MODEL 4
REMARK VINA RESULT:    -0.911      4.859     11.699
REMARK INTER + INTRA:          -4.305
REMARK INTER:                  -3.355
REMARK INTRA:                  -0.950
REMARK UNBOUND:                -2.222
REMARK SMILES CCCCCCCCCCCCCCCCCCCCCCCC(=O)[O-]
REMARK SMILES IDX 13 1 14 2 15 3 16 4 17 5 18 6 19 7 20 8 21 9 22 10 23 11
REMARK SMILES IDX 24 12 25 13 26 14 12 15 11 16 10 17 9 18 8 19 7 20 6 21 5 22
REMARK SMILES IDX 4 23 3 24 2 25 1 26
REMARK H PARENT
REMARK Flexibility Score: inf
ROOT
ATOM      1  C   UNL     1      12.608  41.885   3.412  1.00  0.00     0.000 C 
ENDROOT
BRANCH   1   2
ATOM      2  C   UNL     1      13.391  42.473   4.591  1.00  0.00     0.000 C 
BRANCH   2   3
ATOM      3  C   UNL     1      14.091  41.369   5.396  1.00  0.00     0.000 C 
BRANCH   3   4
ATOM      4  C   UNL     1      14.940  41.927   6.549  1.00  0.00     0.000 C 
BRANCH   4   5
ATOM      5  C   UNL     1      15.918  40.886   7.121  1.00  0.00     0.000 C 
BRANCH   5   6
ATOM      6  C   UNL     1      16.691  41.402   8.347  1.00  0.00     0.000 C 
BRANCH   6   7
ATOM      7  C   UNL     1      16.561  40.488   9.584  1.00  0.00     0.000 C 
BRANCH   7   8
ATOM      8  C   UNL     1      15.642  39.282   9.320  1.00  0.00     0.000 C 
BRANCH   8   9
ATOM      9  C   UNL     1      15.561  38.327  10.521  1.00  0.00     0.000 C 
BRANCH   9  10
ATOM     10  C   UNL     1      14.127  38.170  11.059  1.00  0.00     0.006 C 
BRANCH  10  11
ATOM     11  C   UNL     1      14.060  38.320  12.586  1.00  0.00     0.053 C 
BRANCH  11  12
ATOM     12  C   UNL     1      15.374  38.755  13.158  1.00  0.00     0.041 C 
ATOM     13  O   UNL     1      16.219  37.899  13.530  1.00  0.00    -0.550 OA
ATOM     14  O   UNL     1      15.648  40.108  13.322  1.00  0.00    -0.550 OA
ENDBRANCH  11  12
ENDBRANCH  10  11
ENDBRANCH   9  10
ENDBRANCH   8   9
ENDBRANCH   7   8
ENDBRANCH   6   7
ENDBRANCH   5   6
ENDBRANCH   4   5
ENDBRANCH   3   4
ENDBRANCH   2   3
ENDBRANCH   1   2
BRANCH   1  15
ATOM     15  C   UNL     1      13.370  42.084   2.094  1.00  0.00     0.000 C 
BRANCH  15  16
ATOM     16  C   UNL     1      13.032  43.420   1.414  1.00  0.00     0.000 C 
BRANCH  16  17
ATOM     17  C   UNL     1      12.918  43.293  -0.114  1.00  0.00     0.000 C 
BRANCH  17  18
ATOM     18  C   UNL     1      11.780  44.142  -0.706  1.00  0.00    -0.000 C 
BRANCH  18  19
ATOM     19  C   UNL     1      12.148  45.624  -0.942  1.00  0.00    -0.000 C 
BRANCH  19  20
ATOM     20  C   UNL     1      13.564  46.036  -0.483  1.00  0.00    -0.000 C 
BRANCH  20  21
ATOM     21  C   UNL     1      14.532  46.463  -1.602  1.00  0.00    -0.000 C 
BRANCH  21  22
ATOM     22  C   UNL     1      15.191  47.827  -1.350  1.00  0.00    -0.000 C 
BRANCH  22  23
ATOM     23  C   UNL     1      16.637  47.656  -0.868  1.00  0.00    -0.000 C 
BRANCH  23  24
ATOM     24  C   UNL     1      17.000  46.170  -0.728  1.00  0.00    -0.000 C 
BRANCH  24  25
ATOM     25  C   UNL     1      17.122  45.731   0.740  1.00  0.00    -0.003 C 
ATOM     26  C   UNL     1      16.428  44.399   1.019  1.00  0.00     0.004 C 
ENDBRANCH  24  25
ENDBRANCH  23  24
ENDBRANCH  22  23
ENDBRANCH  21  22
ENDBRANCH  20  21
ENDBRANCH  19  20
ENDBRANCH  18  19
ENDBRANCH  17  18
ENDBRANCH  16  17
ENDBRANCH  15  16
ENDBRANCH   1  15
TORSDOF 22
ENDMDL
MODEL 5
REMARK VINA RESULT:    -0.772      1.556      3.832
REMARK INTER + INTRA:          -3.986
REMARK INTER:                  -2.443
REMARK INTRA:                  -1.543
REMARK UNBOUND:                -2.222
REMARK SMILES CCCCCCCCCCCCCCCCCCCCCCCC(=O)[O-]
REMARK SMILES IDX 13 1 14 2 15 3 16 4 17 5 18 6 19 7 20 8 21 9 22 10 23 11
REMARK SMILES IDX 24 12 25 13 26 14 12 15 11 16 10 17 9 18 8 19 7 20 6 21 5 22
REMARK SMILES IDX 4 23 3 24 2 25 1 26
REMARK H PARENT
REMARK Flexibility Score: inf
ROOT
ATOM      1  C   UNL     1      14.161  39.160   6.738  1.00  0.00     0.000 C 
ENDROOT
BRANCH   1   2
ATOM      2  C   UNL     1      14.582  40.486   7.381  1.00  0.00     0.000 C 
BRANCH   2   3
ATOM      3  C   UNL     1      16.027  40.848   7.007  1.00  0.00     0.000 C 
BRANCH   3   4
ATOM      4  C   UNL     1      16.449  42.224   7.548  1.00  0.00     0.000 C 
BRANCH   4   5
ATOM      5  C   UNL     1      17.104  43.106   6.472  1.00  0.00     0.000 C 
BRANCH   5   6
ATOM      6  C   UNL     1      16.840  42.603   5.043  1.00  0.00     0.000 C 
BRANCH   6   7
ATOM      7  C   UNL     1      17.125  43.662   3.957  1.00  0.00     0.000 C 
BRANCH   7   8
ATOM      8  C   UNL     1      16.115  43.591   2.798  1.00  0.00     0.000 C 
BRANCH   8   9
ATOM      9  C   UNL     1      16.700  44.098   1.471  1.00  0.00     0.000 C 
BRANCH   9  10
ATOM     10  C   UNL     1      15.667  44.855   0.617  1.00  0.00     0.006 C 
BRANCH  10  11
ATOM     11  C   UNL     1      14.259  44.256   0.741  1.00  0.00     0.053 C 
BRANCH  11  12
ATOM     12  C   UNL     1      13.264  45.001  -0.095  1.00  0.00     0.041 C 
ATOM     13  O   UNL     1      13.409  46.234  -0.306  1.00  0.00    -0.550 OA
ATOM     14  O   UNL     1      12.152  44.342  -0.606  1.00  0.00    -0.550 OA
ENDBRANCH  11  12
ENDBRANCH  10  11
ENDBRANCH   9  10
ENDBRANCH   8   9
ENDBRANCH   7   8
ENDBRANCH   6   7
ENDBRANCH   5   6
ENDBRANCH   4   5
ENDBRANCH   3   4
ENDBRANCH   2   3
ENDBRANCH   1   2
BRANCH   1  15
ATOM     15  C   UNL     1      13.753  38.138   7.808  1.00  0.00     0.000 C 
BRANCH  15  16
ATOM     16  C   UNL     1      14.345  38.461   9.188  1.00  0.00     0.000 C 
BRANCH  16  17
ATOM     17  C   UNL     1      13.764  37.576  10.303  1.00  0.00     0.000 C 
BRANCH  17  18
ATOM     18  C   UNL     1      14.662  37.509  11.550  1.00  0.00    -0.000 C 
BRANCH  18  19
ATOM     19  C   UNL     1      15.790  36.456  11.465  1.00  0.00    -0.000 C 
BRANCH  19  20
ATOM     20  C   UNL     1      17.021  36.729  12.357  1.00  0.00    -0.000 C 
BRANCH  20  21
ATOM     21  C   UNL     1      16.727  37.380  13.721  1.00  0.00    -0.000 C 
BRANCH  21  22
ATOM     22  C   UNL     1      17.058  38.879  13.767  1.00  0.00    -0.000 C 
BRANCH  22  23
ATOM     23  C   UNL     1      15.787  39.717  13.949  1.00  0.00    -0.000 C 
BRANCH  23  24
ATOM     24  C   UNL     1      15.972  41.131  13.380  1.00  0.00    -0.000 C 
BRANCH  24  25
ATOM     25  C   UNL     1      16.616  41.125  11.985  1.00  0.00    -0.003 C 
ATOM     26  C   UNL     1      16.811  42.530  11.416  1.00  0.00     0.004 C 
ENDBRANCH  24  25
ENDBRANCH  23  24
ENDBRANCH  22  23
ENDBRANCH  21  22
ENDBRANCH  20  21
ENDBRANCH  19  20
ENDBRANCH  18  19
ENDBRANCH  17  18
ENDBRANCH  16  17
ENDBRANCH  15  16
ENDBRANCH   1  15
TORSDOF 22
ENDMDL
MODEL 6
REMARK VINA RESULT:    -0.755      5.061     11.613
REMARK INTER + INTRA:          -3.949
REMARK INTER:                  -2.425
REMARK INTRA:                  -1.524
REMARK UNBOUND:                -2.222
REMARK SMILES CCCCCCCCCCCCCCCCCCCCCCCC(=O)[O-]
REMARK SMILES IDX 13 1 14 2 15 3 16 4 17 5 18 6 19 7 20 8 21 9 22 10 23 11
REMARK SMILES IDX 24 12 25 13 26 14 12 15 11 16 10 17 9 18 8 19 7 20 6 21 5 22
REMARK SMILES IDX 4 23 3 24 2 25 1 26
REMARK H PARENT
REMARK Flexibility Score: inf
ROOT
ATOM      1  C   UNL     1      12.837  42.054   3.705  1.00  0.00     0.000 C 
ENDROOT
BRANCH   1   2
ATOM      2  C   UNL     1      13.750  42.500   4.852  1.00  0.00     0.000 C 
BRANCH   2   3
ATOM      3  C   UNL     1      14.277  41.292   5.641  1.00  0.00     0.000 C 
BRANCH   3   4
ATOM      4  C   UNL     1      15.393  41.673   6.627  1.00  0.00     0.000 C 
BRANCH   4   5
ATOM      5  C   UNL     1      16.294  40.481   6.989  1.00  0.00     0.000 C 
BRANCH   5   6
ATOM      6  C   UNL     1      16.297  40.169   8.495  1.00  0.00     0.000 C 
BRANCH   6   7
ATOM      7  C   UNL     1      14.882  40.009   9.092  1.00  0.00     0.000 C 
BRANCH   7   8
ATOM      8  C   UNL     1      14.369  38.562   8.988  1.00  0.00     0.000 C 
BRANCH   8   9
ATOM      9  C   UNL     1      14.125  37.920  10.362  1.00  0.00     0.000 C 
BRANCH   9  10
ATOM     10  C   UNL     1      15.081  38.452  11.445  1.00  0.00     0.006 C 
BRANCH  10  11
ATOM     11  C   UNL     1      15.013  37.625  12.737  1.00  0.00     0.053 C 
BRANCH  11  12
ATOM     12  C   UNL     1      16.237  36.780  12.918  1.00  0.00     0.041 C 
ATOM     13  O   UNL     1      16.520  36.310  14.051  1.00  0.00    -0.550 OA
ATOM     14  O   UNL     1      17.088  36.548  11.844  1.00  0.00    -0.550 OA
ENDBRANCH  11  12
ENDBRANCH  10  11
ENDBRANCH   9  10
ENDBRANCH   8   9
ENDBRANCH   7   8
ENDBRANCH   6   7
ENDBRANCH   5   6
ENDBRANCH   4   5
ENDBRANCH   3   4
ENDBRANCH   2   3
ENDBRANCH   1   2
BRANCH   1  15
ATOM     15  C   UNL     1      13.402  42.502   2.349  1.00  0.00     0.000 C 
BRANCH  15  16
ATOM     16  C   UNL     1      14.583  43.474   2.495  1.00  0.00     0.000 C 
BRANCH  16  17
ATOM     17  C   UNL     1      15.086  43.999   1.141  1.00  0.00     0.000 C 
BRANCH  17  18
ATOM     18  C   UNL     1      16.558  44.448   1.177  1.00  0.00    -0.000 C 
BRANCH  18  19
ATOM     19  C   UNL     1      17.049  45.120  -0.124  1.00  0.00    -0.000 C 
BRANCH  19  20
ATOM     20  C   UNL     1      16.491  46.535  -0.391  1.00  0.00    -0.000 C 
BRANCH  20  21
ATOM     21  C   UNL     1      15.760  46.724  -1.733  1.00  0.00    -0.000 C 
BRANCH  21  22
ATOM     22  C   UNL     1      14.500  47.595  -1.624  1.00  0.00    -0.000 C 
BRANCH  22  23
ATOM     23  C   UNL     1      13.394  46.865  -0.852  1.00  0.00    -0.000 C 
BRANCH  23  24
ATOM     24  C   UNL     1      13.331  45.382  -1.248  1.00  0.00    -0.000 C 
BRANCH  24  25
ATOM     25  C   UNL     1      11.955  44.757  -0.971  1.00  0.00    -0.003 C 
ATOM     26  C   UNL     1      12.027  43.248  -0.733  1.00  0.00     0.004 C 
ENDBRANCH  24  25
ENDBRANCH  23  24
ENDBRANCH  22  23
ENDBRANCH  21  22
ENDBRANCH  20  21
ENDBRANCH  19  20
ENDBRANCH  18  19
ENDBRANCH  17  18
ENDBRANCH  16  17
ENDBRANCH  15  16
ENDBRANCH   1  15
TORSDOF 22
ENDMDL
MODEL 7
REMARK VINA RESULT:    -0.688      4.510     11.089
REMARK INTER + INTRA:          -3.795
REMARK INTER:                  -2.585
REMARK INTRA:                  -1.210
REMARK UNBOUND:                -2.222
REMARK SMILES CCCCCCCCCCCCCCCCCCCCCCCC(=O)[O-]
REMARK SMILES IDX 13 1 14 2 15 3 16 4 17 5 18 6 19 7 20 8 21 9 22 10 23 11
REMARK SMILES IDX 24 12 25 13 26 14 12 15 11 16 10 17 9 18 8 19 7 20 6 21 5 22
REMARK SMILES IDX 4 23 3 24 2 25 1 26
REMARK H PARENT
REMARK Flexibility Score: inf
ROOT
ATOM      1  C   UNL     1      15.134  41.096   7.443  1.00  0.00     0.000 C 
ENDROOT
BRANCH   1   2
ATOM      2  C   UNL     1      16.372  40.375   7.989  1.00  0.00     0.000 C 
BRANCH   2   3
ATOM      3  C   UNL     1      15.980  39.308   9.021  1.00  0.00     0.000 C 
BRANCH   3   4
ATOM      4  C   UNL     1      14.544  38.795   8.824  1.00  0.00     0.000 C 
BRANCH   4   5
ATOM      5  C   UNL     1      14.113  37.808   9.921  1.00  0.00     0.000 C 
BRANCH   5   6
ATOM      6  C   UNL     1      14.247  38.391  11.338  1.00  0.00     0.000 C 
BRANCH   6   7
ATOM      7  C   UNL     1      15.208  37.590  12.243  1.00  0.00     0.000 C 
BRANCH   7   8
ATOM      8  C   UNL     1      15.351  38.222  13.639  1.00  0.00     0.000 C 
BRANCH   8   9
ATOM      9  C   UNL     1      16.813  38.521  14.006  1.00  0.00     0.000 C 
BRANCH   9  10
ATOM     10  C   UNL     1      17.125  40.028  14.024  1.00  0.00     0.006 C 
BRANCH  10  11
ATOM     11  C   UNL     1      16.314  40.802  12.975  1.00  0.00     0.053 C 
BRANCH  11  12
ATOM     12  C   UNL     1      16.000  42.193  13.434  1.00  0.00     0.041 C 
ATOM     13  O   UNL     1      14.835  42.489  13.811  1.00  0.00    -0.550 OA
ATOM     14  O   UNL     1      16.983  43.175  13.405  1.00  0.00    -0.550 OA
ENDBRANCH  11  12
ENDBRANCH  10  11
ENDBRANCH   9  10
ENDBRANCH   8   9
ENDBRANCH   7   8
ENDBRANCH   6   7
ENDBRANCH   5   6
ENDBRANCH   4   5
ENDBRANCH   3   4
ENDBRANCH   2   3
ENDBRANCH   1   2
BRANCH   1  15
ATOM     15  C   UNL     1      15.374  41.586   6.008  1.00  0.00     0.000 C 
BRANCH  15  16
ATOM     16  C   UNL     1      14.192  42.399   5.457  1.00  0.00     0.000 C 
BRANCH  16  17
ATOM     17  C   UNL     1      13.354  41.608   4.439  1.00  0.00     0.000 C 
BRANCH  17  18
ATOM     18  C   UNL     1      12.709  42.503   3.365  1.00  0.00    -0.000 C 
BRANCH  18  19
ATOM     19  C   UNL     1      13.069  42.113   1.914  1.00  0.00    -0.000 C 
BRANCH  19  20
ATOM     20  C   UNL     1      13.751  43.219   1.080  1.00  0.00    -0.000 C 
BRANCH  20  21
ATOM     21  C   UNL     1      12.808  44.270   0.464  1.00  0.00    -0.000 C 
BRANCH  21  22
ATOM     22  C   UNL     1      13.505  45.600   0.141  1.00  0.00    -0.000 C 
BRANCH  22  23
ATOM     23  C   UNL     1      15.000  45.386  -0.126  1.00  0.00    -0.000 C 
BRANCH  23  24
ATOM     24  C   UNL     1      15.661  46.677  -0.630  1.00  0.00    -0.000 C 
BRANCH  24  25
ATOM     25  C   UNL     1      14.738  47.490  -1.551  1.00  0.00    -0.003 C 
ATOM     26  C   UNL     1      15.384  47.821  -2.896  1.00  0.00     0.004 C 
ENDBRANCH  24  25
ENDBRANCH  23  24
ENDBRANCH  22  23
ENDBRANCH  21  22
ENDBRANCH  20  21
ENDBRANCH  19  20
ENDBRANCH  18  19
ENDBRANCH  17  18
ENDBRANCH  16  17
ENDBRANCH  15  16
ENDBRANCH   1  15
TORSDOF 22
ENDMDL
MODEL 8
REMARK VINA RESULT:    -0.669      4.698     11.590
REMARK INTER + INTRA:          -3.752
REMARK INTER:                  -2.738
REMARK INTRA:                  -1.014
REMARK UNBOUND:                -2.222
REMARK SMILES CCCCCCCCCCCCCCCCCCCCCCCC(=O)[O-]
REMARK SMILES IDX 13 1 14 2 15 3 16 4 17 5 18 6 19 7 20 8 21 9 22 10 23 11
REMARK SMILES IDX 24 12 25 13 26 14 12 15 11 16 10 17 9 18 8 19 7 20 6 21 5 22
REMARK SMILES IDX 4 23 3 24 2 25 1 26
REMARK H PARENT
REMARK Flexibility Score: inf
ROOT
ATOM      1  C   UNL     1      13.793  41.681   5.191  1.00  0.00     0.000 C 
ENDROOT
BRANCH   1   2
ATOM      2  C   UNL     1      14.882  41.947   6.236  1.00  0.00     0.000 C 
BRANCH   2   3
ATOM      3  C   UNL     1      15.186  40.683   7.052  1.00  0.00     0.000 C 
BRANCH   3   4
ATOM      4  C   UNL     1      16.692  40.476   7.280  1.00  0.00     0.000 C 
BRANCH   4   5
ATOM      5  C   UNL     1      16.994  39.725   8.587  1.00  0.00     0.000 C 
BRANCH   5   6
ATOM      6  C   UNL     1      16.180  40.250   9.782  1.00  0.00     0.000 C 
BRANCH   6   7
ATOM      7  C   UNL     1      16.938  41.293  10.630  1.00  0.00     0.000 C 
BRANCH   7   8
ATOM      8  C   UNL     1      17.002  40.897  12.116  1.00  0.00     0.000 C 
BRANCH   8   9
ATOM      9  C   UNL     1      16.800  39.390  12.335  1.00  0.00     0.000 C 
BRANCH   9  10
ATOM     10  C   UNL     1      15.761  39.082  13.428  1.00  0.00     0.006 C 
BRANCH  10  11
ATOM     11  C   UNL     1      15.170  37.672  13.288  1.00  0.00     0.053 C 
BRANCH  11  12
ATOM     12  C   UNL     1      15.627  37.003  12.027  1.00  0.00     0.041 C 
ATOM     13  O   UNL     1      15.006  37.195  10.948  1.00  0.00    -0.550 OA
ATOM     14  O   UNL     1      16.710  36.134  12.053  1.00  0.00    -0.550 OA
ENDBRANCH  11  12
ENDBRANCH  10  11
ENDBRANCH   9  10
ENDBRANCH   8   9
ENDBRANCH   7   8
ENDBRANCH   6   7
ENDBRANCH   5   6
ENDBRANCH   4   5
ENDBRANCH   3   4
ENDBRANCH   2   3
ENDBRANCH   1   2
BRANCH   1  15
ATOM     15  C   UNL     1      14.136  42.360   3.857  1.00  0.00     0.000 C 
BRANCH  15  16
ATOM     16  C   UNL     1      12.930  42.440   2.909  1.00  0.00     0.000 C 
BRANCH  16  17
ATOM     17  C   UNL     1      13.333  42.789   1.467  1.00  0.00     0.000 C 
BRANCH  17  18
ATOM     18  C   UNL     1      12.267  43.615   0.725  1.00  0.00    -0.000 C 
BRANCH  18  19
ATOM     19  C   UNL     1      12.674  44.042  -0.702  1.00  0.00    -0.000 C 
BRANCH  19  20
ATOM     20  C   UNL     1      12.532  45.549  -1.009  1.00  0.00    -0.000 C 
BRANCH  20  21
ATOM     21  C   UNL     1      13.677  46.446  -0.503  1.00  0.00    -0.000 C 
BRANCH  21  22
ATOM     22  C   UNL     1      14.391  47.215  -1.624  1.00  0.00    -0.000 C 
BRANCH  22  23
ATOM     23  C   UNL     1      15.911  47.030  -1.534  1.00  0.00    -0.000 C 
BRANCH  23  24
ATOM     24  C   UNL     1      16.397  47.152  -0.082  1.00  0.00    -0.000 C 
BRANCH  24  25
ATOM     25  C   UNL     1      17.125  45.888   0.402  1.00  0.00    -0.003 C 
ATOM     26  C   UNL     1      16.180  44.709   0.626  1.00  0.00     0.004 C 
ENDBRANCH  24  25
ENDBRANCH  23  24
ENDBRANCH  22  23
ENDBRANCH  21  22
ENDBRANCH  20  21
ENDBRANCH  19  20
ENDBRANCH  18  19
ENDBRANCH  17  18
ENDBRANCH  16  17
ENDBRANCH  15  16
ENDBRANCH   1  15
TORSDOF 22
ENDMDL
MODEL 9
REMARK VINA RESULT:    -0.553      1.782      3.589
REMARK INTER + INTRA:          -3.485
REMARK INTER:                  -2.044
REMARK INTRA:                  -1.441
REMARK UNBOUND:                -2.222
REMARK SMILES CCCCCCCCCCCCCCCCCCCCCCCC(=O)[O-]
REMARK SMILES IDX 13 1 14 2 15 3 16 4 17 5 18 6 19 7 20 8 21 9 22 10 23 11
REMARK SMILES IDX 24 12 25 13 26 14 12 15 11 16 10 17 9 18 8 19 7 20 6 21 5 22
REMARK SMILES IDX 4 23 3 24 2 25 1 26
REMARK H PARENT
REMARK Flexibility Score: inf
ROOT
ATOM      1  C   UNL     1      14.930  40.676   6.898  1.00  0.00     0.000 C 
ENDROOT
BRANCH   1   2
ATOM      2  C   UNL     1      15.237  42.124   6.502  1.00  0.00     0.000 C 
BRANCH   2   3
ATOM      3  C   UNL     1      14.733  42.429   5.084  1.00  0.00     0.000 C 
BRANCH   3   4
ATOM      4  C   UNL     1      13.404  41.726   4.766  1.00  0.00     0.000 C 
BRANCH   4   5
ATOM      5  C   UNL     1      12.613  42.431   3.652  1.00  0.00     0.000 C 
BRANCH   5   6
ATOM      6  C   UNL     1      13.114  42.071   2.243  1.00  0.00     0.000 C 
BRANCH   6   7
ATOM      7  C   UNL     1      13.815  43.243   1.522  1.00  0.00     0.000 C 
BRANCH   7   8
ATOM      8  C   UNL     1      12.931  43.860   0.423  1.00  0.00     0.000 C 
BRANCH   8   9
ATOM      9  C   UNL     1      13.519  45.159  -0.148  1.00  0.00     0.000 C 
BRANCH   9  10
ATOM     10  C   UNL     1      15.058  45.177  -0.126  1.00  0.00     0.006 C 
BRANCH  10  11
ATOM     11  C   UNL     1      15.622  46.604  -0.090  1.00  0.00     0.053 C 
BRANCH  11  12
ATOM     12  C   UNL     1      15.642  47.226  -1.452  1.00  0.00     0.041 C 
ATOM     13  O   UNL     1      16.712  47.270  -2.114  1.00  0.00    -0.550 OA
ATOM     14  O   UNL     1      14.487  47.798  -1.973  1.00  0.00    -0.550 OA
ENDBRANCH  11  12
ENDBRANCH  10  11
ENDBRANCH   9  10
ENDBRANCH   8   9
ENDBRANCH   7   8
ENDBRANCH   6   7
ENDBRANCH   5   6
ENDBRANCH   4   5
ENDBRANCH   3   4
ENDBRANCH   2   3
ENDBRANCH   1   2
BRANCH   1  15
ATOM     15  C   UNL     1      15.421  40.381   8.322  1.00  0.00     0.000 C 
BRANCH  15  16
ATOM     16  C   UNL     1      16.596  41.279   8.738  1.00  0.00     0.000 C 
BRANCH  16  17
ATOM     17  C   UNL     1      16.275  42.140   9.970  1.00  0.00     0.000 C 
BRANCH  17  18
ATOM     18  C   UNL     1      17.107  41.758  11.207  1.00  0.00    -0.000 C 
BRANCH  18  19
ATOM     19  C   UNL     1      16.623  42.407  12.523  1.00  0.00    -0.000 C 
BRANCH  19  20
ATOM     20  C   UNL     1      17.056  41.683  13.817  1.00  0.00    -0.000 C 
BRANCH  20  21
ATOM     21  C   UNL     1      16.640  40.205  13.929  1.00  0.00    -0.000 C 
BRANCH  21  22
ATOM     22  C   UNL     1      15.118  40.000  13.946  1.00  0.00    -0.000 C 
BRANCH  22  23
ATOM     23  C   UNL     1      14.760  38.530  13.694  1.00  0.00    -0.000 C 
BRANCH  23  24
ATOM     24  C   UNL     1      13.914  38.379  12.421  1.00  0.00    -0.000 C 
BRANCH  24  25
ATOM     25  C   UNL     1      14.757  37.983  11.198  1.00  0.00    -0.003 C 
ATOM     26  C   UNL     1      13.904  37.632   9.980  1.00  0.00     0.004 C 
ENDBRANCH  24  25
ENDBRANCH  23  24
ENDBRANCH  22  23
ENDBRANCH  21  22
ENDBRANCH  20  21
ENDBRANCH  19  20
ENDBRANCH  18  19
ENDBRANCH  17  18
ENDBRANCH  16  17
ENDBRANCH  15  16
ENDBRANCH   1  15
TORSDOF 22
ENDMDL
