MODEL 1
REMARK VINA RESULT:    -3.978      0.000      0.000
REMARK INTER + INTRA:          -5.115
REMARK INTER:                  -4.908
REMARK INTRA:                  -0.207
REMARK UNBOUND:                -0.207
REMARK SMILES CCCCCC(=O)[O-]
REMARK SMILES IDX 4 1 5 2 6 3 7 4 8 5 3 6 2 7 1 8
REMARK H PARENT
REMARK Flexibility Score: inf
ROOT
ATOM      1  C   UNL     1       5.616  15.177  -7.367  1.00  0.00     0.006 C 
ENDROOT
BRANCH   1   2
ATOM      2  C   UNL     1       6.219  16.042  -8.482  1.00  0.00     0.053 C 
BRANCH   2   3
ATOM      3  C   UNL     1       7.644  16.405  -8.195  1.00  0.00     0.041 C 
ATOM      4  O   UNL     1       7.912  17.299  -7.349  1.00  0.00    -0.550 OA
ATOM      5  O   UNL     1       8.674  15.781  -8.887  1.00  0.00    -0.550 OA
ENDBRANCH   2   3
ENDBRANCH   1   2
BRANCH   1   6
ATOM      6  C   UNL     1       4.317  15.778  -6.803  1.00  0.00     0.000 C 
BRANCH   6   7
ATOM      7  C   UNL     1       4.377  17.309  -6.694  1.00  0.00    -0.003 C 
ATOM      8  C   UNL     1       5.072  17.783  -5.416  1.00  0.00     0.004 C 
ENDBRANCH   6   7
ENDBRANCH   1   6
TORSDOF 4
ENDMDL
MODEL 2
REMARK VINA RESULT:    -3.755      1.661      3.143
REMARK INTER + INTRA:          -4.841
REMARK INTER:                  -4.631
REMARK INTRA:                  -0.209
REMARK UNBOUND:                -0.207
REMARK SMILES CCCCCC(=O)[O-]
REMARK SMILES IDX 4 1 5 2 6 3 7 4 8 5 3 6 2 7 1 8
REMARK H PARENT
REMARK Flexibility Score: inf
ROOT
ATOM      1  C   UNL     1       3.999  16.669  -6.351  1.00  0.00     0.006 C 
ENDROOT
BRANCH   1   2
ATOM      2  C   UNL     1       4.892  17.786  -6.909  1.00  0.00     0.053 C 
BRANCH   2   3
ATOM      3  C   UNL     1       6.191  17.880  -6.170  1.00  0.00     0.041 C 
ATOM      4  O   UNL     1       7.271  17.579  -6.744  1.00  0.00    -0.550 OA
ATOM      5  O   UNL     1       6.206  18.267  -4.836  1.00  0.00    -0.550 OA
ENDBRANCH   2   3
ENDBRANCH   1   2
BRANCH   1   6
ATOM      6  C   UNL     1       4.320  15.302  -6.978  1.00  0.00     0.000 C 
BRANCH   6   7
ATOM      7  C   UNL     1       4.881  15.424  -8.403  1.00  0.00    -0.003 C 
ATOM      8  C   UNL     1       6.200  14.674  -8.585  1.00  0.00     0.004 C 
ENDBRANCH   6   7
ENDBRANCH   1   6
TORSDOF 4
ENDMDL
MODEL 3
REMARK VINA RESULT:    -3.753     12.226     13.578
REMARK INTER + INTRA:          -4.838
REMARK INTER:                  -4.634
REMARK INTRA:                  -0.204
REMARK UNBOUND:                -0.207
REMARK SMILES CCCCCC(=O)[O-]
REMARK SMILES IDX 4 1 5 2 6 3 7 4 8 5 3 6 2 7 1 8
REMARK H PARENT
REMARK Flexibility Score: inf
ROOT
ATOM      1  C   UNL     1      19.254  19.098 -13.082  1.00  0.00     0.006 C 
ENDROOT
BRANCH   1   2
ATOM      2  C   UNL     1      19.210  17.792 -12.278  1.00  0.00     0.053 C 
BRANCH   2   3
ATOM      3  C   UNL     1      19.328  18.042 -10.805  1.00  0.00     0.041 C 
ATOM      4  O   UNL     1      18.606  18.912 -10.250  1.00  0.00    -0.550 OA
ATOM      5  O   UNL     1      20.261  17.340 -10.053  1.00  0.00    -0.550 OA
ENDBRANCH   2   3
ENDBRANCH   1   2
BRANCH   1   6
ATOM      6  C   UNL     1      17.883  19.460 -13.678  1.00  0.00     0.000 C 
BRANCH   6   7
ATOM      7  C   UNL     1      17.355  20.808 -13.163  1.00  0.00    -0.003 C 
ATOM      8  C   UNL     1      16.218  20.649 -12.153  1.00  0.00     0.004 C 
ENDBRANCH   6   7
ENDBRANCH   1   6
TORSDOF 4
ENDMDL
MODEL 4
REMARK VINA RESULT:    -3.696     12.719     13.668
REMARK INTER + INTRA:          -4.767
REMARK INTER:                  -4.531
REMARK INTRA:                  -0.236
REMARK UNBOUND:                -0.207
REMARK SMILES CCCCCC(=O)[O-]
REMARK SMILES IDX 4 1 5 2 6 3 7 4 8 5 3 6 2 7 1 8
REMARK H PARENT
REMARK Flexibility Score: inf
ROOT
ATOM      1  C   UNL     1      18.129  19.002 -13.691  1.00  0.00     0.006 C 
ENDROOT
BRANCH   1   2
ATOM      2  C   UNL     1      18.125  20.516 -13.439  1.00  0.00     0.053 C 
BRANCH   2   3
ATOM      3  C   UNL     1      16.964  20.934 -12.589  1.00  0.00     0.041 C 
ATOM      4  O   UNL     1      16.624  20.241 -11.594  1.00  0.00    -0.550 OA
ATOM      5  O   UNL     1      16.236  22.071 -12.917  1.00  0.00    -0.550 OA
ENDBRANCH   2   3
ENDBRANCH   1   2
BRANCH   1   6
ATOM      6  C   UNL     1      19.401  18.326 -13.151  1.00  0.00     0.000 C 
BRANCH   6   7
ATOM      7  C   UNL     1      19.149  17.553 -11.848  1.00  0.00    -0.003 C 
ATOM      8  C   UNL     1      19.508  18.364 -10.602  1.00  0.00     0.004 C 
ENDBRANCH   6   7
ENDBRANCH   1   6
TORSDOF 4
ENDMDL
MODEL 5
REMARK VINA RESULT:    -3.682     11.730     13.078
REMARK INTER + INTRA:          -4.751
REMARK INTER:                  -4.627
REMARK INTRA:                  -0.123
REMARK UNBOUND:                -0.207
REMARK SMILES CCCCCC(=O)[O-]
REMARK SMILES IDX 4 1 5 2 6 3 7 4 8 5 3 6 2 7 1 8
REMARK H PARENT
REMARK Flexibility Score: inf
ROOT
ATOM      1  C   UNL     1      17.896  19.517 -13.550  1.00  0.00     0.006 C 
ENDROOT
BRANCH   1   2
ATOM      2  C   UNL     1      19.191  19.237 -12.774  1.00  0.00     0.053 C 
BRANCH   2   3
ATOM      3  C   UNL     1      18.966  18.278 -11.645  1.00  0.00     0.041 C 
ATOM      4  O   UNL     1      19.078  17.038 -11.834  1.00  0.00    -0.550 OA
ATOM      5  O   UNL     1      18.596  18.753 -10.393  1.00  0.00    -0.550 OA
ENDBRANCH   2   3
ENDBRANCH   1   2
BRANCH   1   6
ATOM      6  C   UNL     1      17.208  20.811 -13.083  1.00  0.00     0.000 C 
BRANCH   6   7
ATOM      7  C   UNL     1      16.084  20.546 -12.069  1.00  0.00    -0.003 C 
ATOM      8  C   UNL     1      15.008  21.633 -12.085  1.00  0.00     0.004 C 
ENDBRANCH   6   7
ENDBRANCH   1   6
TORSDOF 4
ENDMDL
MODEL 6
REMARK VINA RESULT:    -3.664     11.347     12.909
REMARK INTER + INTRA:          -4.728
REMARK INTER:                  -4.633
REMARK INTRA:                  -0.095
REMARK UNBOUND:                -0.207
REMARK SMILES CCCCCC(=O)[O-]
REMARK SMILES IDX 4 1 5 2 6 3 7 4 8 5 3 6 2 7 1 8
REMARK H PARENT
REMARK Flexibility Score: inf
ROOT
ATOM      1  C   UNL     1      17.286  20.835 -12.881  1.00  0.00     0.006 C 
ENDROOT
BRANCH   1   2
ATOM      2  C   UNL     1      16.014  20.610 -12.052  1.00  0.00     0.053 C 
BRANCH   2   3
ATOM      3  C   UNL     1      15.070  21.769 -12.159  1.00  0.00     0.041 C 
ATOM      4  O   UNL     1      13.945  21.724 -11.593  1.00  0.00    -0.550 OA
ATOM      5  O   UNL     1      15.417  22.882 -12.913  1.00  0.00    -0.550 OA
ENDBRANCH   2   3
ENDBRANCH   1   2
BRANCH   1   6
ATOM      6  C   UNL     1      17.859  19.519 -13.434  1.00  0.00     0.000 C 
BRANCH   6   7
ATOM      7  C   UNL     1      19.092  19.040 -12.653  1.00  0.00    -0.003 C 
ATOM      8  C   UNL     1      18.726  18.179 -11.443  1.00  0.00     0.004 C 
ENDBRANCH   6   7
ENDBRANCH   1   6
TORSDOF 4
ENDMDL
MODEL 7
REMARK VINA RESULT:    -3.621      1.986      3.450
REMARK INTER + INTRA:          -4.675
REMARK INTER:                  -4.480
REMARK INTRA:                  -0.196
REMARK UNBOUND:                -0.207
REMARK SMILES CCCCCC(=O)[O-]
REMARK SMILES IDX 4 1 5 2 6 3 7 4 8 5 3 6 2 7 1 8
REMARK H PARENT
REMARK Flexibility Score: inf
ROOT
ATOM      1  C   UNL     1       4.700  16.224  -7.860  1.00  0.00     0.006 C 
ENDROOT
BRANCH   1   2
ATOM      2  C   UNL     1       4.882  17.725  -7.595  1.00  0.00     0.053 C 
BRANCH   2   3
ATOM      3  C   UNL     1       5.407  17.986  -6.216  1.00  0.00     0.041 C 
ATOM      4  O   UNL     1       4.759  17.602  -5.208  1.00  0.00    -0.550 OA
ATOM      5  O   UNL     1       6.595  18.686  -6.046  1.00  0.00    -0.550 OA
ENDBRANCH   2   3
ENDBRANCH   1   2
BRANCH   1   6
ATOM      6  C   UNL     1       5.985  15.426  -7.583  1.00  0.00     0.000 C 
BRANCH   6   7
ATOM      7  C   UNL     1       6.887  15.316  -8.822  1.00  0.00    -0.003 C 
ATOM      8  C   UNL     1       8.042  16.318  -8.803  1.00  0.00     0.004 C 
ENDBRANCH   6   7
ENDBRANCH   1   6
TORSDOF 4
ENDMDL
MODEL 8
REMARK VINA RESULT:    -3.513      2.455      3.539
REMARK INTER + INTRA:          -4.541
REMARK INTER:                  -4.293
REMARK INTRA:                  -0.248
REMARK UNBOUND:                -0.207
REMARK SMILES CCCCCC(=O)[O-]
REMARK SMILES IDX 4 1 5 2 6 3 7 4 8 5 3 6 2 7 1 8
REMARK H PARENT
REMARK Flexibility Score: inf
ROOT
ATOM      1  C   UNL     1       7.116  16.929  -7.456  1.00  0.00     0.006 C 
ENDROOT
BRANCH   1   2
ATOM      2  C   UNL     1       5.894  17.821  -7.199  1.00  0.00     0.053 C 
BRANCH   2   3
ATOM      3  C   UNL     1       5.406  17.702  -5.787  1.00  0.00     0.041 C 
ATOM      4  O   UNL     1       6.100  18.152  -4.837  1.00  0.00    -0.550 OA
ATOM      5  O   UNL     1       4.203  17.063  -5.518  1.00  0.00    -0.550 OA
ENDBRANCH   2   3
ENDBRANCH   1   2
BRANCH   1   6
ATOM      6  C   UNL     1       6.720  15.471  -7.746  1.00  0.00     0.000 C 
BRANCH   6   7
ATOM      7  C   UNL     1       5.480  15.366  -8.645  1.00  0.00    -0.003 C 
ATOM      8  C   UNL     1       4.407  14.442  -8.067  1.00  0.00     0.004 C 
ENDBRANCH   6   7
ENDBRANCH   1   6
TORSDOF 4
ENDMDL
MODEL 9
REMARK VINA RESULT:    -3.511      1.592      1.810
REMARK INTER + INTRA:          -4.539
REMARK INTER:                  -4.425
REMARK INTRA:                  -0.114
REMARK UNBOUND:                -0.207
REMARK SMILES CCCCCC(=O)[O-]
REMARK SMILES IDX 4 1 5 2 6 3 7 4 8 5 3 6 2 7 1 8
REMARK H PARENT
REMARK Flexibility Score: inf
ROOT
ATOM      1  C   UNL     1       6.774  16.214  -7.399  1.00  0.00     0.006 C 
ENDROOT
BRANCH   1   2
ATOM      2  C   UNL     1       7.829  16.670  -8.417  1.00  0.00     0.053 C 
BRANCH   2   3
ATOM      3  C   UNL     1       8.209  15.566  -9.356  1.00  0.00     0.041 C 
ATOM      4  O   UNL     1       8.753  14.519  -8.915  1.00  0.00    -0.550 OA
ATOM      5  O   UNL     1       7.994  15.708 -10.721  1.00  0.00    -0.550 OA
ENDBRANCH   2   3
ENDBRANCH   1   2
BRANCH   1   6
ATOM      6  C   UNL     1       5.379  16.781  -7.715  1.00  0.00     0.000 C 
BRANCH   6   7
ATOM      7  C   UNL     1       4.761  17.521  -6.519  1.00  0.00    -0.003 C 
ATOM      8  C   UNL     1       5.788  17.857  -5.437  1.00  0.00     0.004 C 
ENDBRANCH   6   7
ENDBRANCH   1   6
TORSDOF 4
ENDMDL
