MODEL 1
REMARK VINA RESULT:    -1.279      0.000      0.000
REMARK INTER + INTRA:          -3.110
REMARK INTER:                  -2.325
REMARK INTRA:                  -0.785
REMARK UNBOUND:                -0.785
REMARK SMILES CCCCCCCCCCCCCCCC(=O)[O-]
REMARK SMILES IDX 9 1 10 2 11 3 12 4 13 5 14 6 15 7 16 8 17 9 18 10 8 11 7 12
REMARK SMILES IDX 6 13 5 14 4 15 3 16 2 17 1 18
REMARK H PARENT
REMARK Flexibility Score: inf
ROOT
ATOM      1  C   UNL     1      14.665  20.205  17.825  1.00  0.00     0.000 C 
ENDROOT
BRANCH   1   2
ATOM      2  C   UNL     1      14.914  20.400  16.324  1.00  0.00     0.000 C 
BRANCH   2   3
ATOM      3  C   UNL     1      15.115  21.883  15.988  1.00  0.00     0.000 C 
BRANCH   3   4
ATOM      4  C   UNL     1      14.214  22.311  14.823  1.00  0.00     0.000 C 
BRANCH   4   5
ATOM      5  C   UNL     1      12.771  21.833  15.040  1.00  0.00     0.000 C 
BRANCH   5   6
ATOM      6  C   UNL     1      11.730  22.765  14.393  1.00  0.00     0.006 C 
BRANCH   6   7
ATOM      7  C   UNL     1      10.270  22.386  14.689  1.00  0.00     0.053 C 
BRANCH   7   8
ATOM      8  C   UNL     1       9.985  22.353  16.159  1.00  0.00     0.041 C 
ATOM      9  O   UNL     1       9.875  23.426  16.807  1.00  0.00    -0.550 OA
ATOM     10  O   UNL     1       9.875  21.135  16.819  1.00  0.00    -0.550 OA
ENDBRANCH   7   8
ENDBRANCH   6   7
ENDBRANCH   5   6
ENDBRANCH   4   5
ENDBRANCH   3   4
ENDBRANCH   2   3
ENDBRANCH   1   2
BRANCH   1  11
ATOM     11  C   UNL     1      13.189  19.901  18.103  1.00  0.00     0.000 C 
BRANCH  11  12
ATOM     12  C   UNL     1      12.762  20.452  19.472  1.00  0.00    -0.000 C 
BRANCH  12  13
ATOM     13  C   UNL     1      11.693  21.550  19.360  1.00  0.00    -0.000 C 
BRANCH  13  14
ATOM     14  C   UNL     1      10.289  21.049  19.743  1.00  0.00    -0.000 C 
BRANCH  14  15
ATOM     15  C   UNL     1      10.296  20.146  20.989  1.00  0.00    -0.000 C 
BRANCH  15  16
ATOM     16  C   UNL     1      10.019  20.873  22.317  1.00  0.00    -0.000 C 
BRANCH  16  17
ATOM     17  C   UNL     1      11.295  21.158  23.122  1.00  0.00    -0.003 C 
ATOM     18  C   UNL     1      11.828  19.885  23.776  1.00  0.00     0.004 C 
ENDBRANCH  16  17
ENDBRANCH  15  16
ENDBRANCH  14  15
ENDBRANCH  13  14
ENDBRANCH  12  13
ENDBRANCH  11  12
ENDBRANCH   1  11
TORSDOF 14
ENDMDL
MODEL 2
REMARK VINA RESULT:    -1.252      2.262      5.529
REMARK INTER + INTRA:          -3.062
REMARK INTER:                  -1.550
REMARK INTRA:                  -1.512
REMARK UNBOUND:                -0.785
REMARK SMILES CCCCCCCCCCCCCCCC(=O)[O-]
REMARK SMILES IDX 9 1 10 2 11 3 12 4 13 5 14 6 15 7 16 8 17 9 18 10 8 11 7 12
REMARK SMILES IDX 6 13 5 14 4 15 3 16 2 17 1 18
REMARK H PARENT
REMARK Flexibility Score: inf
ROOT
ATOM      1  C   UNL     1      14.860  20.467  16.565  1.00  0.00     0.000 C 
ENDROOT
BRANCH   1   2
ATOM      2  C   UNL     1      14.190  19.907  17.825  1.00  0.00     0.000 C 
BRANCH   2   3
ATOM      3  C   UNL     1      12.739  20.389  17.938  1.00  0.00     0.000 C 
BRANCH   3   4
ATOM      4  C   UNL     1      12.086  19.877  19.228  1.00  0.00     0.000 C 
BRANCH   4   5
ATOM      5  C   UNL     1      13.072  19.934  20.403  1.00  0.00     0.000 C 
BRANCH   5   6
ATOM      6  C   UNL     1      12.368  20.036  21.769  1.00  0.00     0.006 C 
BRANCH   6   7
ATOM      7  C   UNL     1      10.941  20.603  21.705  1.00  0.00     0.053 C 
BRANCH   7   8
ATOM      8  C   UNL     1      10.862  21.992  22.258  1.00  0.00     0.041 C 
ATOM      9  O   UNL     1       9.876  22.727  21.989  1.00  0.00    -0.550 OA
ATOM     10  O   UNL     1      11.896  22.488  23.043  1.00  0.00    -0.550 OA
ENDBRANCH   7   8
ENDBRANCH   6   7
ENDBRANCH   5   6
ENDBRANCH   4   5
ENDBRANCH   3   4
ENDBRANCH   2   3
ENDBRANCH   1   2
BRANCH   1  11
ATOM     11  C   UNL     1      14.530  21.953  16.381  1.00  0.00     0.000 C 
BRANCH  11  12
ATOM     12  C   UNL     1      14.256  22.276  14.905  1.00  0.00    -0.000 C 
BRANCH  12  13
ATOM     13  C   UNL     1      12.810  22.734  14.658  1.00  0.00    -0.000 C 
BRANCH  13  14
ATOM     14  C   UNL     1      11.791  21.594  14.835  1.00  0.00    -0.000 C 
BRANCH  14  15
ATOM     15  C   UNL     1      10.342  22.100  14.948  1.00  0.00    -0.000 C 
BRANCH  15  16
ATOM     16  C   UNL     1      10.074  23.035  16.142  1.00  0.00    -0.000 C 
BRANCH  16  17
ATOM     17  C   UNL     1       9.875  22.277  17.462  1.00  0.00    -0.003 C 
ATOM     18  C   UNL     1       9.890  23.233  18.652  1.00  0.00     0.004 C 
ENDBRANCH  16  17
ENDBRANCH  15  16
ENDBRANCH  14  15
ENDBRANCH  13  14
ENDBRANCH  12  13
ENDBRANCH  11  12
ENDBRANCH   1  11
TORSDOF 14
ENDMDL
MODEL 3
REMARK VINA RESULT:    -0.305      1.114      2.047
REMARK INTER + INTRA:          -1.339
REMARK INTER:                  -0.240
REMARK INTRA:                  -1.099
REMARK UNBOUND:                -0.785
REMARK SMILES CCCCCCCCCCCCCCCC(=O)[O-]
REMARK SMILES IDX 9 1 10 2 11 3 12 4 13 5 14 6 15 7 16 8 17 9 18 10 8 11 7 12
REMARK SMILES IDX 6 13 5 14 4 15 3 16 2 17 1 18
REMARK H PARENT
REMARK Flexibility Score: inf
ROOT
ATOM      1  C   UNL     1      12.940  21.213  18.661  1.00  0.00     0.000 C 
ENDROOT
BRANCH   1   2
ATOM      2  C   UNL     1      13.661  19.998  18.064  1.00  0.00     0.000 C 
BRANCH   2   3
ATOM      3  C   UNL     1      14.993  20.408  17.424  1.00  0.00     0.000 C 
BRANCH   3   4
ATOM      4  C   UNL     1      14.852  20.554  15.904  1.00  0.00     0.000 C 
BRANCH   4   5
ATOM      5  C   UNL     1      14.158  21.876  15.541  1.00  0.00     0.000 C 
BRANCH   5   6
ATOM      6  C   UNL     1      12.851  21.668  14.755  1.00  0.00     0.006 C 
BRANCH   6   7
ATOM      7  C   UNL     1      11.909  22.883  14.759  1.00  0.00     0.053 C 
BRANCH   7   8
ATOM      8  C   UNL     1      10.523  22.518  15.196  1.00  0.00     0.041 C 
ATOM      9  O   UNL     1       9.953  23.175  16.106  1.00  0.00    -0.550 OA
ATOM     10  O   UNL     1       9.877  21.430  14.623  1.00  0.00    -0.550 OA
ENDBRANCH   7   8
ENDBRANCH   6   7
ENDBRANCH   5   6
ENDBRANCH   4   5
ENDBRANCH   3   4
ENDBRANCH   2   3
ENDBRANCH   1   2
BRANCH   1  11
ATOM     11  C   UNL     1      11.432  21.140  18.400  1.00  0.00     0.000 C 
BRANCH  11  12
ATOM     12  C   UNL     1      10.639  21.301  19.706  1.00  0.00    -0.000 C 
BRANCH  12  13
ATOM     13  C   UNL     1       9.976  19.991  20.160  1.00  0.00    -0.000 C 
BRANCH  13  14
ATOM     14  C   UNL     1       9.877  19.878  21.692  1.00  0.00    -0.000 C 
BRANCH  14  15
ATOM     15  C   UNL     1      11.242  20.017  22.390  1.00  0.00    -0.000 C 
BRANCH  15  16
ATOM     16  C   UNL     1      11.354  21.206  23.361  1.00  0.00    -0.000 C 
BRANCH  16  17
ATOM     17  C   UNL     1      11.328  22.566  22.648  1.00  0.00    -0.003 C 
ATOM     18  C   UNL     1      12.686  23.259  22.736  1.00  0.00     0.004 C 
ENDBRANCH  16  17
ENDBRANCH  15  16
ENDBRANCH  14  15
ENDBRANCH  13  14
ENDBRANCH  12  13
ENDBRANCH  11  12
ENDBRANCH   1  11
TORSDOF 14
ENDMDL
MODEL 4
REMARK VINA RESULT:     1.021      1.488      5.854
REMARK INTER + INTRA:           1.071
REMARK INTER:                   0.309
REMARK INTRA:                   0.762
REMARK UNBOUND:                -0.785
REMARK SMILES CCCCCCCCCCCCCCCC(=O)[O-]
REMARK SMILES IDX 9 1 10 2 11 3 12 4 13 5 14 6 15 7 16 8 17 9 18 10 8 11 7 12
REMARK SMILES IDX 6 13 5 14 4 15 3 16 2 17 1 18
REMARK H PARENT
REMARK Flexibility Score: inf
ROOT
ATOM      1  C   UNL     1      12.955  21.099  19.498  1.00  0.00     0.000 C 
ENDROOT
BRANCH   1   2
ATOM      2  C   UNL     1      12.875  19.894  20.444  1.00  0.00     0.000 C 
BRANCH   2   3
ATOM      3  C   UNL     1      12.355  20.312  21.825  1.00  0.00     0.000 C 
BRANCH   3   4
ATOM      4  C   UNL     1      10.896  19.879  22.019  1.00  0.00     0.000 C 
BRANCH   4   5
ATOM      5  C   UNL     1       9.935  21.043  21.736  1.00  0.00     0.000 C 
BRANCH   5   6
ATOM      6  C   UNL     1      10.601  22.421  21.901  1.00  0.00     0.006 C 
BRANCH   6   7
ATOM      7  C   UNL     1       9.887  23.563  21.159  1.00  0.00     0.053 C 
BRANCH   7   8
ATOM      8  C   UNL     1       9.921  23.376  19.673  1.00  0.00     0.041 C 
ATOM      9  O   UNL     1       9.959  24.376  18.910  1.00  0.00    -0.550 OA
ATOM     10  O   UNL     1       9.875  22.097  19.132  1.00  0.00    -0.550 OA
ENDBRANCH   7   8
ENDBRANCH   6   7
ENDBRANCH   5   6
ENDBRANCH   4   5
ENDBRANCH   3   4
ENDBRANCH   2   3
ENDBRANCH   1   2
BRANCH   1  11
ATOM     11  C   UNL     1      12.981  20.647  18.034  1.00  0.00     0.000 C 
BRANCH  11  12
ATOM     12  C   UNL     1      14.315  19.966  17.692  1.00  0.00    -0.000 C 
BRANCH  12  13
ATOM     13  C   UNL     1      15.198  20.823  16.771  1.00  0.00    -0.000 C 
BRANCH  13  14
ATOM     14  C   UNL     1      14.375  21.727  15.837  1.00  0.00    -0.000 C 
BRANCH  14  15
ATOM     15  C   UNL     1      12.952  21.193  15.589  1.00  0.00    -0.000 C 
BRANCH  15  16
ATOM     16  C   UNL     1      12.177  21.911  14.470  1.00  0.00    -0.000 C 
BRANCH  16  17
ATOM     17  C   UNL     1      10.869  22.548  14.961  1.00  0.00    -0.003 C 
ATOM     18  C   UNL     1      10.258  21.738  16.101  1.00  0.00     0.004 C 
ENDBRANCH  16  17
ENDBRANCH  15  16
ENDBRANCH  14  15
ENDBRANCH  13  14
ENDBRANCH  12  13
ENDBRANCH  11  12
ENDBRANCH   1  11
TORSDOF 14
ENDMDL
