MODEL 1
REMARK VINA RESULT:    -5.603      0.000      0.000
REMARK INTER + INTRA:          -7.034
REMARK INTER:                  -6.750
REMARK INTRA:                  -0.284
REMARK UNBOUND:                -0.284
REMARK SMILES O=c1c(O)c(-c2ccc(O)c(O)c2)oc2cc(O)cc(O)c12
REMARK SMILES IDX 5 1 3 2 2 3 1 4 22 5 20 6 19 7 17 8 16 9 15 10 14 11 6 12
REMARK SMILES IDX 7 13 8 14 9 15 13 16 11 17 10 18 12 20 4 22 21 24 18 26
REMARK H PARENT 10 19 12 21 4 23 21 25 18 27
REMARK Flexibility Score: inf
ROOT
ATOM      1  C   UNL     1      -7.596  83.637  -8.720  1.00  0.00     0.180 A 
ATOM      2  C   UNL     1      -8.001  84.981  -8.650  1.00  0.00     0.208 A 
ATOM      3  C   UNL     1      -9.365  85.288  -8.782  1.00  0.00     0.238 A 
ATOM      4  O   UNL     1      -9.712  86.498  -8.792  1.00  0.00    -0.285 OA
ATOM      5  C   UNL     1     -10.312  84.246  -8.925  1.00  0.00     0.111 A 
ATOM      6  C   UNL     1     -11.724  84.438  -9.022  1.00  0.00     0.134 A 
ATOM      7  C   UNL     1     -12.555  83.339  -9.268  1.00  0.00     0.093 A 
ATOM      8  C   UNL     1     -12.034  82.046  -9.359  1.00  0.00     0.123 A 
ATOM      9  C   UNL     1     -10.665  81.841  -9.211  1.00  0.00     0.094 A 
ATOM     10  C   UNL     1      -9.804  82.922  -9.002  1.00  0.00     0.146 A 
ATOM     11  O   UNL     1      -8.503  82.683  -8.889  1.00  0.00    -0.452 OA
ENDROOT
BRANCH   1  12
ATOM     12  C   UNL     1      -6.175  83.236  -8.605  1.00  0.00     0.025 A 
ATOM     13  C   UNL     1      -5.523  83.195  -7.361  1.00  0.00     0.016 A 
ATOM     14  C   UNL     1      -4.175  82.838  -7.281  1.00  0.00     0.051 A 
ATOM     15  C   UNL     1      -3.454  82.528  -8.442  1.00  0.00     0.157 A 
ATOM     16  C   UNL     1      -5.443  82.947  -9.769  1.00  0.00     0.062 A 
ATOM     17  C   UNL     1      -4.093  82.587  -9.693  1.00  0.00     0.158 A 
BRANCH  15  18
ATOM     18  O   UNL     1      -2.110  82.169  -8.359  1.00  0.00    -0.504 OA
ATOM     19  H   UNL     1      -1.785  81.483  -7.688  1.00  0.00     0.293 HD
ENDBRANCH  15  18
BRANCH  17  20
ATOM     20  O   UNL     1      -3.403  82.293 -10.868  1.00  0.00    -0.504 OA
ATOM     21  H   UNL     1      -2.391  82.314 -10.918  1.00  0.00     0.293 HD
ENDBRANCH  17  20
ENDBRANCH   1  12
BRANCH   2  22
ATOM     22  O   UNL     1      -7.059  85.990  -8.431  1.00  0.00    -0.502 OA
ATOM     23  H   UNL     1      -6.115  85.794  -8.121  1.00  0.00     0.293 HD
ENDBRANCH   2  22
BRANCH   6  24
ATOM     24  O   UNL     1     -12.358  85.673  -8.860  1.00  0.00    -0.507 OA
ATOM     25  H   UNL     1     -11.908  86.518  -8.543  1.00  0.00     0.293 HD
ENDBRANCH   6  24
BRANCH   8  26
ATOM     26  O   UNL     1     -12.870  80.957  -9.587  1.00  0.00    -0.508 OA
ATOM     27  H   UNL     1     -13.172  80.352  -8.831  1.00  0.00     0.293 HD
ENDBRANCH   8  26
TORSDOF 6
ENDMDL
MODEL 2
REMARK VINA RESULT:    -5.513      1.565      3.320
REMARK INTER + INTRA:          -6.926
REMARK INTER:                  -6.593
REMARK INTRA:                  -0.333
REMARK UNBOUND:                -0.284
REMARK SMILES O=c1c(O)c(-c2ccc(O)c(O)c2)oc2cc(O)cc(O)c12
REMARK SMILES IDX 5 1 3 2 2 3 1 4 22 5 20 6 19 7 17 8 16 9 15 10 14 11 6 12
REMARK SMILES IDX 7 13 8 14 9 15 13 16 11 17 10 18 12 20 4 22 21 24 18 26
REMARK H PARENT 10 19 12 21 4 23 21 25 18 27
REMARK Flexibility Score: inf
ROOT
ATOM      1  C   UNL     1      -9.390  83.408  -8.702  1.00  0.00     0.180 A 
ATOM      2  C   UNL     1     -10.252  82.298  -8.742  1.00  0.00     0.208 A 
ATOM      3  C   UNL     1     -11.621  82.508  -8.971  1.00  0.00     0.238 A 
ATOM      4  O   UNL     1     -12.398  81.518  -8.932  1.00  0.00    -0.285 OA
ATOM      5  C   UNL     1     -12.103  83.817  -9.215  1.00  0.00     0.111 A 
ATOM      6  C   UNL     1     -13.464  84.141  -9.503  1.00  0.00     0.134 A 
ATOM      7  C   UNL     1     -13.843  85.483  -9.621  1.00  0.00     0.093 A 
ATOM      8  C   UNL     1     -12.902  86.511  -9.524  1.00  0.00     0.123 A 
ATOM      9  C   UNL     1     -11.563  86.202  -9.298  1.00  0.00     0.094 A 
ATOM     10  C   UNL     1     -11.159  84.874  -9.137  1.00  0.00     0.146 A 
ATOM     11  O   UNL     1      -9.876  84.627  -8.900  1.00  0.00    -0.452 OA
ENDROOT
BRANCH   1  12
ATOM     12  C   UNL     1      -7.938  83.268  -8.450  1.00  0.00     0.025 A 
ATOM     13  C   UNL     1      -7.418  83.256  -7.145  1.00  0.00     0.016 A 
ATOM     14  C   UNL     1      -6.041  83.148  -6.933  1.00  0.00     0.051 A 
ATOM     15  C   UNL     1      -5.162  83.065  -8.022  1.00  0.00     0.157 A 
ATOM     16  C   UNL     1      -7.052  83.207  -9.539  1.00  0.00     0.062 A 
ATOM     17  C   UNL     1      -5.672  83.098  -9.331  1.00  0.00     0.158 A 
BRANCH  15  18
ATOM     18  O   UNL     1      -3.789  82.954  -7.808  1.00  0.00    -0.504 OA
ATOM     19  H   UNL     1      -3.332  82.052  -7.752  1.00  0.00     0.293 HD
ENDBRANCH  15  18
BRANCH  17  20
ATOM     20  O   UNL     1      -4.824  83.025 -10.436  1.00  0.00    -0.504 OA
ATOM     21  H   UNL     1      -4.042  83.657 -10.557  1.00  0.00     0.293 HD
ENDBRANCH  17  20
ENDBRANCH   1  12
BRANCH   2  22
ATOM     22  O   UNL     1      -9.744  81.006  -8.576  1.00  0.00    -0.502 OA
ATOM     23  H   UNL     1      -9.133  80.757  -7.808  1.00  0.00     0.293 HD
ENDBRANCH   2  22
BRANCH   6  24
ATOM     24  O   UNL     1     -14.469  83.191  -9.707  1.00  0.00    -0.507 OA
ATOM     25  H   UNL     1     -14.448  82.470 -10.412  1.00  0.00     0.293 HD
ENDBRANCH   6  24
BRANCH   8  26
ATOM     26  O   UNL     1     -13.286  87.842  -9.660  1.00  0.00    -0.508 OA
ATOM     27  H   UNL     1     -13.060  88.377 -10.491  1.00  0.00     0.293 HD
ENDBRANCH   8  26
TORSDOF 6
ENDMDL
MODEL 3
REMARK VINA RESULT:    -5.506      9.898     11.842
REMARK INTER + INTRA:          -6.916
REMARK INTER:                  -7.114
REMARK INTRA:                   0.197
REMARK UNBOUND:                -0.284
REMARK SMILES O=c1c(O)c(-c2ccc(O)c(O)c2)oc2cc(O)cc(O)c12
REMARK SMILES IDX 5 1 3 2 2 3 1 4 22 5 20 6 19 7 17 8 16 9 15 10 14 11 6 12
REMARK SMILES IDX 7 13 8 14 9 15 13 16 11 17 10 18 12 20 4 22 21 24 18 26
REMARK H PARENT 10 19 12 21 4 23 21 25 18 27
REMARK Flexibility Score: inf
ROOT
ATOM      1  C   UNL     1      -5.228  90.535 -15.224  1.00  0.00     0.180 A 
ATOM      2  C   UNL     1      -3.822  90.518 -15.218  1.00  0.00     0.208 A 
ATOM      3  C   UNL     1      -3.131  91.084 -16.300  1.00  0.00     0.238 A 
ATOM      4  O   UNL     1      -1.875  91.000 -16.324  1.00  0.00    -0.285 OA
ATOM      5  C   UNL     1      -3.850  91.711 -17.346  1.00  0.00     0.111 A 
ATOM      6  C   UNL     1      -3.251  92.358 -18.470  1.00  0.00     0.134 A 
ATOM      7  C   UNL     1      -4.064  92.851 -19.497  1.00  0.00     0.093 A 
ATOM      8  C   UNL     1      -5.457  92.778 -19.413  1.00  0.00     0.123 A 
ATOM      9  C   UNL     1      -6.052  92.198 -18.295  1.00  0.00     0.094 A 
ATOM     10  C   UNL     1      -5.266  91.663 -17.272  1.00  0.00     0.146 A 
ATOM     11  O   UNL     1      -5.876  91.100 -16.234  1.00  0.00    -0.452 OA
ENDROOT
BRANCH   1  12
ATOM     12  C   UNL     1      -6.027  89.943 -14.126  1.00  0.00     0.025 A 
ATOM     13  C   UNL     1      -5.597  90.005 -12.790  1.00  0.00     0.016 A 
ATOM     14  C   UNL     1      -6.356  89.419 -11.775  1.00  0.00     0.051 A 
ATOM     15  C   UNL     1      -7.549  88.750 -12.080  1.00  0.00     0.157 A 
ATOM     16  C   UNL     1      -7.212  89.253 -14.430  1.00  0.00     0.062 A 
ATOM     17  C   UNL     1      -7.976  88.665 -13.415  1.00  0.00     0.158 A 
BRANCH  15  18
ATOM     18  O   UNL     1      -8.306  88.167 -11.064  1.00  0.00    -0.504 OA
ATOM     19  H   UNL     1      -8.882  88.726 -10.446  1.00  0.00     0.293 HD
ENDBRANCH  15  18
BRANCH  17  20
ATOM     20  O   UNL     1      -9.154  88.000 -13.754  1.00  0.00    -0.504 OA
ATOM     21  H   UNL     1      -9.734  88.294 -14.532  1.00  0.00     0.293 HD
ENDBRANCH  17  20
ENDBRANCH   1  12
BRANCH   2  22
ATOM     22  O   UNL     1      -3.129  89.962 -14.138  1.00  0.00    -0.502 OA
ATOM     23  H   UNL     1      -2.158  89.681 -14.203  1.00  0.00     0.293 HD
ENDBRANCH   2  22
BRANCH   6  24
ATOM     24  O   UNL     1      -1.875  92.564 -18.613  1.00  0.00    -0.507 OA
ATOM     25  H   UNL     1      -1.159  91.943 -18.269  1.00  0.00     0.293 HD
ENDBRANCH   6  24
BRANCH   8  26
ATOM     26  O   UNL     1      -6.259  93.286 -20.432  1.00  0.00    -0.508 OA
ATOM     27  H   UNL     1      -6.422  92.766 -21.287  1.00  0.00     0.293 HD
ENDBRANCH   8  26
TORSDOF 6
ENDMDL
MODEL 4
REMARK VINA RESULT:    -5.444      9.927     11.830
REMARK INTER + INTRA:          -6.842
REMARK INTER:                  -6.598
REMARK INTRA:                  -0.244
REMARK UNBOUND:                -0.284
REMARK SMILES O=c1c(O)c(-c2ccc(O)c(O)c2)oc2cc(O)cc(O)c12
REMARK SMILES IDX 5 1 3 2 2 3 1 4 22 5 20 6 19 7 17 8 16 9 15 10 14 11 6 12
REMARK SMILES IDX 7 13 8 14 9 15 13 16 11 17 10 18 12 20 4 22 21 24 18 26
REMARK H PARENT 10 19 12 21 4 23 21 25 18 27
REMARK Flexibility Score: inf
ROOT
ATOM      1  C   UNL     1      -4.475  91.307 -15.055  1.00  0.00     0.180 A 
ATOM      2  C   UNL     1      -5.040  90.148 -14.495  1.00  0.00     0.208 A 
ATOM      3  C   UNL     1      -5.275  90.106 -13.112  1.00  0.00     0.238 A 
ATOM      4  O   UNL     1      -5.711  89.038 -12.606  1.00  0.00    -0.285 OA
ATOM      5  C   UNL     1      -4.996  91.242 -12.314  1.00  0.00     0.111 A 
ATOM      6  C   UNL     1      -5.236  91.327 -10.909  1.00  0.00     0.134 A 
ATOM      7  C   UNL     1      -4.821  92.463 -10.205  1.00  0.00     0.093 A 
ATOM      8  C   UNL     1      -4.232  93.545 -10.864  1.00  0.00     0.123 A 
ATOM      9  C   UNL     1      -4.043  93.494 -12.243  1.00  0.00     0.094 A 
ATOM     10  C   UNL     1      -4.412  92.358 -12.967  1.00  0.00     0.146 A 
ATOM     11  O   UNL     1      -4.193  92.344 -14.277  1.00  0.00    -0.452 OA
ENDROOT
BRANCH   1  12
ATOM     12  C   UNL     1      -4.185  91.420 -16.503  1.00  0.00     0.025 A 
ATOM     13  C   UNL     1      -2.866  91.407 -16.989  1.00  0.00     0.016 A 
ATOM     14  C   UNL     1      -2.616  91.541 -18.357  1.00  0.00     0.051 A 
ATOM     15  C   UNL     1      -3.677  91.703 -19.258  1.00  0.00     0.157 A 
ATOM     16  C   UNL     1      -5.244  91.606 -17.406  1.00  0.00     0.062 A 
ATOM     17  C   UNL     1      -4.997  91.739 -18.778  1.00  0.00     0.158 A 
BRANCH  15  18
ATOM     18  O   UNL     1      -3.425  91.834 -20.623  1.00  0.00    -0.504 OA
ATOM     19  H   UNL     1      -2.537  92.180 -20.967  1.00  0.00     0.293 HD
ENDBRANCH  15  18
BRANCH  17  20
ATOM     20  O   UNL     1      -6.075  91.907 -19.646  1.00  0.00    -0.504 OA
ATOM     21  H   UNL     1      -6.240  92.778 -20.138  1.00  0.00     0.293 HD
ENDBRANCH  17  20
ENDBRANCH   1  12
BRANCH   2  22
ATOM     22  O   UNL     1      -5.380  89.064 -15.311  1.00  0.00    -0.502 OA
ATOM     23  H   UNL     1      -6.319  88.923 -15.662  1.00  0.00     0.293 HD
ENDBRANCH   2  22
BRANCH   6  24
ATOM     24  O   UNL     1      -5.896  90.343 -10.166  1.00  0.00    -0.507 OA
ATOM     25  H   UNL     1      -6.631  89.748 -10.518  1.00  0.00     0.293 HD
ENDBRANCH   6  24
BRANCH   8  26
ATOM     26  O   UNL     1      -3.838  94.679 -10.159  1.00  0.00    -0.508 OA
ATOM     27  H   UNL     1      -2.899  95.053 -10.238  1.00  0.00     0.293 HD
ENDBRANCH   8  26
TORSDOF 6
ENDMDL
MODEL 5
REMARK VINA RESULT:    -5.418      8.195     11.449
REMARK INTER + INTRA:          -6.811
REMARK INTER:                  -6.706
REMARK INTRA:                  -0.105
REMARK UNBOUND:                -0.284
REMARK SMILES O=c1c(O)c(-c2ccc(O)c(O)c2)oc2cc(O)cc(O)c12
REMARK SMILES IDX 5 1 3 2 2 3 1 4 22 5 20 6 19 7 17 8 16 9 15 10 14 11 6 12
REMARK SMILES IDX 7 13 8 14 9 15 13 16 11 17 10 18 12 20 4 22 21 24 18 26
REMARK H PARENT 10 19 12 21 4 23 21 25 18 27
REMARK Flexibility Score: inf
ROOT
ATOM      1  C   UNL     1      -8.209  90.372 -13.975  1.00  0.00     0.180 A 
ATOM      2  C   UNL     1      -7.381  89.356 -13.467  1.00  0.00     0.208 A 
ATOM      3  C   UNL     1      -6.000  89.417 -13.712  1.00  0.00     0.238 A 
ATOM      4  O   UNL     1      -5.275  88.466 -13.319  1.00  0.00    -0.285 OA
ATOM      5  C   UNL     1      -5.456  90.522 -14.411  1.00  0.00     0.111 A 
ATOM      6  C   UNL     1      -4.066  90.711 -14.677  1.00  0.00     0.134 A 
ATOM      7  C   UNL     1      -3.655  91.788 -15.470  1.00  0.00     0.093 A 
ATOM      8  C   UNL     1      -4.576  92.720 -15.956  1.00  0.00     0.123 A 
ATOM      9  C   UNL     1      -5.928  92.575 -15.656  1.00  0.00     0.094 A 
ATOM     10  C   UNL     1      -6.374  91.489 -14.899  1.00  0.00     0.146 A 
ATOM     11  O   UNL     1      -7.675  91.378 -14.656  1.00  0.00    -0.452 OA
ENDROOT
BRANCH   1  12
ATOM     12  C   UNL     1      -9.676  90.368 -13.771  1.00  0.00     0.025 A 
ATOM     13  C   UNL     1     -10.472  89.290 -14.194  1.00  0.00     0.016 A 
ATOM     14  C   UNL     1     -11.856  89.320 -14.013  1.00  0.00     0.051 A 
ATOM     15  C   UNL     1     -12.469  90.433 -13.420  1.00  0.00     0.157 A 
ATOM     16  C   UNL     1     -10.295  91.491 -13.197  1.00  0.00     0.062 A 
ATOM     17  C   UNL     1     -11.683  91.525 -13.013  1.00  0.00     0.158 A 
BRANCH  15  18
ATOM     18  O   UNL     1     -13.851  90.460 -13.238  1.00  0.00    -0.504 OA
ATOM     19  H   UNL     1     -14.489  90.267 -14.000  1.00  0.00     0.293 HD
ENDBRANCH  15  18
BRANCH  17  20
ATOM     20  O   UNL     1     -12.260  92.650 -12.427  1.00  0.00    -0.504 OA
ATOM     21  H   UNL     1     -12.011  92.959 -11.495  1.00  0.00     0.293 HD
ENDBRANCH  17  20
ENDBRANCH   1  12
BRANCH   2  22
ATOM     22  O   UNL     1      -7.928  88.313 -12.713  1.00  0.00    -0.502 OA
ATOM     23  H   UNL     1      -8.717  88.447 -12.094  1.00  0.00     0.293 HD
ENDBRANCH   2  22
BRANCH   6  24
ATOM     24  O   UNL     1      -3.053  89.891 -14.169  1.00  0.00    -0.507 OA
ATOM     25  H   UNL     1      -2.522  89.226 -14.710  1.00  0.00     0.293 HD
ENDBRANCH   6  24
BRANCH   8  26
ATOM     26  O   UNL     1      -4.156  93.798 -16.730  1.00  0.00    -0.508 OA
ATOM     27  H   UNL     1      -4.653  94.074 -17.569  1.00  0.00     0.293 HD
ENDBRANCH   8  26
TORSDOF 6
ENDMDL
MODEL 6
REMARK VINA RESULT:    -5.216      8.964     10.571
REMARK INTER + INTRA:          -6.567
REMARK INTER:                  -6.253
REMARK INTRA:                  -0.314
REMARK UNBOUND:                -0.284
REMARK SMILES O=c1c(O)c(-c2ccc(O)c(O)c2)oc2cc(O)cc(O)c12
REMARK SMILES IDX 5 1 3 2 2 3 1 4 22 5 20 6 19 7 17 8 16 9 15 10 14 11 6 12
REMARK SMILES IDX 7 13 8 14 9 15 13 16 11 17 10 18 12 20 4 22 21 24 18 26
REMARK H PARENT 10 19 12 21 4 23 21 25 18 27
REMARK Flexibility Score: inf
ROOT
ATOM      1  C   UNL     1      -5.598  91.331 -14.505  1.00  0.00     0.180 A 
ATOM      2  C   UNL     1      -4.907  92.161 -13.605  1.00  0.00     0.208 A 
ATOM      3  C   UNL     1      -4.929  91.848 -12.237  1.00  0.00     0.238 A 
ATOM      4  O   UNL     1      -4.371  92.635 -11.429  1.00  0.00    -0.285 OA
ATOM      5  C   UNL     1      -5.592  90.679 -11.791  1.00  0.00     0.111 A 
ATOM      6  C   UNL     1      -5.641  90.239 -10.433  1.00  0.00     0.134 A 
ATOM      7  C   UNL     1      -6.417  89.125 -10.095  1.00  0.00     0.093 A 
ATOM      8  C   UNL     1      -7.097  88.395 -11.074  1.00  0.00     0.123 A 
ATOM      9  C   UNL     1      -7.011  88.783 -12.409  1.00  0.00     0.094 A 
ATOM     10  C   UNL     1      -6.276  89.914 -12.773  1.00  0.00     0.146 A 
ATOM     11  O   UNL     1      -6.240  90.261 -14.054  1.00  0.00    -0.452 OA
ENDROOT
BRANCH   1  12
ATOM     12  C   UNL     1      -5.634  91.605 -15.960  1.00  0.00     0.025 A 
ATOM     13  C   UNL     1      -6.726  92.257 -16.557  1.00  0.00     0.016 A 
ATOM     14  C   UNL     1      -6.748  92.482 -17.935  1.00  0.00     0.051 A 
ATOM     15  C   UNL     1      -5.687  92.047 -18.740  1.00  0.00     0.157 A 
ATOM     16  C   UNL     1      -4.583  91.150 -16.773  1.00  0.00     0.062 A 
ATOM     17  C   UNL     1      -4.600  91.375 -18.155  1.00  0.00     0.158 A 
BRANCH  15  18
ATOM     18  O   UNL     1      -5.710  92.275 -20.115  1.00  0.00    -0.504 OA
ATOM     19  H   UNL     1      -5.691  91.510 -20.779  1.00  0.00     0.293 HD
ENDBRANCH  15  18
BRANCH  17  20
ATOM     20  O   UNL     1      -3.532  90.922 -18.928  1.00  0.00    -0.504 OA
ATOM     21  H   UNL     1      -3.561  90.926 -19.941  1.00  0.00     0.293 HD
ENDBRANCH  17  20
ENDBRANCH   1  12
BRANCH   2  22
ATOM     22  O   UNL     1      -4.193  93.268 -14.074  1.00  0.00    -0.502 OA
ATOM     23  H   UNL     1      -4.517  94.218 -13.942  1.00  0.00     0.293 HD
ENDBRANCH   2  22
BRANCH   6  24
ATOM     24  O   UNL     1      -4.930  90.841  -9.390  1.00  0.00    -0.507 OA
ATOM     25  H   UNL     1      -5.348  91.272  -8.580  1.00  0.00     0.293 HD
ENDBRANCH   6  24
BRANCH   8  26
ATOM     26  O   UNL     1      -7.853  87.277 -10.731  1.00  0.00    -0.508 OA
ATOM     27  H   UNL     1      -7.432  86.469 -10.287  1.00  0.00     0.293 HD
ENDBRANCH   8  26
TORSDOF 6
ENDMDL
MODEL 7
REMARK VINA RESULT:    -5.193      9.576     11.790
REMARK INTER + INTRA:          -6.540
REMARK INTER:                  -6.224
REMARK INTRA:                  -0.316
REMARK UNBOUND:                -0.284
REMARK SMILES O=c1c(O)c(-c2ccc(O)c(O)c2)oc2cc(O)cc(O)c12
REMARK SMILES IDX 5 1 3 2 2 3 1 4 22 5 20 6 19 7 17 8 16 9 15 10 14 11 6 12
REMARK SMILES IDX 7 13 8 14 9 15 13 16 11 17 10 18 12 20 4 22 21 24 18 26
REMARK H PARENT 10 19 12 21 4 23 21 25 18 27
REMARK Flexibility Score: inf
ROOT
ATOM      1  C   UNL     1      -5.970  91.967 -14.061  1.00  0.00     0.180 A 
ATOM      2  C   UNL     1      -6.928  91.355 -13.234  1.00  0.00     0.208 A 
ATOM      3  C   UNL     1      -6.858  91.558 -11.847  1.00  0.00     0.238 A 
ATOM      4  O   UNL     1      -7.672  90.947 -11.106  1.00  0.00    -0.285 OA
ATOM      5  C   UNL     1      -5.867  92.414 -11.308  1.00  0.00     0.111 A 
ATOM      6  C   UNL     1      -5.731  92.728  -9.921  1.00  0.00     0.134 A 
ATOM      7  C   UNL     1      -4.647  93.503  -9.492  1.00  0.00     0.093 A 
ATOM      8  C   UNL     1      -3.730  94.029 -10.405  1.00  0.00     0.123 A 
ATOM      9  C   UNL     1      -3.886  93.775 -11.765  1.00  0.00     0.094 A 
ATOM     10  C   UNL     1      -4.935  92.973 -12.221  1.00  0.00     0.146 A 
ATOM     11  O   UNL     1      -5.032  92.738 -13.524  1.00  0.00    -0.452 OA
ENDROOT
BRANCH   1  12
ATOM     12  C   UNL     1      -5.969  91.789 -15.531  1.00  0.00     0.025 A 
ATOM     13  C   UNL     1      -5.146  90.835 -16.154  1.00  0.00     0.016 A 
ATOM     14  C   UNL     1      -5.145  90.702 -17.544  1.00  0.00     0.051 A 
ATOM     15  C   UNL     1      -5.955  91.529 -18.334  1.00  0.00     0.157 A 
ATOM     16  C   UNL     1      -6.764  92.630 -16.328  1.00  0.00     0.062 A 
ATOM     17  C   UNL     1      -6.766  92.499 -17.722  1.00  0.00     0.158 A 
BRANCH  15  18
ATOM     18  O   UNL     1      -5.954  91.393 -19.722  1.00  0.00    -0.504 OA
ATOM     19  H   UNL     1      -6.258  90.537 -20.170  1.00  0.00     0.293 HD
ENDBRANCH  15  18
BRANCH  17  20
ATOM     20  O   UNL     1      -7.578  93.343 -18.479  1.00  0.00    -0.504 OA
ATOM     21  H   UNL     1      -7.989  93.048 -19.357  1.00  0.00     0.293 HD
ENDBRANCH  17  20
ENDBRANCH   1  12
BRANCH   2  22
ATOM     22  O   UNL     1      -7.945  90.575 -13.792  1.00  0.00    -0.502 OA
ATOM     23  H   UNL     1      -8.816  90.973 -14.121  1.00  0.00     0.293 HD
ENDBRANCH   2  22
BRANCH   6  24
ATOM     24  O   UNL     1      -6.638  92.327  -8.935  1.00  0.00    -0.507 OA
ATOM     25  H   UNL     1      -6.803  91.373  -8.654  1.00  0.00     0.293 HD
ENDBRANCH   6  24
BRANCH   8  26
ATOM     26  O   UNL     1      -2.664  94.813  -9.971  1.00  0.00    -0.508 OA
ATOM     27  H   UNL     1      -2.534  95.035  -8.990  1.00  0.00     0.293 HD
ENDBRANCH   8  26
TORSDOF 6
ENDMDL
MODEL 8
REMARK VINA RESULT:    -5.191      1.519      6.762
REMARK INTER + INTRA:          -6.537
REMARK INTER:                  -6.478
REMARK INTRA:                  -0.059
REMARK UNBOUND:                -0.284
REMARK SMILES O=c1c(O)c(-c2ccc(O)c(O)c2)oc2cc(O)cc(O)c12
REMARK SMILES IDX 5 1 3 2 2 3 1 4 22 5 20 6 19 7 17 8 16 9 15 10 14 11 6 12
REMARK SMILES IDX 7 13 8 14 9 15 13 16 11 17 10 18 12 20 4 22 21 24 18 26
REMARK H PARENT 10 19 12 21 4 23 21 25 18 27
REMARK Flexibility Score: inf
ROOT
ATOM      1  C   UNL     1      -8.759  83.764  -8.444  1.00  0.00     0.180 A 
ATOM      2  C   UNL     1      -8.354  84.409  -7.262  1.00  0.00     0.208 A 
ATOM      3  C   UNL     1      -6.984  84.497  -6.970  1.00  0.00     0.238 A 
ATOM      4  O   UNL     1      -6.633  85.009  -5.875  1.00  0.00    -0.285 OA
ATOM      5  C   UNL     1      -6.033  83.991  -7.889  1.00  0.00     0.111 A 
ATOM      6  C   UNL     1      -4.617  84.067  -7.718  1.00  0.00     0.134 A 
ATOM      7  C   UNL     1      -3.775  83.437  -8.642  1.00  0.00     0.093 A 
ATOM      8  C   UNL     1      -4.294  82.789  -9.765  1.00  0.00     0.123 A 
ATOM      9  C   UNL     1      -5.671  82.757  -9.971  1.00  0.00     0.094 A 
ATOM     10  C   UNL     1      -6.539  83.343  -9.046  1.00  0.00     0.146 A 
ATOM     11  O   UNL     1      -7.846  83.270  -9.270  1.00  0.00    -0.452 OA
ENDROOT
BRANCH   1  12
ATOM     12  C   UNL     1     -10.186  83.618  -8.812  1.00  0.00     0.025 A 
ATOM     13  C   UNL     1     -11.037  84.732  -8.904  1.00  0.00     0.016 A 
ATOM     14  C   UNL     1     -12.385  84.567  -9.230  1.00  0.00     0.051 A 
ATOM     15  C   UNL     1     -12.907  83.285  -9.455  1.00  0.00     0.157 A 
ATOM     16  C   UNL     1     -10.717  82.334  -9.017  1.00  0.00     0.062 A 
ATOM     17  C   UNL     1     -12.068  82.164  -9.344  1.00  0.00     0.158 A 
BRANCH  15  18
ATOM     18  O   UNL     1     -14.252  83.123  -9.782  1.00  0.00    -0.504 OA
ATOM     19  H   UNL     1     -14.877  83.916  -9.862  1.00  0.00     0.293 HD
ENDBRANCH  15  18
BRANCH  17  20
ATOM     20  O   UNL     1     -12.557  80.875  -9.554  1.00  0.00    -0.504 OA
ATOM     21  H   UNL     1     -11.946  80.097  -9.774  1.00  0.00     0.293 HD
ENDBRANCH  17  20
ENDBRANCH   1  12
BRANCH   2  22
ATOM     22  O   UNL     1      -9.306  84.969  -6.404  1.00  0.00    -0.502 OA
ATOM     23  H   UNL     1      -9.744  84.441  -5.660  1.00  0.00     0.293 HD
ENDBRANCH   2  22
BRANCH   6  24
ATOM     24  O   UNL     1      -3.990  84.763  -6.680  1.00  0.00    -0.507 OA
ATOM     25  H   UNL     1      -3.090  84.532  -6.289  1.00  0.00     0.293 HD
ENDBRANCH   6  24
BRANCH   8  26
ATOM     26  O   UNL     1      -3.448  82.180 -10.689  1.00  0.00    -0.508 OA
ATOM     27  H   UNL     1      -3.023  81.278 -10.504  1.00  0.00     0.293 HD
ENDBRANCH   8  26
TORSDOF 6
ENDMDL
MODEL 9
REMARK VINA RESULT:    -5.188      4.641      7.897
REMARK INTER + INTRA:          -6.533
REMARK INTER:                  -6.204
REMARK INTRA:                  -0.329
REMARK UNBOUND:                -0.284
REMARK SMILES O=c1c(O)c(-c2ccc(O)c(O)c2)oc2cc(O)cc(O)c12
REMARK SMILES IDX 5 1 3 2 2 3 1 4 22 5 20 6 19 7 17 8 16 9 15 10 14 11 6 12
REMARK SMILES IDX 7 13 8 14 9 15 13 16 11 17 10 18 12 20 4 22 21 24 18 26
REMARK H PARENT 10 19 12 21 4 23 21 25 18 27
REMARK Flexibility Score: inf
ROOT
ATOM      1  C   UNL     1      -4.614  87.972  -7.895  1.00  0.00     0.180 A 
ATOM      2  C   UNL     1      -3.535  87.704  -7.035  1.00  0.00     0.208 A 
ATOM      3  C   UNL     1      -2.999  86.407  -7.002  1.00  0.00     0.238 A 
ATOM      4  O   UNL     1      -2.082  86.154  -6.177  1.00  0.00    -0.285 OA
ATOM      5  C   UNL     1      -3.509  85.410  -7.868  1.00  0.00     0.111 A 
ATOM      6  C   UNL     1      -3.012  84.073  -7.951  1.00  0.00     0.134 A 
ATOM      7  C   UNL     1      -3.666  83.143  -8.768  1.00  0.00     0.093 A 
ATOM      8  C   UNL     1      -4.760  83.515  -9.553  1.00  0.00     0.123 A 
ATOM      9  C   UNL     1      -5.218  84.830  -9.521  1.00  0.00     0.094 A 
ATOM     10  C   UNL     1      -4.611  85.772  -8.687  1.00  0.00     0.146 A 
ATOM     11  O   UNL     1      -5.094  87.009  -8.671  1.00  0.00    -0.452 OA
ENDROOT
BRANCH   1  12
ATOM     12  C   UNL     1      -5.243  89.311  -7.975  1.00  0.00     0.025 A 
ATOM     13  C   UNL     1      -6.347  89.651  -7.176  1.00  0.00     0.016 A 
ATOM     14  C   UNL     1      -6.938  90.912  -7.287  1.00  0.00     0.051 A 
ATOM     15  C   UNL     1      -6.444  91.847  -8.207  1.00  0.00     0.157 A 
ATOM     16  C   UNL     1      -4.764  90.242  -8.911  1.00  0.00     0.062 A 
ATOM     17  C   UNL     1      -5.353  91.507  -9.025  1.00  0.00     0.158 A 
BRANCH  15  18
ATOM     18  O   UNL     1      -7.034  93.105  -8.314  1.00  0.00    -0.504 OA
ATOM     19  H   UNL     1      -7.983  93.274  -8.002  1.00  0.00     0.293 HD
ENDBRANCH  15  18
BRANCH  17  20
ATOM     20  O   UNL     1      -4.842  92.411  -9.956  1.00  0.00    -0.504 OA
ATOM     21  H   UNL     1      -4.364  92.106 -10.796  1.00  0.00     0.293 HD
ENDBRANCH  17  20
ENDBRANCH   1  12
BRANCH   2  22
ATOM     22  O   UNL     1      -2.994  88.722  -6.244  1.00  0.00    -0.502 OA
ATOM     23  H   UNL     1      -2.217  89.294  -6.551  1.00  0.00     0.293 HD
ENDBRANCH   2  22
BRANCH   6  24
ATOM     24  O   UNL     1      -1.875  83.617  -7.277  1.00  0.00    -0.507 OA
ATOM     25  H   UNL     1      -1.128  83.086  -7.698  1.00  0.00     0.293 HD
ENDBRANCH   6  24
BRANCH   8  26
ATOM     26  O   UNL     1      -5.393  82.588 -10.376  1.00  0.00    -0.508 OA
ATOM     27  H   UNL     1      -4.944  81.718 -10.638  1.00  0.00     0.293 HD
ENDBRANCH   8  26
TORSDOF 6
ENDMDL
