MODEL 1
REMARK VINA RESULT:    -5.725      0.000      0.000
REMARK INTER + INTRA:         -19.972
REMARK INTER:                 -15.095
REMARK INTRA:                  -4.877
REMARK UNBOUND:                -4.877
REMARK SMILES CCCCCCCCCCCCCCCCCCCCCCCCCCCCCC(=O)[O-]
REMARK SMILES IDX 16 1 17 2 18 3 19 4 20 5 21 6 22 7 23 8 24 9 25 10 26 11
REMARK SMILES IDX 27 12 28 13 29 14 30 15 31 16 32 17 15 18 14 19 13 20 12 21
REMARK SMILES IDX 11 22 10 23 9 24 8 25 7 26 6 27 5 28 4 29 3 30 2 31 1 32
REMARK H PARENT
REMARK Flexibility Score: inf
ROOT
ATOM      1  C   UNL     1     139.396 134.415 128.015  1.00  0.00     0.000 C 
ENDROOT
BRANCH   1   2
ATOM      2  C   UNL     1     139.070 135.266 129.259  1.00  0.00     0.000 C 
BRANCH   2   3
ATOM      3  C   UNL     1     137.674 135.915 129.217  1.00  0.00     0.000 C 
BRANCH   3   4
ATOM      4  C   UNL     1     136.863 135.637 130.495  1.00  0.00     0.000 C 
BRANCH   4   5
ATOM      5  C   UNL     1     137.685 135.868 131.774  1.00  0.00     0.000 C 
BRANCH   5   6
ATOM      6  C   UNL     1     136.802 135.939 133.033  1.00  0.00     0.000 C 
BRANCH   6   7
ATOM      7  C   UNL     1     136.162 134.587 133.389  1.00  0.00     0.000 C 
BRANCH   7   8
ATOM      8  C   UNL     1     134.647 134.688 133.625  1.00  0.00     0.000 C 
BRANCH   8   9
ATOM      9  C   UNL     1     134.024 135.936 132.973  1.00  0.00     0.000 C 
BRANCH   9  10
ATOM     10  C   UNL     1     132.562 136.226 133.374  1.00  0.00     0.000 C 
BRANCH  10  11
ATOM     11  C   UNL     1     131.818 137.221 132.461  1.00  0.00     0.000 C 
BRANCH  11  12
ATOM     12  C   UNL     1     131.569 136.723 131.024  1.00  0.00     0.000 C 
BRANCH  12  13
ATOM     13  C   UNL     1     132.427 137.408 129.939  1.00  0.00     0.006 C 
BRANCH  13  14
ATOM     14  C   UNL     1     131.639 138.333 128.998  1.00  0.00     0.053 C 
BRANCH  14  15
ATOM     15  C   UNL     1     132.433 139.540 128.601  1.00  0.00     0.041 C 
ATOM     16  O   UNL     1     132.929 139.620 127.446  1.00  0.00    -0.550 OA
ATOM     17  O   UNL     1     132.594 140.592 129.493  1.00  0.00    -0.550 OA
ENDBRANCH  14  15
ENDBRANCH  13  14
ENDBRANCH  12  13
ENDBRANCH  11  12
ENDBRANCH  10  11
ENDBRANCH   9  10
ENDBRANCH   8   9
ENDBRANCH   7   8
ENDBRANCH   6   7
ENDBRANCH   5   6
ENDBRANCH   4   5
ENDBRANCH   3   4
ENDBRANCH   2   3
ENDBRANCH   1   2
BRANCH   1  18
ATOM     18  C   UNL     1     138.259 133.466 127.587  1.00  0.00     0.000 C 
BRANCH  18  19
ATOM     19  C   UNL     1     138.133 132.197 128.457  1.00  0.00     0.000 C 
BRANCH  19  20
ATOM     20  C   UNL     1     136.679 131.851 128.847  1.00  0.00     0.000 C 
BRANCH  20  21
ATOM     21  C   UNL     1     136.494 130.405 129.345  1.00  0.00     0.000 C 
BRANCH  21  22
ATOM     22  C   UNL     1     135.419 130.235 130.431  1.00  0.00     0.000 C 
BRANCH  22  23
ATOM     23  C   UNL     1     135.481 131.339 131.502  1.00  0.00     0.000 C 
BRANCH  23  24
ATOM     24  C   UNL     1     135.697 130.773 132.914  1.00  0.00    -0.000 C 
BRANCH  24  25
ATOM     25  C   UNL     1     134.376 130.578 133.675  1.00  0.00    -0.000 C 
BRANCH  25  26
ATOM     26  C   UNL     1     133.457 131.795 133.492  1.00  0.00    -0.000 C 
BRANCH  26  27
ATOM     27  C   UNL     1     131.978 131.404 133.328  1.00  0.00    -0.000 C 
BRANCH  27  28
ATOM     28  C   UNL     1     131.182 132.433 132.505  1.00  0.00    -0.000 C 
BRANCH  28  29
ATOM     29  C   UNL     1     132.000 133.034 131.346  1.00  0.00    -0.000 C 
BRANCH  29  30
ATOM     30  C   UNL     1     132.098 132.151 130.088  1.00  0.00    -0.000 C 
BRANCH  30  31
ATOM     31  C   UNL     1     133.036 132.730 129.021  1.00  0.00    -0.003 C 
ATOM     32  C   UNL     1     133.705 134.010 129.514  1.00  0.00     0.004 C 
ENDBRANCH  30  31
ENDBRANCH  29  30
ENDBRANCH  28  29
ENDBRANCH  27  28
ENDBRANCH  26  27
ENDBRANCH  25  26
ENDBRANCH  24  25
ENDBRANCH  23  24
ENDBRANCH  22  23
ENDBRANCH  21  22
ENDBRANCH  20  21
ENDBRANCH  19  20
ENDBRANCH  18  19
ENDBRANCH   1  18
TORSDOF 28
ENDMDL
MODEL 2
REMARK VINA RESULT:    -5.664      2.928      7.129
REMARK INTER + INTRA:         -19.812
REMARK INTER:                 -14.558
REMARK INTRA:                  -5.255
REMARK UNBOUND:                -4.877
REMARK SMILES CCCCCCCCCCCCCCCCCCCCCCCCCCCCCC(=O)[O-]
REMARK SMILES IDX 16 1 17 2 18 3 19 4 20 5 21 6 22 7 23 8 24 9 25 10 26 11
REMARK SMILES IDX 27 12 28 13 29 14 30 15 31 16 32 17 15 18 14 19 13 20 12 21
REMARK SMILES IDX 11 22 10 23 9 24 8 25 7 26 6 27 5 28 4 29 3 30 2 31 1 32
REMARK H PARENT
REMARK Flexibility Score: inf
ROOT
ATOM      1  C   UNL     1     129.668 131.600 131.084  1.00  0.00     0.000 C 
ENDROOT
BRANCH   1   2
ATOM      2  C   UNL     1     130.795 132.096 130.154  1.00  0.00     0.000 C 
BRANCH   2   3
ATOM      3  C   UNL     1     131.343 131.010 129.211  1.00  0.00     0.000 C 
BRANCH   3   4
ATOM      4  C   UNL     1     132.350 131.574 128.194  1.00  0.00     0.000 C 
BRANCH   4   5
ATOM      5  C   UNL     1     131.890 131.373 126.739  1.00  0.00     0.000 C 
BRANCH   5   6
ATOM      6  C   UNL     1     130.628 132.188 126.406  1.00  0.00     0.000 C 
BRANCH   6   7
ATOM      7  C   UNL     1     129.562 131.362 125.668  1.00  0.00     0.000 C 
BRANCH   7   8
ATOM      8  C   UNL     1     129.043 130.179 126.501  1.00  0.00     0.000 C 
BRANCH   8   9
ATOM      9  C   UNL     1     128.134 130.620 127.662  1.00  0.00     0.000 C 
BRANCH   9  10
ATOM     10  C   UNL     1     127.321 131.906 127.408  1.00  0.00     0.000 C 
BRANCH  10  11
ATOM     11  C   UNL     1     127.598 133.061 128.392  1.00  0.00     0.000 C 
BRANCH  11  12
ATOM     12  C   UNL     1     127.997 134.395 127.732  1.00  0.00     0.000 C 
BRANCH  12  13
ATOM     13  C   UNL     1     129.157 135.144 128.422  1.00  0.00     0.006 C 
BRANCH  13  14
ATOM     14  C   UNL     1     130.231 135.674 127.460  1.00  0.00     0.053 C 
BRANCH  14  15
ATOM     15  C   UNL     1     130.136 137.158 127.273  1.00  0.00     0.041 C 
ATOM     16  O   UNL     1     129.686 137.632 126.196  1.00  0.00    -0.550 OA
ATOM     17  O   UNL     1     130.510 138.015 128.299  1.00  0.00    -0.550 OA
ENDBRANCH  14  15
ENDBRANCH  13  14
ENDBRANCH  12  13
ENDBRANCH  11  12
ENDBRANCH  10  11
ENDBRANCH   9  10
ENDBRANCH   8   9
ENDBRANCH   7   8
ENDBRANCH   6   7
ENDBRANCH   5   6
ENDBRANCH   4   5
ENDBRANCH   3   4
ENDBRANCH   2   3
ENDBRANCH   1   2
BRANCH   1  18
ATOM     18  C   UNL     1     130.011 131.678 132.584  1.00  0.00     0.000 C 
BRANCH  18  19
ATOM     19  C   UNL     1     131.518 131.832 132.882  1.00  0.00     0.000 C 
BRANCH  19  20
ATOM     20  C   UNL     1     131.862 133.076 133.732  1.00  0.00     0.000 C 
BRANCH  20  21
ATOM     21  C   UNL     1     131.178 134.369 133.251  1.00  0.00     0.000 C 
BRANCH  21  22
ATOM     22  C   UNL     1     132.108 135.353 132.523  1.00  0.00     0.000 C 
BRANCH  22  23
ATOM     23  C   UNL     1     131.665 135.621 131.073  1.00  0.00     0.000 C 
BRANCH  23  24
ATOM     24  C   UNL     1     132.837 136.044 130.173  1.00  0.00    -0.000 C 
BRANCH  24  25
ATOM     25  C   UNL     1     133.996 135.035 130.208  1.00  0.00    -0.000 C 
BRANCH  25  26
ATOM     26  C   UNL     1     135.338 135.753 130.411  1.00  0.00    -0.000 C 
BRANCH  26  27
ATOM     27  C   UNL     1     136.272 135.008 131.379  1.00  0.00    -0.000 C 
BRANCH  27  28
ATOM     28  C   UNL     1     135.963 135.318 132.855  1.00  0.00    -0.000 C 
BRANCH  28  29
ATOM     29  C   UNL     1     135.406 134.102 133.618  1.00  0.00    -0.000 C 
BRANCH  29  30
ATOM     30  C   UNL     1     136.077 132.757 133.286  1.00  0.00    -0.000 C 
BRANCH  30  31
ATOM     31  C   UNL     1     135.116 131.565 133.392  1.00  0.00    -0.003 C 
ATOM     32  C   UNL     1     135.830 130.255 133.076  1.00  0.00     0.004 C 
ENDBRANCH  30  31
ENDBRANCH  29  30
ENDBRANCH  28  29
ENDBRANCH  27  28
ENDBRANCH  26  27
ENDBRANCH  25  26
ENDBRANCH  24  25
ENDBRANCH  23  24
ENDBRANCH  22  23
ENDBRANCH  21  22
ENDBRANCH  20  21
ENDBRANCH  19  20
ENDBRANCH  18  19
ENDBRANCH   1  18
TORSDOF 28
ENDMDL
MODEL 3
REMARK VINA RESULT:    -5.658      2.872      6.631
REMARK INTER + INTRA:         -19.796
REMARK INTER:                 -14.562
REMARK INTRA:                  -5.234
REMARK UNBOUND:                -4.877
REMARK SMILES CCCCCCCCCCCCCCCCCCCCCCCCCCCCCC(=O)[O-]
REMARK SMILES IDX 16 1 17 2 18 3 19 4 20 5 21 6 22 7 23 8 24 9 25 10 26 11
REMARK SMILES IDX 27 12 28 13 29 14 30 15 31 16 32 17 15 18 14 19 13 20 12 21
REMARK SMILES IDX 11 22 10 23 9 24 8 25 7 26 6 27 5 28 4 29 3 30 2 31 1 32
REMARK H PARENT
REMARK Flexibility Score: inf
ROOT
ATOM      1  C   UNL     1     131.638 133.632 128.467  1.00  0.00     0.000 C 
ENDROOT
BRANCH   1   2
ATOM      2  C   UNL     1     131.662 132.349 127.610  1.00  0.00     0.000 C 
BRANCH   2   3
ATOM      3  C   UNL     1     130.991 132.512 126.234  1.00  0.00     0.000 C 
BRANCH   3   4
ATOM      4  C   UNL     1     130.117 131.301 125.864  1.00  0.00     0.000 C 
BRANCH   4   5
ATOM      5  C   UNL     1     129.937 130.325 127.040  1.00  0.00     0.000 C 
BRANCH   5   6
ATOM      6  C   UNL     1     128.471 130.224 127.497  1.00  0.00     0.000 C 
BRANCH   6   7
ATOM      7  C   UNL     1     127.665 131.500 127.204  1.00  0.00     0.000 C 
BRANCH   7   8
ATOM      8  C   UNL     1     126.956 132.056 128.450  1.00  0.00     0.000 C 
BRANCH   8   9
ATOM      9  C   UNL     1     127.482 133.442 128.867  1.00  0.00     0.000 C 
BRANCH   9  10
ATOM     10  C   UNL     1     128.106 134.277 127.729  1.00  0.00     0.000 C 
BRANCH  10  11
ATOM     11  C   UNL     1     128.032 135.805 127.922  1.00  0.00     0.000 C 
BRANCH  11  12
ATOM     12  C   UNL     1     129.381 136.540 127.806  1.00  0.00     0.000 C 
BRANCH  12  13
ATOM     13  C   UNL     1     129.577 137.704 128.800  1.00  0.00     0.006 C 
BRANCH  13  14
ATOM     14  C   UNL     1     130.829 137.581 129.683  1.00  0.00     0.053 C 
BRANCH  14  15
ATOM     15  C   UNL     1     132.058 138.089 128.993  1.00  0.00     0.041 C 
ATOM     16  O   UNL     1     132.357 139.311 129.050  1.00  0.00    -0.550 OA
ATOM     17  O   UNL     1     132.892 137.208 128.317  1.00  0.00    -0.550 OA
ENDBRANCH  14  15
ENDBRANCH  13  14
ENDBRANCH  12  13
ENDBRANCH  11  12
ENDBRANCH  10  11
ENDBRANCH   9  10
ENDBRANCH   8   9
ENDBRANCH   7   8
ENDBRANCH   6   7
ENDBRANCH   5   6
ENDBRANCH   4   5
ENDBRANCH   3   4
ENDBRANCH   2   3
ENDBRANCH   1   2
BRANCH   1  18
ATOM     18  C   UNL     1     131.265 133.394 129.944  1.00  0.00     0.000 C 
BRANCH  18  19
ATOM     19  C   UNL     1     131.053 131.909 130.311  1.00  0.00     0.000 C 
BRANCH  19  20
ATOM     20  C   UNL     1     129.694 131.623 130.990  1.00  0.00     0.000 C 
BRANCH  20  21
ATOM     21  C   UNL     1     129.810 131.224 132.474  1.00  0.00     0.000 C 
BRANCH  21  22
ATOM     22  C   UNL     1     131.084 131.724 133.173  1.00  0.00     0.000 C 
BRANCH  22  23
ATOM     23  C   UNL     1     130.939 133.160 133.709  1.00  0.00     0.000 C 
BRANCH  23  24
ATOM     24  C   UNL     1     132.280 133.911 133.739  1.00  0.00    -0.000 C 
BRANCH  24  25
ATOM     25  C   UNL     1     132.207 135.267 133.017  1.00  0.00    -0.000 C 
BRANCH  25  26
ATOM     26  C   UNL     1     133.566 135.628 132.399  1.00  0.00    -0.000 C 
BRANCH  26  27
ATOM     27  C   UNL     1     134.738 135.415 133.372  1.00  0.00    -0.000 C 
BRANCH  27  28
ATOM     28  C   UNL     1     135.788 134.431 132.827  1.00  0.00    -0.000 C 
BRANCH  28  29
ATOM     29  C   UNL     1     135.287 133.640 131.603  1.00  0.00    -0.000 C 
BRANCH  29  30
ATOM     30  C   UNL     1     135.389 132.109 131.727  1.00  0.00    -0.000 C 
BRANCH  30  31
ATOM     31  C   UNL     1     134.963 131.590 133.108  1.00  0.00    -0.003 C 
ATOM     32  C   UNL     1     135.479 130.174 133.345  1.00  0.00     0.004 C 
ENDBRANCH  30  31
ENDBRANCH  29  30
ENDBRANCH  28  29
ENDBRANCH  27  28
ENDBRANCH  26  27
ENDBRANCH  25  26
ENDBRANCH  24  25
ENDBRANCH  23  24
ENDBRANCH  22  23
ENDBRANCH  21  22
ENDBRANCH  20  21
ENDBRANCH  19  20
ENDBRANCH  18  19
ENDBRANCH   1  18
TORSDOF 28
ENDMDL
MODEL 4
REMARK VINA RESULT:    -5.651      1.553      4.481
REMARK INTER + INTRA:         -19.777
REMARK INTER:                 -14.474
REMARK INTRA:                  -5.303
REMARK UNBOUND:                -4.877
REMARK SMILES CCCCCCCCCCCCCCCCCCCCCCCCCCCCCC(=O)[O-]
REMARK SMILES IDX 16 1 17 2 18 3 19 4 20 5 21 6 22 7 23 8 24 9 25 10 26 11
REMARK SMILES IDX 27 12 28 13 29 14 30 15 31 16 32 17 15 18 14 19 13 20 12 21
REMARK SMILES IDX 11 22 10 23 9 24 8 25 7 26 6 27 5 28 4 29 3 30 2 31 1 32
REMARK H PARENT
REMARK Flexibility Score: inf
ROOT
ATOM      1  C   UNL     1     135.318 131.913 128.686  1.00  0.00     0.000 C 
ENDROOT
BRANCH   1   2
ATOM      2  C   UNL     1     135.747 133.123 129.541  1.00  0.00     0.000 C 
BRANCH   2   3
ATOM      3  C   UNL     1     137.198 133.574 129.291  1.00  0.00     0.000 C 
BRANCH   3   4
ATOM      4  C   UNL     1     137.828 132.867 128.079  1.00  0.00     0.000 C 
BRANCH   4   5
ATOM      5  C   UNL     1     139.322 133.198 127.918  1.00  0.00     0.000 C 
BRANCH   5   6
ATOM      6  C   UNL     1     139.790 134.288 128.898  1.00  0.00     0.000 C 
BRANCH   6   7
ATOM      7  C   UNL     1     140.226 135.580 128.189  1.00  0.00     0.000 C 
BRANCH   7   8
ATOM      8  C   UNL     1     139.202 136.066 127.150  1.00  0.00     0.000 C 
BRANCH   8   9
ATOM      9  C   UNL     1     138.501 137.371 127.568  1.00  0.00     0.000 C 
BRANCH   9  10
ATOM     10  C   UNL     1     137.889 137.364 128.984  1.00  0.00     0.000 C 
BRANCH  10  11
ATOM     11  C   UNL     1     136.371 137.099 129.039  1.00  0.00     0.000 C 
BRANCH  11  12
ATOM     12  C   UNL     1     135.748 136.615 127.715  1.00  0.00     0.000 C 
BRANCH  12  13
ATOM     13  C   UNL     1     134.294 136.110 127.824  1.00  0.00     0.006 C 
BRANCH  13  14
ATOM     14  C   UNL     1     133.672 136.262 129.221  1.00  0.00     0.053 C 
BRANCH  14  15
ATOM     15  C   UNL     1     132.586 137.294 129.245  1.00  0.00     0.041 C 
ATOM     16  O   UNL     1     132.214 137.847 128.176  1.00  0.00    -0.550 OA
ATOM     17  O   UNL     1     131.959 137.618 130.441  1.00  0.00    -0.550 OA
ENDBRANCH  14  15
ENDBRANCH  13  14
ENDBRANCH  12  13
ENDBRANCH  11  12
ENDBRANCH  10  11
ENDBRANCH   9  10
ENDBRANCH   8   9
ENDBRANCH   7   8
ENDBRANCH   6   7
ENDBRANCH   5   6
ENDBRANCH   4   5
ENDBRANCH   3   4
ENDBRANCH   2   3
ENDBRANCH   1   2
BRANCH   1  18
ATOM     18  C   UNL     1     134.382 130.928 129.414  1.00  0.00     0.000 C 
BRANCH  18  19
ATOM     19  C   UNL     1     135.072 129.630 129.884  1.00  0.00     0.000 C 
BRANCH  19  20
ATOM     20  C   UNL     1     136.247 129.865 130.860  1.00  0.00     0.000 C 
BRANCH  20  21
ATOM     21  C   UNL     1     135.842 129.820 132.345  1.00  0.00     0.000 C 
BRANCH  21  22
ATOM     22  C   UNL     1     135.590 131.196 132.983  1.00  0.00     0.000 C 
BRANCH  22  23
ATOM     23  C   UNL     1     134.175 131.322 133.576  1.00  0.00     0.000 C 
BRANCH  23  24
ATOM     24  C   UNL     1     133.159 131.856 132.555  1.00  0.00    -0.000 C 
BRANCH  24  25
ATOM     25  C   UNL     1     131.740 131.953 133.138  1.00  0.00    -0.000 C 
BRANCH  25  26
ATOM     26  C   UNL     1     131.475 133.359 133.697  1.00  0.00    -0.000 C 
BRANCH  26  27
ATOM     27  C   UNL     1     131.752 134.470 132.670  1.00  0.00    -0.000 C 
BRANCH  27  28
ATOM     28  C   UNL     1     132.483 135.675 133.286  1.00  0.00    -0.000 C 
BRANCH  28  29
ATOM     29  C   UNL     1     133.902 135.329 133.776  1.00  0.00    -0.000 C 
BRANCH  29  30
ATOM     30  C   UNL     1     134.977 135.273 132.676  1.00  0.00    -0.000 C 
BRANCH  30  31
ATOM     31  C   UNL     1     136.355 134.853 133.206  1.00  0.00    -0.003 C 
ATOM     32  C   UNL     1     137.406 135.917 132.904  1.00  0.00     0.004 C 
ENDBRANCH  30  31
ENDBRANCH  29  30
ENDBRANCH  28  29
ENDBRANCH  27  28
ENDBRANCH  26  27
ENDBRANCH  25  26
ENDBRANCH  24  25
ENDBRANCH  23  24
ENDBRANCH  22  23
ENDBRANCH  21  22
ENDBRANCH  20  21
ENDBRANCH  19  20
ENDBRANCH  18  19
ENDBRANCH   1  18
TORSDOF 28
ENDMDL
MODEL 5
REMARK VINA RESULT:    -5.633      2.969      7.003
REMARK INTER + INTRA:         -19.731
REMARK INTER:                 -14.247
REMARK INTRA:                  -5.484
REMARK UNBOUND:                -4.877
REMARK SMILES CCCCCCCCCCCCCCCCCCCCCCCCCCCCCC(=O)[O-]
REMARK SMILES IDX 16 1 17 2 18 3 19 4 20 5 21 6 22 7 23 8 24 9 25 10 26 11
REMARK SMILES IDX 27 12 28 13 29 14 30 15 31 16 32 17 15 18 14 19 13 20 12 21
REMARK SMILES IDX 11 22 10 23 9 24 8 25 7 26 6 27 5 28 4 29 3 30 2 31 1 32
REMARK H PARENT
REMARK Flexibility Score: inf
ROOT
ATOM      1  C   UNL     1     132.590 136.589 133.396  1.00  0.00     0.000 C 
ENDROOT
BRANCH   1   2
ATOM      2  C   UNL     1     131.852 136.712 132.047  1.00  0.00     0.000 C 
BRANCH   2   3
ATOM      3  C   UNL     1     132.515 135.921 130.905  1.00  0.00     0.000 C 
BRANCH   3   4
ATOM      4  C   UNL     1     131.492 135.119 130.080  1.00  0.00     0.000 C 
BRANCH   4   5
ATOM      5  C   UNL     1     132.045 133.759 129.621  1.00  0.00     0.000 C 
BRANCH   5   6
ATOM      6  C   UNL     1     133.572 133.662 129.786  1.00  0.00     0.000 C 
BRANCH   6   7
ATOM      7  C   UNL     1     134.114 132.252 129.501  1.00  0.00     0.000 C 
BRANCH   7   8
ATOM      8  C   UNL     1     135.356 131.910 130.341  1.00  0.00     0.000 C 
BRANCH   8   9
ATOM      9  C   UNL     1     135.054 130.913 131.474  1.00  0.00     0.000 C 
BRANCH   9  10
ATOM     10  C   UNL     1     135.490 131.368 132.883  1.00  0.00     0.000 C 
BRANCH  10  11
ATOM     11  C   UNL     1     134.364 131.951 133.760  1.00  0.00     0.000 C 
BRANCH  11  12
ATOM     12  C   UNL     1     132.936 131.584 133.312  1.00  0.00     0.000 C 
BRANCH  12  13
ATOM     13  C   UNL     1     132.005 132.787 133.052  1.00  0.00     0.006 C 
BRANCH  13  14
ATOM     14  C   UNL     1     130.551 132.573 133.503  1.00  0.00     0.053 C 
BRANCH  14  15
ATOM     15  C   UNL     1     129.843 131.559 132.657  1.00  0.00     0.041 C 
ATOM     16  O   UNL     1     129.973 131.577 131.404  1.00  0.00    -0.550 OA
ATOM     17  O   UNL     1     129.068 130.573 133.254  1.00  0.00    -0.550 OA
ENDBRANCH  14  15
ENDBRANCH  13  14
ENDBRANCH  12  13
ENDBRANCH  11  12
ENDBRANCH  10  11
ENDBRANCH   9  10
ENDBRANCH   8   9
ENDBRANCH   7   8
ENDBRANCH   6   7
ENDBRANCH   5   6
ENDBRANCH   4   5
ENDBRANCH   3   4
ENDBRANCH   2   3
ENDBRANCH   1   2
BRANCH   1  18
ATOM     18  C   UNL     1     133.744 135.567 133.391  1.00  0.00     0.000 C 
BRANCH  18  19
ATOM     19  C   UNL     1     135.151 136.202 133.416  1.00  0.00     0.000 C 
BRANCH  19  20
ATOM     20  C   UNL     1     136.287 135.214 133.067  1.00  0.00     0.000 C 
BRANCH  20  21
ATOM     21  C   UNL     1     136.501 135.019 131.554  1.00  0.00     0.000 C 
BRANCH  21  22
ATOM     22  C   UNL     1     137.695 135.793 130.971  1.00  0.00     0.000 C 
BRANCH  22  23
ATOM     23  C   UNL     1     137.376 136.430 129.606  1.00  0.00     0.000 C 
BRANCH  23  24
ATOM     24  C   UNL     1     135.866 136.482 129.324  1.00  0.00    -0.000 C 
BRANCH  24  25
ATOM     25  C   UNL     1     135.526 136.074 127.882  1.00  0.00    -0.000 C 
BRANCH  25  26
ATOM     26  C   UNL     1     134.570 137.090 127.239  1.00  0.00    -0.000 C 
BRANCH  26  27
ATOM     27  C   UNL     1     133.118 136.585 127.182  1.00  0.00    -0.000 C 
BRANCH  27  28
ATOM     28  C   UNL     1     132.136 137.664 126.692  1.00  0.00    -0.000 C 
BRANCH  28  29
ATOM     29  C   UNL     1     131.182 138.152 127.799  1.00  0.00    -0.000 C 
BRANCH  29  30
ATOM     30  C   UNL     1     131.865 138.852 128.989  1.00  0.00    -0.000 C 
BRANCH  30  31
ATOM     31  C   UNL     1     132.425 140.236 128.630  1.00  0.00    -0.003 C 
ATOM     32  C   UNL     1     131.551 140.927 127.588  1.00  0.00     0.004 C 
ENDBRANCH  30  31
ENDBRANCH  29  30
ENDBRANCH  28  29
ENDBRANCH  27  28
ENDBRANCH  26  27
ENDBRANCH  25  26
ENDBRANCH  24  25
ENDBRANCH  23  24
ENDBRANCH  22  23
ENDBRANCH  21  22
ENDBRANCH  20  21
ENDBRANCH  19  20
ENDBRANCH  18  19
ENDBRANCH   1  18
TORSDOF 28
ENDMDL
MODEL 6
REMARK VINA RESULT:    -5.629      2.521      6.805
REMARK INTER + INTRA:         -19.721
REMARK INTER:                 -14.625
REMARK INTRA:                  -5.096
REMARK UNBOUND:                -4.877
REMARK SMILES CCCCCCCCCCCCCCCCCCCCCCCCCCCCCC(=O)[O-]
REMARK SMILES IDX 16 1 17 2 18 3 19 4 20 5 21 6 22 7 23 8 24 9 25 10 26 11
REMARK SMILES IDX 27 12 28 13 29 14 30 15 31 16 32 17 15 18 14 19 13 20 12 21
REMARK SMILES IDX 11 22 10 23 9 24 8 25 7 26 6 27 5 28 4 29 3 30 2 31 1 32
REMARK H PARENT
REMARK Flexibility Score: inf
ROOT
ATOM      1  C   UNL     1     135.488 129.142 130.126  1.00  0.00     0.000 C 
ENDROOT
BRANCH   1   2
ATOM      2  C   UNL     1     134.606 128.643 128.962  1.00  0.00     0.000 C 
BRANCH   2   3
ATOM      3  C   UNL     1     134.976 127.233 128.466  1.00  0.00     0.000 C 
BRANCH   3   4
ATOM      4  C   UNL     1     135.835 127.270 127.190  1.00  0.00     0.000 C 
BRANCH   4   5
ATOM      5  C   UNL     1     135.769 128.632 126.477  1.00  0.00     0.000 C 
BRANCH   5   6
ATOM      6  C   UNL     1     137.151 129.300 126.363  1.00  0.00     0.000 C 
BRANCH   6   7
ATOM      7  C   UNL     1     138.212 128.631 127.252  1.00  0.00     0.000 C 
BRANCH   7   8
ATOM      8  C   UNL     1     138.902 129.622 128.205  1.00  0.00     0.000 C 
BRANCH   8   9
ATOM      9  C   UNL     1     139.607 130.771 127.462  1.00  0.00     0.000 C 
BRANCH   9  10
ATOM     10  C   UNL     1     139.322 132.183 128.016  1.00  0.00     0.000 C 
BRANCH  10  11
ATOM     11  C   UNL     1     137.890 132.702 127.780  1.00  0.00     0.000 C 
BRANCH  11  12
ATOM     12  C   UNL     1     137.433 133.811 128.748  1.00  0.00     0.000 C 
BRANCH  12  13
ATOM     13  C   UNL     1     138.487 134.900 129.037  1.00  0.00     0.006 C 
BRANCH  13  14
ATOM     14  C   UNL     1     137.954 136.339 128.946  1.00  0.00     0.053 C 
BRANCH  14  15
ATOM     15  C   UNL     1     138.737 137.169 127.975  1.00  0.00     0.041 C 
ATOM     16  O   UNL     1     139.762 136.695 127.418  1.00  0.00    -0.550 OA
ATOM     17  O   UNL     1     138.313 138.453 127.656  1.00  0.00    -0.550 OA
ENDBRANCH  14  15
ENDBRANCH  13  14
ENDBRANCH  12  13
ENDBRANCH  11  12
ENDBRANCH  10  11
ENDBRANCH   9  10
ENDBRANCH   8   9
ENDBRANCH   7   8
ENDBRANCH   6   7
ENDBRANCH   5   6
ENDBRANCH   4   5
ENDBRANCH   3   4
ENDBRANCH   2   3
ENDBRANCH   1   2
BRANCH   1  18
ATOM     18  C   UNL     1     135.860 130.635 130.037  1.00  0.00     0.000 C 
BRANCH  18  19
ATOM     19  C   UNL     1     135.405 131.473 131.251  1.00  0.00     0.000 C 
BRANCH  19  20
ATOM     20  C   UNL     1     133.875 131.481 131.466  1.00  0.00     0.000 C 
BRANCH  20  21
ATOM     21  C   UNL     1     133.452 131.520 132.946  1.00  0.00     0.000 C 
BRANCH  21  22
ATOM     22  C   UNL     1     134.157 132.599 133.785  1.00  0.00     0.000 C 
BRANCH  22  23
ATOM     23  C   UNL     1     133.173 133.626 134.373  1.00  0.00     0.000 C 
BRANCH  23  24
ATOM     24  C   UNL     1     131.941 133.835 133.478  1.00  0.00    -0.000 C 
BRANCH  24  25
ATOM     25  C   UNL     1     131.680 135.320 133.179  1.00  0.00    -0.000 C 
BRANCH  25  26
ATOM     26  C   UNL     1     132.746 135.880 132.226  1.00  0.00    -0.000 C 
BRANCH  26  27
ATOM     27  C   UNL     1     132.907 135.034 130.951  1.00  0.00    -0.000 C 
BRANCH  27  28
ATOM     28  C   UNL     1     134.358 135.005 130.440  1.00  0.00    -0.000 C 
BRANCH  28  29
ATOM     29  C   UNL     1     135.356 135.623 131.438  1.00  0.00    -0.000 C 
BRANCH  29  30
ATOM     30  C   UNL     1     136.264 134.614 132.164  1.00  0.00    -0.000 C 
BRANCH  30  31
ATOM     31  C   UNL     1     136.912 135.194 133.430  1.00  0.00    -0.003 C 
ATOM     32  C   UNL     1     137.951 136.254 133.078  1.00  0.00     0.004 C 
ENDBRANCH  30  31
ENDBRANCH  29  30
ENDBRANCH  28  29
ENDBRANCH  27  28
ENDBRANCH  26  27
ENDBRANCH  25  26
ENDBRANCH  24  25
ENDBRANCH  23  24
ENDBRANCH  22  23
ENDBRANCH  21  22
ENDBRANCH  20  21
ENDBRANCH  19  20
ENDBRANCH  18  19
ENDBRANCH   1  18
TORSDOF 28
ENDMDL
MODEL 7
REMARK VINA RESULT:    -5.616      4.010      7.795
REMARK INTER + INTRA:         -19.686
REMARK INTER:                 -15.522
REMARK INTRA:                  -4.164
REMARK UNBOUND:                -4.877
REMARK SMILES CCCCCCCCCCCCCCCCCCCCCCCCCCCCCC(=O)[O-]
REMARK SMILES IDX 16 1 17 2 18 3 19 4 20 5 21 6 22 7 23 8 24 9 25 10 26 11
REMARK SMILES IDX 27 12 28 13 29 14 30 15 31 16 32 17 15 18 14 19 13 20 12 21
REMARK SMILES IDX 11 22 10 23 9 24 8 25 7 26 6 27 5 28 4 29 3 30 2 31 1 32
REMARK H PARENT
REMARK Flexibility Score: inf
ROOT
ATOM      1  C   UNL     1     132.430 129.760 127.619  1.00  0.00     0.000 C 
ENDROOT
BRANCH   1   2
ATOM      2  C   UNL     1     132.073 128.340 128.106  1.00  0.00     0.000 C 
BRANCH   2   3
ATOM      3  C   UNL     1     130.559 128.095 128.244  1.00  0.00     0.000 C 
BRANCH   3   4
ATOM      4  C   UNL     1     129.882 127.848 126.884  1.00  0.00     0.000 C 
BRANCH   4   5
ATOM      5  C   UNL     1     128.611 128.695 126.698  1.00  0.00     0.000 C 
BRANCH   5   6
ATOM      6  C   UNL     1     128.760 130.110 127.287  1.00  0.00     0.000 C 
BRANCH   6   7
ATOM      7  C   UNL     1     128.781 131.205 126.209  1.00  0.00     0.000 C 
BRANCH   7   8
ATOM      8  C   UNL     1     130.114 131.262 125.443  1.00  0.00     0.000 C 
BRANCH   8   9
ATOM      9  C   UNL     1     130.883 132.574 125.681  1.00  0.00     0.000 C 
BRANCH   9  10
ATOM     10  C   UNL     1     132.088 132.808 124.747  1.00  0.00     0.000 C 
BRANCH  10  11
ATOM     11  C   UNL     1     133.448 132.344 125.304  1.00  0.00     0.000 C 
BRANCH  11  12
ATOM     12  C   UNL     1     134.369 131.653 124.280  1.00  0.00     0.000 C 
BRANCH  12  13
ATOM     13  C   UNL     1     134.191 132.124 122.821  1.00  0.00     0.006 C 
BRANCH  13  14
ATOM     14  C   UNL     1     135.306 133.053 122.315  1.00  0.00     0.053 C 
BRANCH  14  15
ATOM     15  C   UNL     1     134.872 134.487 122.282  1.00  0.00     0.041 C 
ATOM     16  O   UNL     1     134.872 135.173 123.339  1.00  0.00    -0.550 OA
ATOM     17  O   UNL     1     134.502 135.076 121.080  1.00  0.00    -0.550 OA
ENDBRANCH  14  15
ENDBRANCH  13  14
ENDBRANCH  12  13
ENDBRANCH  11  12
ENDBRANCH  10  11
ENDBRANCH   9  10
ENDBRANCH   8   9
ENDBRANCH   7   8
ENDBRANCH   6   7
ENDBRANCH   5   6
ENDBRANCH   4   5
ENDBRANCH   3   4
ENDBRANCH   2   3
ENDBRANCH   1   2
BRANCH   1  18
ATOM     18  C   UNL     1     133.431 130.502 128.525  1.00  0.00     0.000 C 
BRANCH  18  19
ATOM     19  C   UNL     1     132.775 131.281 129.686  1.00  0.00     0.000 C 
BRANCH  19  20
ATOM     20  C   UNL     1     131.267 131.548 129.485  1.00  0.00     0.000 C 
BRANCH  20  21
ATOM     21  C   UNL     1     130.608 132.314 130.648  1.00  0.00     0.000 C 
BRANCH  21  22
ATOM     22  C   UNL     1     129.857 131.428 131.655  1.00  0.00     0.000 C 
BRANCH  22  23
ATOM     23  C   UNL     1     130.076 131.874 133.112  1.00  0.00     0.000 C 
BRANCH  23  24
ATOM     24  C   UNL     1     131.468 132.485 133.334  1.00  0.00    -0.000 C 
BRANCH  24  25
ATOM     25  C   UNL     1     132.577 131.422 133.359  1.00  0.00    -0.000 C 
BRANCH  25  26
ATOM     26  C   UNL     1     133.957 132.077 133.511  1.00  0.00    -0.000 C 
BRANCH  26  27
ATOM     27  C   UNL     1     133.894 133.441 134.221  1.00  0.00    -0.000 C 
BRANCH  27  28
ATOM     28  C   UNL     1     134.936 134.437 133.682  1.00  0.00    -0.000 C 
BRANCH  28  29
ATOM     29  C   UNL     1     134.316 135.784 133.266  1.00  0.00    -0.000 C 
BRANCH  29  30
ATOM     30  C   UNL     1     132.849 135.987 133.686  1.00  0.00    -0.000 C 
BRANCH  30  31
ATOM     31  C   UNL     1     131.916 136.250 132.496  1.00  0.00    -0.003 C 
ATOM     32  C   UNL     1     132.379 135.489 131.258  1.00  0.00     0.004 C 
ENDBRANCH  30  31
ENDBRANCH  29  30
ENDBRANCH  28  29
ENDBRANCH  27  28
ENDBRANCH  26  27
ENDBRANCH  25  26
ENDBRANCH  24  25
ENDBRANCH  23  24
ENDBRANCH  22  23
ENDBRANCH  21  22
ENDBRANCH  20  21
ENDBRANCH  19  20
ENDBRANCH  18  19
ENDBRANCH   1  18
TORSDOF 28
ENDMDL
MODEL 8
REMARK VINA RESULT:    -5.614      3.834      6.946
REMARK INTER + INTRA:         -19.680
REMARK INTER:                 -14.420
REMARK INTRA:                  -5.259
REMARK UNBOUND:                -4.877
REMARK SMILES CCCCCCCCCCCCCCCCCCCCCCCCCCCCCC(=O)[O-]
REMARK SMILES IDX 16 1 17 2 18 3 19 4 20 5 21 6 22 7 23 8 24 9 25 10 26 11
REMARK SMILES IDX 27 12 28 13 29 14 30 15 31 16 32 17 15 18 14 19 13 20 12 21
REMARK SMILES IDX 11 22 10 23 9 24 8 25 7 26 6 27 5 28 4 29 3 30 2 31 1 32
REMARK H PARENT
REMARK Flexibility Score: inf
ROOT
ATOM      1  C   UNL     1     133.846 134.066 129.342  1.00  0.00     0.000 C 
ENDROOT
BRANCH   1   2
ATOM      2  C   UNL     1     133.310 134.114 127.896  1.00  0.00     0.000 C 
BRANCH   2   3
ATOM      3  C   UNL     1     132.008 133.316 127.693  1.00  0.00     0.000 C 
BRANCH   3   4
ATOM      4  C   UNL     1     130.842 133.880 128.524  1.00  0.00     0.000 C 
BRANCH   4   5
ATOM      5  C   UNL     1     129.850 134.688 127.670  1.00  0.00     0.000 C 
BRANCH   5   6
ATOM      6  C   UNL     1     129.425 136.001 128.351  1.00  0.00     0.000 C 
BRANCH   6   7
ATOM      7  C   UNL     1     129.117 137.122 127.345  1.00  0.00     0.000 C 
BRANCH   7   8
ATOM      8  C   UNL     1     129.999 138.365 127.548  1.00  0.00     0.000 C 
BRANCH   8   9
ATOM      9  C   UNL     1     131.285 138.328 126.703  1.00  0.00     0.000 C 
BRANCH   9  10
ATOM     10  C   UNL     1     131.200 137.482 125.415  1.00  0.00     0.000 C 
BRANCH  10  11
ATOM     11  C   UNL     1     132.259 136.368 125.293  1.00  0.00     0.000 C 
BRANCH  11  12
ATOM     12  C   UNL     1     131.961 135.304 124.219  1.00  0.00     0.000 C 
BRANCH  12  13
ATOM     13  C   UNL     1     132.991 135.229 123.072  1.00  0.00     0.006 C 
BRANCH  13  14
ATOM     14  C   UNL     1     132.453 134.599 121.777  1.00  0.00     0.053 C 
BRANCH  14  15
ATOM     15  C   UNL     1     133.225 133.377 121.382  1.00  0.00     0.041 C 
ATOM     16  O   UNL     1     133.093 132.307 122.033  1.00  0.00    -0.550 OA
ATOM     17  O   UNL     1     134.061 133.409 120.274  1.00  0.00    -0.550 OA
ENDBRANCH  14  15
ENDBRANCH  13  14
ENDBRANCH  12  13
ENDBRANCH  11  12
ENDBRANCH  10  11
ENDBRANCH   9  10
ENDBRANCH   8   9
ENDBRANCH   7   8
ENDBRANCH   6   7
ENDBRANCH   5   6
ENDBRANCH   4   5
ENDBRANCH   3   4
ENDBRANCH   2   3
ENDBRANCH   1   2
BRANCH   1  18
ATOM     18  C   UNL     1     134.155 135.451 129.943  1.00  0.00     0.000 C 
BRANCH  18  19
ATOM     19  C   UNL     1     133.291 136.596 129.371  1.00  0.00     0.000 C 
BRANCH  19  20
ATOM     20  C   UNL     1     132.155 137.052 130.315  1.00  0.00     0.000 C 
BRANCH  20  21
ATOM     21  C   UNL     1     131.838 136.049 131.439  1.00  0.00     0.000 C 
BRANCH  21  22
ATOM     22  C   UNL     1     131.656 136.681 132.829  1.00  0.00     0.000 C 
BRANCH  22  23
ATOM     23  C   UNL     1     132.949 136.653 133.664  1.00  0.00     0.000 C 
BRANCH  23  24
ATOM     24  C   UNL     1     133.635 135.279 133.634  1.00  0.00    -0.000 C 
BRANCH  24  25
ATOM     25  C   UNL     1     135.128 135.377 133.282  1.00  0.00    -0.000 C 
BRANCH  25  26
ATOM     26  C   UNL     1     135.821 134.018 133.462  1.00  0.00    -0.000 C 
BRANCH  26  27
ATOM     27  C   UNL     1     135.142 132.894 132.662  1.00  0.00    -0.000 C 
BRANCH  27  28
ATOM     28  C   UNL     1     134.601 131.770 133.563  1.00  0.00    -0.000 C 
BRANCH  28  29
ATOM     29  C   UNL     1     133.122 131.441 133.287  1.00  0.00    -0.000 C 
BRANCH  29  30
ATOM     30  C   UNL     1     132.554 132.030 131.983  1.00  0.00    -0.000 C 
BRANCH  30  31
ATOM     31  C   UNL     1     131.100 132.504 132.123  1.00  0.00    -0.003 C 
ATOM     32  C   UNL     1     130.348 131.671 133.157  1.00  0.00     0.004 C 
ENDBRANCH  30  31
ENDBRANCH  29  30
ENDBRANCH  28  29
ENDBRANCH  27  28
ENDBRANCH  26  27
ENDBRANCH  25  26
ENDBRANCH  24  25
ENDBRANCH  23  24
ENDBRANCH  22  23
ENDBRANCH  21  22
ENDBRANCH  20  21
ENDBRANCH  19  20
ENDBRANCH  18  19
ENDBRANCH   1  18
TORSDOF 28
ENDMDL
MODEL 9
REMARK VINA RESULT:    -5.576      2.881      5.995
REMARK INTER + INTRA:         -19.579
REMARK INTER:                 -13.903
REMARK INTRA:                  -5.676
REMARK UNBOUND:                -4.877
REMARK SMILES CCCCCCCCCCCCCCCCCCCCCCCCCCCCCC(=O)[O-]
REMARK SMILES IDX 16 1 17 2 18 3 19 4 20 5 21 6 22 7 23 8 24 9 25 10 26 11
REMARK SMILES IDX 27 12 28 13 29 14 30 15 31 16 32 17 15 18 14 19 13 20 12 21
REMARK SMILES IDX 11 22 10 23 9 24 8 25 7 26 6 27 5 28 4 29 3 30 2 31 1 32
REMARK H PARENT
REMARK Flexibility Score: inf
ROOT
ATOM      1  C   UNL     1     130.578 131.975 131.783  1.00  0.00     0.000 C 
ENDROOT
BRANCH   1   2
ATOM      2  C   UNL     1     130.729 132.097 133.313  1.00  0.00     0.000 C 
BRANCH   2   3
ATOM      3  C   UNL     1     131.767 133.148 133.750  1.00  0.00     0.000 C 
BRANCH   3   4
ATOM      4  C   UNL     1     131.356 134.575 133.350  1.00  0.00     0.000 C 
BRANCH   4   5
ATOM      5  C   UNL     1     132.535 135.563 133.406  1.00  0.00     0.000 C 
BRANCH   5   6
ATOM      6  C   UNL     1     132.195 136.917 132.758  1.00  0.00     0.000 C 
BRANCH   6   7
ATOM      7  C   UNL     1     131.431 136.769 131.433  1.00  0.00     0.000 C 
BRANCH   7   8
ATOM      8  C   UNL     1     131.752 137.891 130.431  1.00  0.00     0.000 C 
BRANCH   8   9
ATOM      9  C   UNL     1     132.287 137.357 129.090  1.00  0.00     0.000 C 
BRANCH   9  10
ATOM     10  C   UNL     1     131.234 137.220 127.970  1.00  0.00     0.000 C 
BRANCH  10  11
ATOM     11  C   UNL     1     129.781 137.510 128.399  1.00  0.00     0.000 C 
BRANCH  11  12
ATOM     12  C   UNL     1     128.760 136.423 128.010  1.00  0.00     0.000 C 
BRANCH  12  13
ATOM     13  C   UNL     1     129.358 135.020 127.773  1.00  0.00     0.006 C 
BRANCH  13  14
ATOM     14  C   UNL     1     128.881 133.951 128.768  1.00  0.00     0.053 C 
BRANCH  14  15
ATOM     15  C   UNL     1     127.707 133.179 128.246  1.00  0.00     0.041 C 
ATOM     16  O   UNL     1     127.562 133.009 127.007  1.00  0.00    -0.550 OA
ATOM     17  O   UNL     1     126.795 132.618 129.130  1.00  0.00    -0.550 OA
ENDBRANCH  14  15
ENDBRANCH  13  14
ENDBRANCH  12  13
ENDBRANCH  11  12
ENDBRANCH  10  11
ENDBRANCH   9  10
ENDBRANCH   8   9
ENDBRANCH   7   8
ENDBRANCH   6   7
ENDBRANCH   5   6
ENDBRANCH   4   5
ENDBRANCH   3   4
ENDBRANCH   2   3
ENDBRANCH   1   2
BRANCH   1  18
ATOM     18  C   UNL     1     131.907 131.745 131.036  1.00  0.00     0.000 C 
BRANCH  18  19
ATOM     19  C   UNL     1     131.971 132.407 129.642  1.00  0.00     0.000 C 
BRANCH  19  20
ATOM     20  C   UNL     1     132.498 133.859 129.665  1.00  0.00     0.000 C 
BRANCH  20  21
ATOM     21  C   UNL     1     133.938 133.992 130.197  1.00  0.00     0.000 C 
BRANCH  21  22
ATOM     22  C   UNL     1     135.019 134.064 129.106  1.00  0.00     0.000 C 
BRANCH  22  23
ATOM     23  C   UNL     1     136.352 134.627 129.632  1.00  0.00     0.000 C 
BRANCH  23  24
ATOM     24  C   UNL     1     136.156 135.888 130.488  1.00  0.00    -0.000 C 
BRANCH  24  25
ATOM     25  C   UNL     1     137.000 135.860 131.772  1.00  0.00    -0.000 C 
BRANCH  25  26
ATOM     26  C   UNL     1     136.147 135.431 132.975  1.00  0.00    -0.000 C 
BRANCH  26  27
ATOM     27  C   UNL     1     136.499 134.021 133.481  1.00  0.00    -0.000 C 
BRANCH  27  28
ATOM     28  C   UNL     1     135.321 133.038 133.359  1.00  0.00    -0.000 C 
BRANCH  28  29
ATOM     29  C   UNL     1     135.773 131.566 133.313  1.00  0.00    -0.000 C 
BRANCH  29  30
ATOM     30  C   UNL     1     135.110 130.713 132.216  1.00  0.00    -0.000 C 
BRANCH  30  31
ATOM     31  C   UNL     1     135.738 130.924 130.831  1.00  0.00    -0.003 C 
ATOM     32  C   UNL     1     135.035 130.075 129.776  1.00  0.00     0.004 C 
ENDBRANCH  30  31
ENDBRANCH  29  30
ENDBRANCH  28  29
ENDBRANCH  27  28
ENDBRANCH  26  27
ENDBRANCH  25  26
ENDBRANCH  24  25
ENDBRANCH  23  24
ENDBRANCH  22  23
ENDBRANCH  21  22
ENDBRANCH  20  21
ENDBRANCH  19  20
ENDBRANCH  18  19
ENDBRANCH   1  18
TORSDOF 28
ENDMDL
