MODEL 1
REMARK VINA RESULT:    -2.431      0.000      0.000
REMARK INTER + INTRA:          -2.756
REMARK INTER:                  -2.715
REMARK INTRA:                  -0.042
REMARK UNBOUND:                -0.042
REMARK SMILES CCCC(=O)[O-]
REMARK SMILES IDX 3 1 4 2 5 3 6 4 2 5 1 6
REMARK H PARENT
REMARK Flexibility Score: inf
ROOT
ATOM      1  C   UNL     1       8.293 -21.917  16.565  1.00  0.00     0.052 C 
ENDROOT
BRANCH   1   2
ATOM      2  C   UNL     1       8.187 -21.328  15.192  1.00  0.00     0.041 C 
ATOM      3  O   UNL     1       7.537 -21.926  14.295  1.00  0.00    -0.550 OA
ATOM      4  O   UNL     1       8.775 -20.101  14.913  1.00  0.00    -0.550 OA
ENDBRANCH   1   2
BRANCH   1   5
ATOM      5  C   UNL     1       7.261 -21.313  17.525  1.00  0.00     0.003 C 
ATOM      6  C   UNL     1       5.920 -22.044  17.473  1.00  0.00     0.004 C 
ENDBRANCH   1   5
TORSDOF 2
ENDMDL
MODEL 2
REMARK VINA RESULT:    -2.415      0.258      1.341
REMARK INTER + INTRA:          -2.738
REMARK INTER:                  -2.683
REMARK INTRA:                  -0.055
REMARK UNBOUND:                -0.042
REMARK SMILES CCCC(=O)[O-]
REMARK SMILES IDX 3 1 4 2 5 3 6 4 2 5 1 6
REMARK H PARENT
REMARK Flexibility Score: inf
ROOT
ATOM      1  C   UNL     1       8.385 -22.137  16.383  1.00  0.00     0.052 C 
ENDROOT
BRANCH   1   2
ATOM      2  C   UNL     1       8.189 -21.372  15.109  1.00  0.00     0.041 C 
ATOM      3  O   UNL     1       8.691 -20.226  14.976  1.00  0.00    -0.550 OA
ATOM      4  O   UNL     1       7.482 -21.941  14.058  1.00  0.00    -0.550 OA
ENDBRANCH   1   2
BRANCH   1   5
ATOM      5  C   UNL     1       7.596 -21.519  17.544  1.00  0.00     0.003 C 
ATOM      6  C   UNL     1       6.117 -21.903  17.513  1.00  0.00     0.004 C 
ENDBRANCH   1   5
TORSDOF 2
ENDMDL
MODEL 3
REMARK VINA RESULT:    -2.256      1.993      3.155
REMARK INTER + INTRA:          -2.561
REMARK INTER:                  -2.527
REMARK INTRA:                  -0.035
REMARK UNBOUND:                -0.042
REMARK SMILES CCCC(=O)[O-]
REMARK SMILES IDX 3 1 4 2 5 3 6 4 2 5 1 6
REMARK H PARENT
REMARK Flexibility Score: inf
ROOT
ATOM      1  C   UNL     1       8.056 -21.649  17.080  1.00  0.00     0.052 C 
ENDROOT
BRANCH   1   2
ATOM      2  C   UNL     1       6.656 -22.171  16.964  1.00  0.00     0.041 C 
ATOM      3  O   UNL     1       5.829 -21.977  17.892  1.00  0.00    -0.550 OA
ATOM      4  O   UNL     1       6.257 -22.843  15.815  1.00  0.00    -0.550 OA
ENDBRANCH   1   2
BRANCH   1   5
ATOM      5  C   UNL     1       8.822 -21.775  15.757  1.00  0.00     0.003 C 
ATOM      6  C   UNL     1       8.732 -20.506  14.910  1.00  0.00     0.004 C 
ENDBRANCH   1   5
TORSDOF 2
ENDMDL
MODEL 4
REMARK VINA RESULT:    -2.143     17.473     18.450
REMARK INTER + INTRA:          -2.436
REMARK INTER:                  -2.372
REMARK INTRA:                  -0.064
REMARK UNBOUND:                -0.042
REMARK SMILES CCCC(=O)[O-]
REMARK SMILES IDX 3 1 4 2 5 3 6 4 2 5 1 6
REMARK H PARENT
REMARK Flexibility Score: inf
ROOT
ATOM      1  C   UNL     1     -11.060 -20.114  16.265  1.00  0.00     0.052 C 
ENDROOT
BRANCH   1   2
ATOM      2  C   UNL     1     -10.684 -21.193  17.234  1.00  0.00     0.041 C 
ATOM      3  O   UNL     1      -9.994 -20.918  18.250  1.00  0.00    -0.550 OA
ATOM      4  O   UNL     1     -11.125 -22.494  17.033  1.00  0.00    -0.550 OA
ENDBRANCH   1   2
BRANCH   1   5
ATOM      5  C   UNL     1     -10.755 -20.518  14.817  1.00  0.00     0.003 C 
ATOM      6  C   UNL     1      -9.257 -20.503  14.513  1.00  0.00     0.004 C 
ENDBRANCH   1   5
TORSDOF 2
ENDMDL
MODEL 5
REMARK VINA RESULT:    -2.115      2.381      3.475
REMARK INTER + INTRA:          -2.403
REMARK INTER:                  -2.372
REMARK INTRA:                  -0.031
REMARK UNBOUND:                -0.042
REMARK SMILES CCCC(=O)[O-]
REMARK SMILES IDX 3 1 4 2 5 3 6 4 2 5 1 6
REMARK H PARENT
REMARK Flexibility Score: inf
ROOT
ATOM      1  C   UNL     1       5.733 -22.011  17.437  1.00  0.00     0.052 C 
ENDROOT
BRANCH   1   2
ATOM      2  C   UNL     1       4.814 -22.519  16.368  1.00  0.00     0.041 C 
ATOM      3  O   UNL     1       5.280 -23.125  15.368  1.00  0.00    -0.550 OA
ATOM      4  O   UNL     1       3.441 -22.354  16.494  1.00  0.00    -0.550 OA
ENDBRANCH   1   2
BRANCH   1   5
ATOM      5  C   UNL     1       7.174 -22.490  17.223  1.00  0.00     0.003 C 
ATOM      6  C   UNL     1       8.068 -21.398  16.636  1.00  0.00     0.004 C 
ENDBRANCH   1   5
TORSDOF 2
ENDMDL
MODEL 6
REMARK VINA RESULT:    -2.107     17.614     18.316
REMARK INTER + INTRA:          -2.394
REMARK INTER:                  -2.350
REMARK INTRA:                  -0.045
REMARK UNBOUND:                -0.042
REMARK SMILES CCCC(=O)[O-]
REMARK SMILES IDX 3 1 4 2 5 3 6 4 2 5 1 6
REMARK H PARENT
REMARK Flexibility Score: inf
ROOT
ATOM      1  C   UNL     1     -10.879 -20.147  16.641  1.00  0.00     0.052 C 
ENDROOT
BRANCH   1   2
ATOM      2  C   UNL     1     -10.461 -21.278  17.531  1.00  0.00     0.041 C 
ATOM      3  O   UNL     1     -10.755 -22.464  17.228  1.00  0.00    -0.550 OA
ATOM      4  O   UNL     1      -9.717 -21.024  18.676  1.00  0.00    -0.550 OA
ENDBRANCH   1   2
BRANCH   1   5
ATOM      5  C   UNL     1     -10.934 -20.573  15.168  1.00  0.00     0.003 C 
ATOM      6  C   UNL     1      -9.572 -20.474  14.483  1.00  0.00     0.004 C 
ENDBRANCH   1   5
TORSDOF 2
ENDMDL
MODEL 7
REMARK VINA RESULT:    -2.040      2.383      3.264
REMARK INTER + INTRA:          -2.321
REMARK INTER:                  -2.306
REMARK INTRA:                  -0.015
REMARK UNBOUND:                -0.042
REMARK SMILES CCCC(=O)[O-]
REMARK SMILES IDX 3 1 4 2 5 3 6 4 2 5 1 6
REMARK H PARENT
REMARK Flexibility Score: inf
ROOT
ATOM      1  C   UNL     1       8.484 -21.137  13.524  1.00  0.00     0.052 C 
ENDROOT
BRANCH   1   2
ATOM      2  C   UNL     1       8.641 -20.149  12.408  1.00  0.00     0.041 C 
ATOM      3  O   UNL     1       8.680 -18.915  12.656  1.00  0.00    -0.550 OA
ATOM      4  O   UNL     1       8.777 -20.593  11.099  1.00  0.00    -0.550 OA
ENDBRANCH   1   2
BRANCH   1   5
ATOM      5  C   UNL     1       8.715 -20.488  14.895  1.00  0.00     0.003 C 
ATOM      6  C   UNL     1       8.012 -21.245  16.022  1.00  0.00     0.004 C 
ENDBRANCH   1   5
TORSDOF 2
ENDMDL
MODEL 8
REMARK VINA RESULT:    -1.965      2.199      2.809
REMARK INTER + INTRA:          -2.237
REMARK INTER:                  -2.232
REMARK INTRA:                  -0.005
REMARK UNBOUND:                -0.042
REMARK SMILES CCCC(=O)[O-]
REMARK SMILES IDX 3 1 4 2 5 3 6 4 2 5 1 6
REMARK H PARENT
REMARK Flexibility Score: inf
ROOT
ATOM      1  C   UNL     1       5.630 -22.018  17.275  1.00  0.00     0.052 C 
ENDROOT
BRANCH   1   2
ATOM      2  C   UNL     1       7.124 -22.024  17.155  1.00  0.00     0.041 C 
ATOM      3  O   UNL     1       7.795 -22.966  17.653  1.00  0.00    -0.550 OA
ATOM      4  O   UNL     1       7.771 -21.008  16.465  1.00  0.00    -0.550 OA
ENDBRANCH   1   2
BRANCH   1   5
ATOM      5  C   UNL     1       4.962 -22.724  16.088  1.00  0.00     0.003 C 
ATOM      6  C   UNL     1       3.437 -22.724  16.196  1.00  0.00     0.004 C 
ENDBRANCH   1   5
TORSDOF 2
ENDMDL
MODEL 9
REMARK VINA RESULT:    -1.896      2.443      3.207
REMARK INTER + INTRA:          -2.159
REMARK INTER:                  -2.152
REMARK INTRA:                  -0.007
REMARK UNBOUND:                -0.042
REMARK SMILES CCCC(=O)[O-]
REMARK SMILES IDX 3 1 4 2 5 3 6 4 2 5 1 6
REMARK H PARENT
REMARK Flexibility Score: inf
ROOT
ATOM      1  C   UNL     1       6.747 -22.787  15.670  1.00  0.00     0.052 C 
ENDROOT
BRANCH   1   2
ATOM      2  C   UNL     1       6.841 -22.074  16.985  1.00  0.00     0.041 C 
ATOM      3  O   UNL     1       5.829 -21.982  17.728  1.00  0.00    -0.550 OA
ATOM      4  O   UNL     1       8.053 -21.542  17.404  1.00  0.00    -0.550 OA
ENDBRANCH   1   2
BRANCH   1   5
ATOM      5  C   UNL     1       7.637 -22.135  14.605  1.00  0.00     0.003 C 
ATOM      6  C   UNL     1       7.005 -22.176  13.214  1.00  0.00     0.004 C 
ENDBRANCH   1   5
TORSDOF 2
ENDMDL
