MODEL 1
REMARK VINA RESULT:    -3.783      0.000      0.000
REMARK INTER + INTRA:          -5.733
REMARK INTER:                  -5.109
REMARK INTRA:                  -0.624
REMARK UNBOUND:                -0.624
REMARK SMILES CCCCCCC=CC(=O)[O-]
REMARK SMILES IDX 5 1 6 2 7 3 8 4 9 5 10 6 11 7 4 8 3 9 2 10 1 11
REMARK H PARENT
REMARK Flexibility Score: inf
ROOT
ATOM      1  C   UNL     1      96.186   6.547  25.442  1.00  0.00     0.004 C 
ENDROOT
BRANCH   1   2
ATOM      2  C   UNL     1      95.338   5.269  25.426  1.00  0.00     0.027 C 
BRANCH   2   3
ATOM      3  C   UNL     1      96.199   4.045  25.304  1.00  0.00    -0.025 C 
ATOM      4  C   UNL     1      96.008   3.149  24.331  1.00  0.00     0.020 C 
BRANCH   4   5
ATOM      5  C   UNL     1      96.852   1.955  24.192  1.00  0.00     0.064 C 
ATOM      6  O   UNL     1      96.445   0.982  23.505  1.00  0.00    -0.545 OA
ATOM      7  O   UNL     1      98.097   1.881  24.809  1.00  0.00    -0.545 OA
ENDBRANCH   4   5
ENDBRANCH   2   3
ENDBRANCH   1   2
BRANCH   1   8
ATOM      8  C   UNL     1      95.935   7.389  24.182  1.00  0.00     0.000 C 
BRANCH   8   9
ATOM      9  C   UNL     1      94.996   6.696  23.183  1.00  0.00    -0.000 C 
BRANCH   9  10
ATOM     10  C   UNL     1      95.625   6.538  21.791  1.00  0.00    -0.003 C 
ATOM     11  C   UNL     1      97.122   6.261  21.893  1.00  0.00     0.004 C 
ENDBRANCH   9  10
ENDBRANCH   8   9
ENDBRANCH   1   8
TORSDOF 6
ENDMDL
MODEL 2
REMARK VINA RESULT:    -3.772     10.757     12.862
REMARK INTER + INTRA:          -5.719
REMARK INTER:                  -5.356
REMARK INTRA:                  -0.363
REMARK UNBOUND:                -0.624
REMARK SMILES CCCCCCC=CC(=O)[O-]
REMARK SMILES IDX 5 1 6 2 7 3 8 4 9 5 10 6 11 7 4 8 3 9 2 10 1 11
REMARK H PARENT
REMARK Flexibility Score: inf
ROOT
ATOM      1  C   UNL     1     104.733  11.443  15.003  1.00  0.00     0.004 C 
ENDROOT
BRANCH   1   2
ATOM      2  C   UNL     1     103.808  11.845  16.158  1.00  0.00     0.027 C 
BRANCH   2   3
ATOM      3  C   UNL     1     102.545  11.032  16.153  1.00  0.00    -0.025 C 
ATOM      4  C   UNL     1     101.791  10.905  17.248  1.00  0.00     0.020 C 
BRANCH   4   5
ATOM      5  C   UNL     1     100.546  10.124  17.253  1.00  0.00     0.064 C 
ATOM      6  O   UNL     1      99.794  10.147  16.244  1.00  0.00    -0.545 OA
ATOM      7  O   UNL     1     100.183   9.360  18.357  1.00  0.00    -0.545 OA
ENDBRANCH   4   5
ENDBRANCH   2   3
ENDBRANCH   1   2
BRANCH   1   8
ATOM      8  C   UNL     1     106.195  11.371  15.469  1.00  0.00     0.000 C 
BRANCH   8   9
ATOM      9  C   UNL     1     106.350  11.624  16.977  1.00  0.00    -0.000 C 
BRANCH   9  10
ATOM     10  C   UNL     1     107.437  10.748  17.616  1.00  0.00    -0.003 C 
ATOM     11  C   UNL     1     107.881   9.642  16.663  1.00  0.00     0.004 C 
ENDBRANCH   9  10
ENDBRANCH   8   9
ENDBRANCH   1   8
TORSDOF 6
ENDMDL
MODEL 3
REMARK VINA RESULT:    -3.735      2.902      4.755
REMARK INTER + INTRA:          -5.669
REMARK INTER:                  -5.017
REMARK INTRA:                  -0.652
REMARK UNBOUND:                -0.624
REMARK SMILES CCCCCCC=CC(=O)[O-]
REMARK SMILES IDX 5 1 6 2 7 3 8 4 9 5 10 6 11 7 4 8 3 9 2 10 1 11
REMARK H PARENT
REMARK Flexibility Score: inf
ROOT
ATOM      1  C   UNL     1      98.223   1.852  24.841  1.00  0.00     0.004 C 
ENDROOT
BRANCH   1   2
ATOM      2  C   UNL     1      96.896   1.701  24.087  1.00  0.00     0.027 C 
BRANCH   2   3
ATOM      3  C   UNL     1      96.081   2.960  24.162  1.00  0.00    -0.025 C 
ATOM      4  C   UNL     1      96.345   3.911  25.063  1.00  0.00     0.020 C 
BRANCH   4   5
ATOM      5  C   UNL     1      95.565   5.153  25.139  1.00  0.00     0.064 C 
ATOM      6  O   UNL     1      95.144   5.556  26.255  1.00  0.00    -0.545 OA
ATOM      7  O   UNL     1      95.281   5.892  23.996  1.00  0.00    -0.545 OA
ENDBRANCH   4   5
ENDBRANCH   2   3
ENDBRANCH   1   2
BRANCH   1   8
ATOM      8  C   UNL     1      99.398   1.343  23.992  1.00  0.00     0.000 C 
BRANCH   8   9
ATOM      9  C   UNL     1     100.345   2.471  23.554  1.00  0.00    -0.000 C 
BRANCH   9  10
ATOM     10  C   UNL     1      99.877   3.855  24.029  1.00  0.00    -0.003 C 
ATOM     11  C   UNL     1      99.349   4.686  22.864  1.00  0.00     0.004 C 
ENDBRANCH   9  10
ENDBRANCH   8   9
ENDBRANCH   1   8
TORSDOF 6
ENDMDL
MODEL 4
REMARK VINA RESULT:    -3.731      3.028      4.930
REMARK INTER + INTRA:          -5.663
REMARK INTER:                  -4.917
REMARK INTRA:                  -0.746
REMARK UNBOUND:                -0.624
REMARK SMILES CCCCCCC=CC(=O)[O-]
REMARK SMILES IDX 5 1 6 2 7 3 8 4 9 5 10 6 11 7 4 8 3 9 2 10 1 11
REMARK H PARENT
REMARK Flexibility Score: inf
ROOT
ATOM      1  C   UNL     1      99.750   4.061  23.831  1.00  0.00     0.004 C 
ENDROOT
BRANCH   1   2
ATOM      2  C   UNL     1      99.079   5.011  22.831  1.00  0.00     0.027 C 
BRANCH   2   3
ATOM      3  C   UNL     1      97.864   5.661  23.427  1.00  0.00    -0.025 C 
ATOM      4  C   UNL     1      96.661   5.552  22.856  1.00  0.00     0.020 C 
BRANCH   4   5
ATOM      5  C   UNL     1      95.462   6.172  23.437  1.00  0.00     0.064 C 
ATOM      6  O   UNL     1      95.206   6.006  24.658  1.00  0.00    -0.545 OA
ATOM      7  O   UNL     1      94.602   6.939  22.658  1.00  0.00    -0.545 OA
ENDBRANCH   4   5
ENDBRANCH   2   3
ENDBRANCH   1   2
BRANCH   1   8
ATOM      8  C   UNL     1      99.008   2.718  23.896  1.00  0.00     0.000 C 
BRANCH   8   9
ATOM      9  C   UNL     1      98.396   2.444  25.279  1.00  0.00    -0.000 C 
BRANCH   9  10
ATOM     10  C   UNL     1      96.867   2.586  25.287  1.00  0.00    -0.003 C 
ATOM     11  C   UNL     1      96.265   2.117  23.966  1.00  0.00     0.004 C 
ENDBRANCH   9  10
ENDBRANCH   8   9
ENDBRANCH   1   8
TORSDOF 6
ENDMDL
MODEL 5
REMARK VINA RESULT:    -3.680      2.017      3.483
REMARK INTER + INTRA:          -5.595
REMARK INTER:                  -4.831
REMARK INTRA:                  -0.764
REMARK UNBOUND:                -0.624
REMARK SMILES CCCCCCC=CC(=O)[O-]
REMARK SMILES IDX 5 1 6 2 7 3 8 4 9 5 10 6 11 7 4 8 3 9 2 10 1 11
REMARK H PARENT
REMARK Flexibility Score: inf
ROOT
ATOM      1  C   UNL     1      96.568   4.360  23.686  1.00  0.00     0.004 C 
ENDROOT
BRANCH   1   2
ATOM      2  C   UNL     1      96.071   2.954  24.045  1.00  0.00     0.027 C 
BRANCH   2   3
ATOM      3  C   UNL     1      97.117   2.182  24.795  1.00  0.00    -0.025 C 
ATOM      4  C   UNL     1      98.382   2.606  24.867  1.00  0.00     0.020 C 
BRANCH   4   5
ATOM      5  C   UNL     1      99.413   1.867  25.609  1.00  0.00     0.064 C 
ATOM      6  O   UNL     1     100.171   2.484  26.402  1.00  0.00    -0.545 OA
ATOM      7  O   UNL     1      99.565   0.494  25.449  1.00  0.00    -0.545 OA
ENDBRANCH   4   5
ENDBRANCH   2   3
ENDBRANCH   1   2
BRANCH   1   8
ATOM      8  C   UNL     1      95.632   5.436  24.256  1.00  0.00     0.000 C 
BRANCH   8   9
ATOM      9  C   UNL     1      95.652   5.487  25.791  1.00  0.00    -0.000 C 
BRANCH   9  10
ATOM     10  C   UNL     1      97.020   5.900  26.352  1.00  0.00    -0.003 C 
ATOM     11  C   UNL     1      97.412   5.027  27.541  1.00  0.00     0.004 C 
ENDBRANCH   9  10
ENDBRANCH   8   9
ENDBRANCH   1   8
TORSDOF 6
ENDMDL
MODEL 6
REMARK VINA RESULT:    -3.618      1.989      3.247
REMARK INTER + INTRA:          -5.511
REMARK INTER:                  -4.795
REMARK INTRA:                  -0.716
REMARK UNBOUND:                -0.624
REMARK SMILES CCCCCCC=CC(=O)[O-]
REMARK SMILES IDX 5 1 6 2 7 3 8 4 9 5 10 6 11 7 4 8 3 9 2 10 1 11
REMARK H PARENT
REMARK Flexibility Score: inf
ROOT
ATOM      1  C   UNL     1      97.769   6.301  22.779  1.00  0.00     0.004 C 
ENDROOT
BRANCH   1   2
ATOM      2  C   UNL     1      98.874   5.237  22.769  1.00  0.00     0.027 C 
BRANCH   2   3
ATOM      3  C   UNL     1      98.621   4.180  23.804  1.00  0.00    -0.025 C 
ATOM      4  C   UNL     1      98.955   4.361  25.085  1.00  0.00     0.020 C 
BRANCH   4   5
ATOM      5  C   UNL     1      98.700   3.340  26.111  1.00  0.00     0.064 C 
ATOM      6  O   UNL     1      99.028   2.145  25.894  1.00  0.00    -0.545 OA
ATOM      7  O   UNL     1      98.100   3.674  27.321  1.00  0.00    -0.545 OA
ENDBRANCH   4   5
ENDBRANCH   2   3
ENDBRANCH   1   2
BRANCH   1   8
ATOM      8  C   UNL     1      96.378   5.650  22.748  1.00  0.00     0.000 C 
BRANCH   8   9
ATOM      9  C   UNL     1      95.335   6.440  23.554  1.00  0.00    -0.000 C 
BRANCH   9  10
ATOM     10  C   UNL     1      95.717   6.585  25.034  1.00  0.00    -0.003 C 
ATOM     11  C   UNL     1      95.340   5.335  25.823  1.00  0.00     0.004 C 
ENDBRANCH   9  10
ENDBRANCH   8   9
ENDBRANCH   1   8
TORSDOF 6
ENDMDL
MODEL 7
REMARK VINA RESULT:    -3.599      4.497      6.966
REMARK INTER + INTRA:          -5.485
REMARK INTER:                  -4.819
REMARK INTRA:                  -0.666
REMARK UNBOUND:                -0.624
REMARK SMILES CCCCCCC=CC(=O)[O-]
REMARK SMILES IDX 5 1 6 2 7 3 8 4 9 5 10 6 11 7 4 8 3 9 2 10 1 11
REMARK H PARENT
REMARK Flexibility Score: inf
ROOT
ATOM      1  C   UNL     1     101.432  -0.236  23.189  1.00  0.00     0.004 C 
ENDROOT
BRANCH   1   2
ATOM      2  C   UNL     1     100.696  -0.807  24.409  1.00  0.00     0.027 C 
BRANCH   2   3
ATOM      3  C   UNL     1      99.717   0.185  24.967  1.00  0.00    -0.025 C 
ATOM      4  C   UNL     1      98.889   0.872  24.174  1.00  0.00     0.020 C 
BRANCH   4   5
ATOM      5  C   UNL     1      97.916   1.835  24.708  1.00  0.00     0.064 C 
ATOM      6  O   UNL     1      98.242   2.580  25.669  1.00  0.00    -0.545 OA
ATOM      7  O   UNL     1      96.638   1.936  24.170  1.00  0.00    -0.545 OA
ENDBRANCH   4   5
ENDBRANCH   2   3
ENDBRANCH   1   2
BRANCH   1   8
ATOM      8  C   UNL     1     102.854   0.208  23.563  1.00  0.00     0.000 C 
BRANCH   8   9
ATOM      9  C   UNL     1     102.957   1.721  23.810  1.00  0.00    -0.000 C 
BRANCH   9  10
ATOM     10  C   UNL     1     103.308   2.060  25.266  1.00  0.00    -0.003 C 
ATOM     11  C   UNL     1     102.178   2.835  25.936  1.00  0.00     0.004 C 
ENDBRANCH   9  10
ENDBRANCH   8   9
ENDBRANCH   1   8
TORSDOF 6
ENDMDL
MODEL 8
REMARK VINA RESULT:    -3.589      2.895      4.481
REMARK INTER + INTRA:          -5.472
REMARK INTER:                  -4.840
REMARK INTRA:                  -0.632
REMARK UNBOUND:                -0.624
REMARK SMILES CCCCCCC=CC(=O)[O-]
REMARK SMILES IDX 5 1 6 2 7 3 8 4 9 5 10 6 11 7 4 8 3 9 2 10 1 11
REMARK H PARENT
REMARK Flexibility Score: inf
ROOT
ATOM      1  C   UNL     1      96.796   5.399  26.041  1.00  0.00     0.004 C 
ENDROOT
BRANCH   1   2
ATOM      2  C   UNL     1      95.357   5.488  25.519  1.00  0.00     0.027 C 
BRANCH   2   3
ATOM      3  C   UNL     1      95.301   6.194  24.195  1.00  0.00    -0.025 C 
ATOM      4  C   UNL     1      95.906   5.698  23.112  1.00  0.00     0.020 C 
BRANCH   4   5
ATOM      5  C   UNL     1      95.847   6.372  21.807  1.00  0.00     0.064 C 
ATOM      6  O   UNL     1      96.899   6.508  21.130  1.00  0.00    -0.545 OA
ATOM      7  O   UNL     1      94.645   6.863  21.307  1.00  0.00    -0.545 OA
ENDBRANCH   4   5
ENDBRANCH   2   3
ENDBRANCH   1   2
BRANCH   1   8
ATOM      8  C   UNL     1      97.255   3.937  26.145  1.00  0.00     0.000 C 
BRANCH   8   9
ATOM      9  C   UNL     1      98.242   3.545  25.034  1.00  0.00    -0.000 C 
BRANCH   9  10
ATOM     10  C   UNL     1      97.823   2.266  24.294  1.00  0.00    -0.003 C 
ATOM     11  C   UNL     1      96.311   2.221  24.090  1.00  0.00     0.004 C 
ENDBRANCH   9  10
ENDBRANCH   8   9
ENDBRANCH   1   8
TORSDOF 6
ENDMDL
MODEL 9
REMARK VINA RESULT:    -3.552      0.957      1.453
REMARK INTER + INTRA:          -5.422
REMARK INTER:                  -4.905
REMARK INTRA:                  -0.517
REMARK UNBOUND:                -0.624
REMARK SMILES CCCCCCC=CC(=O)[O-]
REMARK SMILES IDX 5 1 6 2 7 3 8 4 9 5 10 6 11 7 4 8 3 9 2 10 1 11
REMARK H PARENT
REMARK Flexibility Score: inf
ROOT
ATOM      1  C   UNL     1      96.381   7.200  24.350  1.00  0.00     0.004 C 
ENDROOT
BRANCH   1   2
ATOM      2  C   UNL     1      95.395   6.285  25.086  1.00  0.00     0.027 C 
BRANCH   2   3
ATOM      3  C   UNL     1      95.947   4.898  25.236  1.00  0.00    -0.025 C 
ATOM      4  C   UNL     1      96.134   4.101  24.180  1.00  0.00     0.020 C 
BRANCH   4   5
ATOM      5  C   UNL     1      96.687   2.746  24.311  1.00  0.00     0.064 C 
ATOM      6  O   UNL     1      97.697   2.555  25.037  1.00  0.00    -0.545 OA
ATOM      7  O   UNL     1      96.112   1.669  23.645  1.00  0.00    -0.545 OA
ENDBRANCH   4   5
ENDBRANCH   2   3
ENDBRANCH   1   2
BRANCH   1   8
ATOM      8  C   UNL     1      95.686   7.951  23.205  1.00  0.00     0.000 C 
BRANCH   8   9
ATOM      9  C   UNL     1      94.620   7.099  22.498  1.00  0.00    -0.000 C 
BRANCH   9  10
ATOM     10  C   UNL     1      94.848   7.003  20.983  1.00  0.00    -0.003 C 
ATOM     11  C   UNL     1      96.337   7.003  20.651  1.00  0.00     0.004 C 
ENDBRANCH   9  10
ENDBRANCH   8   9
ENDBRANCH   1   8
TORSDOF 6
ENDMDL
