MODEL 1
REMARK VINA RESULT:    -6.172      0.000      0.000
REMARK INTER + INTRA:          -6.172
REMARK INTER:                  -6.172
REMARK INTRA:                   0.000
REMARK UNBOUND:                 0.000
REMARK SMILES C=C1CCC[C@]2(C)CC(=O)C(=C(C)C)C[C@H]12
REMARK SMILES IDX 13 1 12 2 11 3 15 4 16 5 2 6 1 7 3 8 4 9 5 10 6 11 8 12 9 13
REMARK SMILES IDX 10 14 7 15 14 16
REMARK H PARENT
REMARK Flexibility Score: inf
ROOT
ATOM      1  C   UNL     1      18.864  -9.713  63.651  1.00  0.00     0.039 C 
ATOM      2  C   UNL     1      18.118 -10.449  64.738  1.00  0.00    -0.070 C 
ATOM      3  C   UNL     1      18.521 -10.395  66.037  1.00  0.00    -0.006 C 
ATOM      4  C   UNL     1      19.731  -9.616  66.497  1.00  0.00     0.047 C 
ATOM      5  C   UNL     1      20.649 -10.464  67.409  1.00  0.00     0.025 C 
ATOM      6  C   UNL     1      21.482 -11.459  66.606  1.00  0.00    -0.073 C 
ATOM      7  C   UNL     1      22.385 -11.020  65.712  1.00  0.00     0.008 C 
ATOM      8  C   UNL     1      21.332 -12.940  66.847  1.00  0.00     0.031 C 
ATOM      9  C   UNL     1      21.308 -13.293  68.348  1.00  0.00     0.005 C 
ATOM     10  C   UNL     1      20.809 -12.165  69.284  1.00  0.00     0.008 C 
ATOM     11  C   UNL     1      19.871 -11.133  68.601  1.00  0.00    -0.018 C 
ATOM     12  C   UNL     1      18.545 -11.837  68.164  1.00  0.00     0.088 C 
ATOM     13  C   UNL     1      17.785 -11.074  67.124  1.00  0.00     0.159 C 
ATOM     14  O   UNL     1      16.525 -11.042  67.174  1.00  0.00    -0.295 OA
ATOM     15  C   UNL     1      19.517 -10.050  69.652  1.00  0.00     0.012 C 
ATOM     16  C   UNL     1      16.933 -11.290  64.322  1.00  0.00     0.039 C 
ENDROOT
TORSDOF 0
ENDMDL
MODEL 2
REMARK VINA RESULT:    -6.137      2.004      3.553
REMARK INTER + INTRA:          -6.137
REMARK INTER:                  -6.137
REMARK INTRA:                   0.000
REMARK UNBOUND:                 0.000
REMARK SMILES C=C1CCC[C@]2(C)CC(=O)C(=C(C)C)C[C@H]12
REMARK SMILES IDX 13 1 12 2 11 3 15 4 16 5 2 6 1 7 3 8 4 9 5 10 6 11 8 12 9 13
REMARK SMILES IDX 10 14 7 15 14 16
REMARK H PARENT
REMARK Flexibility Score: inf
ROOT
ATOM      1  C   UNL     1      18.608  -9.859  63.340  1.00  0.00     0.039 C 
ATOM      2  C   UNL     1      19.925 -10.141  64.023  1.00  0.00    -0.070 C 
ATOM      3  C   UNL     1      20.016 -11.030  65.050  1.00  0.00    -0.006 C 
ATOM      4  C   UNL     1      18.831 -11.794  65.592  1.00  0.00     0.047 C 
ATOM      5  C   UNL     1      18.754 -11.717  67.135  1.00  0.00     0.025 C 
ATOM      6  C   UNL     1      18.218 -10.371  67.609  1.00  0.00    -0.073 C 
ATOM      7  C   UNL     1      16.967  -9.991  67.296  1.00  0.00     0.008 C 
ATOM      8  C   UNL     1      19.072  -9.477  68.474  1.00  0.00     0.031 C 
ATOM      9  C   UNL     1      19.765 -10.251  69.614  1.00  0.00     0.005 C 
ATOM     10  C   UNL     1      20.012 -11.754  69.337  1.00  0.00     0.008 C 
ATOM     11  C   UNL     1      20.106 -12.122  67.831  1.00  0.00    -0.018 C 
ATOM     12  C   UNL     1      21.362 -11.439  67.200  1.00  0.00     0.088 C 
ATOM     13  C   UNL     1      21.301 -11.352  65.707  1.00  0.00     0.159 C 
ATOM     14  O   UNL     1      22.350 -11.527  65.030  1.00  0.00    -0.295 OA
ATOM     15  C   UNL     1      20.291 -13.658  67.732  1.00  0.00     0.012 C 
ATOM     16  C   UNL     1      21.132  -9.360  63.555  1.00  0.00     0.039 C 
ENDROOT
TORSDOF 0
ENDMDL
MODEL 3
REMARK VINA RESULT:    -6.009      2.244      4.152
REMARK INTER + INTRA:          -6.009
REMARK INTER:                  -6.009
REMARK INTRA:                   0.000
REMARK UNBOUND:                 0.000
REMARK SMILES C=C1CCC[C@]2(C)CC(=O)C(=C(C)C)C[C@H]12
REMARK SMILES IDX 13 1 12 2 11 3 15 4 16 5 2 6 1 7 3 8 4 9 5 10 6 11 8 12 9 13
REMARK SMILES IDX 10 14 7 15 14 16
REMARK H PARENT
REMARK Flexibility Score: inf
ROOT
ATOM      1  C   UNL     1      14.988 -14.111  63.620  1.00  0.00     0.039 C 
ATOM      2  C   UNL     1      14.897 -12.651  63.994  1.00  0.00    -0.070 C 
ATOM      3  C   UNL     1      16.004 -11.861  64.042  1.00  0.00    -0.006 C 
ATOM      4  C   UNL     1      17.396 -12.365  63.737  1.00  0.00     0.047 C 
ATOM      5  C   UNL     1      18.411 -11.944  64.826  1.00  0.00     0.025 C 
ATOM      6  C   UNL     1      18.279 -12.796  66.083  1.00  0.00    -0.073 C 
ATOM      7  C   UNL     1      18.526 -14.117  66.036  1.00  0.00     0.008 C 
ATOM      8  C   UNL     1      17.920 -12.153  67.400  1.00  0.00     0.031 C 
ATOM      9  C   UNL     1      18.723 -10.864  67.663  1.00  0.00     0.005 C 
ATOM     10  C   UNL     1      19.221 -10.125  66.397  1.00  0.00     0.008 C 
ATOM     11  C   UNL     1      18.378 -10.399  65.122  1.00  0.00    -0.018 C 
ATOM     12  C   UNL     1      16.935  -9.831  65.314  1.00  0.00     0.088 C 
ATOM     13  C   UNL     1      15.936 -10.420  64.366  1.00  0.00     0.159 C 
ATOM     14  O   UNL     1      15.034  -9.687  63.879  1.00  0.00    -0.295 OA
ATOM     15  C   UNL     1      19.043  -9.640  63.946  1.00  0.00     0.012 C 
ATOM     16  C   UNL     1      13.535 -12.111  64.363  1.00  0.00     0.039 C 
ENDROOT
TORSDOF 0
ENDMDL
MODEL 4
REMARK VINA RESULT:    -5.910      2.361      4.063
REMARK INTER + INTRA:          -5.910
REMARK INTER:                  -5.910
REMARK INTRA:                   0.000
REMARK UNBOUND:                 0.000
REMARK SMILES C=C1CCC[C@]2(C)CC(=O)C(=C(C)C)C[C@H]12
REMARK SMILES IDX 13 1 12 2 11 3 15 4 16 5 2 6 1 7 3 8 4 9 5 10 6 11 8 12 9 13
REMARK SMILES IDX 10 14 7 15 14 16
REMARK H PARENT
REMARK Flexibility Score: inf
ROOT
ATOM      1  C   UNL     1      14.933 -12.619  64.464  1.00  0.00     0.039 C 
ATOM      2  C   UNL     1      15.541 -11.297  64.060  1.00  0.00    -0.070 C 
ATOM      3  C   UNL     1      16.881 -11.075  64.152  1.00  0.00    -0.006 C 
ATOM      4  C   UNL     1      17.859 -12.107  64.661  1.00  0.00     0.047 C 
ATOM      5  C   UNL     1      18.815 -11.518  65.726  1.00  0.00     0.025 C 
ATOM      6  C   UNL     1      18.131 -11.366  67.080  1.00  0.00    -0.073 C 
ATOM      7  C   UNL     1      17.688 -12.450  67.741  1.00  0.00     0.008 C 
ATOM      8  C   UNL     1      17.991 -10.002  67.709  1.00  0.00     0.031 C 
ATOM      9  C   UNL     1      19.294  -9.182  67.630  1.00  0.00     0.005 C 
ATOM     10  C   UNL     1      20.237  -9.550  66.459  1.00  0.00     0.008 C 
ATOM     11  C   UNL     1      19.524 -10.200  65.242  1.00  0.00    -0.018 C 
ATOM     12  C   UNL     1      18.546  -9.168  64.593  1.00  0.00     0.088 C 
ATOM     13  C   UNL     1      17.505  -9.804  63.726  1.00  0.00     0.159 C 
ATOM     14  O   UNL     1      17.153  -9.235  62.657  1.00  0.00    -0.295 OA
ATOM     15  C   UNL     1      20.610 -10.558  64.196  1.00  0.00     0.012 C 
ATOM     16  C   UNL     1      14.599 -10.210  63.597  1.00  0.00     0.039 C 
ENDROOT
TORSDOF 0
ENDMDL
MODEL 5
REMARK VINA RESULT:    -5.890     13.453     15.252
REMARK INTER + INTRA:          -5.890
REMARK INTER:                  -5.890
REMARK INTRA:                   0.000
REMARK UNBOUND:                 0.000
REMARK SMILES C=C1CCC[C@]2(C)CC(=O)C(=C(C)C)C[C@H]12
REMARK SMILES IDX 13 1 12 2 11 3 15 4 16 5 2 6 1 7 3 8 4 9 5 10 6 11 8 12 9 13
REMARK SMILES IDX 10 14 7 15 14 16
REMARK H PARENT
REMARK Flexibility Score: inf
ROOT
ATOM      1  C   UNL     1      11.342  -9.829  55.340  1.00  0.00     0.039 C 
ATOM      2  C   UNL     1       9.983 -10.359  55.731  1.00  0.00    -0.070 C 
ATOM      3  C   UNL     1       8.945  -9.520  56.001  1.00  0.00    -0.006 C 
ATOM      4  C   UNL     1       9.059  -8.015  55.940  1.00  0.00     0.047 C 
ATOM      5  C   UNL     1       8.477  -7.342  57.206  1.00  0.00     0.025 C 
ATOM      6  C   UNL     1       9.425  -7.456  58.394  1.00  0.00    -0.073 C 
ATOM      7  C   UNL     1      10.635  -6.870  58.356  1.00  0.00     0.008 C 
ATOM      8  C   UNL     1       8.992  -8.187  59.641  1.00  0.00     0.031 C 
ATOM      9  C   UNL     1       7.565  -7.804  60.081  1.00  0.00     0.005 C 
ATOM     10  C   UNL     1       6.634  -7.311  58.948  1.00  0.00     0.008 C 
ATOM     11  C   UNL     1       7.017  -7.826  57.534  1.00  0.00    -0.018 C 
ATOM     12  C   UNL     1       6.846  -9.379  57.476  1.00  0.00     0.088 C 
ATOM     13  C   UNL     1       7.596 -10.015  56.348  1.00  0.00     0.159 C 
ATOM     14  O   UNL     1       7.079 -10.982  55.725  1.00  0.00    -0.295 OA
ATOM     15  C   UNL     1       6.030  -7.195  56.519  1.00  0.00     0.012 C 
ATOM     16  C   UNL     1       9.831 -11.857  55.862  1.00  0.00     0.039 C 
ENDROOT
TORSDOF 0
ENDMDL
MODEL 6
REMARK VINA RESULT:    -5.840      3.285      7.060
REMARK INTER + INTRA:          -5.840
REMARK INTER:                  -5.840
REMARK INTRA:                   0.000
REMARK UNBOUND:                 0.000
REMARK SMILES C=C1CCC[C@]2(C)CC(=O)C(=C(C)C)C[C@H]12
REMARK SMILES IDX 13 1 12 2 11 3 15 4 16 5 2 6 1 7 3 8 4 9 5 10 6 11 8 12 9 13
REMARK SMILES IDX 10 14 7 15 14 16
REMARK H PARENT
REMARK Flexibility Score: inf
ROOT
ATOM      1  C   UNL     1      18.723  -9.637  64.413  1.00  0.00     0.039 C 
ATOM      2  C   UNL     1      17.442 -10.139  65.035  1.00  0.00    -0.070 C 
ATOM      3  C   UNL     1      16.435 -10.649  64.273  1.00  0.00    -0.006 C 
ATOM      4  C   UNL     1      16.505 -10.748  62.767  1.00  0.00     0.047 C 
ATOM      5  C   UNL     1      15.231 -10.185  62.093  1.00  0.00     0.025 C 
ATOM      6  C   UNL     1      15.223  -8.660  62.083  1.00  0.00    -0.073 C 
ATOM      7  C   UNL     1      16.163  -7.982  61.402  1.00  0.00     0.008 C 
ATOM      8  C   UNL     1      14.129  -7.904  62.796  1.00  0.00     0.031 C 
ATOM      9  C   UNL     1      12.730  -8.487  62.512  1.00  0.00     0.005 C 
ATOM     10  C   UNL     1      12.703  -9.990  62.141  1.00  0.00     0.008 C 
ATOM     11  C   UNL     1      13.910 -10.805  62.680  1.00  0.00    -0.018 C 
ATOM     12  C   UNL     1      13.872 -10.829  64.243  1.00  0.00     0.088 C 
ATOM     13  C   UNL     1      15.189 -11.183  64.861  1.00  0.00     0.159 C 
ATOM     14  O   UNL     1      15.217 -11.910  65.891  1.00  0.00    -0.295 OA
ATOM     15  C   UNL     1      13.759 -12.262  62.172  1.00  0.00     0.012 C 
ATOM     16  C   UNL     1      17.298 -10.010  66.534  1.00  0.00     0.039 C 
ENDROOT
TORSDOF 0
ENDMDL
MODEL 7
REMARK VINA RESULT:    -5.792      2.581      6.168
REMARK INTER + INTRA:          -5.792
REMARK INTER:                  -5.792
REMARK INTRA:                   0.000
REMARK UNBOUND:                 0.000
REMARK SMILES C=C1CCC[C@]2(C)CC(=O)C(=C(C)C)C[C@H]12
REMARK SMILES IDX 13 1 12 2 11 3 15 4 16 5 2 6 1 7 3 8 4 9 5 10 6 11 8 12 9 13
REMARK SMILES IDX 10 14 7 15 14 16
REMARK H PARENT
REMARK Flexibility Score: inf
ROOT
ATOM      1  C   UNL     1      17.678 -12.198  67.661  1.00  0.00     0.039 C 
ATOM      2  C   UNL     1      18.264 -11.984  66.286  1.00  0.00    -0.070 C 
ATOM      3  C   UNL     1      17.658 -11.174  65.375  1.00  0.00    -0.006 C 
ATOM      4  C   UNL     1      16.368 -10.438  65.649  1.00  0.00     0.047 C 
ATOM      5  C   UNL     1      15.343 -10.627  64.506  1.00  0.00     0.025 C 
ATOM      6  C   UNL     1      14.678 -11.998  64.563  1.00  0.00    -0.073 C 
ATOM      7  C   UNL     1      13.915 -12.339  65.617  1.00  0.00     0.008 C 
ATOM      8  C   UNL     1      14.832 -12.963  63.414  1.00  0.00     0.031 C 
ATOM      9  C   UNL     1      14.628 -12.284  62.045  1.00  0.00     0.005 C 
ATOM     10  C   UNL     1      14.939 -10.769  62.006  1.00  0.00     0.008 C 
ATOM     11  C   UNL     1      15.942 -10.292  63.091  1.00  0.00    -0.018 C 
ATOM     12  C   UNL     1      17.340 -10.942  62.835  1.00  0.00     0.088 C 
ATOM     13  C   UNL     1      18.233 -10.918  64.037  1.00  0.00     0.159 C 
ATOM     14  O   UNL     1      19.467 -10.706  63.891  1.00  0.00    -0.295 OA
ATOM     15  C   UNL     1      16.092  -8.755  62.952  1.00  0.00     0.012 C 
ATOM     16  C   UNL     1      19.524 -12.743  65.941  1.00  0.00     0.039 C 
ENDROOT
TORSDOF 0
ENDMDL
MODEL 8
REMARK VINA RESULT:    -5.788     16.848     18.968
REMARK INTER + INTRA:          -5.788
REMARK INTER:                  -5.788
REMARK INTRA:                   0.000
REMARK UNBOUND:                 0.000
REMARK SMILES C=C1CCC[C@]2(C)CC(=O)C(=C(C)C)C[C@H]12
REMARK SMILES IDX 13 1 12 2 11 3 15 4 16 5 2 6 1 7 3 8 4 9 5 10 6 11 8 12 9 13
REMARK SMILES IDX 10 14 7 15 14 16
REMARK H PARENT
REMARK Flexibility Score: inf
ROOT
ATOM      1  C   UNL     1       5.125  -0.116  65.950  1.00  0.00     0.039 C 
ATOM      2  C   UNL     1       5.293   1.358  65.671  1.00  0.00    -0.070 C 
ATOM      3  C   UNL     1       5.559   1.817  64.417  1.00  0.00    -0.006 C 
ATOM      4  C   UNL     1       5.713   0.911  63.218  1.00  0.00     0.047 C 
ATOM      5  C   UNL     1       6.987   1.243  62.406  1.00  0.00     0.025 C 
ATOM      6  C   UNL     1       8.246   0.711  63.084  1.00  0.00    -0.073 C 
ATOM      7  C   UNL     1       8.417  -0.612  63.253  1.00  0.00     0.008 C 
ATOM      8  C   UNL     1       9.329   1.664  63.525  1.00  0.00     0.031 C 
ATOM      9  C   UNL     1       9.659   2.717  62.448  1.00  0.00     0.005 C 
ATOM     10  C   UNL     1       8.508   3.042  61.466  1.00  0.00     0.008 C 
ATOM     11  C   UNL     1       7.088   2.767  62.030  1.00  0.00    -0.018 C 
ATOM     12  C   UNL     1       6.804   3.726  63.231  1.00  0.00     0.088 C 
ATOM     13  C   UNL     1       5.688   3.258  64.112  1.00  0.00     0.159 C 
ATOM     14  O   UNL     1       4.889   4.100  64.604  1.00  0.00    -0.295 OA
ATOM     15  C   UNL     1       6.066   3.084  60.908  1.00  0.00     0.012 C 
ATOM     16  C   UNL     1       5.204   2.303  66.847  1.00  0.00     0.039 C 
ENDROOT
TORSDOF 0
ENDMDL
MODEL 9
REMARK VINA RESULT:    -5.674     15.981     18.008
REMARK INTER + INTRA:          -5.674
REMARK INTER:                  -5.674
REMARK INTRA:                   0.000
REMARK UNBOUND:                 0.000
REMARK SMILES C=C1CCC[C@]2(C)CC(=O)C(=C(C)C)C[C@H]12
REMARK SMILES IDX 13 1 12 2 11 3 15 4 16 5 2 6 1 7 3 8 4 9 5 10 6 11 8 12 9 13
REMARK SMILES IDX 10 14 7 15 14 16
REMARK H PARENT
REMARK Flexibility Score: inf
ROOT
ATOM      1  C   UNL     1      10.409   2.662  61.237  1.00  0.00     0.039 C 
ATOM      2  C   UNL     1       9.016   3.126  61.589  1.00  0.00    -0.070 C 
ATOM      3  C   UNL     1       8.380   2.677  62.706  1.00  0.00    -0.006 C 
ATOM      4  C   UNL     1       8.995   1.690  63.670  1.00  0.00     0.047 C 
ATOM      5  C   UNL     1       8.027   0.531  64.003  1.00  0.00     0.025 C 
ATOM      6  C   UNL     1       7.949  -0.486  62.870  1.00  0.00    -0.073 C 
ATOM      7  C   UNL     1       9.038  -1.190  62.515  1.00  0.00     0.008 C 
ATOM      8  C   UNL     1       6.636  -0.745  62.173  1.00  0.00     0.031 C 
ATOM      9  C   UNL     1       5.465  -0.900  63.163  1.00  0.00     0.005 C 
ATOM     10  C   UNL     1       5.646  -0.177  64.520  1.00  0.00     0.008 C 
ATOM     11  C   UNL     1       6.614   1.037  64.475  1.00  0.00    -0.018 C 
ATOM     12  C   UNL     1       6.014   2.154  63.560  1.00  0.00     0.088 C 
ATOM     13  C   UNL     1       7.032   3.146  63.092  1.00  0.00     0.159 C 
ATOM     14  O   UNL     1       6.720   4.365  63.008  1.00  0.00    -0.295 OA
ATOM     15  C   UNL     1       6.728   1.602  65.914  1.00  0.00     0.012 C 
ATOM     16  C   UNL     1       8.333   4.070  60.627  1.00  0.00     0.039 C 
ENDROOT
TORSDOF 0
ENDMDL
