MODEL 1
REMARK VINA RESULT:    -3.913      0.000      0.000
REMARK INTER + INTRA:          -3.913
REMARK INTER:                  -3.913
REMARK INTRA:                   0.000
REMARK UNBOUND:                 0.000
REMARK SMILES CC1=CC[C@@H]2[C@H](C1)C2(C)C
REMARK SMILES IDX 1 1 2 2 3 3 4 4 5 5 6 6 7 7 8 8 9 9 10 10
REMARK H PARENT
REMARK Flexibility Score: inf
ROOT
ATOM      1  C   UNL     1      13.750  64.931  15.744  1.00  0.00     0.039 C 
ATOM      2  C   UNL     1      15.250  64.969  15.859  1.00  0.00    -0.077 C 
ATOM      3  C   UNL     1      15.820  64.972  17.076  1.00  0.00    -0.028 C 
ATOM      4  C   UNL     1      17.312  65.003  17.247  1.00  0.00     0.031 C 
ATOM      5  C   UNL     1      17.993  65.902  16.194  1.00  0.00     0.003 C 
ATOM      6  C   UNL     1      17.349  65.901  14.789  1.00  0.00     0.003 C 
ATOM      7  C   UNL     1      16.107  64.998  14.615  1.00  0.00     0.034 C 
ATOM      8  C   UNL     1      18.740  65.281  15.002  1.00  0.00    -0.029 C 
ATOM      9  C   UNL     1      19.903  66.124  14.468  1.00  0.00     0.012 C 
ATOM     10  C   UNL     1      18.933  63.754  14.916  1.00  0.00     0.012 C 
ENDROOT
TORSDOF 0
ENDMDL
MODEL 2
REMARK VINA RESULT:    -3.797      3.705      5.356
REMARK INTER + INTRA:          -3.797
REMARK INTER:                  -3.797
REMARK INTRA:                   0.000
REMARK UNBOUND:                 0.000
REMARK SMILES CC1=CC[C@@H]2[C@H](C1)C2(C)C
REMARK SMILES IDX 1 1 2 2 3 3 4 4 5 5 6 6 7 7 8 8 9 9 10 10
REMARK H PARENT
REMARK Flexibility Score: inf
ROOT
ATOM      1  C   UNL     1      19.480  62.817  13.890  1.00  0.00     0.039 C 
ATOM      2  C   UNL     1      20.357  63.220  15.044  1.00  0.00    -0.077 C 
ATOM      3  C   UNL     1      21.688  63.056  14.951  1.00  0.00    -0.028 C 
ATOM      4  C   UNL     1      22.610  63.446  16.071  1.00  0.00     0.031 C 
ATOM      5  C   UNL     1      21.999  63.134  17.454  1.00  0.00     0.003 C 
ATOM      6  C   UNL     1      20.469  63.325  17.573  1.00  0.00     0.003 C 
ATOM      7  C   UNL     1      19.746  63.806  16.295  1.00  0.00     0.034 C 
ATOM      8  C   UNL     1      21.426  64.263  18.327  1.00  0.00    -0.029 C 
ATOM      9  C   UNL     1      21.513  64.009  19.836  1.00  0.00     0.012 C 
ATOM     10  C   UNL     1      21.577  65.734  17.893  1.00  0.00     0.012 C 
ENDROOT
TORSDOF 0
ENDMDL
MODEL 3
REMARK VINA RESULT:    -3.732      2.488      5.238
REMARK INTER + INTRA:          -3.732
REMARK INTER:                  -3.732
REMARK INTRA:                   0.000
REMARK UNBOUND:                 0.000
REMARK SMILES CC1=CC[C@@H]2[C@H](C1)C2(C)C
REMARK SMILES IDX 1 1 2 2 3 3 4 4 5 5 6 6 7 7 8 8 9 9 10 10
REMARK H PARENT
REMARK Flexibility Score: inf
ROOT
ATOM      1  C   UNL     1      23.299  62.384  13.870  1.00  0.00     0.039 C 
ATOM      2  C   UNL     1      22.149  63.113  14.511  1.00  0.00    -0.077 C 
ATOM      3  C   UNL     1      22.142  63.294  15.843  1.00  0.00    -0.028 C 
ATOM      4  C   UNL     1      21.022  64.019  16.533  1.00  0.00     0.031 C 
ATOM      5  C   UNL     1      19.651  63.695  15.901  1.00  0.00     0.003 C 
ATOM      6  C   UNL     1      19.648  63.491  14.369  1.00  0.00     0.003 C 
ATOM      7  C   UNL     1      21.015  63.639  13.664  1.00  0.00     0.034 C 
ATOM      8  C   UNL     1      18.953  64.715  14.986  1.00  0.00    -0.029 C 
ATOM      9  C   UNL     1      17.422  64.641  15.000  1.00  0.00     0.012 C 
ATOM     10  C   UNL     1      19.547  66.125  14.798  1.00  0.00     0.012 C 
ENDROOT
TORSDOF 0
ENDMDL
MODEL 4
REMARK VINA RESULT:    -3.693      1.716      2.603
REMARK INTER + INTRA:          -3.693
REMARK INTER:                  -3.693
REMARK INTRA:                   0.000
REMARK UNBOUND:                 0.000
REMARK SMILES CC1=CC[C@@H]2[C@H](C1)C2(C)C
REMARK SMILES IDX 1 1 2 2 3 3 4 4 5 5 6 6 7 7 8 8 9 9 10 10
REMARK H PARENT
REMARK Flexibility Score: inf
ROOT
ATOM      1  C   UNL     1      16.717  65.552  17.533  1.00  0.00     0.039 C 
ATOM      2  C   UNL     1      17.889  64.999  16.767  1.00  0.00    -0.077 C 
ATOM      3  C   UNL     1      18.948  64.515  17.438  1.00  0.00    -0.028 C 
ATOM      4  C   UNL     1      20.140  63.946  16.724  1.00  0.00     0.031 C 
ATOM      5  C   UNL     1      20.473  64.736  15.441  1.00  0.00     0.003 C 
ATOM      6  C   UNL     1      19.261  65.291  14.658  1.00  0.00     0.003 C 
ATOM      7  C   UNL     1      17.871  64.983  15.256  1.00  0.00     0.034 C 
ATOM      8  C   UNL     1      20.119  64.165  14.057  1.00  0.00    -0.029 C 
ATOM      9  C   UNL     1      21.053  64.608  12.926  1.00  0.00     0.012 C 
ATOM     10  C   UNL     1      19.551  62.739  13.928  1.00  0.00     0.012 C 
ENDROOT
TORSDOF 0
ENDMDL
MODEL 5
REMARK VINA RESULT:    -3.683      3.674      5.843
REMARK INTER + INTRA:          -3.683
REMARK INTER:                  -3.683
REMARK INTRA:                   0.000
REMARK UNBOUND:                 0.000
REMARK SMILES CC1=CC[C@@H]2[C@H](C1)C2(C)C
REMARK SMILES IDX 1 1 2 2 3 3 4 4 5 5 6 6 7 7 8 8 9 9 10 10
REMARK H PARENT
REMARK Flexibility Score: inf
ROOT
ATOM      1  C   UNL     1      23.996  61.796  16.954  1.00  0.00     0.039 C 
ATOM      2  C   UNL     1      22.770  62.631  17.210  1.00  0.00    -0.077 C 
ATOM      3  C   UNL     1      22.267  62.701  18.454  1.00  0.00    -0.028 C 
ATOM      4  C   UNL     1      21.050  63.524  18.766  1.00  0.00     0.031 C 
ATOM      5  C   UNL     1      20.006  63.460  17.631  1.00  0.00     0.003 C 
ATOM      6  C   UNL     1      20.575  63.385  16.196  1.00  0.00     0.003 C 
ATOM      7  C   UNL     1      22.115  63.387  16.078  1.00  0.00     0.034 C 
ATOM      8  C   UNL     1      19.827  64.644  16.666  1.00  0.00    -0.029 C 
ATOM      9  C   UNL     1      18.413  64.796  16.098  1.00  0.00     0.012 C 
ATOM     10  C   UNL     1      20.593  65.961  16.903  1.00  0.00     0.012 C 
ENDROOT
TORSDOF 0
ENDMDL
MODEL 6
REMARK VINA RESULT:    -3.679      2.629      4.519
REMARK INTER + INTRA:          -3.679
REMARK INTER:                  -3.679
REMARK INTRA:                   0.000
REMARK UNBOUND:                 0.000
REMARK SMILES CC1=CC[C@@H]2[C@H](C1)C2(C)C
REMARK SMILES IDX 1 1 2 2 3 3 4 4 5 5 6 6 7 7 8 8 9 9 10 10
REMARK H PARENT
REMARK Flexibility Score: inf
ROOT
ATOM      1  C   UNL     1      18.566  65.135  17.149  1.00  0.00     0.039 C 
ATOM      2  C   UNL     1      19.375  64.562  16.018  1.00  0.00    -0.077 C 
ATOM      3  C   UNL     1      18.743  64.036  14.954  1.00  0.00    -0.028 C 
ATOM      4  C   UNL     1      19.501  63.455  13.795  1.00  0.00     0.031 C 
ATOM      5  C   UNL     1      20.765  62.699  14.255  1.00  0.00     0.003 C 
ATOM      6  C   UNL     1      21.503  63.300  15.474  1.00  0.00     0.003 C 
ATOM      7  C   UNL     1      20.884  64.581  16.075  1.00  0.00     0.034 C 
ATOM      8  C   UNL     1      22.158  63.329  14.083  1.00  0.00    -0.029 C 
ATOM      9  C   UNL     1      23.295  62.320  13.892  1.00  0.00     0.012 C 
ATOM     10  C   UNL     1      22.320  64.662  13.327  1.00  0.00     0.012 C 
ENDROOT
TORSDOF 0
ENDMDL
MODEL 7
REMARK VINA RESULT:    -3.620      4.557      6.772
REMARK INTER + INTRA:          -3.620
REMARK INTER:                  -3.620
REMARK INTRA:                   0.000
REMARK UNBOUND:                 0.000
REMARK SMILES CC1=CC[C@@H]2[C@H](C1)C2(C)C
REMARK SMILES IDX 1 1 2 2 3 3 4 4 5 5 6 6 7 7 8 8 9 9 10 10
REMARK H PARENT
REMARK Flexibility Score: inf
ROOT
ATOM      1  C   UNL     1      24.389  62.117  17.527  1.00  0.00     0.039 C 
ATOM      2  C   UNL     1      23.614  62.416  16.272  1.00  0.00    -0.077 C 
ATOM      3  C   UNL     1      24.057  61.943  15.094  1.00  0.00    -0.028 C 
ATOM      4  C   UNL     1      23.319  62.205  13.813  1.00  0.00     0.031 C 
ATOM      5  C   UNL     1      22.723  63.628  13.774  1.00  0.00     0.003 C 
ATOM      6  C   UNL     1      22.205  64.178  15.123  1.00  0.00     0.003 C 
ATOM      7  C   UNL     1      22.347  63.235  16.337  1.00  0.00     0.034 C 
ATOM      8  C   UNL     1      21.216  63.850  13.991  1.00  0.00    -0.029 C 
ATOM      9  C   UNL     1      20.641  65.073  13.271  1.00  0.00     0.012 C 
ATOM     10  C   UNL     1      20.264  62.645  14.116  1.00  0.00     0.012 C 
ENDROOT
TORSDOF 0
ENDMDL
MODEL 8
REMARK VINA RESULT:    -3.574      4.013      5.564
REMARK INTER + INTRA:          -3.574
REMARK INTER:                  -3.574
REMARK INTRA:                   0.000
REMARK UNBOUND:                 0.000
REMARK SMILES CC1=CC[C@@H]2[C@H](C1)C2(C)C
REMARK SMILES IDX 1 1 2 2 3 3 4 4 5 5 6 6 7 7 8 8 9 9 10 10
REMARK H PARENT
REMARK Flexibility Score: inf
ROOT
ATOM      1  C   UNL     1      19.500  62.950  13.875  1.00  0.00     0.039 C 
ATOM      2  C   UNL     1      20.572  63.120  14.917  1.00  0.00    -0.077 C 
ATOM      3  C   UNL     1      20.226  63.461  16.170  1.00  0.00    -0.028 C 
ATOM      4  C   UNL     1      21.255  63.637  17.251  1.00  0.00     0.031 C 
ATOM      5  C   UNL     1      22.543  64.297  16.716  1.00  0.00     0.003 C 
ATOM      6  C   UNL     1      22.953  63.906  15.277  1.00  0.00     0.003 C 
ATOM      7  C   UNL     1      22.023  62.903  14.558  1.00  0.00     0.034 C 
ATOM      8  C   UNL     1      23.808  63.456  16.473  1.00  0.00    -0.029 C 
ATOM      9  C   UNL     1      25.125  64.222  16.640  1.00  0.00     0.012 C 
ATOM     10  C   UNL     1      23.847  61.972  16.888  1.00  0.00     0.012 C 
ENDROOT
TORSDOF 0
ENDMDL
MODEL 9
REMARK VINA RESULT:    -3.570     21.753     23.001
REMARK INTER + INTRA:          -3.570
REMARK INTER:                  -3.570
REMARK INTRA:                   0.000
REMARK UNBOUND:                 0.000
REMARK SMILES CC1=CC[C@@H]2[C@H](C1)C2(C)C
REMARK SMILES IDX 1 1 2 2 3 3 4 4 5 5 6 6 7 7 8 8 9 9 10 10
REMARK H PARENT
REMARK Flexibility Score: inf
ROOT
ATOM      1  C   UNL     1      11.625  50.746   3.080  1.00  0.00     0.039 C 
ATOM      2  C   UNL     1      11.018  49.378   2.920  1.00  0.00    -0.077 C 
ATOM      3  C   UNL     1      11.625  48.474   2.133  1.00  0.00    -0.028 C 
ATOM      4  C   UNL     1      11.065  47.093   1.942  1.00  0.00     0.031 C 
ATOM      5  C   UNL     1       9.523  47.102   1.875  1.00  0.00     0.003 C 
ATOM      6  C   UNL     1       8.816  48.134   2.782  1.00  0.00     0.003 C 
ATOM      7  C   UNL     1       9.739  49.024   3.642  1.00  0.00     0.034 C 
ATOM      8  C   UNL     1       8.687  46.630   3.076  1.00  0.00    -0.029 C 
ATOM      9  C   UNL     1       7.329  46.022   2.709  1.00  0.00     0.012 C 
ATOM     10  C   UNL     1       9.376  46.017   4.311  1.00  0.00     0.012 C 
ENDROOT
TORSDOF 0
ENDMDL
