MODEL 1
REMARK VINA RESULT:     7.959      0.000      0.000
REMARK INTER + INTRA:          11.196
REMARK INTER:                  11.448
REMARK INTRA:                  -0.252
REMARK UNBOUND:                -0.252
REMARK SMILES O=C(CO)[C@@H](O)[C@@H](O)[C@H](O)CO
REMARK SMILES IDX 7 1 9 2 11 3 12 4 10 6 5 8 2 9 1 10 3 11 4 12 6 14 8 16
REMARK H PARENT 12 5 10 7 4 13 6 15 8 17
REMARK Flexibility Score: inf
ROOT
ATOM      1  C   UNL     1      29.723  -7.512  61.753  1.00  0.00     0.181 C 
ENDROOT
BRANCH   1   2
ATOM      2  C   UNL     1      31.270  -7.678  61.779  1.00  0.00     0.171 C 
BRANCH   2   3
ATOM      3  C   UNL     1      31.980  -6.984  60.598  1.00  0.00     0.190 C 
BRANCH   3   4
ATOM      4  O   UNL     1      33.237  -7.563  60.369  1.00  0.00    -0.394 OA
ATOM      5  H   UNL     1      33.742  -7.493  61.221  1.00  0.00     0.210 HD
ENDBRANCH   3   4
ENDBRANCH   2   3
BRANCH   2   6
ATOM      6  O   UNL     1      31.785  -7.195  62.995  1.00  0.00    -0.388 OA
ATOM      7  H   UNL     1      31.048  -6.720  63.462  1.00  0.00     0.211 HD
ENDBRANCH   2   6
ENDBRANCH   1   2
BRANCH   1   8
ATOM      8  C   UNL     1      29.112  -7.618  60.324  1.00  0.00     0.214 C 
BRANCH   8   9
ATOM      9  C   UNL     1      28.042  -8.689  60.237  1.00  0.00     0.189 C 
ATOM     10  O   UNL     1      28.352  -9.815  59.875  1.00  0.00    -0.294 OA
BRANCH   9  11
ATOM     11  C   UNL     1      26.599  -8.404  60.566  1.00  0.00     0.234 C 
BRANCH  11  12
ATOM     12  O   UNL     1      25.763  -9.293  59.877  1.00  0.00    -0.388 OA
ATOM     13  H   UNL     1      26.343  -9.805  59.256  1.00  0.00     0.211 HD
ENDBRANCH  11  12
ENDBRANCH   9  11
ENDBRANCH   8   9
BRANCH   8  14
ATOM     14  O   UNL     1      28.588  -6.392  59.878  1.00  0.00    -0.382 OA
ATOM     15  H   UNL     1      27.599  -6.448  59.913  1.00  0.00     0.211 HD
ENDBRANCH   8  14
ENDBRANCH   1   8
BRANCH   1  16
ATOM     16  O   UNL     1      29.139  -8.474  62.600  1.00  0.00    -0.387 OA
ATOM     17  H   UNL     1      29.542  -8.362  63.501  1.00  0.00     0.211 HD
ENDBRANCH   1  16
TORSDOF 10
ENDMDL
MODEL 2
REMARK VINA RESULT:     8.754      2.053      5.703
REMARK INTER + INTRA:          12.339
REMARK INTER:                  12.761
REMARK INTRA:                  -0.422
REMARK UNBOUND:                -0.252
REMARK SMILES O=C(CO)[C@@H](O)[C@@H](O)[C@H](O)CO
REMARK SMILES IDX 7 1 9 2 11 3 12 4 10 6 5 8 2 9 1 10 3 11 4 12 6 14 8 16
REMARK H PARENT 12 5 10 7 4 13 6 15 8 17
REMARK Flexibility Score: inf
ROOT
ATOM      1  C   UNL     1      32.358  -7.248  61.777  1.00  0.00     0.181 C 
ENDROOT
BRANCH   1   2
ATOM      2  C   UNL     1      30.811  -7.096  61.855  1.00  0.00     0.171 C 
BRANCH   2   3
ATOM      3  C   UNL     1      30.070  -7.758  60.675  1.00  0.00     0.190 C 
BRANCH   3   4
ATOM      4  O   UNL     1      28.827  -7.142  60.466  1.00  0.00    -0.394 OA
ATOM      5  H   UNL     1      28.903  -6.218  60.822  1.00  0.00     0.210 HD
ENDBRANCH   3   4
ENDBRANCH   2   3
BRANCH   2   6
ATOM      6  O   UNL     1      30.337  -7.622  63.071  1.00  0.00    -0.388 OA
ATOM      7  H   UNL     1      30.091  -6.854  63.652  1.00  0.00     0.211 HD
ENDBRANCH   2   6
ENDBRANCH   1   2
BRANCH   1   8
ATOM      8  C   UNL     1      32.899  -7.333  60.318  1.00  0.00     0.214 C 
BRANCH   8   9
ATOM      9  C   UNL     1      33.915  -6.248  60.021  1.00  0.00     0.189 C 
ATOM     10  O   UNL     1      33.532  -5.096  59.876  1.00  0.00    -0.294 OA
BRANCH   9  11
ATOM     11  C   UNL     1      35.385  -6.548  59.879  1.00  0.00     0.234 C 
BRANCH  11  12
ATOM     12  O   UNL     1      36.139  -5.391  60.118  1.00  0.00    -0.388 OA
ATOM     13  H   UNL     1      35.554  -4.770  60.625  1.00  0.00     0.211 HD
ENDBRANCH  11  12
ENDBRANCH   9  11
ENDBRANCH   8   9
BRANCH   8  14
ATOM     14  O   UNL     1      33.456  -8.591  60.032  1.00  0.00    -0.382 OA
ATOM     15  H   UNL     1      32.807  -9.288  60.309  1.00  0.00     0.211 HD
ENDBRANCH   8  14
ENDBRANCH   1   8
BRANCH   1  16
ATOM     16  O   UNL     1      32.965  -6.174  62.455  1.00  0.00    -0.387 OA
ATOM     17  H   UNL     1      32.325  -5.856  63.145  1.00  0.00     0.211 HD
ENDBRANCH   1  16
TORSDOF 10
ENDMDL
MODEL 3
REMARK VINA RESULT:     9.552     15.785     17.046
REMARK INTER + INTRA:          13.488
REMARK INTER:                  14.126
REMARK INTRA:                  -0.639
REMARK UNBOUND:                -0.252
REMARK SMILES O=C(CO)[C@@H](O)[C@@H](O)[C@H](O)CO
REMARK SMILES IDX 7 1 9 2 11 3 12 4 10 6 5 8 2 9 1 10 3 11 4 12 6 14 8 16
REMARK H PARENT 12 5 10 7 4 13 6 15 8 17
REMARK Flexibility Score: inf
ROOT
ATOM      1  C   UNL     1      29.620  -9.424  77.779  1.00  0.00     0.181 C 
ENDROOT
BRANCH   1   2
ATOM      2  C   UNL     1      30.497  -8.836  78.922  1.00  0.00     0.171 C 
BRANCH   2   3
ATOM      3  C   UNL     1      31.039  -7.425  78.614  1.00  0.00     0.190 C 
BRANCH   3   4
ATOM      4  O   UNL     1      31.627  -6.862  79.757  1.00  0.00    -0.394 OA
ATOM      5  H   UNL     1      31.183  -5.987  79.904  1.00  0.00     0.210 HD
ENDBRANCH   3   4
ENDBRANCH   2   3
BRANCH   2   6
ATOM      6  O   UNL     1      29.766  -8.813  80.124  1.00  0.00    -0.388 OA
ATOM      7  H   UNL     1      29.212  -9.638  80.151  1.00  0.00     0.211 HD
ENDBRANCH   2   6
ENDBRANCH   1   2
BRANCH   1   8
ATOM      8  C   UNL     1      28.308  -8.621  77.529  1.00  0.00     0.214 C 
BRANCH   8   9
ATOM      9  C   UNL     1      27.413  -9.292  76.504  1.00  0.00     0.189 C 
ATOM     10  O   UNL     1      27.829 -10.269  75.897  1.00  0.00    -0.294 OA
BRANCH   9  11
ATOM     11  C   UNL     1      26.031  -8.779  76.194  1.00  0.00     0.234 C 
BRANCH  11  12
ATOM     12  O   UNL     1      25.162  -9.063  77.257  1.00  0.00    -0.388 OA
ATOM     13  H   UNL     1      25.729  -9.206  78.058  1.00  0.00     0.211 HD
ENDBRANCH  11  12
ENDBRANCH   9  11
ENDBRANCH   8   9
BRANCH   8  14
ATOM     14  O   UNL     1      27.585  -8.403  78.714  1.00  0.00    -0.382 OA
ATOM     15  H   UNL     1      27.238  -7.474  78.698  1.00  0.00     0.211 HD
ENDBRANCH   8  14
ENDBRANCH   1   8
BRANCH   1  16
ATOM     16  O   UNL     1      30.380  -9.485  76.595  1.00  0.00    -0.387 OA
ATOM     17  H   UNL     1      29.765  -9.309  75.836  1.00  0.00     0.211 HD
ENDBRANCH   1  16
TORSDOF 10
ENDMDL
MODEL 4
REMARK VINA RESULT:     9.753     15.554     16.807
REMARK INTER + INTRA:          13.777
REMARK INTER:                  14.099
REMARK INTRA:                  -0.322
REMARK UNBOUND:                -0.252
REMARK SMILES O=C(CO)[C@@H](O)[C@@H](O)[C@H](O)CO
REMARK SMILES IDX 7 1 9 2 11 3 12 4 10 6 5 8 2 9 1 10 3 11 4 12 6 14 8 16
REMARK H PARENT 12 5 10 7 4 13 6 15 8 17
REMARK Flexibility Score: inf
ROOT
ATOM      1  C   UNL     1      29.086  -8.684  77.967  1.00  0.00     0.181 C 
ENDROOT
BRANCH   1   2
ATOM      2  C   UNL     1      30.508  -8.813  78.587  1.00  0.00     0.171 C 
BRANCH   2   3
ATOM      3  C   UNL     1      31.221  -7.458  78.771  1.00  0.00     0.190 C 
BRANCH   3   4
ATOM      4  O   UNL     1      31.245  -7.093  80.125  1.00  0.00    -0.394 OA
ATOM      5  H   UNL     1      31.583  -7.880  80.626  1.00  0.00     0.210 HD
ENDBRANCH   3   4
ENDBRANCH   2   3
BRANCH   2   6
ATOM      6  O   UNL     1      30.433  -9.484  79.822  1.00  0.00    -0.388 OA
ATOM      7  H   UNL     1      30.771 -10.407  79.680  1.00  0.00     0.211 HD
ENDBRANCH   2   6
ENDBRANCH   1   2
BRANCH   1   8
ATOM      8  C   UNL     1      28.784  -9.759  76.880  1.00  0.00     0.214 C 
BRANCH   8   9
ATOM      9  C   UNL     1      27.417  -9.568  76.251  1.00  0.00     0.189 C 
ATOM     10  O   UNL     1      26.639  -8.766  76.746  1.00  0.00    -0.294 OA
BRANCH   9  11
ATOM     11  C   UNL     1      26.980 -10.353  75.041  1.00  0.00     0.234 C 
BRANCH  11  12
ATOM     12  O   UNL     1      26.404 -11.568  75.437  1.00  0.00    -0.388 OA
ATOM     13  H   UNL     1      27.154 -12.196  75.605  1.00  0.00     0.211 HD
ENDBRANCH  11  12
ENDBRANCH   9  11
ENDBRANCH   8   9
BRANCH   8  14
ATOM     14  O   UNL     1      29.766  -9.789  75.876  1.00  0.00    -0.382 OA
ATOM     15  H   UNL     1      29.628 -10.608  75.333  1.00  0.00     0.211 HD
ENDBRANCH   8  14
ENDBRANCH   1   8
BRANCH   1  16
ATOM     16  O   UNL     1      28.124  -8.752  78.993  1.00  0.00    -0.387 OA
ATOM     17  H   UNL     1      27.285  -8.350  78.643  1.00  0.00     0.211 HD
ENDBRANCH   1  16
TORSDOF 10
ENDMDL
MODEL 5
REMARK VINA RESULT:     9.784     15.715     17.495
REMARK INTER + INTRA:          13.822
REMARK INTER:                  14.100
REMARK INTRA:                  -0.278
REMARK UNBOUND:                -0.252
REMARK SMILES O=C(CO)[C@@H](O)[C@@H](O)[C@H](O)CO
REMARK SMILES IDX 7 1 9 2 11 3 12 4 10 6 5 8 2 9 1 10 3 11 4 12 6 14 8 16
REMARK H PARENT 12 5 10 7 4 13 6 15 8 17
REMARK Flexibility Score: inf
ROOT
ATOM      1  C   UNL     1      28.234  -9.221  77.765  1.00  0.00     0.181 C 
ENDROOT
BRANCH   1   2
ATOM      2  C   UNL     1      27.589  -9.122  76.352  1.00  0.00     0.171 C 
BRANCH   2   3
ATOM      3  C   UNL     1      27.649 -10.443  75.557  1.00  0.00     0.190 C 
BRANCH   3   4
ATOM      4  O   UNL     1      26.386 -11.053  75.520  1.00  0.00    -0.394 OA
ATOM      5  H   UNL     1      25.803 -10.469  74.969  1.00  0.00     0.210 HD
ENDBRANCH   3   4
ENDBRANCH   2   3
BRANCH   2   6
ATOM      6  O   UNL     1      26.254  -8.693  76.463  1.00  0.00    -0.388 OA
ATOM      7  H   UNL     1      25.994  -8.300  75.588  1.00  0.00     0.211 HD
ENDBRANCH   2   6
ENDBRANCH   1   2
BRANCH   1   8
ATOM      8  C   UNL     1      29.728  -8.778  77.797  1.00  0.00     0.214 C 
BRANCH   8   9
ATOM      9  C   UNL     1      30.301  -8.802  79.200  1.00  0.00     0.189 C 
ATOM     10  O   UNL     1      30.119  -9.785  79.903  1.00  0.00    -0.294 OA
BRANCH   9  11
ATOM     11  C   UNL     1      31.075  -7.638  79.765  1.00  0.00     0.234 C 
BRANCH  11  12
ATOM     12  O   UNL     1      31.230  -6.643  78.790  1.00  0.00    -0.388 OA
ATOM     13  H   UNL     1      30.318  -6.337  78.549  1.00  0.00     0.211 HD
ENDBRANCH  11  12
ENDBRANCH   9  11
ENDBRANCH   8   9
BRANCH   8  14
ATOM     14  O   UNL     1      30.531  -9.557  76.946  1.00  0.00    -0.382 OA
ATOM     15  H   UNL     1      31.301  -9.895  77.472  1.00  0.00     0.211 HD
ENDBRANCH   8  14
ENDBRANCH   1   8
BRANCH   1  16
ATOM     16  O   UNL     1      27.483  -8.451  78.674  1.00  0.00    -0.387 OA
ATOM     17  H   UNL     1      27.713  -8.761  79.589  1.00  0.00     0.211 HD
ENDBRANCH   1  16
TORSDOF 10
ENDMDL
MODEL 6
REMARK VINA RESULT:    10.304      1.187      4.977
REMARK INTER + INTRA:          14.569
REMARK INTER:                  14.940
REMARK INTRA:                  -0.371
REMARK UNBOUND:                -0.252
REMARK SMILES O=C(CO)[C@@H](O)[C@@H](O)[C@H](O)CO
REMARK SMILES IDX 7 1 9 2 11 3 12 4 10 6 5 8 2 9 1 10 3 11 4 12 6 14 8 16
REMARK H PARENT 12 5 10 7 4 13 6 15 8 17
REMARK Flexibility Score: inf
ROOT
ATOM      1  C   UNL     1      29.529  -7.605  61.319  1.00  0.00     0.181 C 
ENDROOT
BRANCH   1   2
ATOM      2  C   UNL     1      28.662  -7.730  60.032  1.00  0.00     0.171 C 
BRANCH   2   3
ATOM      3  C   UNL     1      27.769  -8.988  60.015  1.00  0.00     0.190 C 
BRANCH   3   4
ATOM      4  O   UNL     1      26.419  -8.632  59.875  1.00  0.00    -0.394 OA
ATOM      5  H   UNL     1      26.274  -8.441  58.912  1.00  0.00     0.210 HD
ENDBRANCH   3   4
ENDBRANCH   2   3
BRANCH   2   6
ATOM      6  O   UNL     1      27.867  -6.580  59.875  1.00  0.00    -0.388 OA
ATOM      7  H   UNL     1      26.985  -6.873  59.523  1.00  0.00     0.211 HD
ENDBRANCH   2   6
ENDBRANCH   1   2
BRANCH   1   8
ATOM      8  C   UNL     1      30.918  -8.300  61.199  1.00  0.00     0.214 C 
BRANCH   8   9
ATOM      9  C   UNL     1      32.064  -7.324  61.385  1.00  0.00     0.189 C 
ATOM     10  O   UNL     1      32.327  -6.919  62.509  1.00  0.00    -0.294 OA
BRANCH   9  11
ATOM     11  C   UNL     1      32.878  -6.819  60.222  1.00  0.00     0.234 C 
BRANCH  11  12
ATOM     12  O   UNL     1      33.894  -7.733  59.911  1.00  0.00    -0.388 OA
ATOM     13  H   UNL     1      34.638  -7.556  60.542  1.00  0.00     0.211 HD
ENDBRANCH  11  12
ENDBRANCH   9  11
ENDBRANCH   8   9
BRANCH   8  14
ATOM     14  O   UNL     1      31.057  -9.367  62.103  1.00  0.00    -0.382 OA
ATOM     15  H   UNL     1      30.281  -9.974  61.985  1.00  0.00     0.211 HD
ENDBRANCH   8  14
ENDBRANCH   1   8
BRANCH   1  16
ATOM     16  O   UNL     1      29.696  -6.243  61.635  1.00  0.00    -0.387 OA
ATOM     17  H   UNL     1      29.581  -6.148  62.617  1.00  0.00     0.211 HD
ENDBRANCH   1  16
TORSDOF 10
ENDMDL
MODEL 7
REMARK VINA RESULT:    10.582     15.486     17.272
REMARK INTER + INTRA:          14.969
REMARK INTER:                  15.336
REMARK INTRA:                  -0.367
REMARK UNBOUND:                -0.252
REMARK SMILES O=C(CO)[C@@H](O)[C@@H](O)[C@H](O)CO
REMARK SMILES IDX 7 1 9 2 11 3 12 4 10 6 5 8 2 9 1 10 3 11 4 12 6 14 8 16
REMARK H PARENT 12 5 10 7 4 13 6 15 8 17
REMARK Flexibility Score: inf
ROOT
ATOM      1  C   UNL     1      28.779  -9.090  76.598  1.00  0.00     0.181 C 
ENDROOT
BRANCH   1   2
ATOM      2  C   UNL     1      27.451  -9.454  75.871  1.00  0.00     0.171 C 
BRANCH   2   3
ATOM      3  C   UNL     1      27.078 -10.946  75.988  1.00  0.00     0.190 C 
BRANCH   3   4
ATOM      4  O   UNL     1      26.402 -11.377  74.836  1.00  0.00    -0.394 OA
ATOM      5  H   UNL     1      25.845 -12.152  75.106  1.00  0.00     0.210 HD
ENDBRANCH   3   4
ENDBRANCH   2   3
BRANCH   2   6
ATOM      6  O   UNL     1      26.400  -8.660  76.365  1.00  0.00    -0.388 OA
ATOM      7  H   UNL     1      25.955  -9.173  77.090  1.00  0.00     0.211 HD
ENDBRANCH   2   6
ENDBRANCH   1   2
BRANCH   1   8
ATOM      8  C   UNL     1      28.688  -9.209  78.149  1.00  0.00     0.214 C 
BRANCH   8   9
ATOM      9  C   UNL     1      30.034  -9.003  78.818  1.00  0.00     0.189 C 
ATOM     10  O   UNL     1      30.471  -9.872  79.559  1.00  0.00    -0.294 OA
BRANCH   9  11
ATOM     11  C   UNL     1      30.842  -7.749  78.612  1.00  0.00     0.234 C 
BRANCH  11  12
ATOM     12  O   UNL     1      31.254  -7.232  79.849  1.00  0.00    -0.388 OA
ATOM     13  H   UNL     1      32.246  -7.217  79.835  1.00  0.00     0.211 HD
ENDBRANCH  11  12
ENDBRANCH   9  11
ENDBRANCH   8   9
BRANCH   8  14
ATOM     14  O   UNL     1      27.749  -8.319  78.696  1.00  0.00    -0.382 OA
ATOM     15  H   UNL     1      26.842  -8.687  78.533  1.00  0.00     0.211 HD
ENDBRANCH   8  14
ENDBRANCH   1   8
BRANCH   1  16
ATOM     16  O   UNL     1      29.814  -9.911  76.111  1.00  0.00    -0.387 OA
ATOM     17  H   UNL     1      30.437  -9.332  75.598  1.00  0.00     0.211 HD
ENDBRANCH   1  16
TORSDOF 10
ENDMDL
