MODEL 1
REMARK VINA RESULT:    -6.696      0.000      0.000
REMARK INTER + INTRA:          -9.053
REMARK INTER:                  -8.458
REMARK INTRA:                  -0.596
REMARK UNBOUND:                -0.596
REMARK SMILES O=C(C=Cc1ccc(O)cc1)c1ccc(O)cc1O
REMARK SMILES IDX 4 1 3 2 5 3 6 4 7 5 8 6 11 7 10 8 9 9 2 11 1 12 12 13 18 14
REMARK SMILES IDX 13 15 17 16 14 17 15 18 19 19 16 21
REMARK H PARENT 9 10 19 20 16 22
REMARK Flexibility Score: inf
ROOT
ATOM      1  C   UNL     1      -7.283  -7.005  66.103  1.00  0.00     0.012 C 
ATOM      2  C   UNL     1      -7.091  -8.331  66.021  1.00  0.00     0.053 C 
ENDROOT
BRANCH   1   3
ATOM      3  C   UNL     1      -7.458  -6.273  67.381  1.00  0.00    -0.025 A 
ATOM      4  C   UNL     1      -7.689  -6.927  68.609  1.00  0.00     0.012 A 
ATOM      5  C   UNL     1      -7.838  -6.187  69.787  1.00  0.00     0.047 A 
ATOM      6  C   UNL     1      -7.749  -4.790  69.759  1.00  0.00     0.115 A 
ATOM      7  C   UNL     1      -7.357  -4.871  67.369  1.00  0.00     0.012 A 
ATOM      8  C   UNL     1      -7.507  -4.136  68.549  1.00  0.00     0.047 A 
BRANCH   6   9
ATOM      9  O   UNL     1      -7.897  -4.045  70.927  1.00  0.00    -0.508 OA
ATOM     10  H   UNL     1      -8.732  -4.113  71.496  1.00  0.00     0.293 HD
ENDBRANCH   6   9
ENDBRANCH   1   3
BRANCH   2  11
ATOM     11  C   UNL     1      -6.915  -9.037  64.734  1.00  0.00     0.189 C 
ATOM     12  O   UNL     1      -6.622 -10.263  64.765  1.00  0.00    -0.289 OA
BRANCH  11  13
ATOM     13  C   UNL     1      -7.096  -8.374  63.419  1.00  0.00     0.064 A 
ATOM     14  C   UNL     1      -8.380  -8.224  62.859  1.00  0.00     0.130 A 
ATOM     15  C   UNL     1      -5.984  -7.847  62.737  1.00  0.00     0.020 A 
ATOM     16  C   UNL     1      -8.535  -7.569  61.628  1.00  0.00     0.093 A 
ATOM     17  C   UNL     1      -6.147  -7.198  61.511  1.00  0.00     0.047 A 
ATOM     18  C   UNL     1      -7.423  -7.059  60.953  1.00  0.00     0.119 A 
BRANCH  14  19
ATOM     19  O   UNL     1      -9.499  -8.736  63.517  1.00  0.00    -0.507 OA
ATOM     20  H   UNL     1      -9.621  -9.732  63.661  1.00  0.00     0.293 HD
ENDBRANCH  14  19
BRANCH  18  21
ATOM     21  O   UNL     1      -7.597  -6.414  59.730  1.00  0.00    -0.508 OA
ATOM     22  H   UNL     1      -8.089  -5.530  59.663  1.00  0.00     0.293 HD
ENDBRANCH  18  21
ENDBRANCH  11  13
ENDBRANCH   2  11
TORSDOF 6
ENDMDL
MODEL 2
REMARK VINA RESULT:    -6.605      1.936      7.048
REMARK INTER + INTRA:          -8.938
REMARK INTER:                  -8.338
REMARK INTRA:                  -0.600
REMARK UNBOUND:                -0.596
REMARK SMILES O=C(C=Cc1ccc(O)cc1)c1ccc(O)cc1O
REMARK SMILES IDX 4 1 3 2 5 3 6 4 7 5 8 6 11 7 10 8 9 9 2 11 1 12 12 13 18 14
REMARK SMILES IDX 13 15 17 16 14 17 15 18 19 19 16 21
REMARK H PARENT 9 10 19 20 16 22
REMARK Flexibility Score: inf
ROOT
ATOM      1  C   UNL     1      -8.466  -7.160  65.359  1.00  0.00     0.012 C 
ATOM      2  C   UNL     1      -8.665  -8.340  65.965  1.00  0.00     0.053 C 
ENDROOT
BRANCH   1   3
ATOM      3  C   UNL     1      -8.271  -7.005  63.897  1.00  0.00    -0.025 A 
ATOM      4  C   UNL     1      -8.037  -8.099  63.038  1.00  0.00     0.012 A 
ATOM      5  C   UNL     1      -7.869  -7.897  61.664  1.00  0.00     0.047 A 
ATOM      6  C   UNL     1      -7.941  -6.606  61.127  1.00  0.00     0.115 A 
ATOM      7  C   UNL     1      -8.355  -5.716  63.343  1.00  0.00     0.012 A 
ATOM      8  C   UNL     1      -8.186  -5.519  61.969  1.00  0.00     0.047 A 
BRANCH   6   9
ATOM      9  O   UNL     1      -7.773  -6.395  59.760  1.00  0.00    -0.508 OA
ATOM     10  H   UNL     1      -6.853  -6.294  59.348  1.00  0.00     0.293 HD
ENDBRANCH   6   9
ENDBRANCH   1   3
BRANCH   2  11
ATOM     11  C   UNL     1      -8.862  -8.468  67.425  1.00  0.00     0.189 C 
ATOM     12  O   UNL     1      -9.205  -9.591  67.882  1.00  0.00    -0.289 OA
BRANCH  11  13
ATOM     13  C   UNL     1      -8.645  -7.344  68.370  1.00  0.00     0.064 A 
ATOM     14  C   UNL     1      -7.354  -7.047  68.851  1.00  0.00     0.130 A 
ATOM     15  C   UNL     1      -9.725  -6.532  68.759  1.00  0.00     0.020 A 
ATOM     16  C   UNL     1      -7.163  -5.963  69.721  1.00  0.00     0.093 A 
ATOM     17  C   UNL     1      -9.527  -5.456  69.628  1.00  0.00     0.047 A 
ATOM     18  C   UNL     1      -8.245  -5.170  70.111  1.00  0.00     0.119 A 
BRANCH  14  19
ATOM     19  O   UNL     1      -6.265  -7.835  68.477  1.00  0.00    -0.507 OA
ATOM     20  H   UNL     1      -5.594  -8.171  69.157  1.00  0.00     0.293 HD
ENDBRANCH  14  19
BRANCH  18  21
ATOM     21  O   UNL     1      -8.036  -4.099  70.977  1.00  0.00    -0.508 OA
ATOM     22  H   UNL     1      -8.784  -3.457  71.216  1.00  0.00     0.293 HD
ENDBRANCH  18  21
ENDBRANCH  11  13
ENDBRANCH   2  11
TORSDOF 6
ENDMDL
MODEL 3
REMARK VINA RESULT:    -6.573      3.486      5.126
REMARK INTER + INTRA:          -8.898
REMARK INTER:                  -8.131
REMARK INTRA:                  -0.768
REMARK UNBOUND:                -0.596
REMARK SMILES O=C(C=Cc1ccc(O)cc1)c1ccc(O)cc1O
REMARK SMILES IDX 4 1 3 2 5 3 6 4 7 5 8 6 11 7 10 8 9 9 2 11 1 12 12 13 18 14
REMARK SMILES IDX 13 15 17 16 14 17 15 18 19 19 16 21
REMARK H PARENT 9 10 19 20 16 22
REMARK Flexibility Score: inf
ROOT
ATOM      1  C   UNL     1      -9.169  -7.669  68.496  1.00  0.00     0.012 C 
ATOM      2  C   UNL     1      -7.886  -7.734  68.108  1.00  0.00     0.053 C 
ENDROOT
BRANCH   1   3
ATOM      3  C   UNL     1      -9.706  -8.355  69.696  1.00  0.00    -0.025 A 
ATOM      4  C   UNL     1     -11.079  -8.631  69.867  1.00  0.00     0.012 A 
ATOM      5  C   UNL     1     -11.530  -9.290  71.016  1.00  0.00     0.047 A 
ATOM      6  C   UNL     1     -10.621  -9.691  72.002  1.00  0.00     0.115 A 
ATOM      7  C   UNL     1      -8.803  -8.776  70.688  1.00  0.00     0.012 A 
ATOM      8  C   UNL     1      -9.259  -9.434  71.834  1.00  0.00     0.047 A 
BRANCH   6   9
ATOM      9  O   UNL     1     -11.063 -10.347  73.150  1.00  0.00    -0.508 OA
ATOM     10  H   UNL     1     -12.036 -10.596  73.276  1.00  0.00     0.293 HD
ENDBRANCH   6   9
ENDBRANCH   1   3
BRANCH   2  11
ATOM     11  C   UNL     1      -7.375  -7.036  66.909  1.00  0.00     0.189 C 
ATOM     12  O   UNL     1      -6.599  -7.666  66.142  1.00  0.00    -0.289 OA
BRANCH  11  13
ATOM     13  C   UNL     1      -7.759  -5.646  66.560  1.00  0.00     0.064 A 
ATOM     14  C   UNL     1      -8.524  -5.378  65.407  1.00  0.00     0.130 A 
ATOM     15  C   UNL     1      -7.399  -4.582  67.406  1.00  0.00     0.020 A 
ATOM     16  C   UNL     1      -8.902  -4.061  65.108  1.00  0.00     0.093 A 
ATOM     17  C   UNL     1      -7.777  -3.272  67.099  1.00  0.00     0.047 A 
ATOM     18  C   UNL     1      -8.529  -3.009  65.949  1.00  0.00     0.119 A 
BRANCH  14  19
ATOM     19  O   UNL     1      -8.896  -6.417  64.553  1.00  0.00    -0.507 OA
ATOM     20  H   UNL     1      -8.336  -6.670  63.748  1.00  0.00     0.293 HD
ENDBRANCH  14  19
BRANCH  18  21
ATOM     21  O   UNL     1      -8.913  -1.707  65.634  1.00  0.00    -0.508 OA
ATOM     22  H   UNL     1      -9.889  -1.436  65.602  1.00  0.00     0.293 HD
ENDBRANCH  18  21
ENDBRANCH  11  13
ENDBRANCH   2  11
TORSDOF 6
ENDMDL
MODEL 4
REMARK VINA RESULT:    -6.411      3.921      5.729
REMARK INTER + INTRA:          -8.693
REMARK INTER:                  -8.075
REMARK INTRA:                  -0.619
REMARK UNBOUND:                -0.596
REMARK SMILES O=C(C=Cc1ccc(O)cc1)c1ccc(O)cc1O
REMARK SMILES IDX 4 1 3 2 5 3 6 4 7 5 8 6 11 7 10 8 9 9 2 11 1 12 12 13 18 14
REMARK SMILES IDX 13 15 17 16 14 17 15 18 19 19 16 21
REMARK H PARENT 9 10 19 20 16 22
REMARK Flexibility Score: inf
ROOT
ATOM      1  C   UNL     1      -8.661  -8.213  69.319  1.00  0.00     0.012 C 
ATOM      2  C   UNL     1      -8.565  -8.227  67.981  1.00  0.00     0.053 C 
ENDROOT
BRANCH   1   3
ATOM      3  C   UNL     1      -9.585  -9.080  70.091  1.00  0.00    -0.025 A 
ATOM      4  C   UNL     1      -9.461  -9.277  71.483  1.00  0.00     0.012 A 
ATOM      5  C   UNL     1     -10.366 -10.098  72.163  1.00  0.00     0.047 A 
ATOM      6  C   UNL     1     -11.409 -10.725  71.471  1.00  0.00     0.115 A 
ATOM      7  C   UNL     1     -10.644  -9.703  69.411  1.00  0.00     0.012 A 
ATOM      8  C   UNL     1     -11.546 -10.524  70.095  1.00  0.00     0.047 A 
BRANCH   6   9
ATOM      9  O   UNL     1     -12.314 -11.546  72.140  1.00  0.00    -0.508 OA
ATOM     10  H   UNL     1     -13.305 -11.521  71.933  1.00  0.00     0.293 HD
ENDBRANCH   6   9
ENDBRANCH   1   3
BRANCH   2  11
ATOM     11  C   UNL     1      -7.633  -7.355  67.236  1.00  0.00     0.189 C 
ATOM     12  O   UNL     1      -6.506  -7.823  66.920  1.00  0.00    -0.289 OA
BRANCH  11  13
ATOM     13  C   UNL     1      -7.978  -5.972  66.822  1.00  0.00     0.064 A 
ATOM     14  C   UNL     1      -7.487  -4.862  67.539  1.00  0.00     0.130 A 
ATOM     15  C   UNL     1      -8.765  -5.755  65.677  1.00  0.00     0.020 A 
ATOM     16  C   UNL     1      -7.801  -3.562  67.116  1.00  0.00     0.093 A 
ATOM     17  C   UNL     1      -9.075  -4.456  65.265  1.00  0.00     0.047 A 
ATOM     18  C   UNL     1      -8.593  -3.357  65.984  1.00  0.00     0.119 A 
BRANCH  14  19
ATOM     19  O   UNL     1      -6.702  -5.051  68.676  1.00  0.00    -0.507 OA
ATOM     20  H   UNL     1      -5.701  -4.894  68.663  1.00  0.00     0.293 HD
ENDBRANCH  14  19
BRANCH  18  21
ATOM     21  O   UNL     1      -8.896  -2.058  65.582  1.00  0.00    -0.508 OA
ATOM     22  H   UNL     1      -9.828  -1.675  65.685  1.00  0.00     0.293 HD
ENDBRANCH  18  21
ENDBRANCH  11  13
ENDBRANCH   2  11
TORSDOF 6
ENDMDL
MODEL 5
REMARK VINA RESULT:    -6.408      1.617      2.819
REMARK INTER + INTRA:          -8.689
REMARK INTER:                  -8.112
REMARK INTRA:                  -0.578
REMARK UNBOUND:                -0.596
REMARK SMILES O=C(C=Cc1ccc(O)cc1)c1ccc(O)cc1O
REMARK SMILES IDX 4 1 3 2 5 3 6 4 7 5 8 6 11 7 10 8 9 9 2 11 1 12 12 13 18 14
REMARK SMILES IDX 13 15 17 16 14 17 15 18 19 19 16 21
REMARK H PARENT 9 10 19 20 16 22
REMARK Flexibility Score: inf
ROOT
ATOM      1  C   UNL     1      -7.244  -6.264  65.064  1.00  0.00     0.012 C 
ATOM      2  C   UNL     1      -8.087  -5.969  64.061  1.00  0.00     0.053 C 
ENDROOT
BRANCH   1   3
ATOM      3  C   UNL     1      -7.327  -5.661  66.417  1.00  0.00    -0.025 A 
ATOM      4  C   UNL     1      -7.121  -4.286  66.652  1.00  0.00     0.012 A 
ATOM      5  C   UNL     1      -7.220  -3.768  67.948  1.00  0.00     0.047 A 
ATOM      6  C   UNL     1      -7.533  -4.609  69.022  1.00  0.00     0.115 A 
ATOM      7  C   UNL     1      -7.655  -6.492  67.501  1.00  0.00     0.012 A 
ATOM      8  C   UNL     1      -7.752  -5.970  68.795  1.00  0.00     0.047 A 
BRANCH   6   9
ATOM      9  O   UNL     1      -7.633  -4.102  70.316  1.00  0.00    -0.508 OA
ATOM     10  H   UNL     1      -8.167  -3.266  70.518  1.00  0.00     0.293 HD
ENDBRANCH   6   9
ENDBRANCH   1   3
BRANCH   2  11
ATOM     11  C   UNL     1      -7.986  -6.588  62.722  1.00  0.00     0.189 C 
ATOM     12  O   UNL     1      -8.371  -5.916  61.728  1.00  0.00    -0.289 OA
BRANCH  11  13
ATOM     13  C   UNL     1      -7.428  -7.945  62.500  1.00  0.00     0.064 A 
ATOM     14  C   UNL     1      -8.224  -9.092  62.694  1.00  0.00     0.130 A 
ATOM     15  C   UNL     1      -6.105  -8.097  62.049  1.00  0.00     0.020 A 
ATOM     16  C   UNL     1      -7.688 -10.365  62.452  1.00  0.00     0.093 A 
ATOM     17  C   UNL     1      -5.578  -9.369  61.813  1.00  0.00     0.047 A 
ATOM     18  C   UNL     1      -6.369 -10.506  62.015  1.00  0.00     0.119 A 
BRANCH  14  19
ATOM     19  O   UNL     1      -9.540  -8.967  63.139  1.00  0.00    -0.507 OA
ATOM     20  H   UNL     1      -9.814  -9.245  64.074  1.00  0.00     0.293 HD
ENDBRANCH  14  19
BRANCH  18  21
ATOM     21  O   UNL     1      -5.853 -11.780  61.782  1.00  0.00    -0.508 OA
ATOM     22  H   UNL     1      -6.156 -12.337  60.992  1.00  0.00     0.293 HD
ENDBRANCH  18  21
ENDBRANCH  11  13
ENDBRANCH   2  11
TORSDOF 6
ENDMDL
MODEL 6
REMARK VINA RESULT:    -6.373      2.496      7.288
REMARK INTER + INTRA:          -8.645
REMARK INTER:                  -8.076
REMARK INTRA:                  -0.569
REMARK UNBOUND:                -0.596
REMARK SMILES O=C(C=Cc1ccc(O)cc1)c1ccc(O)cc1O
REMARK SMILES IDX 4 1 3 2 5 3 6 4 7 5 8 6 11 7 10 8 9 9 2 11 1 12 12 13 18 14
REMARK SMILES IDX 13 15 17 16 14 17 15 18 19 19 16 21
REMARK H PARENT 9 10 19 20 16 22
REMARK Flexibility Score: inf
ROOT
ATOM      1  C   UNL     1      -8.378  -6.156  65.908  1.00  0.00     0.012 C 
ATOM      2  C   UNL     1      -7.514  -5.497  66.696  1.00  0.00     0.053 C 
ENDROOT
BRANCH   1   3
ATOM      3  C   UNL     1      -8.264  -6.224  64.431  1.00  0.00    -0.025 A 
ATOM      4  C   UNL     1      -7.959  -7.418  63.744  1.00  0.00     0.012 A 
ATOM      5  C   UNL     1      -7.873  -7.428  62.348  1.00  0.00     0.047 A 
ATOM      6  C   UNL     1      -8.097  -6.254  61.619  1.00  0.00     0.115 A 
ATOM      7  C   UNL     1      -8.501  -5.056  63.686  1.00  0.00     0.012 A 
ATOM      8  C   UNL     1      -8.413  -5.071  62.291  1.00  0.00     0.047 A 
BRANCH   6   9
ATOM      9  O   UNL     1      -8.012  -6.254  60.228  1.00  0.00    -0.508 OA
ATOM     10  H   UNL     1      -8.782  -5.941  59.650  1.00  0.00     0.293 HD
ENDBRANCH   6   9
ENDBRANCH   1   3
BRANCH   2  11
ATOM     11  C   UNL     1      -7.648  -5.448  68.167  1.00  0.00     0.189 C 
ATOM     12  O   UNL     1      -7.257  -4.410  68.765  1.00  0.00    -0.289 OA
BRANCH  11  13
ATOM     13  C   UNL     1      -8.248  -6.551  68.960  1.00  0.00     0.064 A 
ATOM     14  C   UNL     1      -7.490  -7.691  69.295  1.00  0.00     0.130 A 
ATOM     15  C   UNL     1      -9.571  -6.446  69.424  1.00  0.00     0.020 A 
ATOM     16  C   UNL     1      -8.064  -8.710  70.069  1.00  0.00     0.093 A 
ATOM     17  C   UNL     1     -10.136  -7.467  70.191  1.00  0.00     0.047 A 
ATOM     18  C   UNL     1      -9.384  -8.602  70.515  1.00  0.00     0.119 A 
BRANCH  14  19
ATOM     19  O   UNL     1      -6.174  -7.816  68.849  1.00  0.00    -0.507 OA
ATOM     20  H   UNL     1      -5.783  -7.183  68.162  1.00  0.00     0.293 HD
ENDBRANCH  14  19
BRANCH  18  21
ATOM     21  O   UNL     1      -9.937  -9.626  71.281  1.00  0.00    -0.508 OA
ATOM     22  H   UNL     1      -9.573  -9.857  72.198  1.00  0.00     0.293 HD
ENDBRANCH  18  21
ENDBRANCH  11  13
ENDBRANCH   2  11
TORSDOF 6
ENDMDL
MODEL 7
REMARK VINA RESULT:    -6.362      4.407      7.555
REMARK INTER + INTRA:          -8.632
REMARK INTER:                  -7.997
REMARK INTRA:                  -0.635
REMARK UNBOUND:                -0.596
REMARK SMILES O=C(C=Cc1ccc(O)cc1)c1ccc(O)cc1O
REMARK SMILES IDX 4 1 3 2 5 3 6 4 7 5 8 6 11 7 10 8 9 9 2 11 1 12 12 13 18 14
REMARK SMILES IDX 13 15 17 16 14 17 15 18 19 19 16 21
REMARK H PARENT 9 10 19 20 16 22
REMARK Flexibility Score: inf
ROOT
ATOM      1  C   UNL     1      -8.086  -6.956  68.477  1.00  0.00     0.012 C 
ATOM      2  C   UNL     1      -8.511  -7.038  69.747  1.00  0.00     0.053 C 
ENDROOT
BRANCH   1   3
ATOM      3  C   UNL     1      -8.202  -5.734  67.644  1.00  0.00    -0.025 A 
ATOM      4  C   UNL     1      -9.089  -5.637  66.551  1.00  0.00     0.012 A 
ATOM      5  C   UNL     1      -9.165  -4.457  65.804  1.00  0.00     0.047 A 
ATOM      6  C   UNL     1      -8.369  -3.356  66.141  1.00  0.00     0.115 A 
ATOM      7  C   UNL     1      -7.419  -4.617  67.980  1.00  0.00     0.012 A 
ATOM      8  C   UNL     1      -7.499  -3.439  67.231  1.00  0.00     0.047 A 
BRANCH   6   9
ATOM      9  O   UNL     1      -8.437  -2.177  65.403  1.00  0.00    -0.508 OA
ATOM     10  H   UNL     1      -8.401  -1.269  65.849  1.00  0.00     0.293 HD
ENDBRANCH   6   9
ENDBRANCH   1   3
BRANCH   2  11
ATOM     11  C   UNL     1      -8.380  -8.268  70.558  1.00  0.00     0.189 C 
ATOM     12  O   UNL     1      -7.250  -8.540  71.045  1.00  0.00    -0.289 OA
BRANCH  11  13
ATOM     13  C   UNL     1      -9.522  -9.172  70.843  1.00  0.00     0.064 A 
ATOM     14  C   UNL     1      -9.697  -9.728  72.126  1.00  0.00     0.130 A 
ATOM     15  C   UNL     1     -10.470  -9.446  69.841  1.00  0.00     0.020 A 
ATOM     16  C   UNL     1     -10.798 -10.557  72.385  1.00  0.00     0.093 A 
ATOM     17  C   UNL     1     -11.562 -10.276  70.107  1.00  0.00     0.047 A 
ATOM     18  C   UNL     1     -11.728 -10.833  71.380  1.00  0.00     0.119 A 
BRANCH  14  19
ATOM     19  O   UNL     1      -8.771  -9.468  73.137  1.00  0.00    -0.507 OA
ATOM     20  H   UNL     1      -8.808  -9.951  74.028  1.00  0.00     0.293 HD
ENDBRANCH  14  19
BRANCH  18  21
ATOM     21  O   UNL     1     -12.814 -11.661  71.656  1.00  0.00    -0.508 OA
ATOM     22  H   UNL     1     -13.472 -11.443  72.396  1.00  0.00     0.293 HD
ENDBRANCH  18  21
ENDBRANCH  11  13
ENDBRANCH   2  11
TORSDOF 6
ENDMDL
MODEL 8
REMARK VINA RESULT:    -6.253      3.268      4.880
REMARK INTER + INTRA:          -8.493
REMARK INTER:                  -7.852
REMARK INTRA:                  -0.641
REMARK UNBOUND:                -0.596
REMARK SMILES O=C(C=Cc1ccc(O)cc1)c1ccc(O)cc1O
REMARK SMILES IDX 4 1 3 2 5 3 6 4 7 5 8 6 11 7 10 8 9 9 2 11 1 12 12 13 18 14
REMARK SMILES IDX 13 15 17 16 14 17 15 18 19 19 16 21
REMARK H PARENT 9 10 19 20 16 22
REMARK Flexibility Score: inf
ROOT
ATOM      1  C   UNL     1      -9.343  -6.263  68.926  1.00  0.00     0.012 C 
ATOM      2  C   UNL     1      -8.123  -5.705  68.888  1.00  0.00     0.053 C 
ENDROOT
BRANCH   1   3
ATOM      3  C   UNL     1      -9.798  -7.184  69.996  1.00  0.00    -0.025 A 
ATOM      4  C   UNL     1     -11.058  -7.065  70.620  1.00  0.00     0.012 A 
ATOM      5  C   UNL     1     -11.441  -7.967  71.618  1.00  0.00     0.047 A 
ATOM      6  C   UNL     1     -10.580  -9.003  72.000  1.00  0.00     0.115 A 
ATOM      7  C   UNL     1      -8.950  -8.237  70.379  1.00  0.00     0.012 A 
ATOM      8  C   UNL     1      -9.337  -9.136  71.377  1.00  0.00     0.047 A 
BRANCH   6   9
ATOM      9  O   UNL     1     -10.953  -9.906  72.994  1.00  0.00    -0.508 OA
ATOM     10  H   UNL     1     -10.839  -9.689  73.976  1.00  0.00     0.293 HD
ENDBRANCH   6   9
ENDBRANCH   1   3
BRANCH   2  11
ATOM     11  C   UNL     1      -7.695  -4.786  67.812  1.00  0.00     0.189 C 
ATOM     12  O   UNL     1      -7.018  -3.773  68.131  1.00  0.00    -0.289 OA
BRANCH  11  13
ATOM     13  C   UNL     1      -8.004  -5.023  66.379  1.00  0.00     0.064 A 
ATOM     14  C   UNL     1      -8.450  -3.970  65.555  1.00  0.00     0.130 A 
ATOM     15  C   UNL     1      -7.809  -6.297  65.818  1.00  0.00     0.020 A 
ATOM     16  C   UNL     1      -8.709  -4.206  64.197  1.00  0.00     0.093 A 
ATOM     17  C   UNL     1      -8.072  -6.524  64.465  1.00  0.00     0.047 A 
ATOM     18  C   UNL     1      -8.524  -5.478  63.652  1.00  0.00     0.119 A 
BRANCH  14  19
ATOM     19  O   UNL     1      -8.648  -2.696  66.088  1.00  0.00    -0.507 OA
ATOM     20  H   UNL     1      -7.881  -2.154  66.470  1.00  0.00     0.293 HD
ENDBRANCH  14  19
BRANCH  18  21
ATOM     21  O   UNL     1      -8.789  -5.693  62.301  1.00  0.00    -0.508 OA
ATOM     22  H   UNL     1      -8.559  -6.571  61.850  1.00  0.00     0.293 HD
ENDBRANCH  18  21
ENDBRANCH  11  13
ENDBRANCH   2  11
TORSDOF 6
ENDMDL
MODEL 9
REMARK VINA RESULT:    -5.251      3.333      6.899
REMARK INTER + INTRA:          -7.228
REMARK INTER:                  -6.475
REMARK INTRA:                  -0.753
REMARK UNBOUND:                -0.596
REMARK SMILES O=C(C=Cc1ccc(O)cc1)c1ccc(O)cc1O
REMARK SMILES IDX 4 1 3 2 5 3 6 4 7 5 8 6 11 7 10 8 9 9 2 11 1 12 12 13 18 14
REMARK SMILES IDX 13 15 17 16 14 17 15 18 19 19 16 21
REMARK H PARENT 9 10 19 20 16 22
REMARK Flexibility Score: inf
ROOT
ATOM      1  C   UNL     1      -6.635  -8.721  63.486  1.00  0.00     0.012 C 
ATOM      2  C   UNL     1      -7.888  -8.673  63.963  1.00  0.00     0.053 C 
ENDROOT
BRANCH   1   3
ATOM      3  C   UNL     1      -6.103  -9.838  62.668  1.00  0.00    -0.025 A 
ATOM      4  C   UNL     1      -5.088  -9.662  61.704  1.00  0.00     0.012 A 
ATOM      5  C   UNL     1      -4.617 -10.753  60.967  1.00  0.00     0.047 A 
ATOM      6  C   UNL     1      -5.141 -12.033  61.186  1.00  0.00     0.115 A 
ATOM      7  C   UNL     1      -6.611 -11.130  62.888  1.00  0.00     0.012 A 
ATOM      8  C   UNL     1      -6.136 -12.217  62.148  1.00  0.00     0.047 A 
BRANCH   6   9
ATOM      9  O   UNL     1      -4.678 -13.125  60.455  1.00  0.00    -0.508 OA
ATOM     10  H   UNL     1      -4.527 -14.027  60.889  1.00  0.00     0.293 HD
ENDBRANCH   6   9
ENDBRANCH   1   3
BRANCH   2  11
ATOM     11  C   UNL     1      -8.395  -7.544  64.772  1.00  0.00     0.189 C 
ATOM     12  O   UNL     1      -9.205  -7.798  65.703  1.00  0.00    -0.289 OA
BRANCH  11  13
ATOM     13  C   UNL     1      -7.969  -6.139  64.554  1.00  0.00     0.064 A 
ATOM     14  C   UNL     1      -7.197  -5.462  65.520  1.00  0.00     0.130 A 
ATOM     15  C   UNL     1      -8.295  -5.483  63.354  1.00  0.00     0.020 A 
ATOM     16  C   UNL     1      -6.780  -4.144  65.283  1.00  0.00     0.093 A 
ATOM     17  C   UNL     1      -7.877  -4.169  63.128  1.00  0.00     0.047 A 
ATOM     18  C   UNL     1      -7.119  -3.497  64.093  1.00  0.00     0.119 A 
BRANCH  14  19
ATOM     19  O   UNL     1      -6.858  -6.093  66.717  1.00  0.00    -0.507 OA
ATOM     20  H   UNL     1      -6.235  -5.660  67.388  1.00  0.00     0.293 HD
ENDBRANCH  14  19
BRANCH  18  21
ATOM     21  O   UNL     1      -6.696  -2.187  63.877  1.00  0.00    -0.508 OA
ATOM     22  H   UNL     1      -7.357  -1.419  63.825  1.00  0.00     0.293 HD
ENDBRANCH  18  21
ENDBRANCH  11  13
ENDBRANCH   2  11
TORSDOF 6
ENDMDL
