MODEL 1
REMARK VINA RESULT:    -4.163      0.000      0.000
REMARK INTER + INTRA:          -4.984
REMARK INTER:                  -5.866
REMARK INTRA:                   0.883
REMARK UNBOUND:                 0.883
REMARK SMILES CC1=CCC(=C(C)C)C(=O)CC(C)=CCC1
REMARK SMILES IDX 12 1 14 2 13 3 15 4 16 5 2 6 1 7 3 8 11 10 9 11 10 12 5 13
REMARK SMILES IDX 6 14 7 15 8 16 4 17
REMARK H PARENT
REMARK Flexibility Score: 60.00
ROOT
ATOM      1  C   UNL     1       2.631  12.766  -7.324  1.00  0.00    -0.070 C 
ATOM      2  C   UNL     1       2.983  13.314  -8.508  1.00  0.00    -0.027 C 
ATOM      3  C   UNL     1       2.655  11.263  -7.208  1.00  0.00     0.039 C 
ENDROOT
BRANCH   2   4
ATOM      4  C   UNL     1       2.931  14.787  -8.851  1.00  0.00     0.032 C 
BRANCH   4   5
ATOM      5  C   UNL     1       4.238  15.563  -8.582  1.00  0.00     0.034 C 
BRANCH   5   6
ATOM      6  C   UNL     1       5.375  14.672  -8.116  1.00  0.00    -0.077 C 
ATOM      7  C   UNL     1       5.989  13.732  -9.125  1.00  0.00     0.039 C 
ATOM      8  C   UNL     1       5.828  14.615  -6.840  1.00  0.00    -0.023 CG0
ATOM      9  G   UNL     1       5.378  15.469  -5.671  1.00  0.00     0.000 G0
ENDBRANCH   5   6
ENDBRANCH   4   5
ENDBRANCH   2   4
BRANCH   1  10
ATOM     10  C   UNL     1       2.127  13.579  -6.149  1.00  0.00     0.111 C 
BRANCH  10  11
ATOM     11  C   UNL     1       3.259  14.058  -5.279  1.00  0.00     0.163 C 
ATOM     12  O   UNL     1       3.655  13.303  -4.350  1.00  0.00    -0.294 OA
BRANCH  11  13
ATOM     13  C   UNL     1       3.877  15.408  -5.439  1.00  0.00    -0.002 C 
ATOM     14  C   UNL     1       3.100  16.532  -5.468  1.00  0.00    -0.069 C 
ATOM     15  C   UNL     1       1.615  16.468  -5.185  1.00  0.00     0.039 C 
ATOM     16  C   UNL     1       3.676  17.895  -5.786  1.00  0.00     0.039 C 
BRANCH  13  17
ATOM     17  C   UNL     1       5.379  15.465  -5.661  1.00  0.00     0.066 CG0
ATOM     18  G   UNL     1       5.819  14.621  -6.842  1.00  0.00     0.000 G0
ENDBRANCH  13  17
ENDBRANCH  11  13
ENDBRANCH  10  11
ENDBRANCH   1  10
TORSDOF 0
ENDMDL
MODEL 2
REMARK VINA RESULT:    -4.150      1.681      3.783
REMARK INTER + INTRA:          -4.966
REMARK INTER:                  -5.781
REMARK INTRA:                   0.815
REMARK UNBOUND:                 0.883
REMARK SMILES CC1=CCC(=C(C)C)C(=O)CC(C)=CCC1
REMARK SMILES IDX 12 1 14 2 13 3 15 4 16 5 2 6 1 7 3 8 11 10 9 11 10 12 5 13
REMARK SMILES IDX 6 14 7 15 8 16 4 17
REMARK H PARENT
REMARK Flexibility Score: 60.00
ROOT
ATOM      1  C   UNL     1       2.691  13.072  -7.657  1.00  0.00    -0.070 C 
ATOM      2  C   UNL     1       1.893  13.653  -6.733  1.00  0.00    -0.027 C 
ATOM      3  C   UNL     1       2.882  11.578  -7.583  1.00  0.00     0.039 C 
ENDROOT
BRANCH   2   4
ATOM      4  C   UNL     1       1.654  15.140  -6.583  1.00  0.00     0.032 C 
BRANCH   4   5
ATOM      5  C   UNL     1       2.271  15.771  -5.317  1.00  0.00     0.034 C 
BRANCH   5   6
ATOM      6  C   UNL     1       3.492  16.624  -5.611  1.00  0.00    -0.077 C 
ATOM      7  C   UNL     1       3.281  18.103  -5.822  1.00  0.00     0.039 C 
ATOM      8  C   UNL     1       4.746  16.135  -5.764  1.00  0.00    -0.023 CG0
ATOM      9  G   UNL     1       5.197  14.699  -5.583  1.00  0.00     0.000 G0
ENDBRANCH   5   6
ENDBRANCH   4   5
ENDBRANCH   2   4
BRANCH   1  10
ATOM     10  C   UNL     1       3.468  13.854  -8.695  1.00  0.00     0.111 C 
BRANCH  10  11
ATOM     11  C   UNL     1       4.693  14.499  -8.102  1.00  0.00     0.163 C 
ATOM     12  O   UNL     1       5.173  15.509  -8.684  1.00  0.00    -0.294 OA
BRANCH  11  13
ATOM     13  C   UNL     1       5.385  13.949  -6.898  1.00  0.00    -0.002 C 
ATOM     14  C   UNL     1       6.088  12.779  -6.970  1.00  0.00    -0.069 C 
ATOM     15  C   UNL     1       6.322  12.084  -8.294  1.00  0.00     0.039 C 
ATOM     16  C   UNL     1       6.666  12.115  -5.740  1.00  0.00     0.039 C 
BRANCH  13  17
ATOM     17  C   UNL     1       5.194  14.692  -5.586  1.00  0.00     0.066 CG0
ATOM     18  G   UNL     1       4.733  16.121  -5.794  1.00  0.00     0.000 G0
ENDBRANCH  13  17
ENDBRANCH  11  13
ENDBRANCH  10  11
ENDBRANCH   1  10
TORSDOF 0
ENDMDL
MODEL 3
REMARK VINA RESULT:    -3.896      1.629      3.714
REMARK INTER + INTRA:          -4.608
REMARK INTER:                  -5.514
REMARK INTRA:                   0.907
REMARK UNBOUND:                 0.883
REMARK SMILES CC1=CCC(=C(C)C)C(=O)CC(C)=CCC1
REMARK SMILES IDX 12 1 14 2 13 3 15 4 16 5 2 6 1 7 3 8 11 10 9 11 10 12 5 13
REMARK SMILES IDX 6 14 7 15 8 16 4 17
REMARK H PARENT
REMARK Flexibility Score: 60.00
ROOT
ATOM      1  C   UNL     1       3.488  15.160  -5.620  1.00  0.00    -0.070 C 
ATOM      2  C   UNL     1       2.910  15.654  -6.737  1.00  0.00    -0.027 C 
ATOM      3  C   UNL     1       4.105  16.140  -4.653  1.00  0.00     0.039 C 
ENDROOT
BRANCH   2   4
ATOM      4  C   UNL     1       2.326  14.832  -7.866  1.00  0.00     0.032 C 
BRANCH   4   5
ATOM      5  C   UNL     1       3.230  14.705  -9.111  1.00  0.00     0.034 C 
BRANCH   5   6
ATOM      6  C   UNL     1       4.614  15.293  -8.905  1.00  0.00    -0.077 C 
ATOM      7  C   UNL     1       4.777  16.783  -9.071  1.00  0.00     0.039 C 
ATOM      8  C   UNL     1       5.725  14.559  -8.649  1.00  0.00    -0.023 CG0
ATOM      9  G   UNL     1       5.801  13.062  -8.425  1.00  0.00     0.000 G0
ENDBRANCH   5   6
ENDBRANCH   4   5
ENDBRANCH   2   4
BRANCH   1  10
ATOM     10  C   UNL     1       3.628  13.678  -5.341  1.00  0.00     0.111 C 
BRANCH  10  11
ATOM     11  C   UNL     1       4.830  13.093  -6.036  1.00  0.00     0.163 C 
ATOM     12  O   UNL     1       5.935  13.113  -5.428  1.00  0.00    -0.294 OA
BRANCH  11  13
ATOM     13  C   UNL     1       4.768  12.555  -7.427  1.00  0.00    -0.002 C 
ATOM     14  C   UNL     1       3.858  11.594  -7.765  1.00  0.00    -0.069 C 
ATOM     15  C   UNL     1       2.784  11.154  -6.794  1.00  0.00     0.039 C 
ATOM     16  C   UNL     1       3.873  10.916  -9.118  1.00  0.00     0.039 C 
BRANCH  13  17
ATOM     17  C   UNL     1       5.815  13.051  -8.412  1.00  0.00     0.066 CG0
ATOM     18  G   UNL     1       5.724  14.547  -8.645  1.00  0.00     0.000 G0
ENDBRANCH  13  17
ENDBRANCH  11  13
ENDBRANCH  10  11
ENDBRANCH   1  10
TORSDOF 0
ENDMDL
MODEL 4
REMARK VINA RESULT:    -3.666      1.971      4.210
REMARK INTER + INTRA:          -4.283
REMARK INTER:                  -5.843
REMARK INTRA:                   1.560
REMARK UNBOUND:                 0.883
REMARK SMILES CC1=CCC(=C(C)C)C(=O)CC(C)=CCC1
REMARK SMILES IDX 12 1 14 2 13 3 15 4 16 5 2 6 1 7 3 8 11 10 9 11 10 12 5 13
REMARK SMILES IDX 6 14 7 15 8 16 4 17
REMARK H PARENT
REMARK Flexibility Score: 60.00
ROOT
ATOM      1  C   UNL     1       2.977  15.983  -6.541  1.00  0.00    -0.070 C 
ATOM      2  C   UNL     1       1.908  15.217  -6.854  1.00  0.00    -0.027 C 
ATOM      3  C   UNL     1       2.795  17.053  -5.494  1.00  0.00     0.039 C 
ENDROOT
BRANCH   2   4
ATOM      4  C   UNL     1       1.863  14.163  -7.939  1.00  0.00     0.032 C 
BRANCH   4   5
ATOM      5  C   UNL     1       2.297  12.752  -7.490  1.00  0.00     0.034 C 
BRANCH   5   6
ATOM      6  C   UNL     1       2.961  11.953  -8.597  1.00  0.00    -0.077 C 
ATOM      7  C   UNL     1       2.257  10.712  -9.087  1.00  0.00     0.039 C 
ATOM      8  C   UNL     1       4.176  12.241  -9.125  1.00  0.00    -0.023 CG0
ATOM      9  G   UNL     1       5.053  13.436  -8.804  1.00  0.00     0.000 G0
ENDBRANCH   5   6
ENDBRANCH   4   5
ENDBRANCH   2   4
BRANCH   1  10
ATOM     10  C   UNL     1       4.310  15.879  -7.252  1.00  0.00     0.111 C 
BRANCH  10  11
ATOM     11  C   UNL     1       5.176  14.800  -6.656  1.00  0.00     0.163 C 
ATOM     12  O   UNL     1       5.711  15.020  -5.536  1.00  0.00    -0.294 OA
BRANCH  11  13
ATOM     13  C   UNL     1       5.466  13.521  -7.368  1.00  0.00    -0.002 C 
ATOM     14  C   UNL     1       6.137  12.509  -6.741  1.00  0.00    -0.069 C 
ATOM     15  C   UNL     1       6.470  12.583  -5.267  1.00  0.00     0.039 C 
ATOM     16  C   UNL     1       6.586  11.267  -7.480  1.00  0.00     0.039 C 
BRANCH  13  17
ATOM     17  C   UNL     1       5.071  13.435  -8.834  1.00  0.00     0.066 CG0
ATOM     18  G   UNL     1       4.175  12.246  -9.120  1.00  0.00     0.000 G0
ENDBRANCH  13  17
ENDBRANCH  11  13
ENDBRANCH  10  11
ENDBRANCH   1  10
TORSDOF 0
ENDMDL
MODEL 5
REMARK VINA RESULT:    -3.490      2.220      3.875
REMARK INTER + INTRA:          -4.036
REMARK INTER:                  -4.802
REMARK INTRA:                   0.766
REMARK UNBOUND:                 0.883
REMARK SMILES CC1=CCC(=C(C)C)C(=O)CC(C)=CCC1
REMARK SMILES IDX 12 1 14 2 13 3 15 4 16 5 2 6 1 7 3 8 11 10 9 11 10 12 5 13
REMARK SMILES IDX 6 14 7 15 8 16 4 17
REMARK H PARENT
REMARK Flexibility Score: 60.00
ROOT
ATOM      1  C   UNL     1       5.662  13.623  -7.666  1.00  0.00    -0.070 C 
ATOM      2  C   UNL     1       5.469  12.288  -7.751  1.00  0.00    -0.027 C 
ATOM      3  C   UNL     1       6.084  14.191  -6.334  1.00  0.00     0.039 C 
ENDROOT
BRANCH   2   4
ATOM      4  C   UNL     1       4.956  11.546  -8.966  1.00  0.00     0.032 C 
BRANCH   4   5
ATOM      5  C   UNL     1       3.421  11.544  -9.125  1.00  0.00     0.034 C 
BRANCH   5   6
ATOM      6  C   UNL     1       2.686  11.794  -7.820  1.00  0.00    -0.077 C 
ATOM      7  C   UNL     1       2.504  10.626  -6.883  1.00  0.00     0.039 C 
ATOM      8  C   UNL     1       2.124  12.978  -7.474  1.00  0.00    -0.023 CG0
ATOM      9  G   UNL     1       2.193  14.283  -8.243  1.00  0.00     0.000 G0
ENDBRANCH   5   6
ENDBRANCH   4   5
ENDBRANCH   2   4
BRANCH   1  10
ATOM     10  C   UNL     1       5.387  14.578  -8.809  1.00  0.00     0.111 C 
BRANCH  10  11
ATOM     11  C   UNL     1       4.370  15.622  -8.429  1.00  0.00     0.163 C 
ATOM     12  O   UNL     1       4.600  16.820  -8.750  1.00  0.00    -0.294 OA
BRANCH  11  13
ATOM     13  C   UNL     1       3.145  15.297  -7.639  1.00  0.00    -0.002 C 
ATOM     14  C   UNL     1       2.959  15.823  -6.391  1.00  0.00    -0.069 C 
ATOM     15  C   UNL     1       3.900  16.868  -5.831  1.00  0.00     0.039 C 
ATOM     16  C   UNL     1       1.812  15.392  -5.504  1.00  0.00     0.039 C 
BRANCH  13  17
ATOM     17  C   UNL     1       2.175  14.293  -8.240  1.00  0.00     0.066 CG0
ATOM     18  G   UNL     1       2.140  12.991  -7.464  1.00  0.00     0.000 G0
ENDBRANCH  13  17
ENDBRANCH  11  13
ENDBRANCH  10  11
ENDBRANCH   1  10
TORSDOF 0
ENDMDL
MODEL 6
REMARK VINA RESULT:    -3.334      2.027      3.497
REMARK INTER + INTRA:          -3.815
REMARK INTER:                  -4.889
REMARK INTRA:                   1.074
REMARK UNBOUND:                 0.883
REMARK SMILES CC1=CCC(=C(C)C)C(=O)CC(C)=CCC1
REMARK SMILES IDX 12 1 14 2 13 3 15 4 16 5 2 6 1 7 3 8 11 10 9 11 10 12 5 13
REMARK SMILES IDX 6 14 7 15 8 16 4 17
REMARK H PARENT
REMARK Flexibility Score: 60.00
ROOT
ATOM      1  C   UNL     1       4.642  15.284  -8.137  1.00  0.00    -0.070 C 
ATOM      2  C   UNL     1       5.629  14.373  -8.287  1.00  0.00    -0.027 C 
ATOM      3  C   UNL     1       4.919  16.487  -7.270  1.00  0.00     0.039 C 
ENDROOT
BRANCH   2   4
ATOM      4  C   UNL     1       5.515  13.061  -9.033  1.00  0.00     0.032 C 
BRANCH   4   5
ATOM      5  C   UNL     1       5.290  11.824  -8.139  1.00  0.00     0.034 C 
BRANCH   5   6
ATOM      6  C   UNL     1       3.836  11.391  -8.075  1.00  0.00    -0.077 C 
ATOM      7  C   UNL     1       3.345  10.425  -9.125  1.00  0.00     0.039 C 
ATOM      8  C   UNL     1       2.936  11.866  -7.180  1.00  0.00    -0.023 CG0
ATOM      9  G   UNL     1       3.203  12.821  -6.033  1.00  0.00     0.000 G0
ENDBRANCH   5   6
ENDBRANCH   4   5
ENDBRANCH   2   4
BRANCH   1  10
ATOM     10  C   UNL     1       3.253  15.108  -8.715  1.00  0.00     0.111 C 
BRANCH  10  11
ATOM     11  C   UNL     1       2.291  14.558  -7.694  1.00  0.00     0.163 C 
ATOM     12  O   UNL     1       1.083  14.424  -8.028  1.00  0.00    -0.294 OA
BRANCH  11  13
ATOM     13  C   UNL     1       2.706  14.230  -6.298  1.00  0.00    -0.002 C 
ATOM     14  C   UNL     1       2.707  15.191  -5.326  1.00  0.00    -0.069 C 
ATOM     15  C   UNL     1       2.144  16.572  -5.586  1.00  0.00     0.039 C 
ATOM     16  C   UNL     1       3.270  14.933  -3.945  1.00  0.00     0.039 C 
BRANCH  13  17
ATOM     17  C   UNL     1       3.211  12.821  -6.034  1.00  0.00     0.066 CG0
ATOM     18  G   UNL     1       2.940  11.885  -7.195  1.00  0.00     0.000 G0
ENDBRANCH  13  17
ENDBRANCH  11  13
ENDBRANCH  10  11
ENDBRANCH   1  10
TORSDOF 0
ENDMDL
MODEL 7
REMARK VINA RESULT:    -3.291      1.738      2.772
REMARK INTER + INTRA:          -3.755
REMARK INTER:                  -5.441
REMARK INTRA:                   1.687
REMARK UNBOUND:                 0.883
REMARK SMILES CC1=CCC(=C(C)C)C(=O)CC(C)=CCC1
REMARK SMILES IDX 12 1 14 2 13 3 15 4 16 5 2 6 1 7 3 8 11 10 9 11 10 12 5 13
REMARK SMILES IDX 6 14 7 15 8 16 4 17
REMARK H PARENT
REMARK Flexibility Score: 60.00
ROOT
ATOM      1  C   UNL     1       5.633  13.132  -7.088  1.00  0.00    -0.070 C 
ATOM      2  C   UNL     1       5.372  13.247  -8.410  1.00  0.00    -0.027 C 
ATOM      3  C   UNL     1       5.951  11.760  -6.550  1.00  0.00     0.039 C 
ENDROOT
BRANCH   2   4
ATOM      4  C   UNL     1       4.941  14.513  -9.118  1.00  0.00     0.032 C 
BRANCH   4   5
ATOM      5  C   UNL     1       3.435  14.833  -9.016  1.00  0.00     0.034 C 
BRANCH   5   6
ATOM      6  C   UNL     1       2.635  13.730  -8.348  1.00  0.00    -0.077 C 
ATOM      7  C   UNL     1       2.567  12.393  -9.043  1.00  0.00     0.039 C 
ATOM      8  C   UNL     1       1.924  13.887  -7.205  1.00  0.00    -0.023 CG0
ATOM      9  G   UNL     1       1.858  15.123  -6.330  1.00  0.00     0.000 G0
ENDBRANCH   5   6
ENDBRANCH   4   5
ENDBRANCH   2   4
BRANCH   1  10
ATOM     10  C   UNL     1       5.528  14.289  -6.116  1.00  0.00     0.111 C 
BRANCH  10  11
ATOM     11  C   UNL     1       4.166  14.355  -5.476  1.00  0.00     0.163 C 
ATOM     12  O   UNL     1       3.809  13.395  -4.741  1.00  0.00    -0.294 OA
BRANCH  11  13
ATOM     13  C   UNL     1       3.215  15.477  -5.732  1.00  0.00    -0.002 C 
ATOM     14  C   UNL     1       3.528  16.756  -5.367  1.00  0.00    -0.069 C 
ATOM     15  C   UNL     1       4.903  17.107  -4.840  1.00  0.00     0.039 C 
ATOM     16  C   UNL     1       2.527  17.886  -5.468  1.00  0.00     0.039 C 
BRANCH  13  17
ATOM     17  C   UNL     1       1.860  15.119  -6.321  1.00  0.00     0.066 CG0
ATOM     18  G   UNL     1       1.924  13.894  -7.212  1.00  0.00     0.000 G0
ENDBRANCH  13  17
ENDBRANCH  11  13
ENDBRANCH  10  11
ENDBRANCH   1  10
TORSDOF 0
ENDMDL
MODEL 8
REMARK VINA RESULT:    -3.193      1.470      2.058
REMARK INTER + INTRA:          -3.616
REMARK INTER:                  -4.402
REMARK INTRA:                   0.786
REMARK UNBOUND:                 0.883
REMARK SMILES CC1=CCC(=C(C)C)C(=O)CC(C)=CCC1
REMARK SMILES IDX 12 1 14 2 13 3 15 4 16 5 2 6 1 7 3 8 11 10 9 11 10 12 5 13
REMARK SMILES IDX 6 14 7 15 8 16 4 17
REMARK H PARENT
REMARK Flexibility Score: 60.00
ROOT
ATOM      1  C   UNL     1       2.912  12.618  -8.883  1.00  0.00    -0.070 C 
ATOM      2  C   UNL     1       4.207  12.304  -9.110  1.00  0.00    -0.027 C 
ATOM      3  C   UNL     1       1.881  11.533  -9.071  1.00  0.00     0.039 C 
ENDROOT
BRANCH   2   4
ATOM      4  C   UNL     1       5.370  13.272  -9.069  1.00  0.00     0.032 C 
BRANCH   4   5
ATOM      5  C   UNL     1       6.548  12.832  -8.175  1.00  0.00     0.034 C 
BRANCH   5   6
ATOM      6  C   UNL     1       6.240  12.930  -6.692  1.00  0.00    -0.077 C 
ATOM      7  C   UNL     1       6.702  11.802  -5.803  1.00  0.00     0.039 C 
ATOM      8  C   UNL     1       5.519  13.928  -6.125  1.00  0.00    -0.023 CG0
ATOM      9  G   UNL     1       4.972  15.165  -6.811  1.00  0.00     0.000 G0
ENDBRANCH   5   6
ENDBRANCH   4   5
ENDBRANCH   2   4
BRANCH   1  10
ATOM     10  C   UNL     1       2.442  14.017  -8.545  1.00  0.00     0.111 C 
BRANCH  10  11
ATOM     11  C   UNL     1       2.549  14.297  -7.068  1.00  0.00     0.163 C 
ATOM     12  O   UNL     1       1.784  13.667  -6.288  1.00  0.00    -0.294 OA
BRANCH  11  13
ATOM     13  C   UNL     1       3.474  15.329  -6.513  1.00  0.00    -0.002 C 
ATOM     14  C   UNL     1       2.986  16.422  -5.853  1.00  0.00    -0.069 C 
ATOM     15  C   UNL     1       1.515  16.548  -5.524  1.00  0.00     0.039 C 
ATOM     16  C   UNL     1       3.883  17.560  -5.419  1.00  0.00     0.039 C 
BRANCH  13  17
ATOM     17  C   UNL     1       4.958  15.158  -6.797  1.00  0.00     0.066 CG0
ATOM     18  G   UNL     1       5.533  13.921  -6.134  1.00  0.00     0.000 G0
ENDBRANCH  13  17
ENDBRANCH  11  13
ENDBRANCH  10  11
ENDBRANCH   1  10
TORSDOF 0
ENDMDL
MODEL 9
REMARK VINA RESULT:    -2.597      1.970      4.059
REMARK INTER + INTRA:          -2.777
REMARK INTER:                  -4.234
REMARK INTRA:                   1.457
REMARK UNBOUND:                 0.883
REMARK SMILES CC1=CCC(=C(C)C)C(=O)CC(C)=CCC1
REMARK SMILES IDX 12 1 14 2 13 3 15 4 16 5 2 6 1 7 3 8 11 10 9 11 10 12 5 13
REMARK SMILES IDX 6 14 7 15 8 16 4 17
REMARK H PARENT
REMARK Flexibility Score: 60.00
ROOT
ATOM      1  C   UNL     1       3.406  15.654  -5.706  1.00  0.00    -0.070 C 
ATOM      2  C   UNL     1       3.110  14.581  -4.939  1.00  0.00    -0.027 C 
ATOM      3  C   UNL     1       2.385  16.760  -5.795  1.00  0.00     0.039 C 
ENDROOT
BRANCH   2   4
ATOM      4  C   UNL     1       3.956  13.334  -4.798  1.00  0.00     0.032 C 
BRANCH   4   5
ATOM      5  C   UNL     1       4.255  12.601  -6.123  1.00  0.00     0.034 C 
BRANCH   5   6
ATOM      6  C   UNL     1       5.732  12.581  -6.472  1.00  0.00    -0.077 C 
ATOM      7  C   UNL     1       6.706  12.202  -5.384  1.00  0.00     0.039 C 
ATOM      8  C   UNL     1       6.238  12.947  -7.675  1.00  0.00    -0.023 CG0
ATOM      9  G   UNL     1       5.457  13.344  -8.913  1.00  0.00     0.000 G0
ENDBRANCH   5   6
ENDBRANCH   4   5
ENDBRANCH   2   4
BRANCH   1  10
ATOM     10  C   UNL     1       4.662  15.753  -6.547  1.00  0.00     0.111 C 
BRANCH  10  11
ATOM     11  C   UNL     1       4.373  15.515  -8.007  1.00  0.00     0.163 C 
ATOM     12  O   UNL     1       4.220  16.520  -8.753  1.00  0.00    -0.294 OA
BRANCH  11  13
ATOM     13  C   UNL     1       4.203  14.146  -8.577  1.00  0.00    -0.002 C 
ATOM     14  C   UNL     1       2.960  13.590  -8.701  1.00  0.00    -0.069 C 
ATOM     15  C   UNL     1       1.710  14.393  -8.416  1.00  0.00     0.039 C 
ATOM     16  C   UNL     1       2.765  12.151  -9.125  1.00  0.00     0.039 C 
BRANCH  13  17
ATOM     17  C   UNL     1       5.466  13.372  -8.919  1.00  0.00     0.066 CG0
ATOM     18  G   UNL     1       6.232  12.943  -7.682  1.00  0.00     0.000 G0
ENDBRANCH  13  17
ENDBRANCH  11  13
ENDBRANCH  10  11
ENDBRANCH   1  10
TORSDOF 0
ENDMDL
