MODEL 1
REMARK VINA RESULT:    -5.786      0.000      0.000
REMARK INTER + INTRA:          -6.627
REMARK INTER:                  -6.462
REMARK INTRA:                  -0.164
REMARK UNBOUND:                -0.164
REMARK SMILES COc1cc2ccc(=O)oc2cc1OC
REMARK SMILES IDX 3 1 13 2 12 3 11 4 5 5 4 6 6 7 7 8 8 9 9 10 10 11 2 12 1 13
REMARK SMILES IDX 14 14 15 15
REMARK H PARENT
REMARK Flexibility Score: inf
ROOT
ATOM      1  C   UNL     1       4.944  47.335   9.009  1.00  0.00     0.161 A 
ATOM      2  C   UNL     1       3.687  47.402   8.382  1.00  0.00     0.164 A 
ATOM      3  C   UNL     1       2.632  46.589   8.839  1.00  0.00     0.098 A 
ATOM      4  C   UNL     1       2.826  45.717   9.913  1.00  0.00     0.142 A 
ATOM      5  C   UNL     1       4.086  45.649  10.543  1.00  0.00     0.022 A 
ATOM      6  C   UNL     1       5.138  46.455  10.092  1.00  0.00     0.062 A 
ATOM      7  C   UNL     1       4.247  44.765  11.615  1.00  0.00     0.019 A 
ATOM      8  C   UNL     1       3.169  43.983  12.028  1.00  0.00     0.094 A 
ATOM      9  C   UNL     1       1.948  44.103  11.355  1.00  0.00     0.336 A 
ATOM     10  O   UNL     1       0.962  43.407  11.711  1.00  0.00    -0.246 OA
ATOM     11  O   UNL     1       1.822  44.952  10.338  1.00  0.00    -0.423 OA
ENDROOT
BRANCH   1  12
ATOM     12  O   UNL     1       5.973  48.159   8.527  1.00  0.00    -0.493 OA
ATOM     13  C   UNL     1       6.359  49.397   9.116  1.00  0.00     0.278 C 
ENDBRANCH   1  12
BRANCH   2  14
ATOM     14  O   UNL     1       3.530  48.290   7.306  1.00  0.00    -0.493 OA
ATOM     15  C   UNL     1       2.906  49.567   7.399  1.00  0.00     0.278 C 
ENDBRANCH   2  14
TORSDOF 2
ENDMDL
MODEL 2
REMARK VINA RESULT:    -5.651      1.679      2.958
REMARK INTER + INTRA:          -6.476
REMARK INTER:                  -6.346
REMARK INTRA:                  -0.131
REMARK UNBOUND:                -0.164
REMARK SMILES COc1cc2ccc(=O)oc2cc1OC
REMARK SMILES IDX 3 1 13 2 12 3 11 4 5 5 4 6 6 7 7 8 8 9 9 10 10 11 2 12 1 13
REMARK SMILES IDX 14 14 15 15
REMARK H PARENT
REMARK Flexibility Score: inf
ROOT
ATOM      1  C   UNL     1       2.901  46.773   9.491  1.00  0.00     0.161 A 
ATOM      2  C   UNL     1       4.206  46.261   9.380  1.00  0.00     0.164 A 
ATOM      3  C   UNL     1       4.506  44.991   9.908  1.00  0.00     0.098 A 
ATOM      4  C   UNL     1       3.516  44.235  10.540  1.00  0.00     0.142 A 
ATOM      5  C   UNL     1       2.207  44.748  10.651  1.00  0.00     0.022 A 
ATOM      6  C   UNL     1       1.903  46.010  10.128  1.00  0.00     0.062 A 
ATOM      7  C   UNL     1       1.238  43.967  11.290  1.00  0.00     0.019 A 
ATOM      8  C   UNL     1       1.589  42.715  11.794  1.00  0.00     0.094 A 
ATOM      9  C   UNL     1       2.908  42.272  11.648  1.00  0.00     0.336 A 
ATOM     10  O   UNL     1       3.246  41.145  12.096  1.00  0.00    -0.246 OA
ATOM     11  O   UNL     1       3.810  43.035  11.036  1.00  0.00    -0.423 OA
ENDROOT
BRANCH   1  12
ATOM     12  O   UNL     1       2.638  48.043   8.953  1.00  0.00    -0.493 OA
ATOM     13  C   UNL     1       1.755  48.291   7.864  1.00  0.00     0.278 C 
ENDBRANCH   1  12
BRANCH   2  14
ATOM     14  O   UNL     1       5.176  47.049   8.739  1.00  0.00    -0.493 OA
ATOM     15  C   UNL     1       6.382  47.498   9.348  1.00  0.00     0.278 C 
ENDBRANCH   2  14
TORSDOF 2
ENDMDL
MODEL 3
REMARK VINA RESULT:    -5.611      1.027      2.654
REMARK INTER + INTRA:          -6.431
REMARK INTER:                  -6.317
REMARK INTRA:                  -0.114
REMARK UNBOUND:                -0.164
REMARK SMILES COc1cc2ccc(=O)oc2cc1OC
REMARK SMILES IDX 3 1 13 2 12 3 11 4 5 5 4 6 6 7 7 8 8 9 9 10 10 11 2 12 1 13
REMARK SMILES IDX 14 14 15 15
REMARK H PARENT
REMARK Flexibility Score: inf
ROOT
ATOM      1  C   UNL     1       3.574  47.592   8.274  1.00  0.00     0.161 A 
ATOM      2  C   UNL     1       4.711  47.157   8.977  1.00  0.00     0.164 A 
ATOM      3  C   UNL     1       4.585  46.166   9.969  1.00  0.00     0.098 A 
ATOM      4  C   UNL     1       3.336  45.611  10.259  1.00  0.00     0.142 A 
ATOM      5  C   UNL     1       2.195  46.046   9.555  1.00  0.00     0.022 A 
ATOM      6  C   UNL     1       2.315  47.031   8.567  1.00  0.00     0.062 A 
ATOM      7  C   UNL     1       0.959  45.471   9.869  1.00  0.00     0.019 A 
ATOM      8  C   UNL     1       0.890  44.492  10.861  1.00  0.00     0.094 A 
ATOM      9  C   UNL     1       2.065  44.111  11.518  1.00  0.00     0.336 A 
ATOM     10  O   UNL     1       2.025  43.230  12.416  1.00  0.00    -0.246 OA
ATOM     11  O   UNL     1       3.227  44.675  11.200  1.00  0.00    -0.423 OA
ENDROOT
BRANCH   1  12
ATOM     12  O   UNL     1       3.737  48.581   7.291  1.00  0.00    -0.493 OA
ATOM     13  C   UNL     1       3.050  49.829   7.280  1.00  0.00     0.278 C 
ENDBRANCH   1  12
BRANCH   2  14
ATOM     14  O   UNL     1       5.950  47.738   8.658  1.00  0.00    -0.493 OA
ATOM     15  C   UNL     1       7.126  47.614   9.451  1.00  0.00     0.278 C 
ENDBRANCH   2  14
TORSDOF 2
ENDMDL
MODEL 4
REMARK VINA RESULT:    -5.458      1.505      5.014
REMARK INTER + INTRA:          -6.260
REMARK INTER:                  -6.116
REMARK INTRA:                  -0.145
REMARK UNBOUND:                -0.164
REMARK SMILES COc1cc2ccc(=O)oc2cc1OC
REMARK SMILES IDX 3 1 13 2 12 3 11 4 5 5 4 6 6 7 7 8 8 9 9 10 10 11 2 12 1 13
REMARK SMILES IDX 14 14 15 15
REMARK H PARENT
REMARK Flexibility Score: inf
ROOT
ATOM      1  C   UNL     1       3.288  45.054   9.724  1.00  0.00     0.161 A 
ATOM      2  C   UNL     1       2.234  45.909   9.355  1.00  0.00     0.164 A 
ATOM      3  C   UNL     1       2.510  47.239   8.984  1.00  0.00     0.098 A 
ATOM      4  C   UNL     1       3.823  47.715   8.980  1.00  0.00     0.142 A 
ATOM      5  C   UNL     1       4.880  46.858   9.349  1.00  0.00     0.022 A 
ATOM      6  C   UNL     1       4.613  45.534   9.719  1.00  0.00     0.062 A 
ATOM      7  C   UNL     1       6.184  47.365   9.335  1.00  0.00     0.019 A 
ATOM      8  C   UNL     1       6.401  48.690   8.958  1.00  0.00     0.094 A 
ATOM      9  C   UNL     1       5.303  49.482   8.605  1.00  0.00     0.336 A 
ATOM     10  O   UNL     1       5.476  50.680   8.262  1.00  0.00    -0.246 OA
ATOM     11  O   UNL     1       4.073  48.975   8.628  1.00  0.00    -0.423 OA
ENDROOT
BRANCH   1  12
ATOM     12  O   UNL     1       2.977  43.734  10.088  1.00  0.00    -0.493 OA
ATOM     13  C   UNL     1       3.279  43.152  11.352  1.00  0.00     0.278 C 
ENDBRANCH   1  12
BRANCH   2  14
ATOM     14  O   UNL     1       0.927  45.396   9.372  1.00  0.00    -0.493 OA
ATOM     15  C   UNL     1       0.003  45.580  10.439  1.00  0.00     0.278 C 
ENDBRANCH   2  14
TORSDOF 2
ENDMDL
MODEL 5
REMARK VINA RESULT:    -5.408      1.542      5.546
REMARK INTER + INTRA:          -6.205
REMARK INTER:                  -6.072
REMARK INTRA:                  -0.133
REMARK UNBOUND:                -0.164
REMARK SMILES COc1cc2ccc(=O)oc2cc1OC
REMARK SMILES IDX 3 1 13 2 12 3 11 4 5 5 4 6 6 7 7 8 8 9 9 10 10 11 2 12 1 13
REMARK SMILES IDX 14 14 15 15
REMARK H PARENT
REMARK Flexibility Score: inf
ROOT
ATOM      1  C   UNL     1       1.700  45.193  10.357  1.00  0.00     0.161 A 
ATOM      2  C   UNL     1       2.744  44.593  11.083  1.00  0.00     0.164 A 
ATOM      3  C   UNL     1       4.061  45.071  10.939  1.00  0.00     0.098 A 
ATOM      4  C   UNL     1       4.337  46.137  10.079  1.00  0.00     0.142 A 
ATOM      5  C   UNL     1       3.290  46.739   9.351  1.00  0.00     0.022 A 
ATOM      6  C   UNL     1       1.979  46.268   9.491  1.00  0.00     0.062 A 
ATOM      7  C   UNL     1       3.599  47.804   8.498  1.00  0.00     0.019 A 
ATOM      8  C   UNL     1       4.920  48.238   8.393  1.00  0.00     0.094 A 
ATOM      9  C   UNL     1       5.906  47.592   9.146  1.00  0.00     0.336 A 
ATOM     10  O   UNL     1       7.105  47.968   9.067  1.00  0.00    -0.246 OA
ATOM     11  O   UNL     1       5.585  46.581   9.950  1.00  0.00    -0.423 OA
ENDROOT
BRANCH   1  12
ATOM     12  O   UNL     1       0.400  44.691  10.526  1.00  0.00    -0.493 OA
ATOM     13  C   UNL     1      -0.685  45.429  11.077  1.00  0.00     0.278 C 
ENDBRANCH   1  12
BRANCH   2  14
ATOM     14  O   UNL     1       2.430  43.524  11.938  1.00  0.00    -0.493 OA
ATOM     15  C   UNL     1       2.628  42.151  11.616  1.00  0.00     0.278 C 
ENDBRANCH   2  14
TORSDOF 2
ENDMDL
MODEL 6
REMARK VINA RESULT:    -5.403      2.856      4.923
REMARK INTER + INTRA:          -6.199
REMARK INTER:                  -6.033
REMARK INTRA:                  -0.166
REMARK UNBOUND:                -0.164
REMARK SMILES COc1cc2ccc(=O)oc2cc1OC
REMARK SMILES IDX 3 1 13 2 12 3 11 4 5 5 4 6 6 7 7 8 8 9 9 10 10 11 2 12 1 13
REMARK SMILES IDX 14 14 15 15
REMARK H PARENT
REMARK Flexibility Score: inf
ROOT
ATOM      1  C   UNL     1       1.952  44.331  11.125  1.00  0.00     0.161 A 
ATOM      2  C   UNL     1       3.343  44.532  11.097  1.00  0.00     0.164 A 
ATOM      3  C   UNL     1       4.207  43.504  11.522  1.00  0.00     0.098 A 
ATOM      4  C   UNL     1       3.691  42.286  11.969  1.00  0.00     0.142 A 
ATOM      5  C   UNL     1       2.296  42.083  11.997  1.00  0.00     0.022 A 
ATOM      6  C   UNL     1       1.432  43.102  11.576  1.00  0.00     0.062 A 
ATOM      7  C   UNL     1       1.810  40.852  12.451  1.00  0.00     0.019 A 
ATOM      8  C   UNL     1       2.711  39.868  12.859  1.00  0.00     0.094 A 
ATOM      9  C   UNL     1       4.082  40.141  12.804  1.00  0.00     0.336 A 
ATOM     10  O   UNL     1       4.912  39.267  13.168  1.00  0.00    -0.246 OA
ATOM     11  O   UNL     1       4.517  41.321  12.368  1.00  0.00    -0.423 OA
ENDROOT
BRANCH   1  12
ATOM     12  O   UNL     1       1.120  45.377  10.694  1.00  0.00    -0.493 OA
ATOM     13  C   UNL     1       0.500  45.441   9.414  1.00  0.00     0.278 C 
ENDBRANCH   1  12
BRANCH   2  14
ATOM     14  O   UNL     1       3.826  45.770  10.641  1.00  0.00    -0.493 OA
ATOM     15  C   UNL     1       4.422  45.982   9.366  1.00  0.00     0.278 C 
ENDBRANCH   2  14
TORSDOF 2
ENDMDL
MODEL 7
REMARK VINA RESULT:    -5.386      2.800      6.978
REMARK INTER + INTRA:          -6.181
REMARK INTER:                  -6.077
REMARK INTRA:                  -0.104
REMARK UNBOUND:                -0.164
REMARK SMILES COc1cc2ccc(=O)oc2cc1OC
REMARK SMILES IDX 3 1 13 2 12 3 11 4 5 5 4 6 6 7 7 8 8 9 9 10 10 11 2 12 1 13
REMARK SMILES IDX 14 14 15 15
REMARK H PARENT
REMARK Flexibility Score: inf
ROOT
ATOM      1  C   UNL     1       1.580  41.583  12.639  1.00  0.00     0.161 A 
ATOM      2  C   UNL     1       2.861  41.096  12.324  1.00  0.00     0.164 A 
ATOM      3  C   UNL     1       3.723  41.866  11.519  1.00  0.00     0.098 A 
ATOM      4  C   UNL     1       3.315  43.110  11.034  1.00  0.00     0.142 A 
ATOM      5  C   UNL     1       2.031  43.599  11.350  1.00  0.00     0.022 A 
ATOM      6  C   UNL     1       1.169  42.839  12.149  1.00  0.00     0.062 A 
ATOM      7  C   UNL     1       1.652  44.849  10.848  1.00  0.00     0.019 A 
ATOM      8  C   UNL     1       2.546  45.570  10.056  1.00  0.00     0.094 A 
ATOM      9  C   UNL     1       3.803  45.021   9.783  1.00  0.00     0.336 A 
ATOM     10  O   UNL     1       4.625  45.655   9.072  1.00  0.00    -0.246 OA
ATOM     11  O   UNL     1       4.138  43.830  10.274  1.00  0.00    -0.423 OA
ENDROOT
BRANCH   1  12
ATOM     12  O   UNL     1       0.746  40.789  13.443  1.00  0.00    -0.493 OA
ATOM     13  C   UNL     1      -0.442  41.251  14.077  1.00  0.00     0.278 C 
ENDBRANCH   1  12
BRANCH   2  14
ATOM     14  O   UNL     1       3.237  39.841  12.829  1.00  0.00    -0.493 OA
ATOM     15  C   UNL     1       4.573  39.470  13.153  1.00  0.00     0.278 C 
ENDBRANCH   2  14
TORSDOF 2
ENDMDL
MODEL 8
REMARK VINA RESULT:    -5.295      2.650      6.509
REMARK INTER + INTRA:          -6.079
REMARK INTER:                  -5.974
REMARK INTRA:                  -0.105
REMARK UNBOUND:                -0.164
REMARK SMILES COc1cc2ccc(=O)oc2cc1OC
REMARK SMILES IDX 3 1 13 2 12 3 11 4 5 5 4 6 6 7 7 8 8 9 9 10 10 11 2 12 1 13
REMARK SMILES IDX 14 14 15 15
REMARK H PARENT
REMARK Flexibility Score: inf
ROOT
ATOM      1  C   UNL     1       2.810  41.174  12.263  1.00  0.00     0.161 A 
ATOM      2  C   UNL     1       1.570  41.728  12.628  1.00  0.00     0.164 A 
ATOM      3  C   UNL     1       1.207  43.003  12.155  1.00  0.00     0.098 A 
ATOM      4  C   UNL     1       2.070  43.722  11.324  1.00  0.00     0.142 A 
ATOM      5  C   UNL     1       3.313  43.167  10.957  1.00  0.00     0.022 A 
ATOM      6  C   UNL     1       3.680  41.899  11.424  1.00  0.00     0.062 A 
ATOM      7  C   UNL     1       4.155  43.912  10.124  1.00  0.00     0.019 A 
ATOM      8  C   UNL     1       3.745  45.170   9.683  1.00  0.00     0.094 A 
ATOM      9  C   UNL     1       2.498  45.657  10.089  1.00  0.00     0.336 A 
ATOM     10  O   UNL     1       2.109  46.790   9.703  1.00  0.00    -0.246 OA
ATOM     11  O   UNL     1       1.717  44.927  10.882  1.00  0.00    -0.423 OA
ENDROOT
BRANCH   1  12
ATOM     12  O   UNL     1       3.139  39.900  12.753  1.00  0.00    -0.493 OA
ATOM     13  C   UNL     1       4.458  39.480  13.086  1.00  0.00     0.278 C 
ENDBRANCH   1  12
BRANCH   2  14
ATOM     14  O   UNL     1       0.729  40.977  13.465  1.00  0.00    -0.493 OA
ATOM     15  C   UNL     1      -0.585  41.370  13.849  1.00  0.00     0.278 C 
ENDBRANCH   2  14
TORSDOF 2
ENDMDL
MODEL 9
REMARK VINA RESULT:    -5.163      1.315      5.656
REMARK INTER + INTRA:          -5.931
REMARK INTER:                  -5.766
REMARK INTRA:                  -0.166
REMARK UNBOUND:                -0.164
REMARK SMILES COc1cc2ccc(=O)oc2cc1OC
REMARK SMILES IDX 3 1 13 2 12 3 11 4 5 5 4 6 6 7 7 8 8 9 9 10 10 11 2 12 1 13
REMARK SMILES IDX 14 14 15 15
REMARK H PARENT
REMARK Flexibility Score: inf
ROOT
ATOM      1  C   UNL     1       2.822  45.779   9.384  1.00  0.00     0.161 A 
ATOM      2  C   UNL     1       4.051  45.608  10.044  1.00  0.00     0.164 A 
ATOM      3  C   UNL     1       5.025  46.623   9.984  1.00  0.00     0.098 A 
ATOM      4  C   UNL     1       4.777  47.801   9.275  1.00  0.00     0.142 A 
ATOM      5  C   UNL     1       3.545  47.974   8.613  1.00  0.00     0.022 A 
ATOM      6  C   UNL     1       2.572  46.967   8.668  1.00  0.00     0.062 A 
ATOM      7  C   UNL     1       3.327  49.164   7.910  1.00  0.00     0.019 A 
ATOM      8  C   UNL     1       4.326  50.137   7.885  1.00  0.00     0.094 A 
ATOM      9  C   UNL     1       5.525  49.895   8.564  1.00  0.00     0.336 A 
ATOM     10  O   UNL     1       6.439  50.760   8.554  1.00  0.00    -0.246 OA
ATOM     11  O   UNL     1       5.705  48.754   9.225  1.00  0.00    -0.423 OA
ENDROOT
BRANCH   1  12
ATOM     12  O   UNL     1       1.874  44.747   9.464  1.00  0.00    -0.493 OA
ATOM     13  C   UNL     1       0.732  44.763  10.315  1.00  0.00     0.278 C 
ENDBRANCH   1  12
BRANCH   2  14
ATOM     14  O   UNL     1       4.265  44.411  10.747  1.00  0.00    -0.493 OA
ATOM     15  C   UNL     1       4.131  44.270  12.158  1.00  0.00     0.278 C 
ENDBRANCH   2  14
TORSDOF 2
ENDMDL
