MODEL 1
REMARK VINA RESULT:    -3.333      0.000      0.000
REMARK INTER + INTRA:          -3.760
REMARK INTER:                  -3.722
REMARK INTRA:                  -0.038
REMARK UNBOUND:                -0.038
REMARK SMILES CCCC(=O)[O-]
REMARK SMILES IDX 3 1 4 2 5 3 6 4 2 5 1 6
REMARK H PARENT
REMARK Flexibility Score: inf
ROOT
ATOM      1  C   UNL     1       2.042 -36.799  16.724  1.00  0.00     0.052 C 
ENDROOT
BRANCH   1   2
ATOM      2  C   UNL     1       2.510 -37.300  18.053  1.00  0.00     0.041 C 
ATOM      3  O   UNL     1       3.723 -37.204  18.376  1.00  0.00    -0.550 OA
ATOM      4  O   UNL     1       1.597 -37.830  18.957  1.00  0.00    -0.550 OA
ENDBRANCH   1   2
BRANCH   1   5
ATOM      5  C   UNL     1       3.213 -36.220  15.927  1.00  0.00     0.003 C 
ATOM      6  C   UNL     1       3.636 -37.165  14.805  1.00  0.00     0.004 C 
ENDBRANCH   1   5
TORSDOF 2
ENDMDL
MODEL 2
REMARK VINA RESULT:    -3.111      2.598      3.526
REMARK INTER + INTRA:          -3.513
REMARK INTER:                  -3.497
REMARK INTRA:                  -0.016
REMARK UNBOUND:                -0.038
REMARK SMILES CCCC(=O)[O-]
REMARK SMILES IDX 3 1 4 2 5 3 6 4 2 5 1 6
REMARK H PARENT
REMARK Flexibility Score: inf
ROOT
ATOM      1  C   UNL     1       3.245 -36.128  16.461  1.00  0.00     0.052 C 
ENDROOT
BRANCH   1   2
ATOM      2  C   UNL     1       3.157 -36.695  15.080  1.00  0.00     0.041 C 
ATOM      3  O   UNL     1       2.336 -36.221  14.251  1.00  0.00    -0.550 OA
ATOM      4  O   UNL     1       4.016 -37.715  14.692  1.00  0.00    -0.550 OA
ENDBRANCH   1   2
BRANCH   1   5
ATOM      5  C   UNL     1       2.798 -37.163  17.496  1.00  0.00     0.003 C 
ATOM      6  C   UNL     1       3.677 -37.111  18.742  1.00  0.00     0.004 C 
ENDBRANCH   1   5
TORSDOF 2
ENDMDL
MODEL 3
REMARK VINA RESULT:    -3.052      2.432      3.212
REMARK INTER + INTRA:          -3.447
REMARK INTER:                  -3.422
REMARK INTRA:                  -0.025
REMARK UNBOUND:                -0.038
REMARK SMILES CCCC(=O)[O-]
REMARK SMILES IDX 3 1 4 2 5 3 6 4 2 5 1 6
REMARK H PARENT
REMARK Flexibility Score: inf
ROOT
ATOM      1  C   UNL     1       3.213 -37.287  16.467  1.00  0.00     0.052 C 
ENDROOT
BRANCH   1   2
ATOM      2  C   UNL     1       2.462 -36.334  15.593  1.00  0.00     0.041 C 
ATOM      3  O   UNL     1       2.763 -36.218  14.375  1.00  0.00    -0.550 OA
ATOM      4  O   UNL     1       1.395 -35.610  16.110  1.00  0.00    -0.550 OA
ENDBRANCH   1   2
BRANCH   1   5
ATOM      5  C   UNL     1       2.645 -37.272  17.888  1.00  0.00     0.003 C 
ATOM      6  C   UNL     1       3.752 -37.088  18.922  1.00  0.00     0.004 C 
ENDBRANCH   1   5
TORSDOF 2
ENDMDL
MODEL 4
REMARK VINA RESULT:    -3.040      1.245      1.473
REMARK INTER + INTRA:          -3.433
REMARK INTER:                  -3.396
REMARK INTRA:                  -0.037
REMARK UNBOUND:                -0.038
REMARK SMILES CCCC(=O)[O-]
REMARK SMILES IDX 3 1 4 2 5 3 6 4 2 5 1 6
REMARK H PARENT
REMARK Flexibility Score: inf
ROOT
ATOM      1  C   UNL     1       3.507 -36.702  17.701  1.00  0.00     0.052 C 
ENDROOT
BRANCH   1   2
ATOM      2  C   UNL     1       2.920 -37.328  18.926  1.00  0.00     0.041 C 
ATOM      3  O   UNL     1       3.569 -37.341  20.005  1.00  0.00    -0.550 OA
ATOM      4  O   UNL     1       1.634 -37.853  18.890  1.00  0.00    -0.550 OA
ENDBRANCH   1   2
BRANCH   1   5
ATOM      5  C   UNL     1       2.810 -37.226  16.444  1.00  0.00     0.003 C 
ATOM      6  C   UNL     1       1.959 -36.139  15.792  1.00  0.00     0.004 C 
ENDBRANCH   1   5
TORSDOF 2
ENDMDL
MODEL 5
REMARK VINA RESULT:    -2.987      2.489      3.684
REMARK INTER + INTRA:          -3.374
REMARK INTER:                  -3.343
REMARK INTRA:                  -0.030
REMARK UNBOUND:                -0.038
REMARK SMILES CCCC(=O)[O-]
REMARK SMILES IDX 3 1 4 2 5 3 6 4 2 5 1 6
REMARK H PARENT
REMARK Flexibility Score: inf
ROOT
ATOM      1  C   UNL     1       4.470 -37.215  19.489  1.00  0.00     0.052 C 
ENDROOT
BRANCH   1   2
ATOM      2  C   UNL     1       3.271 -37.207  18.595  1.00  0.00     0.041 C 
ATOM      3  O   UNL     1       3.375 -36.832  17.397  1.00  0.00    -0.550 OA
ATOM      4  O   UNL     1       2.047 -37.662  19.069  1.00  0.00    -0.550 OA
ENDBRANCH   1   2
BRANCH   1   5
ATOM      5  C   UNL     1       4.814 -35.793  19.936  1.00  0.00     0.003 C 
ATOM      6  C   UNL     1       4.413 -35.560  21.391  1.00  0.00     0.004 C 
ENDBRANCH   1   5
TORSDOF 2
ENDMDL
MODEL 6
REMARK VINA RESULT:    -2.850      2.838      3.549
REMARK INTER + INTRA:          -3.221
REMARK INTER:                  -3.216
REMARK INTRA:                  -0.005
REMARK UNBOUND:                -0.038
REMARK SMILES CCCC(=O)[O-]
REMARK SMILES IDX 3 1 4 2 5 3 6 4 2 5 1 6
REMARK H PARENT
REMARK Flexibility Score: inf
ROOT
ATOM      1  C   UNL     1       4.451 -36.396  19.486  1.00  0.00     0.052 C 
ENDROOT
BRANCH   1   2
ATOM      2  C   UNL     1       4.442 -36.357  20.981  1.00  0.00     0.041 C 
ATOM      3  O   UNL     1       4.184 -35.282  21.586  1.00  0.00    -0.550 OA
ATOM      4  O   UNL     1       4.669 -37.518  21.708  1.00  0.00    -0.550 OA
ENDBRANCH   1   2
BRANCH   1   5
ATOM      5  C   UNL     1       3.253 -37.191  18.963  1.00  0.00     0.003 C 
ATOM      6  C   UNL     1       3.112 -37.045  17.450  1.00  0.00     0.004 C 
ENDBRANCH   1   5
TORSDOF 2
ENDMDL
MODEL 7
REMARK VINA RESULT:    -2.802      3.903      4.707
REMARK INTER + INTRA:          -3.167
REMARK INTER:                  -3.144
REMARK INTRA:                  -0.023
REMARK UNBOUND:                -0.038
REMARK SMILES CCCC(=O)[O-]
REMARK SMILES IDX 3 1 4 2 5 3 6 4 2 5 1 6
REMARK H PARENT
REMARK Flexibility Score: inf
ROOT
ATOM      1  C   UNL     1       4.666 -35.779  20.565  1.00  0.00     0.052 C 
ENDROOT
BRANCH   1   2
ATOM      2  C   UNL     1       4.858 -36.013  22.030  1.00  0.00     0.041 C 
ATOM      3  O   UNL     1       4.872 -37.186  22.488  1.00  0.00    -0.550 OA
ATOM      4  O   UNL     1       5.071 -34.938  22.884  1.00  0.00    -0.550 OA
ENDBRANCH   1   2
BRANCH   1   5
ATOM      5  C   UNL     1       4.699 -37.105  19.802  1.00  0.00     0.003 C 
ATOM      6  C   UNL     1       3.640 -37.135  18.703  1.00  0.00     0.004 C 
ENDBRANCH   1   5
TORSDOF 2
ENDMDL
MODEL 8
REMARK VINA RESULT:    -2.685      5.470      6.925
REMARK INTER + INTRA:          -3.037
REMARK INTER:                  -3.025
REMARK INTRA:                  -0.012
REMARK UNBOUND:                -0.038
REMARK SMILES CCCC(=O)[O-]
REMARK SMILES IDX 3 1 4 2 5 3 6 4 2 5 1 6
REMARK H PARENT
REMARK Flexibility Score: inf
ROOT
ATOM      1  C   UNL     1       5.056 -36.293  23.226  1.00  0.00     0.052 C 
ENDROOT
BRANCH   1   2
ATOM      2  C   UNL     1       4.896 -36.561  21.763  1.00  0.00     0.041 C 
ATOM      3  O   UNL     1       5.034 -37.730  21.314  1.00  0.00    -0.550 OA
ATOM      4  O   UNL     1       4.545 -35.530  20.901  1.00  0.00    -0.550 OA
ENDBRANCH   1   2
BRANCH   1   5
ATOM      5  C   UNL     1       5.125 -37.606  24.008  1.00  0.00     0.003 C 
ATOM      6  C   UNL     1       5.099 -37.354  25.513  1.00  0.00     0.004 C 
ENDBRANCH   1   5
TORSDOF 2
ENDMDL
MODEL 9
REMARK VINA RESULT:    -2.624      6.366      7.222
REMARK INTER + INTRA:          -2.968
REMARK INTER:                  -2.955
REMARK INTRA:                  -0.013
REMARK UNBOUND:                -0.038
REMARK SMILES CCCC(=O)[O-]
REMARK SMILES IDX 3 1 4 2 5 3 6 4 2 5 1 6
REMARK H PARENT
REMARK Flexibility Score: inf
ROOT
ATOM      1  C   UNL     1       5.125 -36.453  23.949  1.00  0.00     0.052 C 
ENDROOT
BRANCH   1   2
ATOM      2  C   UNL     1       4.894 -37.596  24.886  1.00  0.00     0.041 C 
ATOM      3  O   UNL     1       5.072 -38.781  24.498  1.00  0.00    -0.550 OA
ATOM      4  O   UNL     1       4.530 -37.351  26.204  1.00  0.00    -0.550 OA
ENDBRANCH   1   2
BRANCH   1   5
ATOM      5  C   UNL     1       5.095 -36.937  22.497  1.00  0.00     0.003 C 
ATOM      6  C   UNL     1       4.557 -35.853  21.567  1.00  0.00     0.004 C 
ENDBRANCH   1   5
TORSDOF 2
ENDMDL
