MODEL 1
REMARK VINA RESULT:    -2.314      0.000      0.000
REMARK INTER + INTRA:          -3.188
REMARK INTER:                  -2.991
REMARK INTRA:                  -0.197
REMARK UNBOUND:                -0.197
REMARK SMILES CCCCCCC=O
REMARK SMILES IDX 4 1 3 2 2 3 1 4 5 5 6 6 7 7 8 8
REMARK H PARENT
REMARK Flexibility Score: inf
ROOT
ATOM      1  C   UNL     1     139.321 146.342 138.849  1.00  0.00     0.000 C 
ENDROOT
BRANCH   1   2
ATOM      2  C   UNL     1     138.506 145.103 138.425  1.00  0.00    -0.000 C 
BRANCH   2   3
ATOM      3  C   UNL     1     137.272 144.810 139.295  1.00  0.00    -0.003 C 
ATOM      4  C   UNL     1     136.186 145.877 139.168  1.00  0.00     0.004 C 
ENDBRANCH   2   3
ENDBRANCH   1   2
BRANCH   1   5
ATOM      5  C   UNL     1     140.033 147.087 137.700  1.00  0.00     0.008 C 
BRANCH   5   6
ATOM      6  C   UNL     1     139.715 148.590 137.624  1.00  0.00     0.072 C 
BRANCH   6   7
ATOM      7  C   UNL     1     138.293 148.900 137.994  1.00  0.00     0.224 C 
ATOM      8  O   UNL     1     137.799 149.967 137.666  1.00  0.00    -0.303 OA
ENDBRANCH   6   7
ENDBRANCH   5   6
ENDBRANCH   1   5
TORSDOF 5
ENDMDL
MODEL 2
REMARK VINA RESULT:    -2.312      1.238      3.322
REMARK INTER + INTRA:          -3.184
REMARK INTER:                  -2.839
REMARK INTRA:                  -0.346
REMARK UNBOUND:                -0.197
REMARK SMILES CCCCCCC=O
REMARK SMILES IDX 4 1 3 2 2 3 1 4 5 5 6 6 7 7 8 8
REMARK H PARENT
REMARK Flexibility Score: inf
ROOT
ATOM      1  C   UNL     1     138.694 146.193 139.550  1.00  0.00     0.000 C 
ENDROOT
BRANCH   1   2
ATOM      2  C   UNL     1     139.857 146.280 138.542  1.00  0.00    -0.000 C 
BRANCH   2   3
ATOM      3  C   UNL     1     139.541 147.060 137.254  1.00  0.00    -0.003 C 
ATOM      4  C   UNL     1     139.779 148.563 137.395  1.00  0.00     0.004 C 
ENDBRANCH   2   3
ENDBRANCH   1   2
BRANCH   1   5
ATOM      5  C   UNL     1     137.492 145.337 139.098  1.00  0.00     0.008 C 
BRANCH   5   6
ATOM      6  C   UNL     1     136.138 146.067 139.142  1.00  0.00     0.072 C 
BRANCH   6   7
ATOM      7  C   UNL     1     136.274 147.549 138.939  1.00  0.00     0.224 C 
ATOM      8  O   UNL     1     136.071 148.031 137.837  1.00  0.00    -0.303 OA
ENDBRANCH   6   7
ENDBRANCH   5   6
ENDBRANCH   1   5
TORSDOF 5
ENDMDL
MODEL 3
REMARK VINA RESULT:    -2.311      8.192      9.388
REMARK INTER + INTRA:          -3.184
REMARK INTER:                  -2.878
REMARK INTRA:                  -0.306
REMARK UNBOUND:                -0.197
REMARK SMILES CCCCCCC=O
REMARK SMILES IDX 4 1 3 2 2 3 1 4 5 5 6 6 7 7 8 8
REMARK H PARENT
REMARK Flexibility Score: inf
ROOT
ATOM      1  C   UNL     1     135.489 138.986 139.604  1.00  0.00     0.000 C 
ENDROOT
BRANCH   1   2
ATOM      2  C   UNL     1     134.947 137.582 139.268  1.00  0.00    -0.000 C 
BRANCH   2   3
ATOM      3  C   UNL     1     135.980 136.447 139.366  1.00  0.00    -0.003 C 
ATOM      4  C   UNL     1     137.390 136.890 138.978  1.00  0.00     0.004 C 
ENDBRANCH   2   3
ENDBRANCH   1   2
BRANCH   1   5
ATOM      5  C   UNL     1     135.365 140.029 138.473  1.00  0.00     0.008 C 
BRANCH   5   6
ATOM      6  C   UNL     1     134.711 139.497 137.186  1.00  0.00     0.072 C 
BRANCH   6   7
ATOM      7  C   UNL     1     133.402 140.168 136.883  1.00  0.00     0.224 C 
ATOM      8  O   UNL     1     132.414 139.897 137.546  1.00  0.00    -0.303 OA
ENDBRANCH   6   7
ENDBRANCH   5   6
ENDBRANCH   1   5
TORSDOF 5
ENDMDL
MODEL 4
REMARK VINA RESULT:    -2.294      8.940     10.021
REMARK INTER + INTRA:          -3.161
REMARK INTER:                  -2.968
REMARK INTRA:                  -0.193
REMARK UNBOUND:                -0.197
REMARK SMILES CCCCCCC=O
REMARK SMILES IDX 4 1 3 2 2 3 1 4 5 5 6 6 7 7 8 8
REMARK H PARENT
REMARK Flexibility Score: inf
ROOT
ATOM      1  C   UNL     1     146.440 142.637 138.901  1.00  0.00     0.000 C 
ENDROOT
BRANCH   1   2
ATOM      2  C   UNL     1     145.027 143.164 138.580  1.00  0.00    -0.000 C 
BRANCH   2   3
ATOM      3  C   UNL     1     144.736 144.588 139.083  1.00  0.00    -0.003 C 
ATOM      4  C   UNL     1     145.994 145.447 139.200  1.00  0.00     0.004 C 
ENDBRANCH   2   3
ENDBRANCH   1   2
BRANCH   1   5
ATOM      5  C   UNL     1     147.001 141.602 137.903  1.00  0.00     0.008 C 
BRANCH   5   6
ATOM      6  C   UNL     1     148.477 141.818 137.524  1.00  0.00     0.072 C 
BRANCH   6   7
ATOM      7  C   UNL     1     148.987 143.169 137.935  1.00  0.00     0.224 C 
ATOM      8  O   UNL     1     150.076 143.552 137.541  1.00  0.00    -0.303 OA
ENDBRANCH   6   7
ENDBRANCH   5   6
ENDBRANCH   1   5
TORSDOF 5
ENDMDL
MODEL 5
REMARK VINA RESULT:    -2.292      9.016     10.947
REMARK INTER + INTRA:          -3.159
REMARK INTER:                  -2.859
REMARK INTRA:                  -0.300
REMARK UNBOUND:                -0.197
REMARK SMILES CCCCCCC=O
REMARK SMILES IDX 4 1 3 2 2 3 1 4 5 5 6 6 7 7 8 8
REMARK H PARENT
REMARK Flexibility Score: inf
ROOT
ATOM      1  C   UNL     1     132.694 139.691 137.666  1.00  0.00     0.000 C 
ENDROOT
BRANCH   1   2
ATOM      2  C   UNL     1     134.105 139.780 137.051  1.00  0.00    -0.000 C 
BRANCH   2   3
ATOM      3  C   UNL     1     135.235 140.061 138.057  1.00  0.00    -0.003 C 
ATOM      4  C   UNL     1     136.180 138.874 138.238  1.00  0.00     0.004 C 
ENDBRANCH   2   3
ENDBRANCH   1   2
BRANCH   1   5
ATOM      5  C   UNL     1     132.086 138.274 137.719  1.00  0.00     0.008 C 
BRANCH   5   6
ATOM      6  C   UNL     1     132.727 137.344 138.763  1.00  0.00     0.072 C 
BRANCH   6   7
ATOM      7  C   UNL     1     133.490 136.212 138.138  1.00  0.00     0.224 C 
ATOM      8  O   UNL     1     132.888 135.275 137.642  1.00  0.00    -0.303 OA
ENDBRANCH   6   7
ENDBRANCH   5   6
ENDBRANCH   1   5
TORSDOF 5
ENDMDL
MODEL 6
REMARK VINA RESULT:    -2.288     13.171     14.568
REMARK INTER + INTRA:          -3.153
REMARK INTER:                  -2.735
REMARK INTRA:                  -0.418
REMARK UNBOUND:                -0.197
REMARK SMILES CCCCCCC=O
REMARK SMILES IDX 4 1 3 2 2 3 1 4 5 5 6 6 7 7 8 8
REMARK H PARENT
REMARK Flexibility Score: inf
ROOT
ATOM      1  C   UNL     1     141.938 132.797 137.676  1.00  0.00     0.000 C 
ENDROOT
BRANCH   1   2
ATOM      2  C   UNL     1     141.946 134.115 136.876  1.00  0.00    -0.000 C 
BRANCH   2   3
ATOM      3  C   UNL     1     141.776 135.389 137.722  1.00  0.00    -0.003 C 
ATOM      4  C   UNL     1     141.762 135.109 139.224  1.00  0.00     0.004 C 
ENDBRANCH   2   3
ENDBRANCH   1   2
BRANCH   1   5
ATOM      5  C   UNL     1     143.252 131.989 137.627  1.00  0.00     0.008 C 
BRANCH   5   6
ATOM      6  C   UNL     1     144.251 132.328 138.746  1.00  0.00     0.072 C 
BRANCH   6   7
ATOM      7  C   UNL     1     145.291 133.320 138.311  1.00  0.00     0.224 C 
ATOM      8  O   UNL     1     145.228 134.475 138.699  1.00  0.00    -0.303 OA
ENDBRANCH   6   7
ENDBRANCH   5   6
ENDBRANCH   1   5
TORSDOF 5
ENDMDL
MODEL 7
REMARK VINA RESULT:    -2.280     12.351     13.674
REMARK INTER + INTRA:          -3.143
REMARK INTER:                  -2.869
REMARK INTRA:                  -0.274
REMARK UNBOUND:                -0.197
REMARK SMILES CCCCCCC=O
REMARK SMILES IDX 4 1 3 2 2 3 1 4 5 5 6 6 7 7 8 8
REMARK H PARENT
REMARK Flexibility Score: inf
ROOT
ATOM      1  C   UNL     1     142.400 135.782 139.269  1.00  0.00     0.000 C 
ENDROOT
BRANCH   1   2
ATOM      2  C   UNL     1     143.397 136.791 138.665  1.00  0.00    -0.000 C 
BRANCH   2   3
ATOM      3  C   UNL     1     144.824 136.712 139.235  1.00  0.00    -0.003 C 
ATOM      4  C   UNL     1     145.384 135.291 139.245  1.00  0.00     0.004 C 
ENDBRANCH   2   3
ENDBRANCH   1   2
BRANCH   1   5
ATOM      5  C   UNL     1     141.401 135.163 138.269  1.00  0.00     0.008 C 
BRANCH   5   6
ATOM      6  C   UNL     1     142.053 134.338 137.146  1.00  0.00     0.072 C 
BRANCH   6   7
ATOM      7  C   UNL     1     142.141 132.876 137.479  1.00  0.00     0.224 C 
ATOM      8  O   UNL     1     143.187 132.413 137.902  1.00  0.00    -0.303 OA
ENDBRANCH   6   7
ENDBRANCH   5   6
ENDBRANCH   1   5
TORSDOF 5
ENDMDL
MODEL 8
REMARK VINA RESULT:    -2.277      9.373     10.297
REMARK INTER + INTRA:          -3.139
REMARK INTER:                  -2.845
REMARK INTRA:                  -0.294
REMARK UNBOUND:                -0.197
REMARK SMILES CCCCCCC=O
REMARK SMILES IDX 4 1 3 2 2 3 1 4 5 5 6 6 7 7 8 8
REMARK H PARENT
REMARK Flexibility Score: inf
ROOT
ATOM      1  C   UNL     1     148.891 141.871 137.652  1.00  0.00     0.000 C 
ENDROOT
BRANCH   1   2
ATOM      2  C   UNL     1     147.467 141.808 137.064  1.00  0.00    -0.000 C 
BRANCH   2   3
ATOM      3  C   UNL     1     146.354 141.533 138.089  1.00  0.00    -0.003 C 
ATOM      4  C   UNL     1     145.396 142.711 138.258  1.00  0.00     0.004 C 
ENDBRANCH   2   3
ENDBRANCH   1   2
BRANCH   1   5
ATOM      5  C   UNL     1     149.532 143.275 137.678  1.00  0.00     0.008 C 
BRANCH   5   6
ATOM      6  C   UNL     1     148.901 144.245 138.691  1.00  0.00     0.072 C 
BRANCH   6   7
ATOM      7  C   UNL     1     148.166 145.375 138.028  1.00  0.00     0.224 C 
ATOM      8  O   UNL     1     148.760 146.402 137.745  1.00  0.00    -0.303 OA
ENDBRANCH   6   7
ENDBRANCH   5   6
ENDBRANCH   1   5
TORSDOF 5
ENDMDL
MODEL 9
REMARK VINA RESULT:    -2.240      1.925      2.911
REMARK INTER + INTRA:          -3.092
REMARK INTER:                  -2.679
REMARK INTRA:                  -0.413
REMARK UNBOUND:                -0.197
REMARK SMILES CCCCCCC=O
REMARK SMILES IDX 4 1 3 2 2 3 1 4 5 5 6 6 7 7 8 8
REMARK H PARENT
REMARK Flexibility Score: inf
ROOT
ATOM      1  C   UNL     1     139.593 148.382 137.790  1.00  0.00     0.000 C 
ENDROOT
BRANCH   1   2
ATOM      2  C   UNL     1     139.551 147.142 136.875  1.00  0.00    -0.000 C 
BRANCH   2   3
ATOM      3  C   UNL     1     139.532 145.792 137.614  1.00  0.00    -0.003 C 
ATOM      4  C   UNL     1     139.814 145.927 139.109  1.00  0.00     0.004 C 
ENDBRANCH   2   3
ENDBRANCH   1   2
BRANCH   1   5
ATOM      5  C   UNL     1     138.354 149.299 137.716  1.00  0.00     0.008 C 
BRANCH   5   6
ATOM      6  C   UNL     1     137.341 149.093 138.856  1.00  0.00     0.072 C 
BRANCH   6   7
ATOM      7  C   UNL     1     136.274 148.096 138.507  1.00  0.00     0.224 C 
ATOM      8  O   UNL     1     136.390 146.934 138.860  1.00  0.00    -0.303 OA
ENDBRANCH   6   7
ENDBRANCH   5   6
ENDBRANCH   1   5
TORSDOF 5
ENDMDL
