MODEL 1
REMARK VINA RESULT:    -2.782      0.000      0.000
REMARK INTER + INTRA:          -3.663
REMARK INTER:                  -3.433
REMARK INTRA:                  -0.230
REMARK UNBOUND:                -0.230
REMARK SMILES CCCCCC(=O)[O-]
REMARK SMILES IDX 4 1 5 2 6 3 7 4 8 5 3 6 2 7 1 8
REMARK H PARENT
REMARK Flexibility Score: inf
ROOT
ATOM      1  C   UNL     1      20.523 -11.943  -0.778  1.00  0.00     0.006 C 
ENDROOT
BRANCH   1   2
ATOM      2  C   UNL     1      20.459 -13.073  -1.809  1.00  0.00     0.053 C 
BRANCH   2   3
ATOM      3  C   UNL     1      19.128 -13.756  -1.757  1.00  0.00     0.041 C 
ATOM      4  O   UNL     1      18.154 -13.295  -2.409  1.00  0.00    -0.550 OA
ATOM      5  O   UNL     1      18.950 -14.872  -0.951  1.00  0.00    -0.550 OA
ENDBRANCH   2   3
ENDBRANCH   1   2
BRANCH   1   6
ATOM      6  C   UNL     1      20.616 -10.574  -1.469  1.00  0.00     0.000 C 
BRANCH   6   7
ATOM      7  C   UNL     1      19.258  -9.860  -1.550  1.00  0.00    -0.003 C 
ATOM      8  C   UNL     1      18.755  -9.708  -2.985  1.00  0.00     0.004 C 
ENDBRANCH   6   7
ENDBRANCH   1   6
TORSDOF 4
ENDMDL
MODEL 2
REMARK VINA RESULT:    -2.685     14.796     15.788
REMARK INTER + INTRA:          -3.543
REMARK INTER:                  -3.427
REMARK INTRA:                  -0.117
REMARK UNBOUND:                -0.230
REMARK SMILES CCCCCC(=O)[O-]
REMARK SMILES IDX 4 1 5 2 6 3 7 4 8 5 3 6 2 7 1 8
REMARK H PARENT
REMARK Flexibility Score: inf
ROOT
ATOM      1  C   UNL     1      18.864 -15.633  12.730  1.00  0.00     0.006 C 
ENDROOT
BRANCH   1   2
ATOM      2  C   UNL     1      17.863 -16.205  13.736  1.00  0.00     0.053 C 
BRANCH   2   3
ATOM      3  C   UNL     1      18.251 -15.833  15.133  1.00  0.00     0.041 C 
ATOM      4  O   UNL     1      17.383 -15.804  16.045  1.00  0.00    -0.550 OA
ATOM      5  O   UNL     1      19.561 -15.471  15.417  1.00  0.00    -0.550 OA
ENDBRANCH   2   3
ENDBRANCH   1   2
BRANCH   1   6
ATOM      6  C   UNL     1      19.341 -16.718  11.752  1.00  0.00     0.000 C 
BRANCH   6   7
ATOM      7  C   UNL     1      18.778 -16.525  10.336  1.00  0.00    -0.003 C 
ATOM      8  C   UNL     1      17.774 -17.608   9.945  1.00  0.00     0.004 C 
ENDBRANCH   6   7
ENDBRANCH   1   6
TORSDOF 4
ENDMDL
MODEL 3
REMARK VINA RESULT:    -2.609      1.632      2.808
REMARK INTER + INTRA:          -3.450
REMARK INTER:                  -3.260
REMARK INTRA:                  -0.189
REMARK UNBOUND:                -0.230
REMARK SMILES CCCCCC(=O)[O-]
REMARK SMILES IDX 4 1 5 2 6 3 7 4 8 5 3 6 2 7 1 8
REMARK H PARENT
REMARK Flexibility Score: inf
ROOT
ATOM      1  C   UNL     1      20.439 -10.243  -1.469  1.00  0.00     0.006 C 
ENDROOT
BRANCH   1   2
ATOM      2  C   UNL     1      19.018 -10.401  -2.016  1.00  0.00     0.053 C 
BRANCH   2   3
ATOM      3  C   UNL     1      18.642 -11.848  -2.090  1.00  0.00     0.041 C 
ATOM      4  O   UNL     1      17.677 -12.215  -2.812  1.00  0.00    -0.550 OA
ATOM      5  O   UNL     1      19.324 -12.784  -1.324  1.00  0.00    -0.550 OA
ENDBRANCH   2   3
ENDBRANCH   1   2
BRANCH   1   6
ATOM      6  C   UNL     1      21.475 -10.311  -2.601  1.00  0.00     0.000 C 
BRANCH   6   7
ATOM      7  C   UNL     1      22.819 -10.893  -2.138  1.00  0.00    -0.003 C 
ATOM      8  C   UNL     1      22.692 -11.737  -0.870  1.00  0.00     0.004 C 
ENDBRANCH   6   7
ENDBRANCH   1   6
TORSDOF 4
ENDMDL
MODEL 4
REMARK VINA RESULT:    -2.605     13.568     14.556
REMARK INTER + INTRA:          -3.444
REMARK INTER:                  -3.338
REMARK INTRA:                  -0.107
REMARK UNBOUND:                -0.230
REMARK SMILES CCCCCC(=O)[O-]
REMARK SMILES IDX 4 1 5 2 6 3 7 4 8 5 3 6 2 7 1 8
REMARK H PARENT
REMARK Flexibility Score: inf
ROOT
ATOM      1  C   UNL     1      18.885 -15.768  12.538  1.00  0.00     0.006 C 
ENDROOT
BRANCH   1   2
ATOM      2  C   UNL     1      19.221 -16.924  11.593  1.00  0.00     0.053 C 
BRANCH   2   3
ATOM      3  C   UNL     1      18.582 -16.713  10.257  1.00  0.00     0.041 C 
ATOM      4  O   UNL     1      18.724 -15.616   9.654  1.00  0.00    -0.550 OA
ATOM      5  O   UNL     1      17.789 -17.707   9.699  1.00  0.00    -0.550 OA
ENDBRANCH   2   3
ENDBRANCH   1   2
BRANCH   1   6
ATOM      6  C   UNL     1      17.857 -16.202  13.594  1.00  0.00     0.000 C 
BRANCH   6   7
ATOM      7  C   UNL     1      17.390 -17.654  13.401  1.00  0.00    -0.003 C 
ATOM      8  C   UNL     1      15.971 -17.750  12.843  1.00  0.00     0.004 C 
ENDBRANCH   6   7
ENDBRANCH   1   6
TORSDOF 4
ENDMDL
MODEL 5
REMARK VINA RESULT:    -2.585     13.552     14.609
REMARK INTER + INTRA:          -3.420
REMARK INTER:                  -3.292
REMARK INTRA:                  -0.128
REMARK UNBOUND:                -0.230
REMARK SMILES CCCCCC(=O)[O-]
REMARK SMILES IDX 4 1 5 2 6 3 7 4 8 5 3 6 2 7 1 8
REMARK H PARENT
REMARK Flexibility Score: inf
ROOT
ATOM      1  C   UNL     1      18.083 -16.751  12.630  1.00  0.00     0.006 C 
ENDROOT
BRANCH   1   2
ATOM      2  C   UNL     1      19.160 -16.640  11.548  1.00  0.00     0.053 C 
BRANCH   2   3
ATOM      3  C   UNL     1      18.536 -16.589  10.189  1.00  0.00     0.041 C 
ATOM      4  O   UNL     1      17.921 -17.591   9.737  1.00  0.00    -0.550 OA
ATOM      5  O   UNL     1      18.676 -15.455   9.401  1.00  0.00    -0.550 OA
ENDBRANCH   2   3
ENDBRANCH   1   2
BRANCH   1   6
ATOM      6  C   UNL     1      18.452 -15.911  13.862  1.00  0.00     0.000 C 
BRANCH   6   7
ATOM      7  C   UNL     1      19.772 -15.145  13.681  1.00  0.00    -0.003 C 
ATOM      8  C   UNL     1      20.792 -15.456  14.775  1.00  0.00     0.004 C 
ENDBRANCH   6   7
ENDBRANCH   1   6
TORSDOF 4
ENDMDL
MODEL 6
REMARK VINA RESULT:    -2.515      2.503      4.187
REMARK INTER + INTRA:          -3.334
REMARK INTER:                  -3.245
REMARK INTRA:                  -0.089
REMARK UNBOUND:                -0.230
REMARK SMILES CCCCCC(=O)[O-]
REMARK SMILES IDX 4 1 5 2 6 3 7 4 8 5 3 6 2 7 1 8
REMARK H PARENT
REMARK Flexibility Score: inf
ROOT
ATOM      1  C   UNL     1      19.702 -12.537  -1.180  1.00  0.00     0.006 C 
ENDROOT
BRANCH   1   2
ATOM      2  C   UNL     1      18.798 -11.634  -2.022  1.00  0.00     0.053 C 
BRANCH   2   3
ATOM      3  C   UNL     1      19.267 -10.214  -1.958  1.00  0.00     0.041 C 
ATOM      4  O   UNL     1      20.253  -9.906  -1.237  1.00  0.00    -0.550 OA
ATOM      5  O   UNL     1      18.587  -9.224  -2.654  1.00  0.00    -0.550 OA
ENDBRANCH   2   3
ENDBRANCH   1   2
BRANCH   1   6
ATOM      6  C   UNL     1      19.998 -13.855  -1.913  1.00  0.00     0.000 C 
BRANCH   6   7
ATOM      7  C   UNL     1      19.167 -15.030  -1.375  1.00  0.00    -0.003 C 
ATOM      8  C   UNL     1      17.790 -15.130  -2.030  1.00  0.00     0.004 C 
ENDBRANCH   6   7
ENDBRANCH   1   6
TORSDOF 4
ENDMDL
MODEL 7
REMARK VINA RESULT:    -2.463      2.441      3.123
REMARK INTER + INTRA:          -3.269
REMARK INTER:                  -3.079
REMARK INTRA:                  -0.190
REMARK UNBOUND:                -0.230
REMARK SMILES CCCCCC(=O)[O-]
REMARK SMILES IDX 4 1 5 2 6 3 7 4 8 5 3 6 2 7 1 8
REMARK H PARENT
REMARK Flexibility Score: inf
ROOT
ATOM      1  C   UNL     1      20.186 -10.255  -1.255  1.00  0.00     0.006 C 
ENDROOT
BRANCH   1   2
ATOM      2  C   UNL     1      21.418 -10.592  -2.098  1.00  0.00     0.053 C 
BRANCH   2   3
ATOM      3  C   UNL     1      22.051 -11.861  -1.619  1.00  0.00     0.041 C 
ATOM      4  O   UNL     1      22.813 -11.849  -0.617  1.00  0.00    -0.550 OA
ATOM      5  O   UNL     1      21.839 -13.047  -2.309  1.00  0.00    -0.550 OA
ENDBRANCH   2   3
ENDBRANCH   1   2
BRANCH   1   6
ATOM      6  C   UNL     1      18.997  -9.869  -2.148  1.00  0.00     0.000 C 
BRANCH   6   7
ATOM      7  C   UNL     1      18.604 -10.988  -3.125  1.00  0.00    -0.003 C 
ATOM      8  C   UNL     1      18.206 -12.281  -2.414  1.00  0.00     0.004 C 
ENDBRANCH   6   7
ENDBRANCH   1   6
TORSDOF 4
ENDMDL
MODEL 8
REMARK VINA RESULT:    -2.416      1.494      2.429
REMARK INTER + INTRA:          -3.211
REMARK INTER:                  -2.989
REMARK INTRA:                  -0.222
REMARK UNBOUND:                -0.230
REMARK SMILES CCCCCC(=O)[O-]
REMARK SMILES IDX 4 1 5 2 6 3 7 4 8 5 3 6 2 7 1 8
REMARK H PARENT
REMARK Flexibility Score: inf
ROOT
ATOM      1  C   UNL     1      20.162 -11.709  -0.789  1.00  0.00     0.006 C 
ENDROOT
BRANCH   1   2
ATOM      2  C   UNL     1      19.348 -12.586  -1.744  1.00  0.00     0.053 C 
BRANCH   2   3
ATOM      3  C   UNL     1      19.791 -14.012  -1.653  1.00  0.00     0.041 C 
ATOM      4  O   UNL     1      20.801 -14.404  -2.296  1.00  0.00    -0.550 OA
ATOM      5  O   UNL     1      19.061 -14.920  -0.898  1.00  0.00    -0.550 OA
ENDBRANCH   2   3
ENDBRANCH   1   2
BRANCH   1   6
ATOM      6  C   UNL     1      20.824 -10.545  -1.543  1.00  0.00     0.000 C 
BRANCH   6   7
ATOM      7  C   UNL     1      22.308 -10.806  -1.846  1.00  0.00    -0.003 C 
ATOM      8  C   UNL     1      22.953 -11.772  -0.853  1.00  0.00     0.004 C 
ENDBRANCH   6   7
ENDBRANCH   1   6
TORSDOF 4
ENDMDL
