MODEL 1
REMARK VINA RESULT:    -4.271      0.000      0.000
REMARK INTER + INTRA:          -7.793
REMARK INTER:                  -6.519
REMARK INTRA:                  -1.274
REMARK UNBOUND:                -1.274
REMARK SMILES CCCCCCCCCCC(=O)[O-]
REMARK SMILES IDX 7 1 8 2 9 3 10 4 11 5 12 6 13 7 6 8 5 9 4 10 3 11 2 12 1 13
REMARK H PARENT
REMARK Flexibility Score: inf
ROOT
ATOM      1  C   UNL     1      62.049  29.480  24.894  1.00  0.00     0.000 C 
ENDROOT
BRANCH   1   2
ATOM      2  C   UNL     1      61.258  28.219  24.513  1.00  0.00     0.000 C 
BRANCH   2   3
ATOM      3  C   UNL     1      60.777  27.474  25.764  1.00  0.00     0.006 C 
BRANCH   3   4
ATOM      4  C   UNL     1      61.951  27.142  26.691  1.00  0.00     0.053 C 
BRANCH   4   5
ATOM      5  C   UNL     1      61.687  27.649  28.073  1.00  0.00     0.041 C 
ATOM      6  O   UNL     1      62.289  27.145  29.058  1.00  0.00    -0.550 OA
ATOM      7  O   UNL     1      60.814  28.711  28.270  1.00  0.00    -0.550 OA
ENDBRANCH   4   5
ENDBRANCH   3   4
ENDBRANCH   2   3
ENDBRANCH   1   2
BRANCH   1   8
ATOM      8  C   UNL     1      63.414  29.560  24.193  1.00  0.00     0.000 C 
BRANCH   8   9
ATOM      9  C   UNL     1      64.583  29.673  25.189  1.00  0.00    -0.000 C 
BRANCH   9  10
ATOM     10  C   UNL     1      65.316  28.336  25.393  1.00  0.00    -0.000 C 
BRANCH  10  11
ATOM     11  C   UNL     1      65.334  27.472  24.120  1.00  0.00    -0.000 C 
BRANCH  11  12
ATOM     12  C   UNL     1      64.926  26.015  24.392  1.00  0.00    -0.003 C 
ATOM     13  C   UNL     1      63.659  25.604  23.643  1.00  0.00     0.004 C 
ENDBRANCH  11  12
ENDBRANCH  10  11
ENDBRANCH   9  10
ENDBRANCH   8   9
ENDBRANCH   1   8
TORSDOF 9
ENDMDL
MODEL 2
REMARK VINA RESULT:    -4.184      2.626      4.752
REMARK INTER + INTRA:          -7.659
REMARK INTER:                  -6.506
REMARK INTRA:                  -1.153
REMARK UNBOUND:                -1.274
REMARK SMILES CCCCCCCCCCC(=O)[O-]
REMARK SMILES IDX 7 1 8 2 9 3 10 4 11 5 12 6 13 7 6 8 5 9 4 10 3 11 2 12 1 13
REMARK H PARENT
REMARK Flexibility Score: inf
ROOT
ATOM      1  C   UNL     1      63.705  29.662  24.718  1.00  0.00     0.000 C 
ENDROOT
BRANCH   1   2
ATOM      2  C   UNL     1      64.571  28.786  25.635  1.00  0.00     0.000 C 
BRANCH   2   3
ATOM      3  C   UNL     1      65.319  27.718  24.827  1.00  0.00     0.006 C 
BRANCH   3   4
ATOM      4  C   UNL     1      64.657  26.346  24.984  1.00  0.00     0.053 C 
BRANCH   4   5
ATOM      5  C   UNL     1      64.115  25.872  23.673  1.00  0.00     0.041 C 
ATOM      6  O   UNL     1      63.073  25.166  23.638  1.00  0.00    -0.550 OA
ATOM      7  O   UNL     1      64.730  26.250  22.488  1.00  0.00    -0.550 OA
ENDBRANCH   4   5
ENDBRANCH   3   4
ENDBRANCH   2   3
ENDBRANCH   1   2
BRANCH   1   8
ATOM      8  C   UNL     1      62.209  29.592  25.067  1.00  0.00     0.000 C 
BRANCH   8   9
ATOM      9  C   UNL     1      61.508  28.383  24.421  1.00  0.00    -0.000 C 
BRANCH   9  10
ATOM     10  C   UNL     1      60.647  27.595  25.422  1.00  0.00    -0.000 C 
BRANCH  10  11
ATOM     11  C   UNL     1      61.473  27.016  26.584  1.00  0.00    -0.000 C 
BRANCH  11  12
ATOM     12  C   UNL     1      60.797  27.227  27.949  1.00  0.00    -0.003 C 
ATOM     13  C   UNL     1      60.957  28.652  28.476  1.00  0.00     0.004 C 
ENDBRANCH  11  12
ENDBRANCH  10  11
ENDBRANCH   9  10
ENDBRANCH   8   9
ENDBRANCH   1   8
TORSDOF 9
ENDMDL
MODEL 3
REMARK VINA RESULT:    -4.167      1.984      2.465
REMARK INTER + INTRA:          -7.634
REMARK INTER:                  -6.388
REMARK INTRA:                  -1.246
REMARK UNBOUND:                -1.274
REMARK SMILES CCCCCCCCCCC(=O)[O-]
REMARK SMILES IDX 7 1 8 2 9 3 10 4 11 5 12 6 13 7 6 8 5 9 4 10 3 11 2 12 1 13
REMARK H PARENT
REMARK Flexibility Score: inf
ROOT
ATOM      1  C   UNL     1      62.696  30.001  26.830  1.00  0.00     0.000 C 
ENDROOT
BRANCH   1   2
ATOM      2  C   UNL     1      62.580  28.761  27.730  1.00  0.00     0.000 C 
BRANCH   2   3
ATOM      3  C   UNL     1      61.186  28.132  27.619  1.00  0.00     0.006 C 
BRANCH   3   4
ATOM      4  C   UNL     1      61.203  26.917  26.687  1.00  0.00     0.053 C 
BRANCH   4   5
ATOM      5  C   UNL     1      60.313  27.149  25.507  1.00  0.00     0.041 C 
ATOM      6  O   UNL     1      59.312  26.410  25.314  1.00  0.00    -0.550 OA
ATOM      7  O   UNL     1      60.560  28.211  24.647  1.00  0.00    -0.550 OA
ENDBRANCH   4   5
ENDBRANCH   3   4
ENDBRANCH   2   3
ENDBRANCH   1   2
BRANCH   1   8
ATOM      8  C   UNL     1      63.731  29.827  25.707  1.00  0.00     0.000 C 
BRANCH   8   9
ATOM      9  C   UNL     1      64.835  28.819  26.073  1.00  0.00    -0.000 C 
BRANCH   9  10
ATOM     10  C   UNL     1      65.158  27.852  24.921  1.00  0.00    -0.000 C 
BRANCH  10  11
ATOM     11  C   UNL     1      64.554  26.454  25.137  1.00  0.00    -0.000 C 
BRANCH  11  12
ATOM     12  C   UNL     1      63.630  26.028  23.985  1.00  0.00    -0.003 C 
ATOM     13  C   UNL     1      63.424  27.133  22.950  1.00  0.00     0.004 C 
ENDBRANCH  11  12
ENDBRANCH  10  11
ENDBRANCH   9  10
ENDBRANCH   8   9
ENDBRANCH   1   8
TORSDOF 9
ENDMDL
MODEL 4
REMARK VINA RESULT:    -4.152     13.237     14.509
REMARK INTER + INTRA:          -7.611
REMARK INTER:                  -6.388
REMARK INTRA:                  -1.224
REMARK UNBOUND:                -1.274
REMARK SMILES CCCCCCCCCCC(=O)[O-]
REMARK SMILES IDX 7 1 8 2 9 3 10 4 11 5 12 6 13 7 6 8 5 9 4 10 3 11 2 12 1 13
REMARK H PARENT
REMARK Flexibility Score: inf
ROOT
ATOM      1  C   UNL     1      61.971  29.364  13.663  1.00  0.00     0.000 C 
ENDROOT
BRANCH   1   2
ATOM      2  C   UNL     1      61.219  28.492  12.646  1.00  0.00     0.000 C 
BRANCH   2   3
ATOM      3  C   UNL     1      60.328  29.352  11.741  1.00  0.00     0.006 C 
BRANCH   3   4
ATOM      4  C   UNL     1      61.114  29.877  10.535  1.00  0.00     0.053 C 
BRANCH   4   5
ATOM      5  C   UNL     1      61.812  28.754   9.835  1.00  0.00     0.041 C 
ATOM      6  O   UNL     1      61.145  27.874   9.230  1.00  0.00    -0.550 OA
ATOM      7  O   UNL     1      63.199  28.707   9.808  1.00  0.00    -0.550 OA
ENDBRANCH   4   5
ENDBRANCH   3   4
ENDBRANCH   2   3
ENDBRANCH   1   2
BRANCH   1   8
ATOM      8  C   UNL     1      63.462  29.523  13.323  1.00  0.00     0.000 C 
BRANCH   8   9
ATOM      9  C   UNL     1      63.966  30.962  13.537  1.00  0.00    -0.000 C 
BRANCH   9  10
ATOM     10  C   UNL     1      63.213  31.987  12.674  1.00  0.00    -0.000 C 
BRANCH  10  11
ATOM     11  C   UNL     1      62.477  33.042  13.517  1.00  0.00    -0.000 C 
BRANCH  11  12
ATOM     12  C   UNL     1      60.972  33.098  13.208  1.00  0.00    -0.003 C 
ATOM     13  C   UNL     1      60.123  32.380  14.256  1.00  0.00     0.004 C 
ENDBRANCH  11  12
ENDBRANCH  10  11
ENDBRANCH   9  10
ENDBRANCH   8   9
ENDBRANCH   1   8
TORSDOF 9
ENDMDL
MODEL 5
REMARK VINA RESULT:    -4.121     12.338     13.686
REMARK INTER + INTRA:          -7.563
REMARK INTER:                  -6.276
REMARK INTRA:                  -1.287
REMARK UNBOUND:                -1.274
REMARK SMILES CCCCCCCCCCC(=O)[O-]
REMARK SMILES IDX 7 1 8 2 9 3 10 4 11 5 12 6 13 7 6 8 5 9 4 10 3 11 2 12 1 13
REMARK H PARENT
REMARK Flexibility Score: inf
ROOT
ATOM      1  C   UNL     1      63.592  30.502  13.602  1.00  0.00     0.000 C 
ENDROOT
BRANCH   1   2
ATOM      2  C   UNL     1      62.892  29.192  13.209  1.00  0.00     0.000 C 
BRANCH   2   3
ATOM      3  C   UNL     1      61.410  29.223  13.600  1.00  0.00     0.006 C 
BRANCH   3   4
ATOM      4  C   UNL     1      60.564  28.411  12.614  1.00  0.00     0.053 C 
BRANCH   4   5
ATOM      5  C   UNL     1      60.639  29.007  11.244  1.00  0.00     0.041 C 
ATOM      6  O   UNL     1      60.242  30.185  11.044  1.00  0.00    -0.550 OA
ATOM      7  O   UNL     1      61.191  28.280  10.198  1.00  0.00    -0.550 OA
ENDBRANCH   4   5
ENDBRANCH   3   4
ENDBRANCH   2   3
ENDBRANCH   1   2
BRANCH   1   8
ATOM      8  C   UNL     1      63.329  31.640  12.602  1.00  0.00     0.000 C 
BRANCH   8   9
ATOM      9  C   UNL     1      62.656  32.859  13.258  1.00  0.00    -0.000 C 
BRANCH   9  10
ATOM     10  C   UNL     1      61.140  32.905  13.002  1.00  0.00    -0.000 C 
BRANCH  10  11
ATOM     11  C   UNL     1      60.318  32.686  14.285  1.00  0.00    -0.000 C 
BRANCH  11  12
ATOM     12  C   UNL     1      61.166  32.833  15.558  1.00  0.00    -0.003 C 
ATOM     13  C   UNL     1      61.157  31.575  16.425  1.00  0.00     0.004 C 
ENDBRANCH  11  12
ENDBRANCH  10  11
ENDBRANCH   9  10
ENDBRANCH   8   9
ENDBRANCH   1   8
TORSDOF 9
ENDMDL
MODEL 6
REMARK VINA RESULT:    -4.101     13.332     14.470
REMARK INTER + INTRA:          -7.533
REMARK INTER:                  -6.370
REMARK INTRA:                  -1.163
REMARK UNBOUND:                -1.274
REMARK SMILES CCCCCCCCCCC(=O)[O-]
REMARK SMILES IDX 7 1 8 2 9 3 10 4 11 5 12 6 13 7 6 8 5 9 4 10 3 11 2 12 1 13
REMARK H PARENT
REMARK Flexibility Score: inf
ROOT
ATOM      1  C   UNL     1      60.330  28.643  12.681  1.00  0.00     0.000 C 
ENDROOT
BRANCH   1   2
ATOM      2  C   UNL     1      61.787  28.961  13.052  1.00  0.00     0.000 C 
BRANCH   2   3
ATOM      3  C   UNL     1      61.859  30.155  14.011  1.00  0.00     0.006 C 
BRANCH   3   4
ATOM      4  C   UNL     1      61.939  31.476  13.239  1.00  0.00     0.053 C 
BRANCH   4   5
ATOM      5  C   UNL     1      60.809  32.377  13.624  1.00  0.00     0.041 C 
ATOM      6  O   UNL     1      61.003  33.614  13.760  1.00  0.00    -0.550 OA
ATOM      7  O   UNL     1      59.530  31.860  13.784  1.00  0.00    -0.550 OA
ENDBRANCH   4   5
ENDBRANCH   3   4
ENDBRANCH   2   3
ENDBRANCH   1   2
BRANCH   1   8
ATOM      8  C   UNL     1      60.107  28.568  11.162  1.00  0.00     0.000 C 
BRANCH   8   9
ATOM      9  C   UNL     1      60.323  29.924  10.466  1.00  0.00    -0.000 C 
BRANCH   9  10
ATOM     10  C   UNL     1      61.269  29.824   9.258  1.00  0.00    -0.000 C 
BRANCH  10  11
ATOM     11  C   UNL     1      62.171  28.578   9.316  1.00  0.00    -0.000 C 
BRANCH  11  12
ATOM     12  C   UNL     1      63.667  28.934   9.295  1.00  0.00    -0.003 C 
ATOM     13  C   UNL     1      64.045  29.973  10.349  1.00  0.00     0.004 C 
ENDBRANCH  11  12
ENDBRANCH  10  11
ENDBRANCH   9  10
ENDBRANCH   8   9
ENDBRANCH   1   8
TORSDOF 9
ENDMDL
MODEL 7
REMARK VINA RESULT:    -4.097      2.751      4.355
REMARK INTER + INTRA:          -7.526
REMARK INTER:                  -6.150
REMARK INTRA:                  -1.376
REMARK UNBOUND:                -1.274
REMARK SMILES CCCCCCCCCCC(=O)[O-]
REMARK SMILES IDX 7 1 8 2 9 3 10 4 11 5 12 6 13 7 6 8 5 9 4 10 3 11 2 12 1 13
REMARK H PARENT
REMARK Flexibility Score: inf
ROOT
ATOM      1  C   UNL     1      63.141  30.113  25.178  1.00  0.00     0.000 C 
ENDROOT
BRANCH   1   2
ATOM      2  C   UNL     1      63.686  28.937  24.353  1.00  0.00     0.000 C 
BRANCH   2   3
ATOM      3  C   UNL     1      64.741  28.155  25.144  1.00  0.00     0.006 C 
BRANCH   3   4
ATOM      4  C   UNL     1      64.345  26.682  25.283  1.00  0.00     0.053 C 
BRANCH   4   5
ATOM      5  C   UNL     1      64.395  25.998  23.954  1.00  0.00     0.041 C 
ATOM      6  O   UNL     1      65.478  25.934  23.315  1.00  0.00    -0.550 OA
ATOM      7  O   UNL     1      63.257  25.388  23.443  1.00  0.00    -0.550 OA
ENDBRANCH   4   5
ENDBRANCH   3   4
ENDBRANCH   2   3
ENDBRANCH   1   2
BRANCH   1   8
ATOM      8  C   UNL     1      63.777  30.205  26.575  1.00  0.00     0.000 C 
BRANCH   8   9
ATOM      9  C   UNL     1      62.736  30.106  27.705  1.00  0.00    -0.000 C 
BRANCH   9  10
ATOM     10  C   UNL     1      62.417  28.651  28.088  1.00  0.00    -0.000 C 
BRANCH  10  11
ATOM     11  C   UNL     1      61.004  28.222  27.656  1.00  0.00    -0.000 C 
BRANCH  11  12
ATOM     12  C   UNL     1      61.024  27.083  26.625  1.00  0.00    -0.003 C 
ATOM     13  C   UNL     1      60.389  27.477  25.292  1.00  0.00     0.004 C 
ENDBRANCH  11  12
ENDBRANCH  10  11
ENDBRANCH   9  10
ENDBRANCH   8   9
ENDBRANCH   1   8
TORSDOF 9
ENDMDL
MODEL 8
REMARK VINA RESULT:    -4.057      1.458      2.472
REMARK INTER + INTRA:          -7.466
REMARK INTER:                  -6.330
REMARK INTRA:                  -1.136
REMARK UNBOUND:                -1.274
REMARK SMILES CCCCCCCCCCC(=O)[O-]
REMARK SMILES IDX 7 1 8 2 9 3 10 4 11 5 12 6 13 7 6 8 5 9 4 10 3 11 2 12 1 13
REMARK H PARENT
REMARK Flexibility Score: inf
ROOT
ATOM      1  C   UNL     1      63.327  30.440  26.165  1.00  0.00     0.000 C 
ENDROOT
BRANCH   1   2
ATOM      2  C   UNL     1      63.282  29.213  27.089  1.00  0.00     0.000 C 
BRANCH   2   3
ATOM      3  C   UNL     1      62.402  29.483  28.315  1.00  0.00     0.006 C 
BRANCH   3   4
ATOM      4  C   UNL     1      61.018  28.846  28.150  1.00  0.00     0.053 C 
BRANCH   4   5
ATOM      5  C   UNL     1      61.141  27.370  27.940  1.00  0.00     0.041 C 
ATOM      6  O   UNL     1      60.592  26.824  26.948  1.00  0.00    -0.550 OA
ATOM      7  O   UNL     1      61.903  26.605  28.813  1.00  0.00    -0.550 OA
ENDBRANCH   4   5
ENDBRANCH   3   4
ENDBRANCH   2   3
ENDBRANCH   1   2
BRANCH   1   8
ATOM      8  C   UNL     1      63.082  30.084  24.690  1.00  0.00     0.000 C 
BRANCH   8   9
ATOM      9  C   UNL     1      62.127  28.889  24.522  1.00  0.00    -0.000 C 
BRANCH   9  10
ATOM     10  C   UNL     1      62.742  27.754  23.686  1.00  0.00    -0.000 C 
BRANCH  10  11
ATOM     11  C   UNL     1      63.082  26.515  24.531  1.00  0.00    -0.000 C 
BRANCH  11  12
ATOM     12  C   UNL     1      64.557  26.485  24.964  1.00  0.00    -0.003 C 
ATOM     13  C   UNL     1      65.464  27.294  24.038  1.00  0.00     0.004 C 
ENDBRANCH  11  12
ENDBRANCH  10  11
ENDBRANCH   9  10
ENDBRANCH   8   9
ENDBRANCH   1   8
TORSDOF 9
ENDMDL
MODEL 9
REMARK VINA RESULT:    -4.025      1.319      2.689
REMARK INTER + INTRA:          -7.416
REMARK INTER:                  -6.519
REMARK INTRA:                  -0.897
REMARK UNBOUND:                -1.274
REMARK SMILES CCCCCCCCCCC(=O)[O-]
REMARK SMILES IDX 7 1 8 2 9 3 10 4 11 5 12 6 13 7 6 8 5 9 4 10 3 11 2 12 1 13
REMARK H PARENT
REMARK Flexibility Score: inf
ROOT
ATOM      1  C   UNL     1      62.943  26.440  25.089  1.00  0.00     0.000 C 
ENDROOT
BRANCH   1   2
ATOM      2  C   UNL     1      62.038  27.598  24.640  1.00  0.00     0.000 C 
BRANCH   2   3
ATOM      3  C   UNL     1      60.819  27.729  25.562  1.00  0.00     0.006 C 
BRANCH   3   4
ATOM      4  C   UNL     1      61.197  27.444  27.018  1.00  0.00     0.053 C 
BRANCH   4   5
ATOM      5  C   UNL     1      61.218  28.711  27.813  1.00  0.00     0.041 C 
ATOM      6  O   UNL     1      60.485  28.833  28.829  1.00  0.00    -0.550 OA
ATOM      7  O   UNL     1      62.082  29.739  27.460  1.00  0.00    -0.550 OA
ENDBRANCH   4   5
ENDBRANCH   3   4
ENDBRANCH   2   3
ENDBRANCH   1   2
BRANCH   1   8
ATOM      8  C   UNL     1      63.593  25.701  23.908  1.00  0.00     0.000 C 
BRANCH   8   9
ATOM      9  C   UNL     1      65.124  25.859  23.882  1.00  0.00    -0.000 C 
BRANCH   9  10
ATOM     10  C   UNL     1      65.593  26.892  22.844  1.00  0.00    -0.000 C 
BRANCH  10  11
ATOM     11  C   UNL     1      66.363  28.062  23.481  1.00  0.00    -0.000 C 
BRANCH  11  12
ATOM     12  C   UNL     1      65.439  29.034  24.234  1.00  0.00    -0.003 C 
ATOM     13  C   UNL     1      65.634  28.984  25.749  1.00  0.00     0.004 C 
ENDBRANCH  11  12
ENDBRANCH  10  11
ENDBRANCH   9  10
ENDBRANCH   8   9
ENDBRANCH   1   8
TORSDOF 9
ENDMDL
