MODEL 1
REMARK VINA RESULT:    -6.317      0.000      0.000
REMARK INTER + INTRA:          -6.926
REMARK INTER:                  -6.871
REMARK INTRA:                  -0.055
REMARK UNBOUND:                -0.055
REMARK SMILES CCc1cccc(O)c1
REMARK SMILES IDX 3 1 9 2 7 3 6 4 5 5 4 6 2 7 1 8 8 9
REMARK H PARENT 8 10
REMARK Flexibility Score: inf
ROOT
ATOM      1  C   UNL     1      85.018  69.053 104.862  1.00  0.00    -0.045 A 
ATOM      2  C   UNL     1      85.813  68.467 105.860  1.00  0.00     0.049 A 
ATOM      3  C   UNL     1      87.072  67.937 105.543  1.00  0.00     0.115 A 
ATOM      4  C   UNL     1      87.541  68.001 104.227  1.00  0.00     0.046 A 
ATOM      5  C   UNL     1      86.760  68.595 103.231  1.00  0.00     0.004 A 
ATOM      6  C   UNL     1      85.506  69.124 103.546  1.00  0.00     0.004 A 
ENDROOT
BRANCH   1   7
ATOM      7  C   UNL     1      83.682  69.652 105.208  1.00  0.00     0.032 C 
ATOM      8  C   UNL     1      83.814  71.145 105.487  1.00  0.00     0.009 C 
ENDBRANCH   1   7
BRANCH   3   9
ATOM      9  O   UNL     1      87.863  67.349 106.527  1.00  0.00    -0.508 OA
ATOM     10  H   UNL     1      88.341  67.906 107.226  1.00  0.00     0.293 HD
ENDBRANCH   3   9
TORSDOF 2
ENDMDL
MODEL 2
REMARK VINA RESULT:    -5.906      9.461     10.345
REMARK INTER + INTRA:          -6.479
REMARK INTER:                  -6.426
REMARK INTRA:                  -0.054
REMARK UNBOUND:                -0.055
REMARK SMILES CCc1cccc(O)c1
REMARK SMILES IDX 3 1 9 2 7 3 6 4 5 5 4 6 2 7 1 8 8 9
REMARK H PARENT 8 10
REMARK Flexibility Score: inf
ROOT
ATOM      1  C   UNL     1      79.830  62.276 105.694  1.00  0.00    -0.045 A 
ATOM      2  C   UNL     1      79.244  61.002 105.611  1.00  0.00     0.049 A 
ATOM      3  C   UNL     1      78.146  60.673 106.420  1.00  0.00     0.115 A 
ATOM      4  C   UNL     1      77.627  61.623 107.306  1.00  0.00     0.046 A 
ATOM      5  C   UNL     1      78.197  62.897 107.384  1.00  0.00     0.004 A 
ATOM      6  C   UNL     1      79.291  63.225 106.579  1.00  0.00     0.004 A 
ENDROOT
BRANCH   1   7
ATOM      7  C   UNL     1      80.986  62.640 104.803  1.00  0.00     0.032 C 
ATOM      8  C   UNL     1      80.491  63.229 103.488  1.00  0.00     0.009 C 
ENDBRANCH   1   7
BRANCH   3   9
ATOM      9  O   UNL     1      77.564  59.410 106.348  1.00  0.00    -0.508 OA
ATOM     10  H   UNL     1      77.494  58.812 107.164  1.00  0.00     0.293 HD
ENDBRANCH   3   9
TORSDOF 2
ENDMDL
MODEL 3
REMARK VINA RESULT:    -5.819      1.520      2.212
REMARK INTER + INTRA:          -6.384
REMARK INTER:                  -6.331
REMARK INTRA:                  -0.052
REMARK UNBOUND:                -0.055
REMARK SMILES CCc1cccc(O)c1
REMARK SMILES IDX 3 1 9 2 7 3 6 4 5 5 4 6 2 7 1 8 8 9
REMARK H PARENT 8 10
REMARK Flexibility Score: inf
ROOT
ATOM      1  C   UNL     1      85.062  68.993 104.998  1.00  0.00    -0.045 A 
ATOM      2  C   UNL     1      85.520  68.818 103.682  1.00  0.00     0.049 A 
ATOM      3  C   UNL     1      86.758  68.203 103.439  1.00  0.00     0.115 A 
ATOM      4  C   UNL     1      87.534  67.757 104.514  1.00  0.00     0.046 A 
ATOM      5  C   UNL     1      87.077  67.918 105.826  1.00  0.00     0.004 A 
ATOM      6  C   UNL     1      85.844  68.529 106.068  1.00  0.00     0.004 A 
ENDROOT
BRANCH   1   7
ATOM      7  C   UNL     1      83.719  69.622 105.257  1.00  0.00     0.032 C 
ATOM      8  C   UNL     1      83.875  71.082 105.666  1.00  0.00     0.009 C 
ENDBRANCH   1   7
BRANCH   3   9
ATOM      9  O   UNL     1      87.222  68.031 102.138  1.00  0.00    -0.508 OA
ATOM     10  H   UNL     1      88.048  67.477 101.940  1.00  0.00     0.293 HD
ENDBRANCH   3   9
TORSDOF 2
ENDMDL
MODEL 4
REMARK VINA RESULT:    -5.752      8.320      8.860
REMARK INTER + INTRA:          -6.311
REMARK INTER:                  -6.236
REMARK INTRA:                  -0.075
REMARK UNBOUND:                -0.055
REMARK SMILES CCc1cccc(O)c1
REMARK SMILES IDX 3 1 9 2 7 3 6 4 5 5 4 6 2 7 1 8 8 9
REMARK H PARENT 8 10
REMARK Flexibility Score: inf
ROOT
ATOM      1  C   UNL     1      79.406  63.720 103.264  1.00  0.00    -0.045 A 
ATOM      2  C   UNL     1      78.529  63.735 104.360  1.00  0.00     0.049 A 
ATOM      3  C   UNL     1      78.914  63.168 105.584  1.00  0.00     0.115 A 
ATOM      4  C   UNL     1      80.183  62.594 105.714  1.00  0.00     0.046 A 
ATOM      5  C   UNL     1      81.066  62.587 104.630  1.00  0.00     0.004 A 
ATOM      6  C   UNL     1      80.682  63.152 103.410  1.00  0.00     0.004 A 
ENDROOT
BRANCH   1   7
ATOM      7  C   UNL     1      79.005  64.359 101.961  1.00  0.00     0.032 C 
ATOM      8  C   UNL     1      79.973  63.972 100.849  1.00  0.00     0.009 C 
ENDBRANCH   1   7
BRANCH   3   9
ATOM      9  O   UNL     1      78.047  63.174 106.674  1.00  0.00    -0.508 OA
ATOM     10  H   UNL     1      78.304  63.612 107.552  1.00  0.00     0.293 HD
ENDBRANCH   3   9
TORSDOF 2
ENDMDL
MODEL 5
REMARK VINA RESULT:    -5.577      9.191     10.075
REMARK INTER + INTRA:          -6.121
REMARK INTER:                  -6.070
REMARK INTRA:                  -0.051
REMARK UNBOUND:                -0.055
REMARK SMILES CCc1cccc(O)c1
REMARK SMILES IDX 3 1 9 2 7 3 6 4 5 5 4 6 2 7 1 8 8 9
REMARK H PARENT 8 10
REMARK Flexibility Score: inf
ROOT
ATOM      1  C   UNL     1      79.777  62.288 105.608  1.00  0.00    -0.045 A 
ATOM      2  C   UNL     1      79.281  63.184 106.568  1.00  0.00     0.049 A 
ATOM      3  C   UNL     1      78.212  62.814 107.398  1.00  0.00     0.115 A 
ATOM      4  C   UNL     1      77.645  61.541 107.272  1.00  0.00     0.046 A 
ATOM      5  C   UNL     1      78.142  60.640 106.327  1.00  0.00     0.004 A 
ATOM      6  C   UNL     1      79.207  61.008 105.500  1.00  0.00     0.004 A 
ENDROOT
BRANCH   1   7
ATOM      7  C   UNL     1      80.946  62.672 104.741  1.00  0.00     0.032 C 
ATOM      8  C   UNL     1      80.469  63.189 103.389  1.00  0.00     0.009 C 
ENDBRANCH   1   7
BRANCH   3   9
ATOM      9  O   UNL     1      77.711  63.699 108.348  1.00  0.00    -0.508 OA
ATOM     10  H   UNL     1      77.530  63.406 109.302  1.00  0.00     0.293 HD
ENDBRANCH   3   9
TORSDOF 2
ENDMDL
MODEL 6
REMARK VINA RESULT:    -5.490      8.596      9.323
REMARK INTER + INTRA:          -6.027
REMARK INTER:                  -5.972
REMARK INTRA:                  -0.055
REMARK UNBOUND:                -0.055
REMARK SMILES CCc1cccc(O)c1
REMARK SMILES IDX 3 1 9 2 7 3 6 4 5 5 4 6 2 7 1 8 8 9
REMARK H PARENT 8 10
REMARK Flexibility Score: inf
ROOT
ATOM      1  C   UNL     1      79.141  62.920 105.832  1.00  0.00    -0.045 A 
ATOM      2  C   UNL     1      78.507  63.542 104.744  1.00  0.00     0.049 A 
ATOM      3  C   UNL     1      79.177  63.681 103.519  1.00  0.00     0.115 A 
ATOM      4  C   UNL     1      80.480  63.191 103.381  1.00  0.00     0.046 A 
ATOM      5  C   UNL     1      81.112  62.560 104.457  1.00  0.00     0.004 A 
ATOM      6  C   UNL     1      80.444  62.420 105.677  1.00  0.00     0.004 A 
ENDROOT
BRANCH   1   7
ATOM      7  C   UNL     1      78.410  62.740 107.135  1.00  0.00     0.032 C 
ATOM      8  C   UNL     1      77.733  61.376 107.191  1.00  0.00     0.009 C 
ENDBRANCH   1   7
BRANCH   3   9
ATOM      9  O   UNL     1      78.558  64.302 102.437  1.00  0.00    -0.508 OA
ATOM     10  H   UNL     1      77.677  64.794 102.542  1.00  0.00     0.293 HD
ENDBRANCH   3   9
TORSDOF 2
ENDMDL
MODEL 7
REMARK VINA RESULT:    -5.439      9.195      9.882
REMARK INTER + INTRA:          -5.971
REMARK INTER:                  -5.920
REMARK INTRA:                  -0.052
REMARK UNBOUND:                -0.055
REMARK SMILES CCc1cccc(O)c1
REMARK SMILES IDX 3 1 9 2 7 3 6 4 5 5 4 6 2 7 1 8 8 9
REMARK H PARENT 8 10
REMARK Flexibility Score: inf
ROOT
ATOM      1  C   UNL     1      79.882  62.975 103.200  1.00  0.00    -0.045 A 
ATOM      2  C   UNL     1      78.655  62.323 102.995  1.00  0.00     0.049 A 
ATOM      3  C   UNL     1      77.928  62.535 101.814  1.00  0.00     0.115 A 
ATOM      4  C   UNL     1      78.435  63.393 100.832  1.00  0.00     0.046 A 
ATOM      5  C   UNL     1      79.661  64.035 101.024  1.00  0.00     0.004 A 
ATOM      6  C   UNL     1      80.386  63.824 102.200  1.00  0.00     0.004 A 
ENDROOT
BRANCH   1   7
ATOM      7  C   UNL     1      80.677  62.721 104.452  1.00  0.00     0.032 C 
ATOM      8  C   UNL     1      80.027  61.630 105.294  1.00  0.00     0.009 C 
ENDBRANCH   1   7
BRANCH   3   9
ATOM      9  O   UNL     1      76.707  61.898 101.606  1.00  0.00    -0.508 OA
ATOM     10  H   UNL     1      75.882  62.414 101.325  1.00  0.00     0.293 HD
ENDBRANCH   3   9
TORSDOF 2
ENDMDL
MODEL 8
REMARK VINA RESULT:    -5.416     17.064     18.133
REMARK INTER + INTRA:          -5.946
REMARK INTER:                  -5.894
REMARK INTRA:                  -0.051
REMARK UNBOUND:                -0.055
REMARK SMILES CCc1cccc(O)c1
REMARK SMILES IDX 3 1 9 2 7 3 6 4 5 5 4 6 2 7 1 8 8 9
REMARK H PARENT 8 10
REMARK Flexibility Score: inf
ROOT
ATOM      1  C   UNL     1      71.769  56.902 105.455  1.00  0.00    -0.045 A 
ATOM      2  C   UNL     1      71.727  57.798 104.375  1.00  0.00     0.049 A 
ATOM      3  C   UNL     1      72.041  59.152 104.565  1.00  0.00     0.115 A 
ATOM      4  C   UNL     1      72.407  59.609 105.836  1.00  0.00     0.046 A 
ATOM      5  C   UNL     1      72.463  58.719 106.913  1.00  0.00     0.004 A 
ATOM      6  C   UNL     1      72.150  57.370 106.724  1.00  0.00     0.004 A 
ENDROOT
BRANCH   1   7
ATOM      7  C   UNL     1      71.465  55.443 105.244  1.00  0.00     0.032 C 
ATOM      8  C   UNL     1      71.774  55.029 103.811  1.00  0.00     0.009 C 
ENDBRANCH   1   7
BRANCH   3   9
ATOM      9  O   UNL     1      71.995  60.049 103.500  1.00  0.00    -0.508 OA
ATOM     10  H   UNL     1      71.220  60.691 103.382  1.00  0.00     0.293 HD
ENDBRANCH   3   9
TORSDOF 2
ENDMDL
MODEL 9
REMARK VINA RESULT:    -5.255      8.441      9.106
REMARK INTER + INTRA:          -5.771
REMARK INTER:                  -5.719
REMARK INTRA:                  -0.052
REMARK UNBOUND:                -0.055
REMARK SMILES CCc1cccc(O)c1
REMARK SMILES IDX 3 1 9 2 7 3 6 4 5 5 4 6 2 7 1 8 8 9
REMARK H PARENT 8 10
REMARK Flexibility Score: inf
ROOT
ATOM      1  C   UNL     1      79.210  62.842 103.150  1.00  0.00    -0.045 A 
ATOM      2  C   UNL     1      80.447  63.089 103.769  1.00  0.00     0.049 A 
ATOM      3  C   UNL     1      80.772  62.457 104.978  1.00  0.00     0.115 A 
ATOM      4  C   UNL     1      79.863  61.571 105.566  1.00  0.00     0.046 A 
ATOM      5  C   UNL     1      78.636  61.312 104.948  1.00  0.00     0.004 A 
ATOM      6  C   UNL     1      78.311  61.940 103.743  1.00  0.00     0.004 A 
ENDROOT
BRANCH   1   7
ATOM      7  C   UNL     1      78.875  63.493 101.835  1.00  0.00     0.032 C 
ATOM      8  C   UNL     1      80.125  64.075 101.186  1.00  0.00     0.009 C 
ENDBRANCH   1   7
BRANCH   3   9
ATOM      9  O   UNL     1      81.994  62.702 105.601  1.00  0.00    -0.508 OA
ATOM     10  H   UNL     1      82.636  63.404 105.250  1.00  0.00     0.293 HD
ENDBRANCH   3   9
TORSDOF 2
ENDMDL
