MODEL 1
REMARK VINA RESULT:    -3.584      0.000      0.000
REMARK INTER + INTRA:          -4.895
REMARK INTER:                  -4.736
REMARK INTRA:                  -0.159
REMARK UNBOUND:                -0.159
REMARK SMILES CCCCCCCO
REMARK SMILES IDX 5 1 4 2 3 3 2 4 1 5 6 6 7 7 8 8
REMARK H PARENT 8 9
REMARK Flexibility Score: inf
ROOT
ATOM      1  C   UNL     1     180.690 189.572 200.014  1.00  0.00     0.002 C 
ENDROOT
BRANCH   1   2
ATOM      2  C   UNL     1     181.105 189.854 201.472  1.00  0.00     0.000 C 
BRANCH   2   3
ATOM      3  C   UNL     1     181.704 191.252 201.723  1.00  0.00    -0.000 C 
BRANCH   3   4
ATOM      4  C   UNL     1     180.810 192.201 202.542  1.00  0.00    -0.003 C 
ATOM      5  C   UNL     1     181.121 193.676 202.291  1.00  0.00     0.004 C 
ENDBRANCH   3   4
ENDBRANCH   2   3
ENDBRANCH   1   2
BRANCH   1   6
ATOM      6  C   UNL     1     179.547 190.454 199.481  1.00  0.00     0.028 C 
BRANCH   6   7
ATOM      7  C   UNL     1     179.374 190.353 197.960  1.00  0.00     0.156 C 
BRANCH   7   8
ATOM      8  O   UNL     1     180.167 189.314 197.453  1.00  0.00    -0.396 OA
ATOM      9  H   UNL     1     180.018 188.528 198.042  1.00  0.00     0.210 HD
ENDBRANCH   7   8
ENDBRANCH   6   7
ENDBRANCH   1   6
TORSDOF 6
ENDMDL
MODEL 2
REMARK VINA RESULT:    -3.452     11.084     12.331
REMARK INTER + INTRA:          -4.721
REMARK INTER:                  -4.592
REMARK INTRA:                  -0.129
REMARK UNBOUND:                -0.159
REMARK SMILES CCCCCCCO
REMARK SMILES IDX 5 1 4 2 3 3 2 4 1 5 6 6 7 7 8 8
REMARK H PARENT 8 9
REMARK Flexibility Score: inf
ROOT
ATOM      1  C   UNL     1     184.374 191.449 188.236  1.00  0.00     0.002 C 
ENDROOT
BRANCH   1   2
ATOM      2  C   UNL     1     185.572 192.323 187.813  1.00  0.00     0.000 C 
BRANCH   2   3
ATOM      3  C   UNL     1     186.394 192.915 188.975  1.00  0.00    -0.000 C 
BRANCH   3   4
ATOM      4  C   UNL     1     186.053 194.373 189.332  1.00  0.00    -0.003 C 
ATOM      5  C   UNL     1     187.294 195.242 189.531  1.00  0.00     0.004 C 
ENDBRANCH   3   4
ENDBRANCH   2   3
ENDBRANCH   1   2
BRANCH   1   6
ATOM      6  C   UNL     1     184.300 191.132 189.741  1.00  0.00     0.028 C 
BRANCH   6   7
ATOM      7  C   UNL     1     183.943 189.667 190.025  1.00  0.00     0.156 C 
BRANCH   7   8
ATOM      8  O   UNL     1     183.127 189.582 191.161  1.00  0.00    -0.396 OA
ATOM      9  H   UNL     1     182.445 188.884 190.970  1.00  0.00     0.210 HD
ENDBRANCH   7   8
ENDBRANCH   6   7
ENDBRANCH   1   6
TORSDOF 6
ENDMDL
MODEL 3
REMARK VINA RESULT:    -3.427     13.001     14.192
REMARK INTER + INTRA:          -4.688
REMARK INTER:                  -4.600
REMARK INTRA:                  -0.087
REMARK UNBOUND:                -0.159
REMARK SMILES CCCCCCCO
REMARK SMILES IDX 5 1 4 2 3 3 2 4 1 5 6 6 7 7 8 8
REMARK H PARENT 8 9
REMARK Flexibility Score: inf
ROOT
ATOM      1  C   UNL     1     188.092 197.538 189.771  1.00  0.00     0.002 C 
ENDROOT
BRANCH   1   2
ATOM      2  C   UNL     1     186.861 196.609 189.791  1.00  0.00     0.000 C 
BRANCH   2   3
ATOM      3  C   UNL     1     187.141 195.142 189.410  1.00  0.00    -0.000 C 
BRANCH   3   4
ATOM      4  C   UNL     1     185.948 194.187 189.592  1.00  0.00    -0.003 C 
ATOM      5  C   UNL     1     185.961 193.024 188.600  1.00  0.00     0.004 C 
ENDBRANCH   3   4
ENDBRANCH   2   3
ENDBRANCH   1   2
BRANCH   1   6
ATOM      6  C   UNL     1     188.085 198.649 190.835  1.00  0.00     0.028 C 
BRANCH   6   7
ATOM      7  C   UNL     1     186.756 198.738 191.596  1.00  0.00     0.156 C 
BRANCH   7   8
ATOM      8  O   UNL     1     186.247 200.042 191.528  1.00  0.00    -0.396 OA
ATOM      9  H   UNL     1     185.479 200.082 192.157  1.00  0.00     0.210 HD
ENDBRANCH   7   8
ENDBRANCH   6   7
ENDBRANCH   1   6
TORSDOF 6
ENDMDL
MODEL 4
REMARK VINA RESULT:    -3.360     12.041     14.177
REMARK INTER + INTRA:          -4.599
REMARK INTER:                  -4.475
REMARK INTRA:                  -0.125
REMARK UNBOUND:                -0.159
REMARK SMILES CCCCCCCO
REMARK SMILES IDX 5 1 4 2 3 3 2 4 1 5 6 6 7 7 8 8
REMARK H PARENT 8 9
REMARK Flexibility Score: inf
ROOT
ATOM      1  C   UNL     1     184.409 191.365 187.707  1.00  0.00     0.002 C 
ENDROOT
BRANCH   1   2
ATOM      2  C   UNL     1     185.762 191.971 187.285  1.00  0.00     0.000 C 
BRANCH   2   3
ATOM      3  C   UNL     1     186.829 190.949 186.844  1.00  0.00    -0.000 C 
BRANCH   3   4
ATOM      4  C   UNL     1     187.096 190.906 185.329  1.00  0.00    -0.003 C 
ATOM      5  C   UNL     1     186.624 189.606 184.679  1.00  0.00     0.004 C 
ENDBRANCH   3   4
ENDBRANCH   2   3
ENDBRANCH   1   2
BRANCH   1   6
ATOM      6  C   UNL     1     184.122 191.404 189.218  1.00  0.00     0.028 C 
BRANCH   6   7
ATOM      7  C   UNL     1     184.181 190.018 189.873  1.00  0.00     0.156 C 
BRANCH   7   8
ATOM      8  O   UNL     1     183.094 189.847 190.740  1.00  0.00    -0.396 OA
ATOM      9  H   UNL     1     182.935 188.868 190.808  1.00  0.00     0.210 HD
ENDBRANCH   7   8
ENDBRANCH   6   7
ENDBRANCH   1   6
TORSDOF 6
ENDMDL
MODEL 5
REMARK VINA RESULT:    -3.349      1.716      2.435
REMARK INTER + INTRA:          -4.585
REMARK INTER:                  -4.285
REMARK INTRA:                  -0.299
REMARK UNBOUND:                -0.159
REMARK SMILES CCCCCCCO
REMARK SMILES IDX 5 1 4 2 3 3 2 4 1 5 6 6 7 7 8 8
REMARK H PARENT 8 9
REMARK Flexibility Score: inf
ROOT
ATOM      1  C   UNL     1     178.932 189.990 199.710  1.00  0.00     0.002 C 
ENDROOT
BRANCH   1   2
ATOM      2  C   UNL     1     178.363 190.884 200.830  1.00  0.00     0.000 C 
BRANCH   2   3
ATOM      3  C   UNL     1     179.055 192.252 200.992  1.00  0.00    -0.000 C 
BRANCH   3   4
ATOM      4  C   UNL     1     179.697 192.495 202.369  1.00  0.00    -0.003 C 
ATOM      5  C   UNL     1     181.216 192.645 202.300  1.00  0.00     0.004 C 
ENDBRANCH   3   4
ENDBRANCH   2   3
ENDBRANCH   1   2
BRANCH   1   6
ATOM      6  C   UNL     1     180.467 189.985 199.599  1.00  0.00     0.028 C 
BRANCH   6   7
ATOM      7  C   UNL     1     181.139 189.115 200.670  1.00  0.00     0.156 C 
BRANCH   7   8
ATOM      8  O   UNL     1     181.636 187.939 200.093  1.00  0.00    -0.396 OA
ATOM      9  H   UNL     1     182.431 188.198 199.557  1.00  0.00     0.210 HD
ENDBRANCH   7   8
ENDBRANCH   6   7
ENDBRANCH   1   6
TORSDOF 6
ENDMDL
MODEL 6
REMARK VINA RESULT:    -3.338     11.475     12.331
REMARK INTER + INTRA:          -4.570
REMARK INTER:                  -4.526
REMARK INTRA:                  -0.045
REMARK UNBOUND:                -0.159
REMARK SMILES CCCCCCCO
REMARK SMILES IDX 5 1 4 2 3 3 2 4 1 5 6 6 7 7 8 8
REMARK H PARENT 8 9
REMARK Flexibility Score: inf
ROOT
ATOM      1  C   UNL     1     185.506 192.170 189.659  1.00  0.00     0.002 C 
ENDROOT
BRANCH   1   2
ATOM      2  C   UNL     1     185.964 193.426 188.892  1.00  0.00     0.000 C 
BRANCH   2   3
ATOM      3  C   UNL     1     186.089 194.705 189.744  1.00  0.00    -0.000 C 
BRANCH   3   4
ATOM      4  C   UNL     1     187.324 195.570 189.435  1.00  0.00    -0.003 C 
ATOM      5  C   UNL     1     187.115 197.046 189.773  1.00  0.00     0.004 C 
ENDBRANCH   3   4
ENDBRANCH   2   3
ENDBRANCH   1   2
BRANCH   1   6
ATOM      6  C   UNL     1     184.300 191.437 189.045  1.00  0.00     0.028 C 
BRANCH   6   7
ATOM      7  C   UNL     1     184.104 190.027 189.615  1.00  0.00     0.156 C 
BRANCH   7   8
ATOM      8  O   UNL     1     183.150 190.050 190.642  1.00  0.00    -0.396 OA
ATOM      9  H   UNL     1     182.484 189.344 190.427  1.00  0.00     0.210 HD
ENDBRANCH   7   8
ENDBRANCH   6   7
ENDBRANCH   1   6
TORSDOF 6
ENDMDL
MODEL 7
REMARK VINA RESULT:    -3.317      2.003      3.809
REMARK INTER + INTRA:          -4.543
REMARK INTER:                  -4.287
REMARK INTRA:                  -0.255
REMARK UNBOUND:                -0.159
REMARK SMILES CCCCCCCO
REMARK SMILES IDX 5 1 4 2 3 3 2 4 1 5 6 6 7 7 8 8
REMARK H PARENT 8 9
REMARK Flexibility Score: inf
ROOT
ATOM      1  C   UNL     1     180.968 191.787 201.575  1.00  0.00     0.002 C 
ENDROOT
BRANCH   1   2
ATOM      2  C   UNL     1     179.521 191.288 201.763  1.00  0.00     0.000 C 
BRANCH   2   3
ATOM      3  C   UNL     1     178.448 192.081 200.991  1.00  0.00    -0.000 C 
BRANCH   3   4
ATOM      4  C   UNL     1     177.991 191.434 199.672  1.00  0.00    -0.003 C 
ATOM      5  C   UNL     1     178.416 189.971 199.547  1.00  0.00     0.004 C 
ENDBRANCH   3   4
ENDBRANCH   2   3
ENDBRANCH   1   2
BRANCH   1   6
ATOM      6  C   UNL     1     182.040 190.683 201.559  1.00  0.00     0.028 C 
BRANCH   6   7
ATOM      7  C   UNL     1     181.457 189.282 201.792  1.00  0.00     0.156 C 
BRANCH   7   8
ATOM      8  O   UNL     1     182.014 188.372 200.884  1.00  0.00    -0.396 OA
ATOM      9  H   UNL     1     182.740 187.896 201.367  1.00  0.00     0.210 HD
ENDBRANCH   7   8
ENDBRANCH   6   7
ENDBRANCH   1   6
TORSDOF 6
ENDMDL
MODEL 8
REMARK VINA RESULT:    -3.315     10.924     12.595
REMARK INTER + INTRA:          -4.540
REMARK INTER:                  -4.263
REMARK INTRA:                  -0.277
REMARK UNBOUND:                -0.159
REMARK SMILES CCCCCCCO
REMARK SMILES IDX 5 1 4 2 3 3 2 4 1 5 6 6 7 7 8 8
REMARK H PARENT 8 9
REMARK Flexibility Score: inf
ROOT
ATOM      1  C   UNL     1     184.371 189.803 187.699  1.00  0.00     0.002 C 
ENDROOT
BRANCH   1   2
ATOM      2  C   UNL     1     184.333 191.344 187.755  1.00  0.00     0.000 C 
BRANCH   2   3
ATOM      3  C   UNL     1     185.638 192.047 187.333  1.00  0.00    -0.000 C 
BRANCH   3   4
ATOM      4  C   UNL     1     186.483 192.595 188.496  1.00  0.00    -0.003 C 
ATOM      5  C   UNL     1     185.679 193.475 189.453  1.00  0.00     0.004 C 
ENDBRANCH   3   4
ENDBRANCH   2   3
ENDBRANCH   1   2
BRANCH   1   6
ATOM      6  C   UNL     1     184.329 189.102 189.068  1.00  0.00     0.028 C 
BRANCH   6   7
ATOM      7  C   UNL     1     184.112 190.078 190.232  1.00  0.00     0.156 C 
BRANCH   7   8
ATOM      8  O   UNL     1     183.110 189.595 191.085  1.00  0.00    -0.396 OA
ATOM      9  H   UNL     1     183.481 188.789 191.531  1.00  0.00     0.210 HD
ENDBRANCH   7   8
ENDBRANCH   6   7
ENDBRANCH   1   6
TORSDOF 6
ENDMDL
