MODEL 1
REMARK VINA RESULT:    -5.986      0.000      0.000
REMARK INTER + INTRA:          -8.185
REMARK INTER:                  -7.561
REMARK INTRA:                  -0.624
REMARK UNBOUND:                -0.624
REMARK SMILES Oc1ccc(CCc2cc(O)cc(O)c2)cc1
REMARK SMILES IDX 6 1 5 2 4 3 3 4 2 5 16 6 17 7 1 8 7 10 8 11 15 12 9 13 13 14
REMARK SMILES IDX 10 15 12 16 14 17 11 19
REMARK H PARENT 1 9 14 18 11 20
REMARK Flexibility Score: inf
ROOT
ATOM      1  C   UNL     1      17.319 -45.561  29.148  1.00  0.00     0.040 C 
ENDROOT
BRANCH   1   2
ATOM      2  C   UNL     1      16.756 -44.768  27.999  1.00  0.00    -0.047 A 
ATOM      3  C   UNL     1      15.580 -44.018  28.166  1.00  0.00     0.007 A 
ATOM      4  C   UNL     1      15.075 -43.255  27.108  1.00  0.00     0.046 A 
ATOM      5  C   UNL     1      15.744 -43.225  25.880  1.00  0.00     0.115 A 
ATOM      6  C   UNL     1      17.432 -44.724  26.769  1.00  0.00     0.007 A 
ATOM      7  C   UNL     1      16.925 -43.960  25.713  1.00  0.00     0.046 A 
BRANCH   5   8
ATOM      8  O   UNL     1      15.229 -42.460  24.835  1.00  0.00    -0.508 OA
ATOM      9  H   UNL     1      14.728 -41.596  25.008  1.00  0.00     0.293 HD
ENDBRANCH   5   8
ENDBRANCH   1   2
BRANCH   1  10
ATOM     10  C   UNL     1      18.208 -44.677  30.027  1.00  0.00     0.040 C 
BRANCH  10  11
ATOM     11  C   UNL     1      17.409 -44.078  31.153  1.00  0.00    -0.040 A 
ATOM     12  C   UNL     1      16.459 -44.853  31.838  1.00  0.00     0.050 A 
ATOM     13  C   UNL     1      17.565 -42.723  31.489  1.00  0.00     0.050 A 
ATOM     14  C   UNL     1      15.690 -44.287  32.864  1.00  0.00     0.119 A 
ATOM     15  C   UNL     1      16.799 -42.156  32.514  1.00  0.00     0.119 A 
ATOM     16  C   UNL     1      15.864 -42.941  33.202  1.00  0.00     0.092 A 
BRANCH  14  17
ATOM     17  O   UNL     1      14.751 -45.052  33.552  1.00  0.00    -0.508 OA
ATOM     18  H   UNL     1      14.629 -46.038  33.360  1.00  0.00     0.293 HD
ENDBRANCH  14  17
BRANCH  15  19
ATOM     19  O   UNL     1      16.974 -40.813  32.838  1.00  0.00    -0.508 OA
ATOM     20  H   UNL     1      16.199 -40.238  33.148  1.00  0.00     0.293 HD
ENDBRANCH  15  19
ENDBRANCH  10  11
ENDBRANCH   1  10
TORSDOF 6
ENDMDL
MODEL 2
REMARK VINA RESULT:    -5.972      0.061      2.035
REMARK INTER + INTRA:          -8.167
REMARK INTER:                  -7.566
REMARK INTRA:                  -0.601
REMARK UNBOUND:                -0.624
REMARK SMILES Oc1ccc(CCc2cc(O)cc(O)c2)cc1
REMARK SMILES IDX 6 1 5 2 4 3 3 4 2 5 16 6 17 7 1 8 7 10 8 11 15 12 9 13 13 14
REMARK SMILES IDX 10 15 12 16 14 17 11 19
REMARK H PARENT 1 9 14 18 11 20
REMARK Flexibility Score: inf
ROOT
ATOM      1  C   UNL     1      17.304 -45.570  29.124  1.00  0.00     0.040 C 
ENDROOT
BRANCH   1   2
ATOM      2  C   UNL     1      16.741 -44.767  27.982  1.00  0.00    -0.047 A 
ATOM      3  C   UNL     1      15.564 -44.022  28.154  1.00  0.00     0.007 A 
ATOM      4  C   UNL     1      15.059 -43.249  27.102  1.00  0.00     0.046 A 
ATOM      5  C   UNL     1      15.730 -43.207  25.876  1.00  0.00     0.115 A 
ATOM      6  C   UNL     1      17.419 -44.712  26.753  1.00  0.00     0.007 A 
ATOM      7  C   UNL     1      16.912 -43.939  25.704  1.00  0.00     0.046 A 
BRANCH   5   8
ATOM      8  O   UNL     1      15.215 -42.434  24.837  1.00  0.00    -0.508 OA
ATOM      9  H   UNL     1      14.652 -42.844  24.101  1.00  0.00     0.293 HD
ENDBRANCH   5   8
ENDBRANCH   1   2
BRANCH   1  10
ATOM     10  C   UNL     1      18.180 -44.690  30.020  1.00  0.00     0.040 C 
BRANCH  10  11
ATOM     11  C   UNL     1      17.363 -44.092  31.134  1.00  0.00    -0.040 A 
ATOM     12  C   UNL     1      17.569 -42.758  31.525  1.00  0.00     0.050 A 
ATOM     13  C   UNL     1      16.430 -44.878  31.830  1.00  0.00     0.050 A 
ATOM     14  C   UNL     1      16.834 -42.210  32.584  1.00  0.00     0.119 A 
ATOM     15  C   UNL     1      15.694 -44.332  32.887  1.00  0.00     0.119 A 
ATOM     16  C   UNL     1      15.896 -42.996  33.261  1.00  0.00     0.092 A 
BRANCH  14  17
ATOM     17  O   UNL     1      17.028 -40.886  32.972  1.00  0.00    -0.508 OA
ATOM     18  H   UNL     1      16.305 -40.362  33.449  1.00  0.00     0.293 HD
ENDBRANCH  14  17
BRANCH  15  19
ATOM     19  O   UNL     1      14.768 -45.125  33.560  1.00  0.00    -0.508 OA
ATOM     20  H   UNL     1      14.385 -45.963  33.139  1.00  0.00     0.293 HD
ENDBRANCH  15  19
ENDBRANCH  10  11
ENDBRANCH   1  10
TORSDOF 6
ENDMDL
MODEL 3
REMARK VINA RESULT:    -5.958      1.613      1.772
REMARK INTER + INTRA:          -8.149
REMARK INTER:                  -7.575
REMARK INTRA:                  -0.574
REMARK UNBOUND:                -0.624
REMARK SMILES Oc1ccc(CCc2cc(O)cc(O)c2)cc1
REMARK SMILES IDX 6 1 5 2 4 3 3 4 2 5 16 6 17 7 1 8 7 10 8 11 15 12 9 13 13 14
REMARK SMILES IDX 10 15 12 16 14 17 11 19
REMARK H PARENT 1 9 14 18 11 20
REMARK Flexibility Score: inf
ROOT
ATOM      1  C   UNL     1      16.402 -45.115  28.873  1.00  0.00     0.040 C 
ENDROOT
BRANCH   1   2
ATOM      2  C   UNL     1      17.066 -44.388  27.735  1.00  0.00    -0.047 A 
ATOM      3  C   UNL     1      17.560 -43.086  27.919  1.00  0.00     0.007 A 
ATOM      4  C   UNL     1      18.206 -42.424  26.870  1.00  0.00     0.046 A 
ATOM      5  C   UNL     1      18.374 -43.057  25.634  1.00  0.00     0.115 A 
ATOM      6  C   UNL     1      17.247 -45.026  26.497  1.00  0.00     0.007 A 
ATOM      7  C   UNL     1      17.894 -44.361  25.451  1.00  0.00     0.046 A 
BRANCH   5   8
ATOM      8  O   UNL     1      19.019 -42.384  24.599  1.00  0.00    -0.508 OA
ATOM      9  H   UNL     1      19.110 -42.795  23.677  1.00  0.00     0.293 HD
ENDBRANCH   5   8
ENDBRANCH   1   2
BRANCH   1  10
ATOM     10  C   UNL     1      17.405 -45.386  29.997  1.00  0.00     0.040 C 
BRANCH  10  11
ATOM     11  C   UNL     1      17.094 -44.539  31.201  1.00  0.00    -0.040 A 
ATOM     12  C   UNL     1      15.790 -44.499  31.720  1.00  0.00     0.050 A 
ATOM     13  C   UNL     1      18.091 -43.736  31.779  1.00  0.00     0.050 A 
ATOM     14  C   UNL     1      15.491 -43.684  32.820  1.00  0.00     0.119 A 
ATOM     15  C   UNL     1      17.794 -42.922  32.878  1.00  0.00     0.119 A 
ATOM     16  C   UNL     1      16.493 -42.900  33.399  1.00  0.00     0.092 A 
BRANCH  14  17
ATOM     17  O   UNL     1      14.200 -43.646  33.345  1.00  0.00    -0.508 OA
ATOM     18  H   UNL     1      13.515 -42.976  33.018  1.00  0.00     0.293 HD
ENDBRANCH  14  17
BRANCH  15  19
ATOM     19  O   UNL     1      18.798 -42.139  33.443  1.00  0.00    -0.508 OA
ATOM     20  H   UNL     1      19.680 -41.985  32.967  1.00  0.00     0.293 HD
ENDBRANCH  15  19
ENDBRANCH  10  11
ENDBRANCH   1  10
TORSDOF 6
ENDMDL
MODEL 4
REMARK VINA RESULT:    -5.891      3.602      5.317
REMARK INTER + INTRA:          -8.065
REMARK INTER:                  -7.357
REMARK INTRA:                  -0.708
REMARK UNBOUND:                -0.624
REMARK SMILES Oc1ccc(CCc2cc(O)cc(O)c2)cc1
REMARK SMILES IDX 6 1 5 2 4 3 3 4 2 5 16 6 17 7 1 8 7 10 8 11 15 12 9 13 13 14
REMARK SMILES IDX 10 15 12 16 14 17 11 19
REMARK H PARENT 1 9 14 18 11 20
REMARK Flexibility Score: inf
ROOT
ATOM      1  C   UNL     1      16.238 -42.905  33.225  1.00  0.00     0.040 C 
ENDROOT
BRANCH   1   2
ATOM      2  C   UNL     1      17.478 -43.258  32.449  1.00  0.00    -0.047 A 
ATOM      3  C   UNL     1      18.272 -44.348  32.840  1.00  0.00     0.007 A 
ATOM      4  C   UNL     1      19.406 -44.696  32.099  1.00  0.00     0.046 A 
ATOM      5  C   UNL     1      19.751 -43.967  30.957  1.00  0.00     0.115 A 
ATOM      6  C   UNL     1      17.821 -42.535  31.294  1.00  0.00     0.007 A 
ATOM      7  C   UNL     1      18.955 -42.886  30.555  1.00  0.00     0.046 A 
BRANCH   5   8
ATOM      8  O   UNL     1      20.884 -44.324  30.229  1.00  0.00    -0.508 OA
ATOM      9  H   UNL     1      20.949 -45.219  29.757  1.00  0.00     0.293 HD
ENDBRANCH   5   8
ENDBRANCH   1   2
BRANCH   1  10
ATOM     10  C   UNL     1      15.292 -44.105  33.302  1.00  0.00     0.040 C 
BRANCH  10  11
ATOM     11  C   UNL     1      14.337 -44.102  32.138  1.00  0.00    -0.040 A 
ATOM     12  C   UNL     1      13.216 -43.256  32.145  1.00  0.00     0.050 A 
ATOM     13  C   UNL     1      14.528 -44.985  31.063  1.00  0.00     0.050 A 
ATOM     14  C   UNL     1      12.308 -43.276  31.078  1.00  0.00     0.119 A 
ATOM     15  C   UNL     1      13.623 -45.006  29.996  1.00  0.00     0.119 A 
ATOM     16  C   UNL     1      12.514 -44.148  30.005  1.00  0.00     0.092 A 
BRANCH  14  17
ATOM     17  O   UNL     1      11.198 -42.434  31.075  1.00  0.00    -0.508 OA
ATOM     18  H   UNL     1      11.297 -41.427  31.083  1.00  0.00     0.293 HD
ENDBRANCH  14  17
BRANCH  15  19
ATOM     19  O   UNL     1      13.833 -45.884  28.936  1.00  0.00    -0.508 OA
ATOM     20  H   UNL     1      13.994 -45.547  27.994  1.00  0.00     0.293 HD
ENDBRANCH  15  19
ENDBRANCH  10  11
ENDBRANCH   1  10
TORSDOF 6
ENDMDL
MODEL 5
REMARK VINA RESULT:    -5.870      3.606      5.165
REMARK INTER + INTRA:          -8.038
REMARK INTER:                  -7.352
REMARK INTRA:                  -0.687
REMARK UNBOUND:                -0.624
REMARK SMILES Oc1ccc(CCc2cc(O)cc(O)c2)cc1
REMARK SMILES IDX 6 1 5 2 4 3 3 4 2 5 16 6 17 7 1 8 7 10 8 11 15 12 9 13 13 14
REMARK SMILES IDX 10 15 12 16 14 17 11 19
REMARK H PARENT 1 9 14 18 11 20
REMARK Flexibility Score: inf
ROOT
ATOM      1  C   UNL     1      16.241 -42.621  33.013  1.00  0.00     0.040 C 
ENDROOT
BRANCH   1   2
ATOM      2  C   UNL     1      17.487 -43.043  32.282  1.00  0.00    -0.047 A 
ATOM      3  C   UNL     1      18.222 -44.156  32.721  1.00  0.00     0.007 A 
ATOM      4  C   UNL     1      19.362 -44.568  32.022  1.00  0.00     0.046 A 
ATOM      5  C   UNL     1      19.771 -43.879  30.875  1.00  0.00     0.115 A 
ATOM      6  C   UNL     1      17.893 -42.362  31.123  1.00  0.00     0.007 A 
ATOM      7  C   UNL     1      19.032 -42.776  30.426  1.00  0.00     0.046 A 
BRANCH   5   8
ATOM      8  O   UNL     1      20.908 -44.300  30.189  1.00  0.00    -0.508 OA
ATOM      9  H   UNL     1      20.908 -45.149  29.634  1.00  0.00     0.293 HD
ENDBRANCH   5   8
ENDBRANCH   1   2
BRANCH   1  10
ATOM     10  C   UNL     1      15.331 -43.826  33.265  1.00  0.00     0.040 C 
BRANCH  10  11
ATOM     11  C   UNL     1      14.313 -43.960  32.165  1.00  0.00    -0.040 A 
ATOM     12  C   UNL     1      14.532 -44.852  31.102  1.00  0.00     0.050 A 
ATOM     13  C   UNL     1      13.164 -43.152  32.161  1.00  0.00     0.050 A 
ATOM     14  C   UNL     1      13.601 -44.952  30.059  1.00  0.00     0.119 A 
ATOM     15  C   UNL     1      12.233 -43.252  31.121  1.00  0.00     0.119 A 
ATOM     16  C   UNL     1      12.453 -44.155  30.072  1.00  0.00     0.092 A 
BRANCH  14  17
ATOM     17  O   UNL     1      13.809 -45.840  29.006  1.00  0.00    -0.508 OA
ATOM     18  H   UNL     1      13.915 -45.516  28.053  1.00  0.00     0.293 HD
ENDBRANCH  14  17
BRANCH  15  19
ATOM     19  O   UNL     1      11.096 -42.448  31.139  1.00  0.00    -0.508 OA
ATOM     20  H   UNL     1      10.848 -41.863  30.349  1.00  0.00     0.293 HD
ENDBRANCH  15  19
ENDBRANCH  10  11
ENDBRANCH   1  10
TORSDOF 6
ENDMDL
MODEL 6
REMARK VINA RESULT:    -5.866      1.601      2.452
REMARK INTER + INTRA:          -8.033
REMARK INTER:                  -7.483
REMARK INTRA:                  -0.551
REMARK UNBOUND:                -0.624
REMARK SMILES Oc1ccc(CCc2cc(O)cc(O)c2)cc1
REMARK SMILES IDX 6 1 5 2 4 3 3 4 2 5 16 6 17 7 1 8 7 10 8 11 15 12 9 13 13 14
REMARK SMILES IDX 10 15 12 16 14 17 11 19
REMARK H PARENT 1 9 14 18 11 20
REMARK Flexibility Score: inf
ROOT
ATOM      1  C   UNL     1      16.415 -45.125  28.833  1.00  0.00     0.040 C 
ENDROOT
BRANCH   1   2
ATOM      2  C   UNL     1      17.071 -44.370  27.708  1.00  0.00    -0.047 A 
ATOM      3  C   UNL     1      17.572 -43.076  27.922  1.00  0.00     0.007 A 
ATOM      4  C   UNL     1      18.211 -42.388  26.885  1.00  0.00     0.046 A 
ATOM      5  C   UNL     1      18.363 -42.989  25.630  1.00  0.00     0.115 A 
ATOM      6  C   UNL     1      17.236 -44.975  26.451  1.00  0.00     0.007 A 
ATOM      7  C   UNL     1      17.875 -44.285  25.417  1.00  0.00     0.046 A 
BRANCH   5   8
ATOM      8  O   UNL     1      19.000 -42.291  24.606  1.00  0.00    -0.508 OA
ATOM      9  H   UNL     1      19.604 -41.501  24.801  1.00  0.00     0.293 HD
ENDBRANCH   5   8
ENDBRANCH   1   2
BRANCH   1  10
ATOM     10  C   UNL     1      17.403 -45.341  29.983  1.00  0.00     0.040 C 
BRANCH  10  11
ATOM     11  C   UNL     1      17.056 -44.457  31.151  1.00  0.00    -0.040 A 
ATOM     12  C   UNL     1      18.052 -43.691  31.779  1.00  0.00     0.050 A 
ATOM     13  C   UNL     1      15.747 -44.435  31.659  1.00  0.00     0.050 A 
ATOM     14  C   UNL     1      17.737 -42.893  32.888  1.00  0.00     0.119 A 
ATOM     15  C   UNL     1      15.430 -43.639  32.766  1.00  0.00     0.119 A 
ATOM     16  C   UNL     1      16.428 -42.866  33.377  1.00  0.00     0.092 A 
BRANCH  14  17
ATOM     17  O   UNL     1      18.719 -42.125  33.511  1.00  0.00    -0.508 OA
ATOM     18  H   UNL     1      18.592 -41.134  33.673  1.00  0.00     0.293 HD
ENDBRANCH  14  17
BRANCH  15  19
ATOM     19  O   UNL     1      14.125 -43.625  33.250  1.00  0.00    -0.508 OA
ATOM     20  H   UNL     1      13.402 -44.206  32.841  1.00  0.00     0.293 HD
ENDBRANCH  15  19
ENDBRANCH  10  11
ENDBRANCH   1  10
TORSDOF 6
ENDMDL
MODEL 7
REMARK VINA RESULT:    -5.833      2.380      3.006
REMARK INTER + INTRA:          -7.992
REMARK INTER:                  -7.436
REMARK INTRA:                  -0.556
REMARK UNBOUND:                -0.624
REMARK SMILES Oc1ccc(CCc2cc(O)cc(O)c2)cc1
REMARK SMILES IDX 6 1 5 2 4 3 3 4 2 5 16 6 17 7 1 8 7 10 8 11 15 12 9 13 13 14
REMARK SMILES IDX 10 15 12 16 14 17 11 19
REMARK H PARENT 1 9 14 18 11 20
REMARK Flexibility Score: inf
ROOT
ATOM      1  C   UNL     1      16.536 -45.341  29.287  1.00  0.00     0.040 C 
ENDROOT
BRANCH   1   2
ATOM      2  C   UNL     1      17.076 -44.560  28.120  1.00  0.00    -0.047 A 
ATOM      3  C   UNL     1      17.551 -43.251  28.304  1.00  0.00     0.007 A 
ATOM      4  C   UNL     1      18.083 -42.537  27.226  1.00  0.00     0.046 A 
ATOM      5  C   UNL     1      18.156 -43.125  25.959  1.00  0.00     0.115 A 
ATOM      6  C   UNL     1      17.163 -45.152  26.849  1.00  0.00     0.007 A 
ATOM      7  C   UNL     1      17.695 -44.435  25.773  1.00  0.00     0.046 A 
BRANCH   5   8
ATOM      8  O   UNL     1      18.688 -42.401  24.894  1.00  0.00    -0.508 OA
ATOM      9  H   UNL     1      18.810 -41.396  24.945  1.00  0.00     0.293 HD
ENDBRANCH   5   8
ENDBRANCH   1   2
BRANCH   1  10
ATOM     10  C   UNL     1      15.007 -45.401  29.233  1.00  0.00     0.040 C 
BRANCH  10  11
ATOM     11  C   UNL     1      14.405 -44.566  30.331  1.00  0.00    -0.040 A 
ATOM     12  C   UNL     1      15.111 -44.357  31.528  1.00  0.00     0.050 A 
ATOM     13  C   UNL     1      13.111 -44.038  30.192  1.00  0.00     0.050 A 
ATOM     14  C   UNL     1      14.538 -43.608  32.565  1.00  0.00     0.119 A 
ATOM     15  C   UNL     1      12.538 -43.289  31.226  1.00  0.00     0.119 A 
ATOM     16  C   UNL     1      13.255 -43.073  32.411  1.00  0.00     0.092 A 
BRANCH  14  17
ATOM     17  O   UNL     1      15.235 -43.390  33.751  1.00  0.00    -0.508 OA
ATOM     18  H   UNL     1      15.633 -42.486  33.974  1.00  0.00     0.293 HD
ENDBRANCH  14  17
BRANCH  15  19
ATOM     19  O   UNL     1      11.257 -42.767  31.066  1.00  0.00    -0.508 OA
ATOM     20  H   UNL     1      10.441 -43.249  31.425  1.00  0.00     0.293 HD
ENDBRANCH  15  19
ENDBRANCH  10  11
ENDBRANCH   1  10
TORSDOF 6
ENDMDL
MODEL 8
REMARK VINA RESULT:    -5.816      2.386      2.873
REMARK INTER + INTRA:          -7.970
REMARK INTER:                  -7.398
REMARK INTRA:                  -0.572
REMARK UNBOUND:                -0.624
REMARK SMILES Oc1ccc(CCc2cc(O)cc(O)c2)cc1
REMARK SMILES IDX 6 1 5 2 4 3 3 4 2 5 16 6 17 7 1 8 7 10 8 11 15 12 9 13 13 14
REMARK SMILES IDX 10 15 12 16 14 17 11 19
REMARK H PARENT 1 9 14 18 11 20
REMARK Flexibility Score: inf
ROOT
ATOM      1  C   UNL     1      16.517 -45.385  29.281  1.00  0.00     0.040 C 
ENDROOT
BRANCH   1   2
ATOM      2  C   UNL     1      17.044 -44.569  28.132  1.00  0.00    -0.047 A 
ATOM      3  C   UNL     1      17.497 -43.256  28.346  1.00  0.00     0.007 A 
ATOM      4  C   UNL     1      18.018 -42.510  27.284  1.00  0.00     0.046 A 
ATOM      5  C   UNL     1      18.100 -43.068  26.004  1.00  0.00     0.115 A 
ATOM      6  C   UNL     1      17.141 -45.131  26.848  1.00  0.00     0.007 A 
ATOM      7  C   UNL     1      17.662 -44.381  25.789  1.00  0.00     0.046 A 
BRANCH   5   8
ATOM      8  O   UNL     1      18.620 -42.312  24.956  1.00  0.00    -0.508 OA
ATOM      9  H   UNL     1      18.075 -42.113  24.125  1.00  0.00     0.293 HD
ENDBRANCH   5   8
ENDBRANCH   1   2
BRANCH   1  10
ATOM     10  C   UNL     1      14.990 -45.473  29.223  1.00  0.00     0.040 C 
BRANCH  10  11
ATOM     11  C   UNL     1      14.371 -44.661  30.329  1.00  0.00    -0.040 A 
ATOM     12  C   UNL     1      13.084 -44.119  30.174  1.00  0.00     0.050 A 
ATOM     13  C   UNL     1      15.096 -44.390  31.500  1.00  0.00     0.050 A 
ATOM     14  C   UNL     1      12.520 -43.334  31.189  1.00  0.00     0.119 A 
ATOM     15  C   UNL     1      14.534 -43.607  32.515  1.00  0.00     0.119 A 
ATOM     16  C   UNL     1      13.244 -43.082  32.358  1.00  0.00     0.092 A 
BRANCH  14  17
ATOM     17  O   UNL     1      11.242 -42.799  31.044  1.00  0.00    -0.508 OA
ATOM     18  H   UNL     1      10.673 -42.561  31.847  1.00  0.00     0.293 HD
ENDBRANCH  14  17
BRANCH  15  19
ATOM     19  O   UNL     1      15.267 -43.356  33.673  1.00  0.00    -0.508 OA
ATOM     20  H   UNL     1      16.262 -43.543  33.721  1.00  0.00     0.293 HD
ENDBRANCH  15  19
ENDBRANCH  10  11
ENDBRANCH   1  10
TORSDOF 6
ENDMDL
MODEL 9
REMARK VINA RESULT:    -5.666      1.882      2.492
REMARK INTER + INTRA:          -7.781
REMARK INTER:                  -7.009
REMARK INTRA:                  -0.772
REMARK UNBOUND:                -0.624
REMARK SMILES Oc1ccc(CCc2cc(O)cc(O)c2)cc1
REMARK SMILES IDX 6 1 5 2 4 3 3 4 2 5 16 6 17 7 1 8 7 10 8 11 15 12 9 13 13 14
REMARK SMILES IDX 10 15 12 16 14 17 11 19
REMARK H PARENT 1 9 14 18 11 20
REMARK Flexibility Score: inf
ROOT
ATOM      1  C   UNL     1      14.635 -44.408  30.153  1.00  0.00     0.040 C 
ENDROOT
BRANCH   1   2
ATOM      2  C   UNL     1      15.544 -44.324  28.957  1.00  0.00    -0.047 A 
ATOM      3  C   UNL     1      15.773 -43.090  28.327  1.00  0.00     0.007 A 
ATOM      4  C   UNL     1      16.644 -43.007  27.235  1.00  0.00     0.046 A 
ATOM      5  C   UNL     1      17.301 -44.151  26.770  1.00  0.00     0.115 A 
ATOM      6  C   UNL     1      16.216 -45.468  28.496  1.00  0.00     0.007 A 
ATOM      7  C   UNL     1      17.086 -45.382  27.404  1.00  0.00     0.046 A 
BRANCH   5   8
ATOM      8  O   UNL     1      18.165 -44.053  25.682  1.00  0.00    -0.508 OA
ATOM      9  H   UNL     1      19.072 -43.608  25.764  1.00  0.00     0.293 HD
ENDBRANCH   5   8
ENDBRANCH   1   2
BRANCH   1  10
ATOM     10  C   UNL     1      15.329 -45.136  31.307  1.00  0.00     0.040 C 
BRANCH  10  11
ATOM     11  C   UNL     1      16.490 -44.328  31.821  1.00  0.00    -0.040 A 
ATOM     12  C   UNL     1      17.769 -44.902  31.908  1.00  0.00     0.050 A 
ATOM     13  C   UNL     1      16.292 -43.013  32.273  1.00  0.00     0.050 A 
ATOM     14  C   UNL     1      18.844 -44.161  32.418  1.00  0.00     0.119 A 
ATOM     15  C   UNL     1      17.364 -42.272  32.783  1.00  0.00     0.119 A 
ATOM     16  C   UNL     1      18.640 -42.848  32.852  1.00  0.00     0.092 A 
BRANCH  14  17
ATOM     17  O   UNL     1      20.117 -44.722  32.500  1.00  0.00    -0.508 OA
ATOM     18  H   UNL     1      20.688 -44.621  33.329  1.00  0.00     0.293 HD
ENDBRANCH  14  17
BRANCH  15  19
ATOM     19  O   UNL     1      17.150 -40.967  33.219  1.00  0.00    -0.508 OA
ATOM     20  H   UNL     1      17.240 -40.714  34.196  1.00  0.00     0.293 HD
ENDBRANCH  15  19
ENDBRANCH  10  11
ENDBRANCH   1  10
TORSDOF 6
ENDMDL
