MODEL 1
REMARK VINA RESULT:    -4.741      0.000      0.000
REMARK INTER + INTRA:         -13.805
REMARK INTER:                 -10.840
REMARK INTRA:                  -2.966
REMARK UNBOUND:                -2.966
REMARK SMILES CCCCCCCCCCCCCCCCCCCCCCCC(=O)[O-]
REMARK SMILES IDX 13 1 14 2 15 3 16 4 17 5 18 6 19 7 20 8 21 9 22 10 23 11
REMARK SMILES IDX 24 12 25 13 26 14 12 15 11 16 10 17 9 18 8 19 7 20 6 21 5 22
REMARK SMILES IDX 4 23 3 24 2 25 1 26
REMARK H PARENT
REMARK Flexibility Score: inf
ROOT
ATOM      1  C   UNL     1       1.394  44.350   8.888  1.00  0.00     0.000 C 
ENDROOT
BRANCH   1   2
ATOM      2  C   UNL     1       0.368  44.369   7.742  1.00  0.00     0.000 C 
BRANCH   2   3
ATOM      3  C   UNL     1      -0.664  45.503   7.884  1.00  0.00     0.000 C 
BRANCH   3   4
ATOM      4  C   UNL     1      -0.927  45.972   9.329  1.00  0.00     0.000 C 
BRANCH   4   5
ATOM      5  C   UNL     1      -0.549  47.439   9.624  1.00  0.00     0.000 C 
BRANCH   5   6
ATOM      6  C   UNL     1      -0.518  48.364   8.393  1.00  0.00     0.000 C 
BRANCH   6   7
ATOM      7  C   UNL     1       0.881  48.930   8.109  1.00  0.00     0.000 C 
BRANCH   7   8
ATOM      8  C   UNL     1       1.956  48.160   8.891  1.00  0.00     0.000 C 
BRANCH   8   9
ATOM      9  C   UNL     1       2.961  47.455   7.955  1.00  0.00     0.000 C 
BRANCH   9  10
ATOM     10  C   UNL     1       4.371  48.068   7.988  1.00  0.00     0.006 C 
BRANCH  10  11
ATOM     11  C   UNL     1       5.268  47.446   9.064  1.00  0.00     0.053 C 
BRANCH  11  12
ATOM     12  C   UNL     1       6.614  48.101   9.067  1.00  0.00     0.041 C 
ATOM     13  O   UNL     1       7.618  47.487   9.512  1.00  0.00    -0.550 OA
ATOM     14  O   UNL     1       6.764  49.382   8.549  1.00  0.00    -0.550 OA
ENDBRANCH  11  12
ENDBRANCH  10  11
ENDBRANCH   9  10
ENDBRANCH   8   9
ENDBRANCH   7   8
ENDBRANCH   6   7
ENDBRANCH   5   6
ENDBRANCH   4   5
ENDBRANCH   3   4
ENDBRANCH   2   3
ENDBRANCH   1   2
BRANCH   1  15
ATOM     15  C   UNL     1       2.447  43.238   8.734  1.00  0.00     0.000 C 
BRANCH  15  16
ATOM     16  C   UNL     1       3.831  43.555   9.330  1.00  0.00     0.000 C 
BRANCH  16  17
ATOM     17  C   UNL     1       3.806  44.746  10.304  1.00  0.00     0.000 C 
BRANCH  17  18
ATOM     18  C   UNL     1       4.545  44.448  11.622  1.00  0.00    -0.000 C 
BRANCH  18  19
ATOM     19  C   UNL     1       3.664  43.825  12.721  1.00  0.00    -0.000 C 
BRANCH  19  20
ATOM     20  C   UNL     1       2.163  43.877  12.379  1.00  0.00    -0.000 C 
BRANCH  20  21
ATOM     21  C   UNL     1       1.574  42.479  12.132  1.00  0.00    -0.000 C 
BRANCH  21  22
ATOM     22  C   UNL     1       1.206  41.754  13.439  1.00  0.00    -0.000 C 
BRANCH  22  23
ATOM     23  C   UNL     1       1.619  40.268  13.414  1.00  0.00    -0.000 C 
BRANCH  23  24
ATOM     24  C   UNL     1       2.747  39.959  12.414  1.00  0.00    -0.000 C 
BRANCH  24  25
ATOM     25  C   UNL     1       3.970  39.305  13.072  1.00  0.00    -0.003 C 
ATOM     26  C   UNL     1       5.067  40.332  13.336  1.00  0.00     0.004 C 
ENDBRANCH  24  25
ENDBRANCH  23  24
ENDBRANCH  22  23
ENDBRANCH  21  22
ENDBRANCH  20  21
ENDBRANCH  19  20
ENDBRANCH  18  19
ENDBRANCH  17  18
ENDBRANCH  16  17
ENDBRANCH  15  16
ENDBRANCH   1  15
TORSDOF 22
ENDMDL
MODEL 2
REMARK VINA RESULT:    -4.699      1.578      2.544
REMARK INTER + INTRA:         -13.708
REMARK INTER:                 -11.185
REMARK INTRA:                  -2.522
REMARK UNBOUND:                -2.966
REMARK SMILES CCCCCCCCCCCCCCCCCCCCCCCC(=O)[O-]
REMARK SMILES IDX 13 1 14 2 15 3 16 4 17 5 18 6 19 7 20 8 21 9 22 10 23 11
REMARK SMILES IDX 24 12 25 13 26 14 12 15 11 16 10 17 9 18 8 19 7 20 6 21 5 22
REMARK SMILES IDX 4 23 3 24 2 25 1 26
REMARK H PARENT
REMARK Flexibility Score: inf
ROOT
ATOM      1  C   UNL     1       0.735  44.468   8.444  1.00  0.00     0.000 C 
ENDROOT
BRANCH   1   2
ATOM      2  C   UNL     1      -0.026  44.938   7.194  1.00  0.00     0.000 C 
BRANCH   2   3
ATOM      3  C   UNL     1      -1.049  46.047   7.501  1.00  0.00     0.000 C 
BRANCH   3   4
ATOM      4  C   UNL     1      -0.581  47.479   7.170  1.00  0.00     0.000 C 
BRANCH   4   5
ATOM      5  C   UNL     1      -0.412  48.414   8.386  1.00  0.00     0.000 C 
BRANCH   5   6
ATOM      6  C   UNL     1       1.048  48.712   8.779  1.00  0.00     0.000 C 
BRANCH   6   7
ATOM      7  C   UNL     1       1.933  49.046   7.570  1.00  0.00     0.000 C 
BRANCH   7   8
ATOM      8  C   UNL     1       3.210  48.192   7.568  1.00  0.00     0.000 C 
BRANCH   8   9
ATOM      9  C   UNL     1       3.180  47.101   8.661  1.00  0.00     0.000 C 
BRANCH   9  10
ATOM     10  C   UNL     1       4.561  46.498   8.968  1.00  0.00     0.006 C 
BRANCH  10  11
ATOM     11  C   UNL     1       5.373  47.338   9.960  1.00  0.00     0.053 C 
BRANCH  11  12
ATOM     12  C   UNL     1       6.620  47.852   9.312  1.00  0.00     0.041 C 
ATOM     13  O   UNL     1       7.692  47.198   9.389  1.00  0.00    -0.550 OA
ATOM     14  O   UNL     1       6.590  49.042   8.594  1.00  0.00    -0.550 OA
ENDBRANCH  11  12
ENDBRANCH  10  11
ENDBRANCH   9  10
ENDBRANCH   8   9
ENDBRANCH   7   8
ENDBRANCH   6   7
ENDBRANCH   5   6
ENDBRANCH   4   5
ENDBRANCH   3   4
ENDBRANCH   2   3
ENDBRANCH   1   2
BRANCH   1  15
ATOM     15  C   UNL     1       0.248  45.148   9.737  1.00  0.00     0.000 C 
BRANCH  15  16
ATOM     16  C   UNL     1       1.170  44.976  10.959  1.00  0.00     0.000 C 
BRANCH  16  17
ATOM     17  C   UNL     1       0.560  44.078  12.049  1.00  0.00     0.000 C 
BRANCH  17  18
ATOM     18  C   UNL     1       1.440  42.854  12.367  1.00  0.00    -0.000 C 
BRANCH  18  19
ATOM     19  C   UNL     1       2.824  42.871  11.692  1.00  0.00    -0.000 C 
BRANCH  19  20
ATOM     20  C   UNL     1       3.405  41.459  11.492  1.00  0.00    -0.000 C 
BRANCH  20  21
ATOM     21  C   UNL     1       4.286  41.019  12.672  1.00  0.00    -0.000 C 
BRANCH  21  22
ATOM     22  C   UNL     1       4.033  39.558  13.083  1.00  0.00    -0.000 C 
BRANCH  22  23
ATOM     23  C   UNL     1       2.589  39.109  12.774  1.00  0.00    -0.000 C 
BRANCH  23  24
ATOM     24  C   UNL     1       2.501  37.706  12.148  1.00  0.00    -0.000 C 
BRANCH  24  25
ATOM     25  C   UNL     1       1.137  37.038  12.364  1.00  0.00    -0.003 C 
ATOM     26  C   UNL     1       0.905  35.921  11.350  1.00  0.00     0.004 C 
ENDBRANCH  24  25
ENDBRANCH  23  24
ENDBRANCH  22  23
ENDBRANCH  21  22
ENDBRANCH  20  21
ENDBRANCH  19  20
ENDBRANCH  18  19
ENDBRANCH  17  18
ENDBRANCH  16  17
ENDBRANCH  15  16
ENDBRANCH   1  15
TORSDOF 22
ENDMDL
MODEL 3
REMARK VINA RESULT:    -4.588      2.948      7.486
REMARK INTER + INTRA:         -13.456
REMARK INTER:                 -10.511
REMARK INTRA:                  -2.945
REMARK UNBOUND:                -2.966
REMARK SMILES CCCCCCCCCCCCCCCCCCCCCCCC(=O)[O-]
REMARK SMILES IDX 13 1 14 2 15 3 16 4 17 5 18 6 19 7 20 8 21 9 22 10 23 11
REMARK SMILES IDX 24 12 25 13 26 14 12 15 11 16 10 17 9 18 8 19 7 20 6 21 5 22
REMARK SMILES IDX 4 23 3 24 2 25 1 26
REMARK H PARENT
REMARK Flexibility Score: inf
ROOT
ATOM      1  C   UNL     1       0.824  44.409   8.949  1.00  0.00     0.000 C 
ENDROOT
BRANCH   1   2
ATOM      2  C   UNL     1       1.768  43.204   8.807  1.00  0.00     0.000 C 
BRANCH   2   3
ATOM      3  C   UNL     1       3.228  43.616   8.544  1.00  0.00     0.000 C 
BRANCH   3   4
ATOM      4  C   UNL     1       4.155  43.561   9.774  1.00  0.00     0.000 C 
BRANCH   4   5
ATOM      5  C   UNL     1       4.511  44.929  10.393  1.00  0.00     0.000 C 
BRANCH   5   6
ATOM      6  C   UNL     1       4.208  45.061  11.898  1.00  0.00     0.000 C 
BRANCH   6   7
ATOM      7  C   UNL     1       3.567  43.796  12.488  1.00  0.00     0.000 C 
BRANCH   7   8
ATOM      8  C   UNL     1       2.034  43.897  12.473  1.00  0.00     0.000 C 
BRANCH   8   9
ATOM      9  C   UNL     1       1.360  42.508  12.506  1.00  0.00     0.000 C 
BRANCH   9  10
ATOM     10  C   UNL     1       2.309  41.354  12.141  1.00  0.00     0.006 C 
BRANCH  10  11
ATOM     11  C   UNL     1       2.343  40.249  13.203  1.00  0.00     0.053 C 
BRANCH  11  12
ATOM     12  C   UNL     1       3.455  39.288  12.924  1.00  0.00     0.041 C 
ATOM     13  O   UNL     1       4.617  39.520  13.349  1.00  0.00    -0.550 OA
ATOM     14  O   UNL     1       3.202  38.117  12.219  1.00  0.00    -0.550 OA
ENDBRANCH  11  12
ENDBRANCH  10  11
ENDBRANCH   9  10
ENDBRANCH   8   9
ENDBRANCH   7   8
ENDBRANCH   6   7
ENDBRANCH   5   6
ENDBRANCH   4   5
ENDBRANCH   3   4
ENDBRANCH   2   3
ENDBRANCH   1   2
BRANCH   1  15
ATOM     15  C   UNL     1       0.241  44.880   7.603  1.00  0.00     0.000 C 
BRANCH  15  16
ATOM     16  C   UNL     1      -0.678  46.113   7.679  1.00  0.00     0.000 C 
BRANCH  16  17
ATOM     17  C   UNL     1      -1.073  46.479   9.121  1.00  0.00     0.000 C 
BRANCH  17  18
ATOM     18  C   UNL     1      -1.107  48.000   9.356  1.00  0.00    -0.000 C 
BRANCH  18  19
ATOM     19  C   UNL     1      -0.706  48.844   8.132  1.00  0.00    -0.000 C 
BRANCH  19  20
ATOM     20  C   UNL     1       0.624  49.593   8.336  1.00  0.00    -0.000 C 
BRANCH  20  21
ATOM     21  C   UNL     1       1.783  48.942   7.566  1.00  0.00    -0.000 C 
BRANCH  21  22
ATOM     22  C   UNL     1       2.558  47.921   8.417  1.00  0.00    -0.000 C 
BRANCH  22  23
ATOM     23  C   UNL     1       4.024  47.774   7.957  1.00  0.00    -0.000 C 
BRANCH  23  24
ATOM     24  C   UNL     1       5.030  47.711   9.120  1.00  0.00    -0.000 C 
BRANCH  24  25
ATOM     25  C   UNL     1       6.427  48.215   8.731  1.00  0.00    -0.003 C 
ATOM     26  C   UNL     1       7.515  47.462   9.491  1.00  0.00     0.004 C 
ENDBRANCH  24  25
ENDBRANCH  23  24
ENDBRANCH  22  23
ENDBRANCH  21  22
ENDBRANCH  20  21
ENDBRANCH  19  20
ENDBRANCH  18  19
ENDBRANCH  17  18
ENDBRANCH  16  17
ENDBRANCH  15  16
ENDBRANCH   1  15
TORSDOF 22
ENDMDL
MODEL 4
REMARK VINA RESULT:    -4.575      1.269      2.159
REMARK INTER + INTRA:         -13.424
REMARK INTER:                 -10.460
REMARK INTRA:                  -2.964
REMARK UNBOUND:                -2.966
REMARK SMILES CCCCCCCCCCCCCCCCCCCCCCCC(=O)[O-]
REMARK SMILES IDX 13 1 14 2 15 3 16 4 17 5 18 6 19 7 20 8 21 9 22 10 23 11
REMARK SMILES IDX 24 12 25 13 26 14 12 15 11 16 10 17 9 18 8 19 7 20 6 21 5 22
REMARK SMILES IDX 4 23 3 24 2 25 1 26
REMARK H PARENT
REMARK Flexibility Score: inf
ROOT
ATOM      1  C   UNL     1       0.787  44.734   8.861  1.00  0.00     0.000 C 
ENDROOT
BRANCH   1   2
ATOM      2  C   UNL     1       0.187  44.770   7.446  1.00  0.00     0.000 C 
BRANCH   2   3
ATOM      3  C   UNL     1      -0.307  46.171   7.042  1.00  0.00     0.000 C 
BRANCH   3   4
ATOM      4  C   UNL     1      -0.670  47.101   8.218  1.00  0.00     0.000 C 
BRANCH   4   5
ATOM      5  C   UNL     1      -0.422  48.604   7.970  1.00  0.00     0.000 C 
BRANCH   5   6
ATOM      6  C   UNL     1       0.920  49.138   8.506  1.00  0.00     0.000 C 
BRANCH   6   7
ATOM      7  C   UNL     1       1.885  49.553   7.385  1.00  0.00     0.000 C 
BRANCH   7   8
ATOM      8  C   UNL     1       3.105  48.621   7.335  1.00  0.00     0.000 C 
BRANCH   8   9
ATOM      9  C   UNL     1       3.184  47.700   8.572  1.00  0.00     0.000 C 
BRANCH   9  10
ATOM     10  C   UNL     1       4.489  46.892   8.657  1.00  0.00     0.006 C 
BRANCH  10  11
ATOM     11  C   UNL     1       5.397  47.342   9.808  1.00  0.00     0.053 C 
BRANCH  11  12
ATOM     12  C   UNL     1       6.632  47.997   9.275  1.00  0.00     0.041 C 
ATOM     13  O   UNL     1       7.763  47.482   9.482  1.00  0.00    -0.550 OA
ATOM     14  O   UNL     1       6.533  49.161   8.523  1.00  0.00    -0.550 OA
ENDBRANCH  11  12
ENDBRANCH  10  11
ENDBRANCH   9  10
ENDBRANCH   8   9
ENDBRANCH   7   8
ENDBRANCH   6   7
ENDBRANCH   5   6
ENDBRANCH   4   5
ENDBRANCH   3   4
ENDBRANCH   2   3
ENDBRANCH   1   2
BRANCH   1  15
ATOM     15  C   UNL     1       1.658  43.489   9.114  1.00  0.00     0.000 C 
BRANCH  15  16
ATOM     16  C   UNL     1       3.126  43.611   8.667  1.00  0.00     0.000 C 
BRANCH  16  17
ATOM     17  C   UNL     1       4.124  43.202   9.765  1.00  0.00     0.000 C 
BRANCH  17  18
ATOM     18  C   UNL     1       4.212  44.238  10.900  1.00  0.00    -0.000 C 
BRANCH  18  19
ATOM     19  C   UNL     1       3.577  43.785  12.228  1.00  0.00    -0.000 C 
BRANCH  19  20
ATOM     20  C   UNL     1       3.555  42.253  12.384  1.00  0.00    -0.000 C 
BRANCH  20  21
ATOM     21  C   UNL     1       2.127  41.701  12.513  1.00  0.00    -0.000 C 
BRANCH  21  22
ATOM     22  C   UNL     1       1.063  42.812  12.529  1.00  0.00    -0.000 C 
BRANCH  22  23
ATOM     23  C   UNL     1      -0.216  42.381  13.276  1.00  0.00    -0.000 C 
BRANCH  23  24
ATOM     24  C   UNL     1      -0.122  40.976  13.897  1.00  0.00    -0.000 C 
BRANCH  24  25
ATOM     25  C   UNL     1      -0.854  40.865  15.241  1.00  0.00    -0.003 C 
ATOM     26  C   UNL     1      -0.149  41.681  16.321  1.00  0.00     0.004 C 
ENDBRANCH  24  25
ENDBRANCH  23  24
ENDBRANCH  22  23
ENDBRANCH  21  22
ENDBRANCH  20  21
ENDBRANCH  19  20
ENDBRANCH  18  19
ENDBRANCH  17  18
ENDBRANCH  16  17
ENDBRANCH  15  16
ENDBRANCH   1  15
TORSDOF 22
ENDMDL
MODEL 5
REMARK VINA RESULT:    -4.519      0.930      1.753
REMARK INTER + INTRA:         -13.297
REMARK INTER:                 -10.324
REMARK INTRA:                  -2.973
REMARK UNBOUND:                -2.966
REMARK SMILES CCCCCCCCCCCCCCCCCCCCCCCC(=O)[O-]
REMARK SMILES IDX 13 1 14 2 15 3 16 4 17 5 18 6 19 7 20 8 21 9 22 10 23 11
REMARK SMILES IDX 24 12 25 13 26 14 12 15 11 16 10 17 9 18 8 19 7 20 6 21 5 22
REMARK SMILES IDX 4 23 3 24 2 25 1 26
REMARK H PARENT
REMARK Flexibility Score: inf
ROOT
ATOM      1  C   UNL     1       0.457  44.627   7.735  1.00  0.00     0.000 C 
ENDROOT
BRANCH   1   2
ATOM      2  C   UNL     1      -0.850  45.362   8.077  1.00  0.00     0.000 C 
BRANCH   2   3
ATOM      3  C   UNL     1      -0.888  45.865   9.531  1.00  0.00     0.000 C 
BRANCH   3   4
ATOM      4  C   UNL     1      -0.554  47.358   9.717  1.00  0.00     0.000 C 
BRANCH   4   5
ATOM      5  C   UNL     1       0.948  47.687   9.840  1.00  0.00     0.000 C 
BRANCH   5   6
ATOM      6  C   UNL     1       1.364  49.054   9.263  1.00  0.00     0.000 C 
BRANCH   6   7
ATOM      7  C   UNL     1       1.254  49.112   7.732  1.00  0.00     0.000 C 
BRANCH   7   8
ATOM      8  C   UNL     1       2.627  49.362   7.090  1.00  0.00     0.000 C 
BRANCH   8   9
ATOM      9  C   UNL     1       3.621  48.215   7.378  1.00  0.00     0.000 C 
BRANCH   9  10
ATOM     10  C   UNL     1       4.922  48.682   8.051  1.00  0.00     0.006 C 
BRANCH  10  11
ATOM     11  C   UNL     1       5.536  47.619   8.968  1.00  0.00     0.053 C 
BRANCH  11  12
ATOM     12  C   UNL     1       6.877  48.063   9.461  1.00  0.00     0.041 C 
ATOM     13  O   UNL     1       7.041  49.237   9.886  1.00  0.00    -0.550 OA
ATOM     14  O   UNL     1       7.942  47.170   9.479  1.00  0.00    -0.550 OA
ENDBRANCH  11  12
ENDBRANCH  10  11
ENDBRANCH   9  10
ENDBRANCH   8   9
ENDBRANCH   7   8
ENDBRANCH   6   7
ENDBRANCH   5   6
ENDBRANCH   4   5
ENDBRANCH   3   4
ENDBRANCH   2   3
ENDBRANCH   1   2
BRANCH   1  15
ATOM     15  C   UNL     1       1.174  44.065   8.977  1.00  0.00     0.000 C 
BRANCH  15  16
ATOM     16  C   UNL     1       2.430  43.223   8.687  1.00  0.00     0.000 C 
BRANCH  16  17
ATOM     17  C   UNL     1       3.726  43.887   9.186  1.00  0.00     0.000 C 
BRANCH  17  18
ATOM     18  C   UNL     1       3.458  45.154  10.019  1.00  0.00    -0.000 C 
BRANCH  18  19
ATOM     19  C   UNL     1       4.223  45.212  11.355  1.00  0.00    -0.000 C 
BRANCH  19  20
ATOM     20  C   UNL     1       3.946  43.991  12.251  1.00  0.00    -0.000 C 
BRANCH  20  21
ATOM     21  C   UNL     1       2.448  43.806  12.539  1.00  0.00    -0.000 C 
BRANCH  21  22
ATOM     22  C   UNL     1       1.961  42.377  12.240  1.00  0.00    -0.000 C 
BRANCH  22  23
ATOM     23  C   UNL     1       3.119  41.445  11.824  1.00  0.00    -0.000 C 
BRANCH  23  24
ATOM     24  C   UNL     1       3.482  40.400  12.895  1.00  0.00    -0.000 C 
BRANCH  24  25
ATOM     25  C   UNL     1       2.444  39.275  13.009  1.00  0.00    -0.003 C 
ATOM     26  C   UNL     1       2.858  38.060  12.183  1.00  0.00     0.004 C 
ENDBRANCH  24  25
ENDBRANCH  23  24
ENDBRANCH  22  23
ENDBRANCH  21  22
ENDBRANCH  20  21
ENDBRANCH  19  20
ENDBRANCH  18  19
ENDBRANCH  17  18
ENDBRANCH  16  17
ENDBRANCH  15  16
ENDBRANCH   1  15
TORSDOF 22
ENDMDL
MODEL 6
REMARK VINA RESULT:    -4.501      3.076      7.781
REMARK INTER + INTRA:         -13.256
REMARK INTER:                 -10.392
REMARK INTRA:                  -2.864
REMARK UNBOUND:                -2.966
REMARK SMILES CCCCCCCCCCCCCCCCCCCCCCCC(=O)[O-]
REMARK SMILES IDX 13 1 14 2 15 3 16 4 17 5 18 6 19 7 20 8 21 9 22 10 23 11
REMARK SMILES IDX 24 12 25 13 26 14 12 15 11 16 10 17 9 18 8 19 7 20 6 21 5 22
REMARK SMILES IDX 4 23 3 24 2 25 1 26
REMARK H PARENT
REMARK Flexibility Score: inf
ROOT
ATOM      1  C   UNL     1       2.309  43.169   8.773  1.00  0.00     0.000 C 
ENDROOT
BRANCH   1   2
ATOM      2  C   UNL     1       3.758  43.537   9.135  1.00  0.00     0.000 C 
BRANCH   2   3
ATOM      3  C   UNL     1       3.864  44.878   9.883  1.00  0.00     0.000 C 
BRANCH   3   4
ATOM      4  C   UNL     1       4.485  44.795  11.292  1.00  0.00     0.000 C 
BRANCH   4   5
ATOM      5  C   UNL     1       3.882  43.716  12.215  1.00  0.00     0.000 C 
BRANCH   5   6
ATOM      6  C   UNL     1       2.380  43.880  12.512  1.00  0.00     0.000 C 
BRANCH   6   7
ATOM      7  C   UNL     1       1.574  42.604  12.225  1.00  0.00     0.000 C 
BRANCH   7   8
ATOM      8  C   UNL     1       0.362  42.495  13.162  1.00  0.00     0.000 C 
BRANCH   8   9
ATOM      9  C   UNL     1       0.208  41.075  13.750  1.00  0.00     0.000 C 
BRANCH   9  10
ATOM     10  C   UNL     1       1.518  40.270  13.767  1.00  0.00     0.006 C 
BRANCH  10  11
ATOM     11  C   UNL     1       1.402  38.925  13.040  1.00  0.00     0.053 C 
BRANCH  11  12
ATOM     12  C   UNL     1       2.750  38.450  12.600  1.00  0.00     0.041 C 
ATOM     13  O   UNL     1       2.859  37.416  11.889  1.00  0.00    -0.550 OA
ATOM     14  O   UNL     1       3.888  39.167  12.948  1.00  0.00    -0.550 OA
ENDBRANCH  11  12
ENDBRANCH  10  11
ENDBRANCH   9  10
ENDBRANCH   8   9
ENDBRANCH   7   8
ENDBRANCH   6   7
ENDBRANCH   5   6
ENDBRANCH   4   5
ENDBRANCH   3   4
ENDBRANCH   2   3
ENDBRANCH   1   2
BRANCH   1  15
ATOM     15  C   UNL     1       1.329  44.344   8.948  1.00  0.00     0.000 C 
BRANCH  15  16
ATOM     16  C   UNL     1       0.384  44.595   7.759  1.00  0.00     0.000 C 
BRANCH  16  17
ATOM     17  C   UNL     1      -0.639  45.714   8.030  1.00  0.00     0.000 C 
BRANCH  17  18
ATOM     18  C   UNL     1      -0.646  46.163   9.503  1.00  0.00    -0.000 C 
BRANCH  18  19
ATOM     19  C   UNL     1      -0.156  47.605   9.733  1.00  0.00    -0.000 C 
BRANCH  19  20
ATOM     20  C   UNL     1      -0.085  48.423   8.430  1.00  0.00    -0.000 C 
BRANCH  20  21
ATOM     21  C   UNL     1       1.311  49.022   8.194  1.00  0.00    -0.000 C 
BRANCH  21  22
ATOM     22  C   UNL     1       2.441  48.083   8.650  1.00  0.00    -0.000 C 
BRANCH  22  23
ATOM     23  C   UNL     1       3.486  47.849   7.538  1.00  0.00    -0.000 C 
BRANCH  23  24
ATOM     24  C   UNL     1       4.903  48.315   7.917  1.00  0.00    -0.000 C 
BRANCH  24  25
ATOM     25  C   UNL     1       5.390  47.728   9.249  1.00  0.00    -0.003 C 
ATOM     26  C   UNL     1       6.913  47.755   9.337  1.00  0.00     0.004 C 
ENDBRANCH  24  25
ENDBRANCH  23  24
ENDBRANCH  22  23
ENDBRANCH  21  22
ENDBRANCH  20  21
ENDBRANCH  19  20
ENDBRANCH  18  19
ENDBRANCH  17  18
ENDBRANCH  16  17
ENDBRANCH  15  16
ENDBRANCH   1  15
TORSDOF 22
ENDMDL
MODEL 7
REMARK VINA RESULT:    -4.409      2.048      3.025
REMARK INTER + INTRA:         -13.044
REMARK INTER:                  -9.942
REMARK INTRA:                  -3.102
REMARK UNBOUND:                -2.966
REMARK SMILES CCCCCCCCCCCCCCCCCCCCCCCC(=O)[O-]
REMARK SMILES IDX 13 1 14 2 15 3 16 4 17 5 18 6 19 7 20 8 21 9 22 10 23 11
REMARK SMILES IDX 24 12 25 13 26 14 12 15 11 16 10 17 9 18 8 19 7 20 6 21 5 22
REMARK SMILES IDX 4 23 3 24 2 25 1 26
REMARK H PARENT
REMARK Flexibility Score: inf
ROOT
ATOM      1  C   UNL     1       0.350  44.959   7.812  1.00  0.00     0.000 C 
ENDROOT
BRANCH   1   2
ATOM      2  C   UNL     1      -0.868  45.893   7.902  1.00  0.00     0.000 C 
BRANCH   2   3
ATOM      3  C   UNL     1      -0.643  47.237   7.184  1.00  0.00     0.000 C 
BRANCH   3   4
ATOM      4  C   UNL     1      -0.525  48.463   8.110  1.00  0.00     0.000 C 
BRANCH   4   5
ATOM      5  C   UNL     1       0.860  48.668   8.759  1.00  0.00     0.000 C 
BRANCH   5   6
ATOM      6  C   UNL     1       1.827  49.561   7.959  1.00  0.00     0.000 C 
BRANCH   6   7
ATOM      7  C   UNL     1       2.928  48.759   7.250  1.00  0.00     0.000 C 
BRANCH   7   8
ATOM      8  C   UNL     1       3.230  47.453   8.001  1.00  0.00     0.000 C 
BRANCH   8   9
ATOM      9  C   UNL     1       4.533  47.546   8.825  1.00  0.00     0.000 C 
BRANCH   9  10
ATOM     10  C   UNL     1       4.882  46.249   9.574  1.00  0.00     0.006 C 
BRANCH  10  11
ATOM     11  C   UNL     1       4.063  46.059  10.855  1.00  0.00     0.053 C 
BRANCH  11  12
ATOM     12  C   UNL     1       4.138  44.638  11.319  1.00  0.00     0.041 C 
ATOM     13  O   UNL     1       4.185  44.374  12.549  1.00  0.00    -0.550 OA
ATOM     14  O   UNL     1       4.123  43.603  10.392  1.00  0.00    -0.550 OA
ENDBRANCH  11  12
ENDBRANCH  10  11
ENDBRANCH   9  10
ENDBRANCH   8   9
ENDBRANCH   7   8
ENDBRANCH   6   7
ENDBRANCH   5   6
ENDBRANCH   4   5
ENDBRANCH   3   4
ENDBRANCH   2   3
ENDBRANCH   1   2
BRANCH   1  15
ATOM     15  C   UNL     1       0.965  44.638   9.188  1.00  0.00     0.000 C 
BRANCH  15  16
ATOM     16  C   UNL     1       0.496  45.540  10.344  1.00  0.00     0.000 C 
BRANCH  16  17
ATOM     17  C   UNL     1       0.151  44.750  11.619  1.00  0.00     0.000 C 
BRANCH  17  18
ATOM     18  C   UNL     1       0.844  43.376  11.669  1.00  0.00    -0.000 C 
BRANCH  18  19
ATOM     19  C   UNL     1       1.057  42.820  13.090  1.00  0.00    -0.000 C 
BRANCH  19  20
ATOM     20  C   UNL     1      -0.126  41.965  13.577  1.00  0.00    -0.000 C 
BRANCH  20  21
ATOM     21  C   UNL     1       0.335  40.668  14.262  1.00  0.00    -0.000 C 
BRANCH  21  22
ATOM     22  C   UNL     1       0.787  39.597  13.254  1.00  0.00    -0.000 C 
BRANCH  22  23
ATOM     23  C   UNL     1       2.320  39.414  13.250  1.00  0.00    -0.000 C 
BRANCH  23  24
ATOM     24  C   UNL     1       3.037  40.245  12.171  1.00  0.00    -0.000 C 
BRANCH  24  25
ATOM     25  C   UNL     1       4.350  40.864  12.666  1.00  0.00    -0.003 C 
ATOM     26  C   UNL     1       5.134  39.876  13.525  1.00  0.00     0.004 C 
ENDBRANCH  24  25
ENDBRANCH  23  24
ENDBRANCH  22  23
ENDBRANCH  21  22
ENDBRANCH  20  21
ENDBRANCH  19  20
ENDBRANCH  18  19
ENDBRANCH  17  18
ENDBRANCH  16  17
ENDBRANCH  15  16
ENDBRANCH   1  15
TORSDOF 22
ENDMDL
MODEL 8
REMARK VINA RESULT:    -4.376      3.523      5.824
REMARK INTER + INTRA:         -12.970
REMARK INTER:                  -9.813
REMARK INTRA:                  -3.157
REMARK UNBOUND:                -2.966
REMARK SMILES CCCCCCCCCCCCCCCCCCCCCCCC(=O)[O-]
REMARK SMILES IDX 13 1 14 2 15 3 16 4 17 5 18 6 19 7 20 8 21 9 22 10 23 11
REMARK SMILES IDX 24 12 25 13 26 14 12 15 11 16 10 17 9 18 8 19 7 20 6 21 5 22
REMARK SMILES IDX 4 23 3 24 2 25 1 26
REMARK H PARENT
REMARK Flexibility Score: inf
ROOT
ATOM      1  C   UNL     1       1.165  48.976   8.718  1.00  0.00     0.000 C 
ENDROOT
BRANCH   1   2
ATOM      2  C   UNL     1      -0.320  48.792   8.363  1.00  0.00     0.000 C 
BRANCH   2   3
ATOM      3  C   UNL     1      -0.549  47.705   7.297  1.00  0.00     0.000 C 
BRANCH   3   4
ATOM      4  C   UNL     1      -0.819  46.292   7.850  1.00  0.00     0.000 C 
BRANCH   4   5
ATOM      5  C   UNL     1       0.366  45.307   7.749  1.00  0.00     0.000 C 
BRANCH   5   6
ATOM      6  C   UNL     1       0.864  44.749   9.095  1.00  0.00     0.000 C 
BRANCH   6   7
ATOM      7  C   UNL     1       0.706  45.750  10.249  1.00  0.00     0.000 C 
BRANCH   7   8
ATOM      8  C   UNL     1       0.136  45.064  11.500  1.00  0.00     0.000 C 
BRANCH   8   9
ATOM      9  C   UNL     1       0.665  43.622  11.663  1.00  0.00     0.000 C 
BRANCH   9  10
ATOM     10  C   UNL     1       0.538  43.077  13.096  1.00  0.00     0.006 C 
BRANCH  10  11
ATOM     11  C   UNL     1      -0.621  42.087  13.259  1.00  0.00     0.053 C 
BRANCH  11  12
ATOM     12  C   UNL     1      -0.314  41.096  14.337  1.00  0.00     0.041 C 
ATOM     13  O   UNL     1       0.091  41.487  15.463  1.00  0.00    -0.550 OA
ATOM     14  O   UNL     1      -0.506  39.739  14.108  1.00  0.00    -0.550 OA
ENDBRANCH  11  12
ENDBRANCH  10  11
ENDBRANCH   9  10
ENDBRANCH   8   9
ENDBRANCH   7   8
ENDBRANCH   6   7
ENDBRANCH   5   6
ENDBRANCH   4   5
ENDBRANCH   3   4
ENDBRANCH   2   3
ENDBRANCH   1   2
BRANCH   1  15
ATOM     15  C   UNL     1       2.014  49.449   7.523  1.00  0.00     0.000 C 
BRANCH  15  16
ATOM     16  C   UNL     1       3.249  48.584   7.210  1.00  0.00     0.000 C 
BRANCH  16  17
ATOM     17  C   UNL     1       3.430  47.417   8.197  1.00  0.00     0.000 C 
BRANCH  17  18
ATOM     18  C   UNL     1       4.780  47.471   8.936  1.00  0.00    -0.000 C 
BRANCH  18  19
ATOM     19  C   UNL     1       4.858  46.579  10.189  1.00  0.00    -0.000 C 
BRANCH  19  20
ATOM     20  C   UNL     1       4.508  45.109   9.895  1.00  0.00    -0.000 C 
BRANCH  20  21
ATOM     21  C   UNL     1       4.131  44.334  11.167  1.00  0.00    -0.000 C 
BRANCH  21  22
ATOM     22  C   UNL     1       3.752  42.871  10.876  1.00  0.00    -0.000 C 
BRANCH  22  23
ATOM     23  C   UNL     1       3.949  41.965  12.110  1.00  0.00    -0.000 C 
BRANCH  23  24
ATOM     24  C   UNL     1       2.975  40.774  12.160  1.00  0.00    -0.000 C 
BRANCH  24  25
ATOM     25  C   UNL     1       3.488  39.617  13.027  1.00  0.00    -0.003 C 
ATOM     26  C   UNL     1       4.982  39.757  13.303  1.00  0.00     0.004 C 
ENDBRANCH  24  25
ENDBRANCH  23  24
ENDBRANCH  22  23
ENDBRANCH  21  22
ENDBRANCH  20  21
ENDBRANCH  19  20
ENDBRANCH  18  19
ENDBRANCH  17  18
ENDBRANCH  16  17
ENDBRANCH  15  16
ENDBRANCH   1  15
TORSDOF 22
ENDMDL
MODEL 9
REMARK VINA RESULT:    -4.310      3.070      7.731
REMARK INTER + INTRA:         -12.818
REMARK INTER:                  -9.821
REMARK INTRA:                  -2.998
REMARK UNBOUND:                -2.966
REMARK SMILES CCCCCCCCCCCCCCCCCCCCCCCC(=O)[O-]
REMARK SMILES IDX 13 1 14 2 15 3 16 4 17 5 18 6 19 7 20 8 21 9 22 10 23 11
REMARK SMILES IDX 24 12 25 13 26 14 12 15 11 16 10 17 9 18 8 19 7 20 6 21 5 22
REMARK SMILES IDX 4 23 3 24 2 25 1 26
REMARK H PARENT
REMARK Flexibility Score: inf
ROOT
ATOM      1  C   UNL     1       4.494  45.626   9.800  1.00  0.00     0.000 C 
ENDROOT
BRANCH   1   2
ATOM      2  C   UNL     1       3.976  45.744  11.243  1.00  0.00     0.000 C 
BRANCH   2   3
ATOM      3  C   UNL     1       4.130  44.435  12.040  1.00  0.00     0.000 C 
BRANCH   3   4
ATOM      4  C   UNL     1       3.828  43.147  11.249  1.00  0.00     0.000 C 
BRANCH   4   5
ATOM      5  C   UNL     1       2.404  42.580  11.432  1.00  0.00     0.000 C 
BRANCH   5   6
ATOM      6  C   UNL     1       1.632  43.138  12.643  1.00  0.00     0.000 C 
BRANCH   6   7
ATOM      7  C   UNL     1       0.254  42.484  12.822  1.00  0.00     0.000 C 
BRANCH   7   8
ATOM      8  C   UNL     1       0.219  41.610  14.085  1.00  0.00     0.000 C 
BRANCH   8   9
ATOM      9  C   UNL     1      -0.258  40.173  13.784  1.00  0.00     0.000 C 
BRANCH   9  10
ATOM     10  C   UNL     1       0.839  39.269  13.197  1.00  0.00     0.006 C 
BRANCH  10  11
ATOM     11  C   UNL     1       2.250  39.685  13.628  1.00  0.00     0.053 C 
BRANCH  11  12
ATOM     12  C   UNL     1       3.280  38.940  12.838  1.00  0.00     0.041 C 
ATOM     13  O   UNL     1       2.947  37.951  12.133  1.00  0.00    -0.550 OA
ATOM     14  O   UNL     1       4.606  39.357  12.855  1.00  0.00    -0.550 OA
ENDBRANCH  11  12
ENDBRANCH  10  11
ENDBRANCH   9  10
ENDBRANCH   8   9
ENDBRANCH   7   8
ENDBRANCH   6   7
ENDBRANCH   5   6
ENDBRANCH   4   5
ENDBRANCH   3   4
ENDBRANCH   2   3
ENDBRANCH   1   2
BRANCH   1  15
ATOM     15  C   UNL     1       4.596  46.987   9.085  1.00  0.00     0.000 C 
BRANCH  15  16
ATOM     16  C   UNL     1       3.326  47.435   8.340  1.00  0.00     0.000 C 
BRANCH  16  17
ATOM     17  C   UNL     1       3.607  48.490   7.255  1.00  0.00     0.000 C 
BRANCH  17  18
ATOM     18  C   UNL     1       2.562  49.622   7.246  1.00  0.00    -0.000 C 
BRANCH  18  19
ATOM     19  C   UNL     1       1.456  49.477   8.308  1.00  0.00    -0.000 C 
BRANCH  19  20
ATOM     20  C   UNL     1       0.042  49.491   7.699  1.00  0.00    -0.000 C 
BRANCH  20  21
ATOM     21  C   UNL     1      -0.818  48.319   8.197  1.00  0.00    -0.000 C 
BRANCH  21  22
ATOM     22  C   UNL     1      -0.263  47.685   9.485  1.00  0.00    -0.000 C 
BRANCH  22  23
ATOM     23  C   UNL     1      -0.737  46.227   9.666  1.00  0.00    -0.000 C 
BRANCH  23  24
ATOM     24  C   UNL     1       0.407  45.241   9.960  1.00  0.00    -0.000 C 
BRANCH  24  25
ATOM     25  C   UNL     1       1.007  44.623   8.690  1.00  0.00    -0.003 C 
ATOM     26  C   UNL     1      -0.011  44.610   7.552  1.00  0.00     0.004 C 
ENDBRANCH  24  25
ENDBRANCH  23  24
ENDBRANCH  22  23
ENDBRANCH  21  22
ENDBRANCH  20  21
ENDBRANCH  19  20
ENDBRANCH  18  19
ENDBRANCH  17  18
ENDBRANCH  16  17
ENDBRANCH  15  16
ENDBRANCH   1  15
TORSDOF 22
ENDMDL
