MODEL 1
REMARK VINA RESULT:    -3.974      0.000      0.000
REMARK INTER + INTRA:          -4.789
REMARK INTER:                  -4.671
REMARK INTRA:                  -0.118
REMARK UNBOUND:                -0.118
REMARK SMILES O=C([O-])CCC(=O)[O-]
REMARK SMILES IDX 4 1 2 2 1 3 3 4 5 5 6 6 7 7 8 8
REMARK H PARENT
REMARK Flexibility Score: inf
ROOT
ATOM      1  C   UNL     1      83.510  62.379  11.661  1.00  0.00     0.059 C 
ENDROOT
BRANCH   1   2
ATOM      2  C   UNL     1      84.404  61.194  11.456  1.00  0.00     0.042 C 
ATOM      3  O   UNL     1      83.922  60.094  11.077  1.00  0.00    -0.550 OA
ATOM      4  O   UNL     1      85.775  61.316  11.646  1.00  0.00    -0.550 OA
ENDBRANCH   1   2
BRANCH   1   5
ATOM      5  C   UNL     1      82.037  61.965  11.745  1.00  0.00     0.059 C 
BRANCH   5   6
ATOM      6  C   UNL     1      81.256  62.457  10.565  1.00  0.00     0.042 C 
ATOM      7  O   UNL     1      81.755  62.405   9.409  1.00  0.00    -0.550 OA
ATOM      8  O   UNL     1      79.996  63.012  10.745  1.00  0.00    -0.550 OA
ENDBRANCH   5   6
ENDBRANCH   1   5
TORSDOF 3
ENDMDL
MODEL 2
REMARK VINA RESULT:    -3.966      0.059      4.022
REMARK INTER + INTRA:          -4.780
REMARK INTER:                  -4.664
REMARK INTRA:                  -0.115
REMARK UNBOUND:                -0.118
REMARK SMILES O=C([O-])CCC(=O)[O-]
REMARK SMILES IDX 4 1 2 2 1 3 3 4 5 5 6 6 7 7 8 8
REMARK H PARENT
REMARK Flexibility Score: inf
ROOT
ATOM      1  C   UNL     1      82.000  61.926  11.746  1.00  0.00     0.059 C 
ENDROOT
BRANCH   1   2
ATOM      2  C   UNL     1      81.257  62.500  10.579  1.00  0.00     0.042 C 
ATOM      3  O   UNL     1      81.757  62.454   9.424  1.00  0.00    -0.550 OA
ATOM      4  O   UNL     1      79.994  63.050  10.761  1.00  0.00    -0.550 OA
ENDBRANCH   1   2
BRANCH   1   5
ATOM      5  C   UNL     1      83.476  62.337  11.731  1.00  0.00     0.059 C 
BRANCH   5   6
ATOM      6  C   UNL     1      84.374  61.166  11.474  1.00  0.00     0.042 C 
ATOM      7  O   UNL     1      83.884  60.054  11.142  1.00  0.00    -0.550 OA
ATOM      8  O   UNL     1      85.746  61.290  11.642  1.00  0.00    -0.550 OA
ENDBRANCH   5   6
ENDBRANCH   1   5
TORSDOF 3
ENDMDL
MODEL 3
REMARK VINA RESULT:    -3.833      1.118      1.532
REMARK INTER + INTRA:          -4.623
REMARK INTER:                  -4.586
REMARK INTRA:                  -0.036
REMARK UNBOUND:                -0.118
REMARK SMILES O=C([O-])CCC(=O)[O-]
REMARK SMILES IDX 4 1 2 2 1 3 3 4 5 5 6 6 7 7 8 8
REMARK H PARENT
REMARK Flexibility Score: inf
ROOT
ATOM      1  C   UNL     1      82.676  61.896  11.849  1.00  0.00     0.059 C 
ENDROOT
BRANCH   1   2
ATOM      2  C   UNL     1      84.142  61.708  11.608  1.00  0.00     0.042 C 
ATOM      3  O   UNL     1      84.947  62.650  11.832  1.00  0.00    -0.550 OA
ATOM      4  O   UNL     1      84.623  60.480  11.171  1.00  0.00    -0.550 OA
ENDBRANCH   1   2
BRANCH   1   5
ATOM      5  C   UNL     1      82.025  62.733  10.742  1.00  0.00     0.059 C 
BRANCH   5   6
ATOM      6  C   UNL     1      80.582  62.376  10.556  1.00  0.00     0.042 C 
ATOM      7  O   UNL     1      80.246  61.177  10.364  1.00  0.00    -0.550 OA
ATOM      8  O   UNL     1      79.613  63.370  10.552  1.00  0.00    -0.550 OA
ENDBRANCH   5   6
ENDBRANCH   1   5
TORSDOF 3
ENDMDL
MODEL 4
REMARK VINA RESULT:    -3.721      1.933      2.405
REMARK INTER + INTRA:          -4.491
REMARK INTER:                  -4.382
REMARK INTRA:                  -0.109
REMARK UNBOUND:                -0.118
REMARK SMILES O=C([O-])CCC(=O)[O-]
REMARK SMILES IDX 4 1 2 2 1 3 3 4 5 5 6 6 7 7 8 8
REMARK H PARENT
REMARK Flexibility Score: inf
ROOT
ATOM      1  C   UNL     1      81.678  59.936  11.659  1.00  0.00     0.059 C 
ENDROOT
BRANCH   1   2
ATOM      2  C   UNL     1      82.793  59.274  12.409  1.00  0.00     0.042 C 
ATOM      3  O   UNL     1      82.544  58.560  13.416  1.00  0.00    -0.550 OA
ATOM      4  O   UNL     1      84.105  59.414  11.972  1.00  0.00    -0.550 OA
ENDBRANCH   1   2
BRANCH   1   5
ATOM      5  C   UNL     1      81.600  61.434  11.973  1.00  0.00     0.059 C 
BRANCH   5   6
ATOM      6  C   UNL     1      82.214  62.260  10.885  1.00  0.00     0.042 C 
ATOM      7  O   UNL     1      81.666  62.324   9.752  1.00  0.00    -0.550 OA
ATOM      8  O   UNL     1      83.413  62.924  11.107  1.00  0.00    -0.550 OA
ENDBRANCH   5   6
ENDBRANCH   1   5
TORSDOF 3
ENDMDL
MODEL 5
REMARK VINA RESULT:    -3.694      1.978      3.906
REMARK INTER + INTRA:          -4.460
REMARK INTER:                  -4.345
REMARK INTRA:                  -0.115
REMARK UNBOUND:                -0.118
REMARK SMILES O=C([O-])CCC(=O)[O-]
REMARK SMILES IDX 4 1 2 2 1 3 3 4 5 5 6 6 7 7 8 8
REMARK H PARENT
REMARK Flexibility Score: inf
ROOT
ATOM      1  C   UNL     1      81.832  60.780  10.591  1.00  0.00     0.059 C 
ENDROOT
BRANCH   1   2
ATOM      2  C   UNL     1      81.922  62.258  10.819  1.00  0.00     0.042 C 
ATOM      3  O   UNL     1      80.883  62.969  10.787  1.00  0.00    -0.550 OA
ATOM      4  O   UNL     1      83.149  62.843  11.105  1.00  0.00    -0.550 OA
ENDBRANCH   1   2
BRANCH   1   5
ATOM      5  C   UNL     1      81.507  60.029  11.887  1.00  0.00     0.059 C 
BRANCH   5   6
ATOM      6  C   UNL     1      82.696  59.280  12.405  1.00  0.00     0.042 C 
ATOM      7  O   UNL     1      82.584  58.534  13.414  1.00  0.00    -0.550 OA
ATOM      8  O   UNL     1      83.936  59.437  11.800  1.00  0.00    -0.550 OA
ENDBRANCH   5   6
ENDBRANCH   1   5
TORSDOF 3
ENDMDL
MODEL 6
REMARK VINA RESULT:    -3.694      1.674      2.201
REMARK INTER + INTRA:          -4.460
REMARK INTER:                  -4.339
REMARK INTRA:                  -0.121
REMARK UNBOUND:                -0.118
REMARK SMILES O=C([O-])CCC(=O)[O-]
REMARK SMILES IDX 4 1 2 2 1 3 3 4 5 5 6 6 7 7 8 8
REMARK H PARENT
REMARK Flexibility Score: inf
ROOT
ATOM      1  C   UNL     1      83.913  59.985  10.926  1.00  0.00     0.059 C 
ENDROOT
BRANCH   1   2
ATOM      2  C   UNL     1      85.250  59.495  11.393  1.00  0.00     0.042 C 
ATOM      3  O   UNL     1      85.604  58.308  11.167  1.00  0.00    -0.550 OA
ATOM      4  O   UNL     1      86.119  60.361  12.044  1.00  0.00    -0.550 OA
ENDBRANCH   1   2
BRANCH   1   5
ATOM      5  C   UNL     1      83.311  60.999  11.905  1.00  0.00     0.059 C 
BRANCH   5   6
ATOM      6  C   UNL     1      83.254  62.373  11.312  1.00  0.00     0.042 C 
ATOM      7  O   UNL     1      84.303  63.063  11.210  1.00  0.00    -0.550 OA
ATOM      8  O   UNL     1      82.037  62.908  10.910  1.00  0.00    -0.550 OA
ENDBRANCH   5   6
ENDBRANCH   1   5
TORSDOF 3
ENDMDL
MODEL 7
REMARK VINA RESULT:    -3.563      2.879      3.674
REMARK INTER + INTRA:          -4.306
REMARK INTER:                  -4.258
REMARK INTRA:                  -0.048
REMARK UNBOUND:                -0.118
REMARK SMILES O=C([O-])CCC(=O)[O-]
REMARK SMILES IDX 4 1 2 2 1 3 3 4 5 5 6 6 7 7 8 8
REMARK H PARENT
REMARK Flexibility Score: inf
ROOT
ATOM      1  C   UNL     1      83.733  60.433  11.575  1.00  0.00     0.059 C 
ENDROOT
BRANCH   1   2
ATOM      2  C   UNL     1      85.203  60.710  11.661  1.00  0.00     0.042 C 
ATOM      3  O   UNL     1      85.631  61.891  11.577  1.00  0.00    -0.550 OA
ATOM      4  O   UNL     1      86.096  59.667  11.873  1.00  0.00    -0.550 OA
ENDBRANCH   1   2
BRANCH   1   5
ATOM      5  C   UNL     1      83.419  58.960  11.859  1.00  0.00     0.059 C 
BRANCH   5   6
ATOM      6  C   UNL     1      82.368  58.812  12.917  1.00  0.00     0.042 C 
ATOM      7  O   UNL     1      81.229  59.324  12.752  1.00  0.00    -0.550 OA
ATOM      8  O   UNL     1      82.659  58.147  14.100  1.00  0.00    -0.550 OA
ENDBRANCH   5   6
ENDBRANCH   1   5
TORSDOF 3
ENDMDL
MODEL 8
REMARK VINA RESULT:    -3.553      2.343      3.611
REMARK INTER + INTRA:          -4.294
REMARK INTER:                  -4.209
REMARK INTRA:                  -0.084
REMARK UNBOUND:                -0.118
REMARK SMILES O=C([O-])CCC(=O)[O-]
REMARK SMILES IDX 4 1 2 2 1 3 3 4 5 5 6 6 7 7 8 8
REMARK H PARENT
REMARK Flexibility Score: inf
ROOT
ATOM      1  C   UNL     1      82.392  59.976  11.223  1.00  0.00     0.059 C 
ENDROOT
BRANCH   1   2
ATOM      2  C   UNL     1      81.748  59.397  12.446  1.00  0.00     0.042 C 
ATOM      3  O   UNL     1      82.409  58.655  13.219  1.00  0.00    -0.550 OA
ATOM      4  O   UNL     1      80.429  59.710  12.752  1.00  0.00    -0.550 OA
ENDBRANCH   1   2
BRANCH   1   5
ATOM      5  C   UNL     1      83.800  60.501  11.522  1.00  0.00     0.059 C 
BRANCH   5   6
ATOM      6  C   UNL     1      83.827  61.997  11.602  1.00  0.00     0.042 C 
ATOM      7  O   UNL     1      82.807  62.666  11.288  1.00  0.00    -0.550 OA
ATOM      8  O   UNL     1      84.990  62.653  11.983  1.00  0.00    -0.550 OA
ENDBRANCH   5   6
ENDBRANCH   1   5
TORSDOF 3
ENDMDL
MODEL 9
REMARK VINA RESULT:    -3.540      2.664      3.673
REMARK INTER + INTRA:          -4.279
REMARK INTER:                  -4.143
REMARK INTRA:                  -0.136
REMARK UNBOUND:                -0.118
REMARK SMILES O=C([O-])CCC(=O)[O-]
REMARK SMILES IDX 4 1 2 2 1 3 3 4 5 5 6 6 7 7 8 8
REMARK H PARENT
REMARK Flexibility Score: inf
ROOT
ATOM      1  C   UNL     1      81.593  59.337  12.503  1.00  0.00     0.059 C 
ENDROOT
BRANCH   1   2
ATOM      2  C   UNL     1      82.581  58.322  12.992  1.00  0.00     0.042 C 
ATOM      3  O   UNL     1      82.716  58.113  14.226  1.00  0.00    -0.550 OA
ATOM      4  O   UNL     1      83.323  57.580  12.082  1.00  0.00    -0.550 OA
ENDBRANCH   1   2
BRANCH   1   5
ATOM      5  C   UNL     1      82.080  60.027  11.224  1.00  0.00     0.059 C 
BRANCH   5   6
ATOM      6  C   UNL     1      83.187  60.997  11.507  1.00  0.00     0.042 C 
ATOM      7  O   UNL     1      82.927  62.127  11.999  1.00  0.00    -0.550 OA
ATOM      8  O   UNL     1      84.498  60.670  11.189  1.00  0.00    -0.550 OA
ENDBRANCH   5   6
ENDBRANCH   1   5
TORSDOF 3
ENDMDL
