MODEL 1
REMARK VINA RESULT:    -5.779      0.000      0.000
REMARK INTER + INTRA:          -5.779
REMARK INTER:                  -5.779
REMARK INTRA:                   0.000
REMARK UNBOUND:                 0.000
REMARK SMILES CC1=CC(=O)[C@H]2C[C@@H]1C2(C)C
REMARK SMILES IDX 1 1 2 2 3 3 4 4 5 5 6 6 7 7 8 8 9 9 10 10 11 11
REMARK H PARENT
REMARK Flexibility Score: inf
ROOT
ATOM      1  C   UNL     1     -13.998 -19.673  28.833  1.00  0.00     0.040 C 
ATOM      2  C   UNL     1     -12.968 -18.600  29.005  1.00  0.00    -0.066 C 
ATOM      3  C   UNL     1     -11.856 -18.775  29.771  1.00  0.00     0.047 C 
ATOM      4  C   UNL     1     -10.915 -17.610  29.850  1.00  0.00     0.159 C 
ATOM      5  O   UNL     1      -9.876 -17.631  30.559  1.00  0.00    -0.295 OA
ATOM      6  C   UNL     1     -11.308 -16.394  29.009  1.00  0.00     0.067 C 
ATOM      7  C   UNL     1     -11.709 -16.993  27.644  1.00  0.00     0.021 C 
ATOM      8  C   UNL     1     -13.101 -17.253  28.265  1.00  0.00     0.022 C 
ATOM      9  C   UNL     1     -12.812 -16.087  29.255  1.00  0.00    -0.019 C 
ATOM     10  C   UNL     1     -13.234 -14.710  28.684  1.00  0.00     0.012 C 
ATOM     11  C   UNL     1     -13.363 -16.202  30.705  1.00  0.00     0.012 C 
ENDROOT
TORSDOF 0
ENDMDL
MODEL 2
REMARK VINA RESULT:    -5.439      2.057      2.979
REMARK INTER + INTRA:          -5.439
REMARK INTER:                  -5.439
REMARK INTRA:                   0.000
REMARK UNBOUND:                 0.000
REMARK SMILES CC1=CC(=O)[C@H]2C[C@@H]1C2(C)C
REMARK SMILES IDX 1 1 2 2 3 3 4 4 5 5 6 6 7 7 8 8 9 9 10 10 11 11
REMARK H PARENT
REMARK Flexibility Score: inf
ROOT
ATOM      1  C   UNL     1     -13.240 -19.090  30.675  1.00  0.00     0.040 C 
ATOM      2  C   UNL     1     -13.029 -17.872  29.831  1.00  0.00    -0.066 C 
ATOM      3  C   UNL     1     -13.518 -17.772  28.564  1.00  0.00     0.047 C 
ATOM      4  C   UNL     1     -13.226 -16.492  27.840  1.00  0.00     0.159 C 
ATOM      5  O   UNL     1     -13.586 -16.295  26.650  1.00  0.00    -0.295 OA
ATOM      6  C   UNL     1     -12.459 -15.445  28.647  1.00  0.00     0.067 C 
ATOM      7  C   UNL     1     -13.170 -15.430  30.018  1.00  0.00     0.021 C 
ATOM      8  C   UNL     1     -12.286 -16.642  30.391  1.00  0.00     0.022 C 
ATOM      9  C   UNL     1     -11.253 -16.139  29.341  1.00  0.00    -0.019 C 
ATOM     10  C   UNL     1     -10.250 -15.121  29.941  1.00  0.00     0.012 C 
ATOM     11  C   UNL     1     -10.447 -17.199  28.537  1.00  0.00     0.012 C 
ENDROOT
TORSDOF 0
ENDMDL
MODEL 3
REMARK VINA RESULT:    -5.357      1.803      3.440
REMARK INTER + INTRA:          -5.357
REMARK INTER:                  -5.357
REMARK INTRA:                   0.000
REMARK UNBOUND:                 0.000
REMARK SMILES CC1=CC(=O)[C@H]2C[C@@H]1C2(C)C
REMARK SMILES IDX 1 1 2 2 3 3 4 4 5 5 6 6 7 7 8 8 9 9 10 10 11 11
REMARK H PARENT
REMARK Flexibility Score: inf
ROOT
ATOM      1  C   UNL     1     -13.851 -14.725  30.245  1.00  0.00     0.040 C 
ATOM      2  C   UNL     1     -12.843 -15.523  29.479  1.00  0.00    -0.066 C 
ATOM      3  C   UNL     1     -12.958 -15.748  28.140  1.00  0.00     0.047 C 
ATOM      4  C   UNL     1     -11.873 -16.568  27.510  1.00  0.00     0.159 C 
ATOM      5  O   UNL     1     -11.888 -16.881  26.291  1.00  0.00    -0.295 OA
ATOM      6  C   UNL     1     -10.747 -16.998  28.452  1.00  0.00     0.067 C 
ATOM      7  C   UNL     1     -10.409 -15.717  29.244  1.00  0.00     0.021 C 
ATOM      8  C   UNL     1     -11.587 -16.086  30.175  1.00  0.00     0.022 C 
ATOM      9  C   UNL     1     -11.380 -17.570  29.752  1.00  0.00    -0.019 C 
ATOM     10  C   UNL     1     -10.343 -18.298  30.643  1.00  0.00     0.012 C 
ATOM     11  C   UNL     1     -12.636 -18.478  29.624  1.00  0.00     0.012 C 
ENDROOT
TORSDOF 0
ENDMDL
MODEL 4
REMARK VINA RESULT:    -5.316      1.736      3.348
REMARK INTER + INTRA:          -5.316
REMARK INTER:                  -5.316
REMARK INTRA:                   0.000
REMARK UNBOUND:                 0.000
REMARK SMILES CC1=CC(=O)[C@H]2C[C@@H]1C2(C)C
REMARK SMILES IDX 1 1 2 2 3 3 4 4 5 5 6 6 7 7 8 8 9 9 10 10 11 11
REMARK H PARENT
REMARK Flexibility Score: inf
ROOT
ATOM      1  C   UNL     1     -11.374 -17.001  26.380  1.00  0.00     0.040 C 
ATOM      2  C   UNL     1     -11.988 -16.942  27.744  1.00  0.00    -0.066 C 
ATOM      3  C   UNL     1     -12.498 -15.790  28.263  1.00  0.00     0.047 C 
ATOM      4  C   UNL     1     -13.078 -15.884  29.642  1.00  0.00     0.159 C 
ATOM      5  O   UNL     1     -13.541 -14.882  30.246  1.00  0.00    -0.295 OA
ATOM      6  C   UNL     1     -13.068 -17.281  30.262  1.00  0.00     0.067 C 
ATOM      7  C   UNL     1     -13.573 -18.200  29.129  1.00  0.00     0.021 C 
ATOM      8  C   UNL     1     -12.118 -18.213  28.608  1.00  0.00     0.022 C 
ATOM      9  C   UNL     1     -11.656 -17.902  30.061  1.00  0.00    -0.019 C 
ATOM     10  C   UNL     1     -11.450 -19.186  30.903  1.00  0.00     0.012 C 
ATOM     11  C   UNL     1     -10.412 -16.988  30.256  1.00  0.00     0.012 C 
ENDROOT
TORSDOF 0
ENDMDL
MODEL 5
REMARK VINA RESULT:    -5.288      1.562      2.457
REMARK INTER + INTRA:          -5.288
REMARK INTER:                  -5.288
REMARK INTRA:                   0.000
REMARK UNBOUND:                 0.000
REMARK SMILES CC1=CC(=O)[C@H]2C[C@@H]1C2(C)C
REMARK SMILES IDX 1 1 2 2 3 3 4 4 5 5 6 6 7 7 8 8 9 9 10 10 11 11
REMARK H PARENT
REMARK Flexibility Score: inf
ROOT
ATOM      1  C   UNL     1     -13.874 -15.877  26.754  1.00  0.00     0.040 C 
ATOM      2  C   UNL     1     -13.090 -16.633  27.780  1.00  0.00    -0.066 C 
ATOM      3  C   UNL     1     -13.474 -17.859  28.232  1.00  0.00     0.047 C 
ATOM      4  C   UNL     1     -12.589 -18.493  29.262  1.00  0.00     0.159 C 
ATOM      5  O   UNL     1     -12.858 -19.604  29.789  1.00  0.00    -0.295 OA
ATOM      6  C   UNL     1     -11.337 -17.696  29.629  1.00  0.00     0.067 C 
ATOM      7  C   UNL     1     -10.765 -17.245  28.268  1.00  0.00     0.021 C 
ATOM      8  C   UNL     1     -11.766 -16.068  28.335  1.00  0.00     0.022 C 
ATOM      9  C   UNL     1     -11.748 -16.218  29.884  1.00  0.00    -0.019 C 
ATOM     10  C   UNL     1     -10.612 -15.395  30.543  1.00  0.00     0.012 C 
ATOM     11  C   UNL     1     -13.065 -15.942  30.664  1.00  0.00     0.012 C 
ENDROOT
TORSDOF 0
ENDMDL
MODEL 6
REMARK VINA RESULT:    -5.235      1.921      2.757
REMARK INTER + INTRA:          -5.235
REMARK INTER:                  -5.235
REMARK INTRA:                   0.000
REMARK UNBOUND:                 0.000
REMARK SMILES CC1=CC(=O)[C@H]2C[C@@H]1C2(C)C
REMARK SMILES IDX 1 1 2 2 3 3 4 4 5 5 6 6 7 7 8 8 9 9 10 10 11 11
REMARK H PARENT
REMARK Flexibility Score: inf
ROOT
ATOM      1  C   UNL     1     -12.687 -19.202  30.821  1.00  0.00     0.040 C 
ATOM      2  C   UNL     1     -12.587 -17.864  30.160  1.00  0.00    -0.066 C 
ATOM      3  C   UNL     1     -13.307 -16.787  30.582  1.00  0.00     0.047 C 
ATOM      4  C   UNL     1     -13.102 -15.512  29.820  1.00  0.00     0.159 C 
ATOM      5  O   UNL     1     -13.740 -14.461  30.085  1.00  0.00    -0.295 OA
ATOM      6  C   UNL     1     -12.066 -15.580  28.698  1.00  0.00     0.067 C 
ATOM      7  C   UNL     1     -10.869 -16.319  29.334  1.00  0.00     0.021 C 
ATOM      8  C   UNL     1     -11.608 -17.632  28.990  1.00  0.00     0.022 C 
ATOM      9  C   UNL     1     -12.334 -16.857  27.852  1.00  0.00    -0.019 C 
ATOM     10  C   UNL     1     -11.532 -16.866  26.526  1.00  0.00     0.012 C 
ATOM     11  C   UNL     1     -13.808 -17.235  27.531  1.00  0.00     0.012 C 
ENDROOT
TORSDOF 0
ENDMDL
MODEL 7
REMARK VINA RESULT:    -5.195      1.323      2.297
REMARK INTER + INTRA:          -5.195
REMARK INTER:                  -5.195
REMARK INTRA:                   0.000
REMARK UNBOUND:                 0.000
REMARK SMILES CC1=CC(=O)[C@H]2C[C@@H]1C2(C)C
REMARK SMILES IDX 1 1 2 2 3 3 4 4 5 5 6 6 7 7 8 8 9 9 10 10 11 11
REMARK H PARENT
REMARK Flexibility Score: inf
ROOT
ATOM      1  C   UNL     1     -13.515 -16.294  26.448  1.00  0.00     0.040 C 
ATOM      2  C   UNL     1     -12.708 -16.288  27.708  1.00  0.00    -0.066 C 
ATOM      3  C   UNL     1     -11.594 -17.056  27.862  1.00  0.00     0.047 C 
ATOM      4  C   UNL     1     -10.890 -16.946  29.182  1.00  0.00     0.159 C 
ATOM      5  O   UNL     1      -9.875 -17.635  29.462  1.00  0.00    -0.295 OA
ATOM      6  C   UNL     1     -11.492 -15.938  30.161  1.00  0.00     0.067 C 
ATOM      7  C   UNL     1     -11.754 -14.684  29.300  1.00  0.00     0.021 C 
ATOM      8  C   UNL     1     -13.081 -15.356  28.880  1.00  0.00     0.022 C 
ATOM      9  C   UNL     1     -13.031 -16.156  30.214  1.00  0.00    -0.019 C 
ATOM     10  C   UNL     1     -13.696 -15.391  31.386  1.00  0.00     0.012 C 
ATOM     11  C   UNL     1     -13.571 -17.615  30.216  1.00  0.00     0.012 C 
ENDROOT
TORSDOF 0
ENDMDL
MODEL 8
REMARK VINA RESULT:    -5.123      1.441      3.163
REMARK INTER + INTRA:          -5.123
REMARK INTER:                  -5.123
REMARK INTRA:                   0.000
REMARK UNBOUND:                 0.000
REMARK SMILES CC1=CC(=O)[C@H]2C[C@@H]1C2(C)C
REMARK SMILES IDX 1 1 2 2 3 3 4 4 5 5 6 6 7 7 8 8 9 9 10 10 11 11
REMARK H PARENT
REMARK Flexibility Score: inf
ROOT
ATOM      1  C   UNL     1      -9.875 -14.872  29.746  1.00  0.00     0.040 C 
ATOM      2  C   UNL     1     -10.968 -15.858  29.476  1.00  0.00    -0.066 C 
ATOM      3  C   UNL     1     -10.881 -17.163  29.857  1.00  0.00     0.047 C 
ATOM      4  C   UNL     1     -12.054 -18.033  29.516  1.00  0.00     0.159 C 
ATOM      5  O   UNL     1     -12.077 -19.264  29.776  1.00  0.00    -0.295 OA
ATOM      6  C   UNL     1     -13.220 -17.319  28.831  1.00  0.00     0.067 C 
ATOM      7  C   UNL     1     -13.409 -16.028  29.655  1.00  0.00     0.021 C 
ATOM      8  C   UNL     1     -12.280 -15.416  28.794  1.00  0.00     0.022 C 
ATOM      9  C   UNL     1     -12.655 -16.438  27.681  1.00  0.00    -0.019 C 
ATOM     10  C   UNL     1     -13.767 -15.906  26.743  1.00  0.00     0.012 C 
ATOM     11  C   UNL     1     -11.511 -17.017  26.800  1.00  0.00     0.012 C 
ENDROOT
TORSDOF 0
ENDMDL
MODEL 9
REMARK VINA RESULT:    -5.081      1.210      3.100
REMARK INTER + INTRA:          -5.081
REMARK INTER:                  -5.081
REMARK INTRA:                   0.000
REMARK UNBOUND:                 0.000
REMARK SMILES CC1=CC(=O)[C@H]2C[C@@H]1C2(C)C
REMARK SMILES IDX 1 1 2 2 3 3 4 4 5 5 6 6 7 7 8 8 9 9 10 10 11 11
REMARK H PARENT
REMARK Flexibility Score: inf
ROOT
ATOM      1  C   UNL     1     -13.882 -15.315  31.295  1.00  0.00     0.040 C 
ATOM      2  C   UNL     1     -13.020 -16.330  30.610  1.00  0.00    -0.066 C 
ATOM      3  C   UNL     1     -11.768 -16.036  30.160  1.00  0.00     0.047 C 
ATOM      4  C   UNL     1     -11.025 -17.154  29.492  1.00  0.00     0.159 C 
ATOM      5  O   UNL     1      -9.879 -16.998  28.997  1.00  0.00    -0.295 OA
ATOM      6  C   UNL     1     -11.758 -18.496  29.455  1.00  0.00     0.067 C 
ATOM      7  C   UNL     1     -12.313 -18.663  30.885  1.00  0.00     0.021 C 
ATOM      8  C   UNL     1     -13.502 -17.784  30.433  1.00  0.00     0.022 C 
ATOM      9  C   UNL     1     -13.216 -18.251  28.975  1.00  0.00    -0.019 C 
ATOM     10  C   UNL     1     -13.951 -19.569  28.623  1.00  0.00     0.012 C 
ATOM     11  C   UNL     1     -13.454 -17.237  27.820  1.00  0.00     0.012 C 
ENDROOT
TORSDOF 0
ENDMDL
