MODEL 1
REMARK VINA RESULT:    -3.940      0.000      0.000
REMARK INTER + INTRA:          -5.896
REMARK INTER:                  -5.552
REMARK INTRA:                  -0.344
REMARK UNBOUND:                -0.344
REMARK SMILES CCCCCCCCC(=O)[O-]
REMARK SMILES IDX 6 1 7 2 8 3 9 4 10 5 11 6 5 7 4 8 3 9 2 10 1 11
REMARK H PARENT
REMARK Flexibility Score: inf
ROOT
ATOM      1  C   UNL     1       1.661   2.271   9.724  1.00  0.00     0.000 C 
ENDROOT
BRANCH   1   2
ATOM      2  C   UNL     1       2.939   1.507   9.334  1.00  0.00     0.006 C 
BRANCH   2   3
ATOM      3  C   UNL     1       3.911   2.377   8.527  1.00  0.00     0.053 C 
BRANCH   3   4
ATOM      4  C   UNL     1       4.481   1.634   7.357  1.00  0.00     0.041 C 
ATOM      5  O   UNL     1       3.750   1.342   6.374  1.00  0.00    -0.550 OA
ATOM      6  O   UNL     1       5.813   1.240   7.365  1.00  0.00    -0.550 OA
ENDBRANCH   3   4
ENDBRANCH   2   3
ENDBRANCH   1   2
BRANCH   1   7
ATOM      7  C   UNL     1       1.750   3.773   9.412  1.00  0.00     0.000 C 
BRANCH   7   8
ATOM      8  C   UNL     1       0.418   4.506   9.648  1.00  0.00    -0.000 C 
BRANCH   8   9
ATOM      9  C   UNL     1      -0.794   3.563   9.576  1.00  0.00    -0.000 C 
BRANCH   9  10
ATOM     10  C   UNL     1      -1.897   4.085   8.644  1.00  0.00    -0.003 C 
ATOM     11  C   UNL     1      -2.254   5.532   8.973  1.00  0.00     0.004 C 
ENDBRANCH   9  10
ENDBRANCH   8   9
ENDBRANCH   7   8
ENDBRANCH   1   7
TORSDOF 7
ENDMDL
MODEL 2
REMARK VINA RESULT:    -3.806      4.642      7.123
REMARK INTER + INTRA:          -5.708
REMARK INTER:                  -5.464
REMARK INTRA:                  -0.244
REMARK UNBOUND:                -0.344
REMARK SMILES CCCCCCCCC(=O)[O-]
REMARK SMILES IDX 6 1 7 2 8 3 9 4 10 5 11 6 5 7 4 8 3 9 2 10 1 11
REMARK H PARENT
REMARK Flexibility Score: inf
ROOT
ATOM      1  C   UNL     1       7.230   3.192   9.660  1.00  0.00     0.000 C 
ENDROOT
BRANCH   1   2
ATOM      2  C   UNL     1       5.827   3.118   9.034  1.00  0.00     0.006 C 
BRANCH   2   3
ATOM      3  C   UNL     1       5.410   1.676   8.714  1.00  0.00     0.053 C 
BRANCH   3   4
ATOM      4  C   UNL     1       4.789   1.566   7.356  1.00  0.00     0.041 C 
ATOM      5  O   UNL     1       3.755   2.227   7.073  1.00  0.00    -0.550 OA
ATOM      6  O   UNL     1       5.336   0.709   6.409  1.00  0.00    -0.550 OA
ENDBRANCH   3   4
ENDBRANCH   2   3
ENDBRANCH   1   2
BRANCH   1   7
ATOM      7  C   UNL     1       7.811   4.615   9.647  1.00  0.00     0.000 C 
BRANCH   7   8
ATOM      8  C   UNL     1       9.347   4.627   9.745  1.00  0.00    -0.000 C 
BRANCH   8   9
ATOM      9  C   UNL     1       9.961   5.930   9.207  1.00  0.00    -0.000 C 
BRANCH   9  10
ATOM     10  C   UNL     1       8.919   6.852   8.557  1.00  0.00    -0.003 C 
ATOM     11  C   UNL     1       9.552   7.714   7.468  1.00  0.00     0.004 C 
ENDBRANCH   9  10
ENDBRANCH   8   9
ENDBRANCH   7   8
ENDBRANCH   1   7
TORSDOF 7
ENDMDL
MODEL 3
REMARK VINA RESULT:    -3.408     15.778     17.400
REMARK INTER + INTRA:          -5.147
REMARK INTER:                  -4.971
REMARK INTRA:                  -0.176
REMARK UNBOUND:                -0.344
REMARK SMILES CCCCCCCCC(=O)[O-]
REMARK SMILES IDX 6 1 7 2 8 3 9 4 10 5 11 6 5 7 4 8 3 9 2 10 1 11
REMARK H PARENT
REMARK Flexibility Score: inf
ROOT
ATOM      1  C   UNL     1      13.040   4.177  -4.470  1.00  0.00     0.000 C 
ENDROOT
BRANCH   1   2
ATOM      2  C   UNL     1      11.675   4.307  -5.169  1.00  0.00     0.006 C 
BRANCH   2   3
ATOM      3  C   UNL     1      11.559   3.386  -6.391  1.00  0.00     0.053 C 
BRANCH   3   4
ATOM      4  C   UNL     1      12.247   3.964  -7.589  1.00  0.00     0.041 C 
ATOM      5  O   UNL     1      13.065   3.269  -8.248  1.00  0.00    -0.550 OA
ATOM      6  O   UNL     1      12.004   5.279  -7.963  1.00  0.00    -0.550 OA
ENDBRANCH   3   4
ENDBRANCH   2   3
ENDBRANCH   1   2
BRANCH   1   7
ATOM      7  C   UNL     1      12.943   3.479  -3.104  1.00  0.00     0.000 C 
BRANCH   7   8
ATOM      8  C   UNL     1      13.065   4.463  -1.928  1.00  0.00    -0.000 C 
BRANCH   8   9
ATOM      9  C   UNL     1      12.598   5.881  -2.295  1.00  0.00    -0.000 C 
BRANCH   9  10
ATOM     10  C   UNL     1      13.125   6.948  -1.325  1.00  0.00    -0.003 C 
ATOM     11  C   UNL     1      11.978   7.745  -0.709  1.00  0.00     0.004 C 
ENDBRANCH   9  10
ENDBRANCH   8   9
ENDBRANCH   7   8
ENDBRANCH   1   7
TORSDOF 7
ENDMDL
MODEL 4
REMARK VINA RESULT:    -3.254      3.558      6.222
REMARK INTER + INTRA:          -4.930
REMARK INTER:                  -4.711
REMARK INTRA:                  -0.219
REMARK UNBOUND:                -0.344
REMARK SMILES CCCCCCCCC(=O)[O-]
REMARK SMILES IDX 6 1 7 2 8 3 9 4 10 5 11 6 5 7 4 8 3 9 2 10 1 11
REMARK H PARENT
REMARK Flexibility Score: inf
ROOT
ATOM      1  C   UNL     1       1.735   4.369   9.766  1.00  0.00     0.000 C 
ENDROOT
BRANCH   1   2
ATOM      2  C   UNL     1       0.313   3.859   9.473  1.00  0.00     0.006 C 
BRANCH   2   3
ATOM      3  C   UNL     1      -0.764   4.858   9.916  1.00  0.00     0.053 C 
BRANCH   3   4
ATOM      4  C   UNL     1      -1.880   4.950   8.921  1.00  0.00     0.041 C 
ATOM      5  O   UNL     1      -2.533   3.922   8.602  1.00  0.00    -0.550 OA
ATOM      6  O   UNL     1      -2.180   6.168   8.324  1.00  0.00    -0.550 OA
ENDBRANCH   3   4
ENDBRANCH   2   3
ENDBRANCH   1   2
BRANCH   1   7
ATOM      7  C   UNL     1       2.773   3.236   9.816  1.00  0.00     0.000 C 
BRANCH   7   8
ATOM      8  C   UNL     1       3.669   3.199   8.566  1.00  0.00    -0.000 C 
BRANCH   8   9
ATOM      9  C   UNL     1       3.803   1.785   7.979  1.00  0.00    -0.000 C 
BRANCH   9  10
ATOM     10  C   UNL     1       5.247   1.442   7.584  1.00  0.00    -0.003 C 
ATOM     11  C   UNL     1       6.248   2.128   8.510  1.00  0.00     0.004 C 
ENDBRANCH   9  10
ENDBRANCH   8   9
ENDBRANCH   7   8
ENDBRANCH   1   7
TORSDOF 7
ENDMDL
MODEL 5
REMARK VINA RESULT:    -3.204      8.802     10.473
REMARK INTER + INTRA:          -4.859
REMARK INTER:                  -4.537
REMARK INTRA:                  -0.322
REMARK UNBOUND:                -0.344
REMARK SMILES CCCCCCCCC(=O)[O-]
REMARK SMILES IDX 6 1 7 2 8 3 9 4 10 5 11 6 5 7 4 8 3 9 2 10 1 11
REMARK H PARENT
REMARK Flexibility Score: inf
ROOT
ATOM      1  C   UNL     1       6.898  10.787   8.085  1.00  0.00     0.000 C 
ENDROOT
BRANCH   1   2
ATOM      2  C   UNL     1       6.120  12.112   8.167  1.00  0.00     0.006 C 
BRANCH   2   3
ATOM      3  C   UNL     1       4.601  11.895   8.128  1.00  0.00     0.053 C 
BRANCH   3   4
ATOM      4  C   UNL     1       4.039  12.144   6.763  1.00  0.00     0.041 C 
ATOM      5  O   UNL     1       3.582  13.278   6.461  1.00  0.00    -0.550 OA
ATOM      6  O   UNL     1       3.993  11.115   5.831  1.00  0.00    -0.550 OA
ENDBRANCH   3   4
ENDBRANCH   2   3
ENDBRANCH   1   2
BRANCH   1   7
ATOM      7  C   UNL     1       7.157  10.165   9.467  1.00  0.00     0.000 C 
BRANCH   7   8
ATOM      8  C   UNL     1       8.014   8.890   9.390  1.00  0.00    -0.000 C 
BRANCH   8   9
ATOM      9  C   UNL     1       8.839   8.811   8.094  1.00  0.00    -0.000 C 
BRANCH   9  10
ATOM     10  C   UNL     1       9.341   7.391   7.797  1.00  0.00    -0.003 C 
ATOM     11  C   UNL     1       8.867   6.406   8.862  1.00  0.00     0.004 C 
ENDBRANCH   9  10
ENDBRANCH   8   9
ENDBRANCH   7   8
ENDBRANCH   1   7
TORSDOF 7
ENDMDL
MODEL 6
REMARK VINA RESULT:    -3.038      9.090     10.554
REMARK INTER + INTRA:          -4.625
REMARK INTER:                  -4.243
REMARK INTRA:                  -0.382
REMARK UNBOUND:                -0.344
REMARK SMILES CCCCCCCCC(=O)[O-]
REMARK SMILES IDX 6 1 7 2 8 3 9 4 10 5 11 6 5 7 4 8 3 9 2 10 1 11
REMARK H PARENT
REMARK Flexibility Score: inf
ROOT
ATOM      1  C   UNL     1       8.368   8.870   9.489  1.00  0.00     0.000 C 
ENDROOT
BRANCH   1   2
ATOM      2  C   UNL     1       7.427  10.084   9.573  1.00  0.00     0.006 C 
BRANCH   2   3
ATOM      3  C   UNL     1       7.070  10.639   8.187  1.00  0.00     0.053 C 
BRANCH   3   4
ATOM      4  C   UNL     1       6.211  11.862   8.282  1.00  0.00     0.041 C 
ATOM      5  O   UNL     1       5.118  11.920   7.659  1.00  0.00    -0.550 OA
ATOM      6  O   UNL     1       6.631  12.950   9.037  1.00  0.00    -0.550 OA
ENDBRANCH   3   4
ENDBRANCH   2   3
ENDBRANCH   1   2
BRANCH   1   7
ATOM      7  C   UNL     1       8.851   8.592   8.056  1.00  0.00     0.000 C 
BRANCH   7   8
ATOM      8  C   UNL     1       9.469   7.192   7.902  1.00  0.00    -0.000 C 
BRANCH   8   9
ATOM      9  C   UNL     1       8.929   6.192   8.938  1.00  0.00    -0.000 C 
BRANCH   9  10
ATOM     10  C   UNL     1      10.016   5.249   9.474  1.00  0.00    -0.003 C 
ATOM     11  C   UNL     1      11.405   5.714   9.047  1.00  0.00     0.004 C 
ENDBRANCH   9  10
ENDBRANCH   8   9
ENDBRANCH   7   8
ENDBRANCH   1   7
TORSDOF 7
ENDMDL
MODEL 7
REMARK VINA RESULT:    -3.010      8.304      8.827
REMARK INTER + INTRA:          -4.585
REMARK INTER:                  -4.442
REMARK INTRA:                  -0.143
REMARK UNBOUND:                -0.344
REMARK SMILES CCCCCCCCC(=O)[O-]
REMARK SMILES IDX 6 1 7 2 8 3 9 4 10 5 11 6 5 7 4 8 3 9 2 10 1 11
REMARK H PARENT
REMARK Flexibility Score: inf
ROOT
ATOM      1  C   UNL     1       8.174   8.286   9.473  1.00  0.00     0.000 C 
ENDROOT
BRANCH   1   2
ATOM      2  C   UNL     1       8.844   7.063   8.823  1.00  0.00     0.006 C 
BRANCH   2   3
ATOM      3  C   UNL     1      10.367   7.068   9.010  1.00  0.00     0.053 C 
BRANCH   3   4
ATOM      4  C   UNL     1      10.925   5.679   9.068  1.00  0.00     0.041 C 
ATOM      5  O   UNL     1      10.277   4.758   9.631  1.00  0.00    -0.550 OA
ATOM      6  O   UNL     1      12.174   5.408   8.523  1.00  0.00    -0.550 OA
ENDBRANCH   3   4
ENDBRANCH   2   3
ENDBRANCH   1   2
BRANCH   1   7
ATOM      7  C   UNL     1       8.007   9.460   8.495  1.00  0.00     0.000 C 
BRANCH   7   8
ATOM      8  C   UNL     1       7.054  10.543   9.029  1.00  0.00    -0.000 C 
BRANCH   8   9
ATOM      9  C   UNL     1       6.485  11.431   7.911  1.00  0.00    -0.000 C 
BRANCH   9  10
ATOM     10  C   UNL     1       5.027  11.843   8.164  1.00  0.00    -0.003 C 
ATOM     11  C   UNL     1       4.197  11.736   6.888  1.00  0.00     0.004 C 
ENDBRANCH   9  10
ENDBRANCH   8   9
ENDBRANCH   7   8
ENDBRANCH   1   7
TORSDOF 7
ENDMDL
MODEL 8
REMARK VINA RESULT:    -2.953      1.002      1.799
REMARK INTER + INTRA:          -4.505
REMARK INTER:                  -4.411
REMARK INTRA:                  -0.094
REMARK UNBOUND:                -0.344
REMARK SMILES CCCCCCCCC(=O)[O-]
REMARK SMILES IDX 6 1 7 2 8 3 9 4 10 5 11 6 5 7 4 8 3 9 2 10 1 11
REMARK H PARENT
REMARK Flexibility Score: inf
ROOT
ATOM      1  C   UNL     1       3.552   0.694   9.454  1.00  0.00     0.000 C 
ENDROOT
BRANCH   1   2
ATOM      2  C   UNL     1       4.360   2.003   9.493  1.00  0.00     0.006 C 
BRANCH   2   3
ATOM      3  C   UNL     1       4.590   2.584   8.091  1.00  0.00     0.053 C 
BRANCH   3   4
ATOM      4  C   UNL     1       4.552   1.521   7.036  1.00  0.00     0.041 C 
ATOM      5  O   UNL     1       3.554   1.418   6.274  1.00  0.00    -0.550 OA
ATOM      6  O   UNL     1       5.606   0.625   6.913  1.00  0.00    -0.550 OA
ENDBRANCH   3   4
ENDBRANCH   2   3
ENDBRANCH   1   2
BRANCH   1   7
ATOM      7  C   UNL     1       2.175   0.828  10.125  1.00  0.00     0.000 C 
BRANCH   7   8
ATOM      8  C   UNL     1       1.562   2.227   9.942  1.00  0.00    -0.000 C 
BRANCH   8   9
ATOM      9  C   UNL     1       0.025   2.194   9.891  1.00  0.00    -0.000 C 
BRANCH   9  10
ATOM     10  C   UNL     1      -0.601   3.593   9.990  1.00  0.00    -0.003 C 
ATOM     11  C   UNL     1      -1.568   3.844   8.836  1.00  0.00     0.004 C 
ENDBRANCH   9  10
ENDBRANCH   8   9
ENDBRANCH   7   8
ENDBRANCH   1   7
TORSDOF 7
ENDMDL
MODEL 9
REMARK VINA RESULT:    -2.910      5.636      7.395
REMARK INTER + INTRA:          -4.445
REMARK INTER:                  -4.188
REMARK INTRA:                  -0.256
REMARK UNBOUND:                -0.344
REMARK SMILES CCCCCCCCC(=O)[O-]
REMARK SMILES IDX 6 1 7 2 8 3 9 4 10 5 11 6 5 7 4 8 3 9 2 10 1 11
REMARK H PARENT
REMARK Flexibility Score: inf
ROOT
ATOM      1  C   UNL     1       8.970   4.175   9.957  1.00  0.00     0.000 C 
ENDROOT
BRANCH   1   2
ATOM      2  C   UNL     1       9.751   5.396   9.439  1.00  0.00     0.006 C 
BRANCH   2   3
ATOM      3  C   UNL     1       8.866   6.346   8.621  1.00  0.00     0.053 C 
BRANCH   3   4
ATOM      4  C   UNL     1       9.678   7.371   7.891  1.00  0.00     0.041 C 
ATOM      5  O   UNL     1       9.181   8.493   7.609  1.00  0.00    -0.550 OA
ATOM      6  O   UNL     1      10.977   7.076   7.496  1.00  0.00    -0.550 OA
ENDBRANCH   3   4
ENDBRANCH   2   3
ENDBRANCH   1   2
BRANCH   1   7
ATOM      7  C   UNL     1       7.459   4.438  10.060  1.00  0.00     0.000 C 
BRANCH   7   8
ATOM      8  C   UNL     1       6.627   3.148   9.964  1.00  0.00    -0.000 C 
BRANCH   8   9
ATOM      9  C   UNL     1       5.689   3.141   8.746  1.00  0.00    -0.000 C 
BRANCH   9  10
ATOM     10  C   UNL     1       5.599   1.762   8.076  1.00  0.00    -0.003 C 
ATOM     11  C   UNL     1       4.276   1.598   7.333  1.00  0.00     0.004 C 
ENDBRANCH   9  10
ENDBRANCH   8   9
ENDBRANCH   7   8
ENDBRANCH   1   7
TORSDOF 7
ENDMDL
