MODEL 1
REMARK VINA RESULT:    -4.338      0.000      0.000
REMARK INTER + INTRA:          -9.431
REMARK INTER:                  -8.396
REMARK INTRA:                  -1.034
REMARK UNBOUND:                -1.034
REMARK SMILES CCCCCCCCCCCCCCCCCC(=O)[O-]
REMARK SMILES IDX 10 1 11 2 12 3 13 4 14 5 15 6 16 7 17 8 18 9 19 10 20 11
REMARK SMILES IDX 9 12 8 13 7 14 6 15 5 16 4 17 3 18 2 19 1 20
REMARK H PARENT
REMARK Flexibility Score: inf
ROOT
ATOM      1  C   UNL     1      20.390 -19.811 -19.098  1.00  0.00     0.000 C 
ENDROOT
BRANCH   1   2
ATOM      2  C   UNL     1      21.752 -20.114 -18.438  1.00  0.00     0.000 C 
BRANCH   2   3
ATOM      3  C   UNL     1      21.911 -19.503 -17.033  1.00  0.00     0.000 C 
BRANCH   3   4
ATOM      4  C   UNL     1      22.605 -18.129 -16.998  1.00  0.00     0.000 C 
BRANCH   4   5
ATOM      5  C   UNL     1      21.658 -16.917 -17.118  1.00  0.00     0.000 C 
BRANCH   5   6
ATOM      6  C   UNL     1      20.250 -17.124 -16.524  1.00  0.00     0.000 C 
BRANCH   6   7
ATOM      7  C   UNL     1      19.564 -15.843 -16.016  1.00  0.00     0.006 C 
BRANCH   7   8
ATOM      8  C   UNL     1      18.091 -16.063 -15.648  1.00  0.00     0.053 C 
BRANCH   8   9
ATOM      9  C   UNL     1      17.264 -14.896 -16.086  1.00  0.00     0.041 C 
ATOM     10  O   UNL     1      16.352 -15.051 -16.940  1.00  0.00    -0.550 OA
ATOM     11  O   UNL     1      17.533 -13.627 -15.589  1.00  0.00    -0.550 OA
ENDBRANCH   8   9
ENDBRANCH   7   8
ENDBRANCH   6   7
ENDBRANCH   5   6
ENDBRANCH   4   5
ENDBRANCH   3   4
ENDBRANCH   2   3
ENDBRANCH   1   2
BRANCH   1  12
ATOM     12  C   UNL     1      19.883 -20.976 -19.962  1.00  0.00     0.000 C 
BRANCH  12  13
ATOM     13  C   UNL     1      20.507 -22.304 -19.515  1.00  0.00    -0.000 C 
BRANCH  13  14
ATOM     14  C   UNL     1      19.509 -23.462 -19.673  1.00  0.00    -0.000 C 
BRANCH  14  15
ATOM     15  C   UNL     1      18.042 -23.015 -19.541  1.00  0.00    -0.000 C 
BRANCH  15  16
ATOM     16  C   UNL     1      17.248 -23.676 -18.393  1.00  0.00    -0.000 C 
BRANCH  16  17
ATOM     17  C   UNL     1      15.920 -22.981 -18.032  1.00  0.00    -0.000 C 
BRANCH  17  18
ATOM     18  C   UNL     1      14.738 -23.958 -17.842  1.00  0.00    -0.000 C 
BRANCH  18  19
ATOM     19  C   UNL     1      13.919 -24.187 -19.123  1.00  0.00    -0.003 C 
ATOM     20  C   UNL     1      13.859 -22.951 -20.018  1.00  0.00     0.004 C 
ENDBRANCH  18  19
ENDBRANCH  17  18
ENDBRANCH  16  17
ENDBRANCH  15  16
ENDBRANCH  14  15
ENDBRANCH  13  14
ENDBRANCH  12  13
ENDBRANCH   1  12
TORSDOF 16
ENDMDL
MODEL 2
REMARK VINA RESULT:    -4.266      0.962      2.077
REMARK INTER + INTRA:          -9.291
REMARK INTER:                  -8.436
REMARK INTRA:                  -0.854
REMARK UNBOUND:                -1.034
REMARK SMILES CCCCCCCCCCCCCCCCCC(=O)[O-]
REMARK SMILES IDX 10 1 11 2 12 3 13 4 14 5 15 6 16 7 17 8 18 9 19 10 20 11
REMARK SMILES IDX 9 12 8 13 7 14 6 15 5 16 4 17 3 18 2 19 1 20
REMARK H PARENT
REMARK Flexibility Score: inf
ROOT
ATOM      1  C   UNL     1      22.163 -18.549 -17.974  1.00  0.00     0.000 C 
ENDROOT
BRANCH   1   2
ATOM      2  C   UNL     1      23.289 -18.194 -16.978  1.00  0.00     0.000 C 
BRANCH   2   3
ATOM      3  C   UNL     1      23.335 -16.701 -16.600  1.00  0.00     0.000 C 
BRANCH   3   4
ATOM      4  C   UNL     1      22.203 -15.846 -17.200  1.00  0.00     0.000 C 
BRANCH   4   5
ATOM      5  C   UNL     1      21.077 -15.472 -16.215  1.00  0.00     0.000 C 
BRANCH   5   6
ATOM      6  C   UNL     1      19.804 -16.338 -16.316  1.00  0.00     0.000 C 
BRANCH   6   7
ATOM      7  C   UNL     1      18.813 -16.175 -15.149  1.00  0.00     0.006 C 
BRANCH   7   8
ATOM      8  C   UNL     1      17.351 -16.149 -15.609  1.00  0.00     0.053 C 
BRANCH   8   9
ATOM      9  C   UNL     1      17.025 -14.830 -16.237  1.00  0.00     0.041 C 
ATOM     10  O   UNL     1      17.571 -13.777 -15.816  1.00  0.00    -0.550 OA
ATOM     11  O   UNL     1      16.081 -14.758 -17.254  1.00  0.00    -0.550 OA
ENDBRANCH   8   9
ENDBRANCH   7   8
ENDBRANCH   6   7
ENDBRANCH   5   6
ENDBRANCH   4   5
ENDBRANCH   3   4
ENDBRANCH   2   3
ENDBRANCH   1   2
BRANCH   1  12
ATOM     12  C   UNL     1      21.614 -19.967 -17.760  1.00  0.00     0.000 C 
BRANCH  12  13
ATOM     13  C   UNL     1      20.558 -20.314 -18.815  1.00  0.00    -0.000 C 
BRANCH  13  14
ATOM     14  C   UNL     1      20.344 -21.833 -18.903  1.00  0.00    -0.000 C 
BRANCH  14  15
ATOM     15  C   UNL     1      19.077 -22.219 -19.686  1.00  0.00    -0.000 C 
BRANCH  15  16
ATOM     16  C   UNL     1      18.529 -23.635 -19.404  1.00  0.00    -0.000 C 
BRANCH  16  17
ATOM     17  C   UNL     1      17.350 -23.694 -18.412  1.00  0.00    -0.000 C 
BRANCH  17  18
ATOM     18  C   UNL     1      16.040 -24.230 -19.033  1.00  0.00    -0.000 C 
BRANCH  18  19
ATOM     19  C   UNL     1      14.772 -23.661 -18.377  1.00  0.00    -0.003 C 
ATOM     20  C   UNL     1      15.012 -23.165 -16.952  1.00  0.00     0.004 C 
ENDBRANCH  18  19
ENDBRANCH  17  18
ENDBRANCH  16  17
ENDBRANCH  15  16
ENDBRANCH  14  15
ENDBRANCH  13  14
ENDBRANCH  12  13
ENDBRANCH   1  12
TORSDOF 16
ENDMDL
MODEL 3
REMARK VINA RESULT:    -4.070      1.432      2.013
REMARK INTER + INTRA:          -8.912
REMARK INTER:                  -7.583
REMARK INTRA:                  -1.329
REMARK UNBOUND:                -1.034
REMARK SMILES CCCCCCCCCCCCCCCCCC(=O)[O-]
REMARK SMILES IDX 10 1 11 2 12 3 13 4 14 5 15 6 16 7 17 8 18 9 19 10 20 11
REMARK SMILES IDX 9 12 8 13 7 14 6 15 5 16 4 17 3 18 2 19 1 20
REMARK H PARENT
REMARK Flexibility Score: inf
ROOT
ATOM      1  C   UNL     1      21.370 -19.905 -17.320  1.00  0.00     0.000 C 
ENDROOT
BRANCH   1   2
ATOM      2  C   UNL     1      22.820 -19.436 -17.073  1.00  0.00     0.000 C 
BRANCH   2   3
ATOM      3  C   UNL     1      23.454 -18.717 -18.279  1.00  0.00     0.000 C 
BRANCH   3   4
ATOM      4  C   UNL     1      24.154 -17.386 -17.945  1.00  0.00     0.000 C 
BRANCH   4   5
ATOM      5  C   UNL     1      23.230 -16.151 -17.923  1.00  0.00     0.000 C 
BRANCH   5   6
ATOM      6  C   UNL     1      22.711 -15.745 -16.529  1.00  0.00     0.000 C 
BRANCH   6   7
ATOM      7  C   UNL     1      21.242 -15.285 -16.491  1.00  0.00     0.006 C 
BRANCH   7   8
ATOM      8  C   UNL     1      20.253 -16.456 -16.431  1.00  0.00     0.053 C 
BRANCH   8   9
ATOM      9  C   UNL     1      18.994 -16.041 -15.738  1.00  0.00     0.041 C 
ATOM     10  O   UNL     1      18.597 -16.664 -14.718  1.00  0.00    -0.550 OA
ATOM     11  O   UNL     1      18.232 -14.997 -16.247  1.00  0.00    -0.550 OA
ENDBRANCH   8   9
ENDBRANCH   7   8
ENDBRANCH   6   7
ENDBRANCH   5   6
ENDBRANCH   4   5
ENDBRANCH   3   4
ENDBRANCH   2   3
ENDBRANCH   1   2
BRANCH   1  12
ATOM     12  C   UNL     1      21.003 -19.918 -18.812  1.00  0.00     0.000 C 
BRANCH  12  13
ATOM     13  C   UNL     1      21.121 -21.331 -19.396  1.00  0.00    -0.000 C 
BRANCH  13  14
ATOM     14  C   UNL     1      19.868 -22.162 -19.083  1.00  0.00    -0.000 C 
BRANCH  14  15
ATOM     15  C   UNL     1      18.713 -21.904 -20.066  1.00  0.00    -0.000 C 
BRANCH  15  16
ATOM     16  C   UNL     1      17.611 -22.985 -20.096  1.00  0.00    -0.000 C 
BRANCH  16  17
ATOM     17  C   UNL     1      17.596 -23.936 -18.882  1.00  0.00    -0.000 C 
BRANCH  17  18
ATOM     18  C   UNL     1      16.525 -23.581 -17.826  1.00  0.00    -0.000 C 
BRANCH  18  19
ATOM     19  C   UNL     1      15.096 -23.955 -18.251  1.00  0.00    -0.003 C 
ATOM     20  C   UNL     1      14.250 -22.739 -18.624  1.00  0.00     0.004 C 
ENDBRANCH  18  19
ENDBRANCH  17  18
ENDBRANCH  16  17
ENDBRANCH  15  16
ENDBRANCH  14  15
ENDBRANCH  13  14
ENDBRANCH  12  13
ENDBRANCH   1  12
TORSDOF 16
ENDMDL
MODEL 4
REMARK VINA RESULT:    -4.055      2.395      3.158
REMARK INTER + INTRA:          -8.882
REMARK INTER:                  -7.693
REMARK INTRA:                  -1.189
REMARK UNBOUND:                -1.034
REMARK SMILES CCCCCCCCCCCCCCCCCC(=O)[O-]
REMARK SMILES IDX 10 1 11 2 12 3 13 4 14 5 15 6 16 7 17 8 18 9 19 10 20 11
REMARK SMILES IDX 9 12 8 13 7 14 6 15 5 16 4 17 3 18 2 19 1 20
REMARK H PARENT
REMARK Flexibility Score: inf
ROOT
ATOM      1  C   UNL     1      21.250 -19.492 -18.025  1.00  0.00     0.000 C 
ENDROOT
BRANCH   1   2
ATOM      2  C   UNL     1      22.698 -19.462 -17.490  1.00  0.00     0.000 C 
BRANCH   2   3
ATOM      3  C   UNL     1      23.765 -19.714 -18.574  1.00  0.00     0.000 C 
BRANCH   3   4
ATOM      4  C   UNL     1      24.926 -18.701 -18.586  1.00  0.00     0.000 C 
BRANCH   4   5
ATOM      5  C   UNL     1      24.754 -17.525 -19.570  1.00  0.00     0.000 C 
BRANCH   5   6
ATOM      6  C   UNL     1      23.822 -16.395 -19.085  1.00  0.00     0.000 C 
BRANCH   6   7
ATOM      7  C   UNL     1      24.321 -15.627 -17.847  1.00  0.00     0.006 C 
BRANCH   7   8
ATOM      8  C   UNL     1      23.520 -15.956 -16.581  1.00  0.00     0.053 C 
BRANCH   8   9
ATOM      9  C   UNL     1      22.146 -15.372 -16.666  1.00  0.00     0.041 C 
ATOM     10  O   UNL     1      21.991 -14.124 -16.721  1.00  0.00    -0.550 OA
ATOM     11  O   UNL     1      21.033 -16.203 -16.634  1.00  0.00    -0.550 OA
ENDBRANCH   8   9
ENDBRANCH   7   8
ENDBRANCH   6   7
ENDBRANCH   5   6
ENDBRANCH   4   5
ENDBRANCH   3   4
ENDBRANCH   2   3
ENDBRANCH   1   2
BRANCH   1  12
ATOM     12  C   UNL     1      20.863 -20.864 -18.597  1.00  0.00     0.000 C 
BRANCH  12  13
ATOM     13  C   UNL     1      19.977 -20.712 -19.839  1.00  0.00    -0.000 C 
BRANCH  13  14
ATOM     14  C   UNL     1      19.340 -22.055 -20.229  1.00  0.00    -0.000 C 
BRANCH  14  15
ATOM     15  C   UNL     1      18.777 -22.827 -19.023  1.00  0.00    -0.000 C 
BRANCH  15  16
ATOM     16  C   UNL     1      17.272 -23.162 -19.094  1.00  0.00    -0.000 C 
BRANCH  16  17
ATOM     17  C   UNL     1      16.674 -23.760 -17.805  1.00  0.00    -0.000 C 
BRANCH  17  18
ATOM     18  C   UNL     1      15.135 -23.642 -17.719  1.00  0.00    -0.000 C 
BRANCH  18  19
ATOM     19  C   UNL     1      14.399 -24.364 -18.860  1.00  0.00    -0.003 C 
ATOM     20  C   UNL     1      13.598 -23.412 -19.745  1.00  0.00     0.004 C 
ENDBRANCH  18  19
ENDBRANCH  17  18
ENDBRANCH  16  17
ENDBRANCH  15  16
ENDBRANCH  14  15
ENDBRANCH  13  14
ENDBRANCH  12  13
ENDBRANCH   1  12
TORSDOF 16
ENDMDL
MODEL 5
REMARK VINA RESULT:    -4.011      2.554      3.569
REMARK INTER + INTRA:          -8.797
REMARK INTER:                  -7.636
REMARK INTRA:                  -1.161
REMARK UNBOUND:                -1.034
REMARK SMILES CCCCCCCCCCCCCCCCCC(=O)[O-]
REMARK SMILES IDX 10 1 11 2 12 3 13 4 14 5 15 6 16 7 17 8 18 9 19 10 20 11
REMARK SMILES IDX 9 12 8 13 7 14 6 15 5 16 4 17 3 18 2 19 1 20
REMARK H PARENT
REMARK Flexibility Score: inf
ROOT
ATOM      1  C   UNL     1      19.313 -21.824 -20.325  1.00  0.00     0.000 C 
ENDROOT
BRANCH   1   2
ATOM      2  C   UNL     1      20.412 -21.821 -19.240  1.00  0.00     0.000 C 
BRANCH   2   3
ATOM      3  C   UNL     1      20.923 -20.413 -18.878  1.00  0.00     0.000 C 
BRANCH   3   4
ATOM      4  C   UNL     1      21.408 -20.253 -17.425  1.00  0.00     0.000 C 
BRANCH   4   5
ATOM      5  C   UNL     1      21.882 -18.835 -17.048  1.00  0.00     0.000 C 
BRANCH   5   6
ATOM      6  C   UNL     1      23.412 -18.652 -16.974  1.00  0.00     0.000 C 
BRANCH   6   7
ATOM      7  C   UNL     1      23.897 -17.193 -17.041  1.00  0.00     0.006 C 
BRANCH   7   8
ATOM      8  C   UNL     1      22.922 -16.276 -17.789  1.00  0.00     0.053 C 
BRANCH   8   9
ATOM      9  C   UNL     1      22.660 -15.034 -16.995  1.00  0.00     0.041 C 
ATOM     10  O   UNL     1      21.618 -14.938 -16.296  1.00  0.00    -0.550 OA
ATOM     11  O   UNL     1      23.543 -13.964 -17.067  1.00  0.00    -0.550 OA
ENDBRANCH   8   9
ENDBRANCH   7   8
ENDBRANCH   6   7
ENDBRANCH   5   6
ENDBRANCH   4   5
ENDBRANCH   3   4
ENDBRANCH   2   3
ENDBRANCH   1   2
BRANCH   1  12
ATOM     12  C   UNL     1      17.963 -22.329 -19.793  1.00  0.00     0.000 C 
BRANCH  12  13
ATOM     13  C   UNL     1      18.121 -23.681 -19.089  1.00  0.00    -0.000 C 
BRANCH  13  14
ATOM     14  C   UNL     1      16.751 -24.322 -18.814  1.00  0.00    -0.000 C 
BRANCH  14  15
ATOM     15  C   UNL     1      16.041 -23.723 -17.588  1.00  0.00    -0.000 C 
BRANCH  15  16
ATOM     16  C   UNL     1      14.674 -23.062 -17.869  1.00  0.00    -0.000 C 
BRANCH  16  17
ATOM     17  C   UNL     1      13.893 -23.657 -19.058  1.00  0.00    -0.000 C 
BRANCH  17  18
ATOM     18  C   UNL     1      13.856 -22.738 -20.301  1.00  0.00    -0.000 C 
BRANCH  18  19
ATOM     19  C   UNL     1      14.334 -21.305 -20.019  1.00  0.00    -0.003 C 
ATOM     20  C   UNL     1      13.305 -20.248 -20.413  1.00  0.00     0.004 C 
ENDBRANCH  18  19
ENDBRANCH  17  18
ENDBRANCH  16  17
ENDBRANCH  15  16
ENDBRANCH  14  15
ENDBRANCH  13  14
ENDBRANCH  12  13
ENDBRANCH   1  12
TORSDOF 16
ENDMDL
MODEL 6
REMARK VINA RESULT:    -3.957      3.740      7.604
REMARK INTER + INTRA:          -8.692
REMARK INTER:                  -7.238
REMARK INTRA:                  -1.454
REMARK UNBOUND:                -1.034
REMARK SMILES CCCCCCCCCCCCCCCCCC(=O)[O-]
REMARK SMILES IDX 10 1 11 2 12 3 13 4 14 5 15 6 16 7 17 8 18 9 19 10 20 11
REMARK SMILES IDX 9 12 8 13 7 14 6 15 5 16 4 17 3 18 2 19 1 20
REMARK H PARENT
REMARK Flexibility Score: inf
ROOT
ATOM      1  C   UNL     1      24.764 -17.619 -16.171  1.00  0.00     0.000 C 
ENDROOT
BRANCH   1   2
ATOM      2  C   UNL     1      24.991 -18.436 -17.461  1.00  0.00     0.000 C 
BRANCH   2   3
ATOM      3  C   UNL     1      23.761 -19.252 -17.903  1.00  0.00     0.000 C 
BRANCH   3   4
ATOM      4  C   UNL     1      22.654 -19.382 -16.840  1.00  0.00     0.000 C 
BRANCH   4   5
ATOM      5  C   UNL     1      21.380 -20.113 -17.312  1.00  0.00     0.000 C 
BRANCH   5   6
ATOM      6  C   UNL     1      20.751 -19.564 -18.609  1.00  0.00     0.000 C 
BRANCH   6   7
ATOM      7  C   UNL     1      20.256 -20.637 -19.596  1.00  0.00     0.006 C 
BRANCH   7   8
ATOM      8  C   UNL     1      20.441 -22.064 -19.066  1.00  0.00     0.053 C 
BRANCH   8   9
ATOM      9  C   UNL     1      19.284 -22.924 -19.468  1.00  0.00     0.041 C 
ATOM     10  O   UNL     1      18.213 -22.893 -18.807  1.00  0.00    -0.550 OA
ATOM     11  O   UNL     1      19.405 -23.795 -20.543  1.00  0.00    -0.550 OA
ENDBRANCH   8   9
ENDBRANCH   7   8
ENDBRANCH   6   7
ENDBRANCH   5   6
ENDBRANCH   4   5
ENDBRANCH   3   4
ENDBRANCH   2   3
ENDBRANCH   1   2
BRANCH   1  12
ATOM     12  C   UNL     1      25.075 -16.126 -16.359  1.00  0.00     0.000 C 
BRANCH  12  13
ATOM     13  C   UNL     1      24.272 -15.539 -17.526  1.00  0.00    -0.000 C 
BRANCH  13  14
ATOM     14  C   UNL     1      22.973 -14.888 -17.029  1.00  0.00    -0.000 C 
BRANCH  14  15
ATOM     15  C   UNL     1      21.808 -15.885 -16.904  1.00  0.00    -0.000 C 
BRANCH  15  16
ATOM     16  C   UNL     1      20.574 -15.372 -16.130  1.00  0.00    -0.000 C 
BRANCH  16  17
ATOM     17  C   UNL     1      19.342 -16.298 -16.175  1.00  0.00    -0.000 C 
BRANCH  17  18
ATOM     18  C   UNL     1      18.387 -16.121 -14.973  1.00  0.00    -0.000 C 
BRANCH  18  19
ATOM     19  C   UNL     1      17.333 -15.022 -15.184  1.00  0.00    -0.003 C 
ATOM     20  C   UNL     1      16.737 -15.033 -16.590  1.00  0.00     0.004 C 
ENDBRANCH  18  19
ENDBRANCH  17  18
ENDBRANCH  16  17
ENDBRANCH  15  16
ENDBRANCH  14  15
ENDBRANCH  13  14
ENDBRANCH  12  13
ENDBRANCH   1  12
TORSDOF 16
ENDMDL
MODEL 7
REMARK VINA RESULT:    -3.867      2.990      7.886
REMARK INTER + INTRA:          -8.518
REMARK INTER:                  -7.030
REMARK INTRA:                  -1.488
REMARK UNBOUND:                -1.034
REMARK SMILES CCCCCCCCCCCCCCCCCC(=O)[O-]
REMARK SMILES IDX 10 1 11 2 12 3 13 4 14 5 15 6 16 7 17 8 18 9 19 10 20 11
REMARK SMILES IDX 9 12 8 13 7 14 6 15 5 16 4 17 3 18 2 19 1 20
REMARK H PARENT
REMARK Flexibility Score: inf
ROOT
ATOM      1  C   UNL     1      20.238 -21.551 -20.036  1.00  0.00     0.000 C 
ENDROOT
BRANCH   1   2
ATOM      2  C   UNL     1      19.824 -22.809 -19.243  1.00  0.00     0.000 C 
BRANCH   2   3
ATOM      3  C   UNL     1      18.315 -22.882 -18.938  1.00  0.00     0.000 C 
BRANCH   3   4
ATOM      4  C   UNL     1      17.571 -24.042 -19.624  1.00  0.00     0.000 C 
BRANCH   4   5
ATOM      5  C   UNL     1      16.273 -24.491 -18.921  1.00  0.00     0.000 C 
BRANCH   5   6
ATOM      6  C   UNL     1      15.918 -23.710 -17.639  1.00  0.00     0.000 C 
BRANCH   6   7
ATOM      7  C   UNL     1      14.705 -22.770 -17.765  1.00  0.00     0.006 C 
BRANCH   7   8
ATOM      8  C   UNL     1      14.118 -22.743 -19.181  1.00  0.00     0.053 C 
BRANCH   8   9
ATOM      9  C   UNL     1      14.359 -21.411 -19.820  1.00  0.00     0.041 C 
ATOM     10  O   UNL     1      15.522 -21.078 -20.171  1.00  0.00    -0.550 OA
ATOM     11  O   UNL     1      13.308 -20.518 -19.984  1.00  0.00    -0.550 OA
ENDBRANCH   8   9
ENDBRANCH   7   8
ENDBRANCH   6   7
ENDBRANCH   5   6
ENDBRANCH   4   5
ENDBRANCH   3   4
ENDBRANCH   2   3
ENDBRANCH   1   2
BRANCH   1  12
ATOM     12  C   UNL     1      21.758 -21.328 -20.032  1.00  0.00     0.000 C 
BRANCH  12  13
ATOM     13  C   UNL     1      22.174 -20.393 -18.890  1.00  0.00    -0.000 C 
BRANCH  13  14
ATOM     14  C   UNL     1      20.994 -19.521 -18.436  1.00  0.00    -0.000 C 
BRANCH  14  15
ATOM     15  C   UNL     1      21.178 -18.946 -17.021  1.00  0.00    -0.000 C 
BRANCH  15  16
ATOM     16  C   UNL     1      20.905 -17.433 -16.877  1.00  0.00    -0.000 C 
BRANCH  16  17
ATOM     17  C   UNL     1      22.122 -16.521 -17.131  1.00  0.00    -0.000 C 
BRANCH  17  18
ATOM     18  C   UNL     1      23.481 -17.211 -16.872  1.00  0.00    -0.000 C 
BRANCH  18  19
ATOM     19  C   UNL     1      24.588 -16.767 -17.842  1.00  0.00    -0.003 C 
ATOM     20  C   UNL     1      24.488 -17.444 -19.207  1.00  0.00     0.004 C 
ENDBRANCH  18  19
ENDBRANCH  17  18
ENDBRANCH  16  17
ENDBRANCH  15  16
ENDBRANCH  14  15
ENDBRANCH  13  14
ENDBRANCH  12  13
ENDBRANCH   1  12
TORSDOF 16
ENDMDL
MODEL 8
REMARK VINA RESULT:    -3.814      2.462      3.869
REMARK INTER + INTRA:          -8.416
REMARK INTER:                  -7.448
REMARK INTRA:                  -0.968
REMARK UNBOUND:                -1.034
REMARK SMILES CCCCCCCCCCCCCCCCCC(=O)[O-]
REMARK SMILES IDX 10 1 11 2 12 3 13 4 14 5 15 6 16 7 17 8 18 9 19 10 20 11
REMARK SMILES IDX 9 12 8 13 7 14 6 15 5 16 4 17 3 18 2 19 1 20
REMARK H PARENT
REMARK Flexibility Score: inf
ROOT
ATOM      1  C   UNL     1      18.359 -21.629 -19.993  1.00  0.00     0.000 C 
ENDROOT
BRANCH   1   2
ATOM      2  C   UNL     1      19.580 -22.565 -19.871  1.00  0.00     0.000 C 
BRANCH   2   3
ATOM      3  C   UNL     1      20.664 -22.049 -18.905  1.00  0.00     0.000 C 
BRANCH   3   4
ATOM      4  C   UNL     1      20.770 -20.515 -18.811  1.00  0.00     0.000 C 
BRANCH   4   5
ATOM      5  C   UNL     1      21.300 -19.980 -17.465  1.00  0.00     0.000 C 
BRANCH   5   6
ATOM      6  C   UNL     1      22.627 -19.198 -17.546  1.00  0.00     0.000 C 
BRANCH   6   7
ATOM      7  C   UNL     1      22.509 -17.773 -18.115  1.00  0.00     0.006 C 
BRANCH   7   8
ATOM      8  C   UNL     1      23.206 -16.724 -17.239  1.00  0.00     0.053 C 
BRANCH   8   9
ATOM      9  C   UNL     1      22.245 -15.643 -16.855  1.00  0.00     0.041 C 
ATOM     10  O   UNL     1      21.059 -15.931 -16.544  1.00  0.00    -0.550 OA
ATOM     11  O   UNL     1      22.644 -14.313 -16.889  1.00  0.00    -0.550 OA
ENDBRANCH   8   9
ENDBRANCH   7   8
ENDBRANCH   6   7
ENDBRANCH   5   6
ENDBRANCH   4   5
ENDBRANCH   3   4
ENDBRANCH   2   3
ENDBRANCH   1   2
BRANCH   1  12
ATOM     12  C   UNL     1      17.042 -22.401 -20.172  1.00  0.00     0.000 C 
BRANCH  12  13
ATOM     13  C   UNL     1      17.309 -23.877 -20.488  1.00  0.00    -0.000 C 
BRANCH  13  14
ATOM     14  C   UNL     1      16.691 -24.790 -19.417  1.00  0.00    -0.000 C 
BRANCH  14  15
ATOM     15  C   UNL     1      15.164 -24.931 -19.554  1.00  0.00    -0.000 C 
BRANCH  15  16
ATOM     16  C   UNL     1      14.329 -24.078 -18.575  1.00  0.00    -0.000 C 
BRANCH  16  17
ATOM     17  C   UNL     1      15.057 -23.667 -17.280  1.00  0.00    -0.000 C 
BRANCH  17  18
ATOM     18  C   UNL     1      14.654 -22.270 -16.756  1.00  0.00    -0.000 C 
BRANCH  18  19
ATOM     19  C   UNL     1      14.611 -22.178 -15.222  1.00  0.00    -0.003 C 
ATOM     20  C   UNL     1      13.393 -21.416 -14.707  1.00  0.00     0.004 C 
ENDBRANCH  18  19
ENDBRANCH  17  18
ENDBRANCH  16  17
ENDBRANCH  15  16
ENDBRANCH  14  15
ENDBRANCH  13  14
ENDBRANCH  12  13
ENDBRANCH   1  12
TORSDOF 16
ENDMDL
MODEL 9
REMARK VINA RESULT:    -3.798      3.008      7.871
REMARK INTER + INTRA:          -8.386
REMARK INTER:                  -7.325
REMARK INTRA:                  -1.061
REMARK UNBOUND:                -1.034
REMARK SMILES CCCCCCCCCCCCCCCCCC(=O)[O-]
REMARK SMILES IDX 10 1 11 2 12 3 13 4 14 5 15 6 16 7 17 8 18 9 19 10 20 11
REMARK SMILES IDX 9 12 8 13 7 14 6 15 5 16 4 17 3 18 2 19 1 20
REMARK H PARENT
REMARK Flexibility Score: inf
ROOT
ATOM      1  C   UNL     1      21.055 -19.610 -17.622  1.00  0.00     0.000 C 
ENDROOT
BRANCH   1   2
ATOM      2  C   UNL     1      21.159 -20.439 -18.920  1.00  0.00     0.000 C 
BRANCH   2   3
ATOM      3  C   UNL     1      20.666 -21.891 -18.770  1.00  0.00     0.000 C 
BRANCH   3   4
ATOM      4  C   UNL     1      19.453 -22.257 -19.644  1.00  0.00     0.000 C 
BRANCH   4   5
ATOM      5  C   UNL     1      19.267 -23.766 -19.903  1.00  0.00     0.000 C 
BRANCH   5   6
ATOM      6  C   UNL     1      18.017 -24.394 -19.254  1.00  0.00     0.000 C 
BRANCH   6   7
ATOM      7  C   UNL     1      16.724 -23.571 -19.402  1.00  0.00     0.006 C 
BRANCH   7   8
ATOM      8  C   UNL     1      15.557 -24.146 -18.590  1.00  0.00     0.053 C 
BRANCH   8   9
ATOM      9  C   UNL     1      14.770 -23.044 -17.954  1.00  0.00     0.041 C 
ATOM     10  O   UNL     1      14.028 -22.309 -18.657  1.00  0.00    -0.550 OA
ATOM     11  O   UNL     1      14.894 -22.797 -16.593  1.00  0.00    -0.550 OA
ENDBRANCH   8   9
ENDBRANCH   7   8
ENDBRANCH   6   7
ENDBRANCH   5   6
ENDBRANCH   4   5
ENDBRANCH   3   4
ENDBRANCH   2   3
ENDBRANCH   1   2
BRANCH   1  12
ATOM     12  C   UNL     1      22.389 -19.534 -16.864  1.00  0.00     0.000 C 
BRANCH  12  13
ATOM     13  C   UNL     1      23.433 -18.747 -17.664  1.00  0.00    -0.000 C 
BRANCH  13  14
ATOM     14  C   UNL     1      24.423 -18.037 -16.729  1.00  0.00    -0.000 C 
BRANCH  14  15
ATOM     15  C   UNL     1      24.003 -16.597 -16.386  1.00  0.00    -0.000 C 
BRANCH  15  16
ATOM     16  C   UNL     1      22.968 -15.963 -17.341  1.00  0.00    -0.000 C 
BRANCH  16  17
ATOM     17  C   UNL     1      21.764 -15.294 -16.648  1.00  0.00    -0.000 C 
BRANCH  17  18
ATOM     18  C   UNL     1      20.623 -16.276 -16.298  1.00  0.00    -0.000 C 
BRANCH  18  19
ATOM     19  C   UNL     1      19.262 -15.589 -16.097  1.00  0.00    -0.003 C 
ATOM     20  C   UNL     1      18.389 -16.293 -15.060  1.00  0.00     0.004 C 
ENDBRANCH  18  19
ENDBRANCH  17  18
ENDBRANCH  16  17
ENDBRANCH  15  16
ENDBRANCH  14  15
ENDBRANCH  13  14
ENDBRANCH  12  13
ENDBRANCH   1  12
TORSDOF 16
ENDMDL
