MODEL 1
REMARK VINA RESULT:    -1.887      0.000      0.000
REMARK INTER + INTRA:          -7.007
REMARK INTER:                  -4.754
REMARK INTRA:                  -2.253
REMARK UNBOUND:                -2.253
REMARK SMILES CCCCCCCCCCCCCCCCCCCCCCCCCCCC(=O)[O-]
REMARK SMILES IDX 15 1 16 2 17 3 18 4 19 5 20 6 21 7 22 8 23 9 24 10 25 11
REMARK SMILES IDX 26 12 27 13 28 14 29 15 30 16 14 17 13 18 12 19 11 20 10 21
REMARK SMILES IDX 9 22 8 23 7 24 6 25 5 26 4 27 3 28 2 29 1 30
REMARK H PARENT
REMARK Flexibility Score: inf
ROOT
ATOM      1  C   UNL     1     -17.751  44.746  -7.455  1.00  0.00     0.000 C 
ENDROOT
BRANCH   1   2
ATOM      2  C   UNL     1     -19.198  45.148  -7.804  1.00  0.00     0.000 C 
BRANCH   2   3
ATOM      3  C   UNL     1     -19.845  44.339  -8.944  1.00  0.00     0.000 C 
BRANCH   3   4
ATOM      4  C   UNL     1     -19.298  44.661 -10.347  1.00  0.00     0.000 C 
BRANCH   4   5
ATOM      5  C   UNL     1     -18.824  43.413 -11.125  1.00  0.00     0.000 C 
BRANCH   5   6
ATOM      6  C   UNL     1     -17.352  43.064 -10.839  1.00  0.00     0.000 C 
BRANCH   6   7
ATOM      7  C   UNL     1     -16.495  44.325 -10.619  1.00  0.00     0.000 C 
BRANCH   7   8
ATOM      8  C   UNL     1     -15.106  44.012 -10.028  1.00  0.00     0.000 C 
BRANCH   8   9
ATOM      9  C   UNL     1     -14.170  45.236 -10.072  1.00  0.00     0.000 C 
BRANCH   9  10
ATOM     10  C   UNL     1     -14.861  46.499 -10.624  1.00  0.00     0.000 C 
BRANCH  10  11
ATOM     11  C   UNL     1     -14.184  47.818 -10.213  1.00  0.00     0.000 C 
BRANCH  11  12
ATOM     12  C   UNL     1     -15.166  49.002 -10.149  1.00  0.00     0.006 C 
BRANCH  12  13
ATOM     13  C   UNL     1     -14.482  50.311  -9.721  1.00  0.00     0.053 C 
BRANCH  13  14
ATOM     14  C   UNL     1     -14.768  50.660  -8.290  1.00  0.00     0.041 C 
ATOM     15  O   UNL     1     -14.764  49.766  -7.402  1.00  0.00    -0.550 OA
ATOM     16  O   UNL     1     -15.040  51.976  -7.937  1.00  0.00    -0.550 OA
ENDBRANCH  13  14
ENDBRANCH  12  13
ENDBRANCH  11  12
ENDBRANCH  10  11
ENDBRANCH   9  10
ENDBRANCH   8   9
ENDBRANCH   7   8
ENDBRANCH   6   7
ENDBRANCH   5   6
ENDBRANCH   4   5
ENDBRANCH   3   4
ENDBRANCH   2   3
ENDBRANCH   1   2
BRANCH   1  17
ATOM     17  C   UNL     1     -17.588  43.347  -6.829  1.00  0.00     0.000 C 
BRANCH  17  18
ATOM     18  C   UNL     1     -16.196  43.127  -6.212  1.00  0.00     0.000 C 
BRANCH  18  19
ATOM     19  C   UNL     1     -15.963  43.964  -4.942  1.00  0.00     0.000 C 
BRANCH  19  20
ATOM     20  C   UNL     1     -16.669  43.444  -3.673  1.00  0.00     0.000 C 
BRANCH  20  21
ATOM     21  C   UNL     1     -18.205  43.557  -3.677  1.00  0.00     0.000 C 
BRANCH  21  22
ATOM     22  C   UNL     1     -18.952  42.316  -3.148  1.00  0.00    -0.000 C 
BRANCH  22  23
ATOM     23  C   UNL     1     -19.420  41.350  -4.258  1.00  0.00    -0.000 C 
BRANCH  23  24
ATOM     24  C   UNL     1     -18.246  40.692  -5.004  1.00  0.00    -0.000 C 
BRANCH  24  25
ATOM     25  C   UNL     1     -18.639  39.363  -5.668  1.00  0.00    -0.000 C 
BRANCH  25  26
ATOM     26  C   UNL     1     -17.433  38.432  -5.884  1.00  0.00    -0.000 C 
BRANCH  26  27
ATOM     27  C   UNL     1     -17.754  37.261  -6.827  1.00  0.00    -0.000 C 
BRANCH  27  28
ATOM     28  C   UNL     1     -18.297  36.035  -6.073  1.00  0.00    -0.000 C 
BRANCH  28  29
ATOM     29  C   UNL     1     -19.506  35.398  -6.775  1.00  0.00    -0.003 C 
ATOM     30  C   UNL     1     -20.114  36.307  -7.840  1.00  0.00     0.004 C 
ENDBRANCH  28  29
ENDBRANCH  27  28
ENDBRANCH  26  27
ENDBRANCH  25  26
ENDBRANCH  24  25
ENDBRANCH  23  24
ENDBRANCH  22  23
ENDBRANCH  21  22
ENDBRANCH  20  21
ENDBRANCH  19  20
ENDBRANCH  18  19
ENDBRANCH  17  18
ENDBRANCH   1  17
TORSDOF 26
ENDMDL
MODEL 2
REMARK VINA RESULT:    -0.843      5.200     11.073
REMARK INTER + INTRA:          -4.378
REMARK INTER:                  -2.218
REMARK INTRA:                  -2.160
REMARK UNBOUND:                -2.253
REMARK SMILES CCCCCCCCCCCCCCCCCCCCCCCCCCCC(=O)[O-]
REMARK SMILES IDX 15 1 16 2 17 3 18 4 19 5 20 6 21 7 22 8 23 9 24 10 25 11
REMARK SMILES IDX 26 12 27 13 28 14 29 15 30 16 14 17 13 18 12 19 11 20 10 21
REMARK SMILES IDX 9 22 8 23 7 24 6 25 5 26 4 27 3 28 2 29 1 30
REMARK H PARENT
REMARK Flexibility Score: inf
ROOT
ATOM      1  C   UNL     1     -19.884  44.047  -8.542  1.00  0.00     0.000 C 
ENDROOT
BRANCH   1   2
ATOM      2  C   UNL     1     -19.146  45.161  -7.771  1.00  0.00     0.000 C 
BRANCH   2   3
ATOM      3  C   UNL     1     -17.747  44.778  -7.250  1.00  0.00     0.000 C 
BRANCH   3   4
ATOM      4  C   UNL     1     -17.655  43.366  -6.644  1.00  0.00     0.000 C 
BRANCH   4   5
ATOM      5  C   UNL     1     -16.349  43.118  -5.857  1.00  0.00     0.000 C 
BRANCH   5   6
ATOM      6  C   UNL     1     -16.588  42.992  -4.342  1.00  0.00     0.000 C 
BRANCH   6   7
ATOM      7  C   UNL     1     -18.032  43.367  -3.955  1.00  0.00     0.000 C 
BRANCH   7   8
ATOM      8  C   UNL     1     -18.855  42.159  -3.465  1.00  0.00     0.000 C 
BRANCH   8   9
ATOM      9  C   UNL     1     -19.867  42.556  -2.371  1.00  0.00     0.000 C 
BRANCH   9  10
ATOM     10  C   UNL     1     -20.345  41.355  -1.533  1.00  0.00     0.000 C 
BRANCH  10  11
ATOM     11  C   UNL     1     -21.031  41.741  -0.211  1.00  0.00     0.000 C 
BRANCH  11  12
ATOM     12  C   UNL     1     -21.202  40.549   0.749  1.00  0.00     0.006 C 
BRANCH  12  13
ATOM     13  C   UNL     1     -21.992  39.392   0.114  1.00  0.00     0.053 C 
BRANCH  13  14
ATOM     14  C   UNL     1     -21.678  38.072   0.754  1.00  0.00     0.041 C 
ATOM     15  O   UNL     1     -22.555  37.462   1.422  1.00  0.00    -0.550 OA
ATOM     16  O   UNL     1     -20.413  37.514   0.613  1.00  0.00    -0.550 OA
ENDBRANCH  13  14
ENDBRANCH  12  13
ENDBRANCH  11  12
ENDBRANCH  10  11
ENDBRANCH   9  10
ENDBRANCH   8   9
ENDBRANCH   7   8
ENDBRANCH   6   7
ENDBRANCH   5   6
ENDBRANCH   4   5
ENDBRANCH   3   4
ENDBRANCH   2   3
ENDBRANCH   1   2
BRANCH   1  17
ATOM     17  C   UNL     1     -19.901  44.205 -10.075  1.00  0.00     0.000 C 
BRANCH  17  18
ATOM     18  C   UNL     1     -18.842  43.338 -10.777  1.00  0.00     0.000 C 
BRANCH  18  19
ATOM     19  C   UNL     1     -17.560  44.117 -11.121  1.00  0.00     0.000 C 
BRANCH  19  20
ATOM     20  C   UNL     1     -16.254  43.506 -10.574  1.00  0.00     0.000 C 
BRANCH  20  21
ATOM     21  C   UNL     1     -15.317  44.488  -9.846  1.00  0.00     0.000 C 
BRANCH  21  22
ATOM     22  C   UNL     1     -14.434  45.353 -10.770  1.00  0.00    -0.000 C 
BRANCH  22  23
ATOM     23  C   UNL     1     -14.096  46.741 -10.185  1.00  0.00    -0.000 C 
BRANCH  23  24
ATOM     24  C   UNL     1     -13.879  46.705  -8.661  1.00  0.00    -0.000 C 
BRANCH  24  25
ATOM     25  C   UNL     1     -14.932  47.521  -7.896  1.00  0.00    -0.000 C 
BRANCH  25  26
ATOM     26  C   UNL     1     -14.686  49.037  -7.990  1.00  0.00    -0.000 C 
BRANCH  26  27
ATOM     27  C   UNL     1     -13.941  49.590  -6.763  1.00  0.00    -0.000 C 
BRANCH  27  28
ATOM     28  C   UNL     1     -13.876  51.127  -6.761  1.00  0.00    -0.000 C 
BRANCH  28  29
ATOM     29  C   UNL     1     -14.457  51.744  -8.042  1.00  0.00    -0.003 C 
ATOM     30  C   UNL     1     -15.215  53.043  -7.778  1.00  0.00     0.004 C 
ENDBRANCH  28  29
ENDBRANCH  27  28
ENDBRANCH  26  27
ENDBRANCH  25  26
ENDBRANCH  24  25
ENDBRANCH  23  24
ENDBRANCH  22  23
ENDBRANCH  21  22
ENDBRANCH  20  21
ENDBRANCH  19  20
ENDBRANCH  18  19
ENDBRANCH  17  18
ENDBRANCH   1  17
TORSDOF 26
ENDMDL
MODEL 3
REMARK VINA RESULT:    -0.342      3.257      3.986
REMARK INTER + INTRA:          -3.115
REMARK INTER:                  -0.771
REMARK INTRA:                  -2.345
REMARK UNBOUND:                -2.253
REMARK SMILES CCCCCCCCCCCCCCCCCCCCCCCCCCCC(=O)[O-]
REMARK SMILES IDX 15 1 16 2 17 3 18 4 19 5 20 6 21 7 22 8 23 9 24 10 25 11
REMARK SMILES IDX 26 12 27 13 28 14 29 15 30 16 14 17 13 18 12 19 11 20 10 21
REMARK SMILES IDX 9 22 8 23 7 24 6 25 5 26 4 27 3 28 2 29 1 30
REMARK H PARENT
REMARK Flexibility Score: inf
ROOT
ATOM      1  C   UNL     1     -17.324  43.612  -6.854  1.00  0.00     0.000 C 
ENDROOT
BRANCH   1   2
ATOM      2  C   UNL     1     -18.466  44.552  -7.289  1.00  0.00     0.000 C 
BRANCH   2   3
ATOM      3  C   UNL     1     -19.428  43.969  -8.341  1.00  0.00     0.000 C 
BRANCH   3   4
ATOM      4  C   UNL     1     -19.489  44.760  -9.660  1.00  0.00     0.000 C 
BRANCH   4   5
ATOM      5  C   UNL     1     -19.204  43.897 -10.910  1.00  0.00     0.000 C 
BRANCH   5   6
ATOM      6  C   UNL     1     -18.524  42.561 -10.560  1.00  0.00     0.000 C 
BRANCH   6   7
ATOM      7  C   UNL     1     -17.008  42.598 -10.833  1.00  0.00     0.000 C 
BRANCH   7   8
ATOM      8  C   UNL     1     -16.449  44.032 -10.925  1.00  0.00     0.000 C 
BRANCH   8   9
ATOM      9  C   UNL     1     -15.343  44.288  -9.882  1.00  0.00     0.000 C 
BRANCH   9  10
ATOM     10  C   UNL     1     -14.790  45.726  -9.934  1.00  0.00     0.000 C 
BRANCH  10  11
ATOM     11  C   UNL     1     -15.867  46.810 -10.118  1.00  0.00     0.000 C 
BRANCH  11  12
ATOM     12  C   UNL     1     -15.288  48.236 -10.129  1.00  0.00     0.006 C 
BRANCH  12  13
ATOM     13  C   UNL     1     -14.196  48.436  -9.065  1.00  0.00     0.053 C 
BRANCH  13  14
ATOM     14  C   UNL     1     -14.694  49.210  -7.880  1.00  0.00     0.041 C 
ATOM     15  O   UNL     1     -15.134  50.382  -8.023  1.00  0.00    -0.550 OA
ATOM     16  O   UNL     1     -14.672  48.635  -6.615  1.00  0.00    -0.550 OA
ENDBRANCH  13  14
ENDBRANCH  12  13
ENDBRANCH  11  12
ENDBRANCH  10  11
ENDBRANCH   9  10
ENDBRANCH   8   9
ENDBRANCH   7   8
ENDBRANCH   6   7
ENDBRANCH   5   6
ENDBRANCH   4   5
ENDBRANCH   3   4
ENDBRANCH   2   3
ENDBRANCH   1   2
BRANCH   1  17
ATOM     17  C   UNL     1     -17.672  42.633  -5.715  1.00  0.00     0.000 C 
BRANCH  17  18
ATOM     18  C   UNL     1     -17.257  43.158  -4.329  1.00  0.00     0.000 C 
BRANCH  18  19
ATOM     19  C   UNL     1     -18.408  43.856  -3.582  1.00  0.00     0.000 C 
BRANCH  19  20
ATOM     20  C   UNL     1     -19.668  42.993  -3.364  1.00  0.00     0.000 C 
BRANCH  20  21
ATOM     21  C   UNL     1     -19.532  41.876  -2.314  1.00  0.00     0.000 C 
BRANCH  21  22
ATOM     22  C   UNL     1     -20.663  41.824  -1.266  1.00  0.00    -0.000 C 
BRANCH  22  23
ATOM     23  C   UNL     1     -20.369  40.882  -0.079  1.00  0.00    -0.000 C 
BRANCH  23  24
ATOM     24  C   UNL     1     -21.644  40.249   0.506  1.00  0.00    -0.000 C 
BRANCH  24  25
ATOM     25  C   UNL     1     -21.860  38.806   0.026  1.00  0.00    -0.000 C 
BRANCH  25  26
ATOM     26  C   UNL     1     -22.253  37.857   1.172  1.00  0.00    -0.000 C 
BRANCH  26  27
ATOM     27  C   UNL     1     -21.115  36.897   1.558  1.00  0.00    -0.000 C 
BRANCH  27  28
ATOM     28  C   UNL     1     -20.240  36.512   0.354  1.00  0.00    -0.000 C 
BRANCH  28  29
ATOM     29  C   UNL     1     -20.101  34.991   0.187  1.00  0.00    -0.003 C 
ATOM     30  C   UNL     1     -20.303  34.537  -1.257  1.00  0.00     0.004 C 
ENDBRANCH  28  29
ENDBRANCH  27  28
ENDBRANCH  26  27
ENDBRANCH  25  26
ENDBRANCH  24  25
ENDBRANCH  23  24
ENDBRANCH  22  23
ENDBRANCH  21  22
ENDBRANCH  20  21
ENDBRANCH  19  20
ENDBRANCH  18  19
ENDBRANCH  17  18
ENDBRANCH   1  17
TORSDOF 26
ENDMDL
MODEL 4
REMARK VINA RESULT:    -0.252      4.120     10.640
REMARK INTER + INTRA:          -2.887
REMARK INTER:                  -2.159
REMARK INTRA:                  -0.728
REMARK UNBOUND:                -2.253
REMARK SMILES CCCCCCCCCCCCCCCCCCCCCCCCCCCC(=O)[O-]
REMARK SMILES IDX 15 1 16 2 17 3 18 4 19 5 20 6 21 7 22 8 23 9 24 10 25 11
REMARK SMILES IDX 26 12 27 13 28 14 29 15 30 16 14 17 13 18 12 19 11 20 10 21
REMARK SMILES IDX 9 22 8 23 7 24 6 25 5 26 4 27 3 28 2 29 1 30
REMARK H PARENT
REMARK Flexibility Score: inf
ROOT
ATOM      1  C   UNL     1     -16.732  44.300  -7.110  1.00  0.00     0.000 C 
ENDROOT
BRANCH   1   2
ATOM      2  C   UNL     1     -15.786  43.502  -6.189  1.00  0.00     0.000 C 
BRANCH   2   3
ATOM      3  C   UNL     1     -16.213  43.438  -4.711  1.00  0.00     0.000 C 
BRANCH   3   4
ATOM      4  C   UNL     1     -17.651  43.915  -4.440  1.00  0.00     0.000 C 
BRANCH   4   5
ATOM      5  C   UNL     1     -18.167  43.548  -3.030  1.00  0.00     0.000 C 
BRANCH   5   6
ATOM      6  C   UNL     1     -19.549  42.871  -3.067  1.00  0.00     0.000 C 
BRANCH   6   7
ATOM      7  C   UNL     1     -19.474  41.442  -3.639  1.00  0.00     0.000 C 
BRANCH   7   8
ATOM      8  C   UNL     1     -18.359  41.274  -4.691  1.00  0.00     0.000 C 
BRANCH   8   9
ATOM      9  C   UNL     1     -18.745  40.257  -5.783  1.00  0.00     0.000 C 
BRANCH   9  10
ATOM     10  C   UNL     1     -18.138  38.860  -5.543  1.00  0.00     0.000 C 
BRANCH  10  11
ATOM     11  C   UNL     1     -17.662  38.151  -6.822  1.00  0.00     0.000 C 
BRANCH  11  12
ATOM     12  C   UNL     1     -17.398  36.648  -6.613  1.00  0.00     0.006 C 
BRANCH  12  13
ATOM     13  C   UNL     1     -18.587  35.928  -5.955  1.00  0.00     0.053 C 
BRANCH  13  14
ATOM     14  C   UNL     1     -19.533  35.353  -6.967  1.00  0.00     0.041 C 
ATOM     15  O   UNL     1     -19.934  34.163  -6.861  1.00  0.00    -0.550 OA
ATOM     16  O   UNL     1     -19.974  36.133  -8.029  1.00  0.00    -0.550 OA
ENDBRANCH  13  14
ENDBRANCH  12  13
ENDBRANCH  11  12
ENDBRANCH  10  11
ENDBRANCH   9  10
ENDBRANCH   8   9
ENDBRANCH   7   8
ENDBRANCH   6   7
ENDBRANCH   5   6
ENDBRANCH   4   5
ENDBRANCH   3   4
ENDBRANCH   2   3
ENDBRANCH   1   2
BRANCH   1  17
ATOM     17  C   UNL     1     -17.927  43.508  -7.674  1.00  0.00     0.000 C 
BRANCH  17  18
ATOM     18  C   UNL     1     -19.156  44.393  -7.946  1.00  0.00     0.000 C 
BRANCH  18  19
ATOM     19  C   UNL     1     -19.718  44.220  -9.368  1.00  0.00     0.000 C 
BRANCH  19  20
ATOM     20  C   UNL     1     -18.803  44.727 -10.501  1.00  0.00     0.000 C 
BRANCH  20  21
ATOM     21  C   UNL     1     -17.862  43.673 -11.113  1.00  0.00     0.000 C 
BRANCH  21  22
ATOM     22  C   UNL     1     -16.368  44.058 -11.120  1.00  0.00    -0.000 C 
BRANCH  22  23
ATOM     23  C   UNL     1     -16.071  45.408 -10.432  1.00  0.00    -0.000 C 
BRANCH  23  24
ATOM     24  C   UNL     1     -14.686  45.970 -10.803  1.00  0.00    -0.000 C 
BRANCH  24  25
ATOM     25  C   UNL     1     -14.664  47.506 -10.843  1.00  0.00    -0.000 C 
BRANCH  25  26
ATOM     26  C   UNL     1     -14.660  48.132  -9.437  1.00  0.00    -0.000 C 
BRANCH  26  27
ATOM     27  C   UNL     1     -14.813  49.661  -9.473  1.00  0.00    -0.000 C 
BRANCH  27  28
ATOM     28  C   UNL     1     -14.267  50.335  -8.202  1.00  0.00    -0.000 C 
BRANCH  28  29
ATOM     29  C   UNL     1     -15.047  51.603  -7.824  1.00  0.00    -0.003 C 
ATOM     30  C   UNL     1     -14.150  52.696  -7.248  1.00  0.00     0.004 C 
ENDBRANCH  28  29
ENDBRANCH  27  28
ENDBRANCH  26  27
ENDBRANCH  25  26
ENDBRANCH  24  25
ENDBRANCH  23  24
ENDBRANCH  22  23
ENDBRANCH  21  22
ENDBRANCH  20  21
ENDBRANCH  19  20
ENDBRANCH  18  19
ENDBRANCH  17  18
ENDBRANCH   1  17
TORSDOF 26
ENDMDL
MODEL 5
REMARK VINA RESULT:     0.011      1.348      2.380
REMARK INTER + INTRA:          -2.225
REMARK INTER:                  -1.259
REMARK INTRA:                  -0.967
REMARK UNBOUND:                -2.253
REMARK SMILES CCCCCCCCCCCCCCCCCCCCCCCCCCCC(=O)[O-]
REMARK SMILES IDX 15 1 16 2 17 3 18 4 19 5 20 6 21 7 22 8 23 9 24 10 25 11
REMARK SMILES IDX 26 12 27 13 28 14 29 15 30 16 14 17 13 18 12 19 11 20 10 21
REMARK SMILES IDX 9 22 8 23 7 24 6 25 5 26 4 27 3 28 2 29 1 30
REMARK H PARENT
REMARK Flexibility Score: inf
ROOT
ATOM      1  C   UNL     1     -19.281  44.631  -6.651  1.00  0.00     0.000 C 
ENDROOT
BRANCH   1   2
ATOM      2  C   UNL     1     -18.425  44.147  -7.840  1.00  0.00     0.000 C 
BRANCH   2   3
ATOM      3  C   UNL     1     -19.034  42.991  -8.656  1.00  0.00     0.000 C 
BRANCH   3   4
ATOM      4  C   UNL     1     -18.226  42.597  -9.906  1.00  0.00     0.000 C 
BRANCH   4   5
ATOM      5  C   UNL     1     -18.493  43.510 -11.124  1.00  0.00     0.000 C 
BRANCH   5   6
ATOM      6  C   UNL     1     -19.397  44.706 -10.777  1.00  0.00     0.000 C 
BRANCH   6   7
ATOM      7  C   UNL     1     -18.724  46.051 -11.109  1.00  0.00     0.000 C 
BRANCH   7   8
ATOM      8  C   UNL     1     -17.545  46.380 -10.171  1.00  0.00     0.000 C 
BRANCH   8   9
ATOM      9  C   UNL     1     -16.205  45.855 -10.723  1.00  0.00     0.000 C 
BRANCH   9  10
ATOM     10  C   UNL     1     -15.367  45.117  -9.660  1.00  0.00     0.000 C 
BRANCH  10  11
ATOM     11  C   UNL     1     -14.889  46.009  -8.502  1.00  0.00     0.000 C 
BRANCH  11  12
ATOM     12  C   UNL     1     -14.112  47.249  -8.981  1.00  0.00     0.006 C 
BRANCH  12  13
ATOM     13  C   UNL     1     -14.503  48.522  -8.211  1.00  0.00     0.053 C 
BRANCH  13  14
ATOM     14  C   UNL     1     -14.816  49.666  -9.128  1.00  0.00     0.041 C 
ATOM     15  O   UNL     1     -15.119  49.454 -10.333  1.00  0.00    -0.550 OA
ATOM     16  O   UNL     1     -14.776  50.971  -8.652  1.00  0.00    -0.550 OA
ENDBRANCH  13  14
ENDBRANCH  12  13
ENDBRANCH  11  12
ENDBRANCH  10  11
ENDBRANCH   9  10
ENDBRANCH   8   9
ENDBRANCH   7   8
ENDBRANCH   6   7
ENDBRANCH   5   6
ENDBRANCH   4   5
ENDBRANCH   3   4
ENDBRANCH   2   3
ENDBRANCH   1   2
BRANCH   1  17
ATOM     17  C   UNL     1     -19.269  43.713  -5.413  1.00  0.00     0.000 C 
BRANCH  17  18
ATOM     18  C   UNL     1     -19.397  44.490  -4.092  1.00  0.00     0.000 C 
BRANCH  18  19
ATOM     19  C   UNL     1     -18.669  43.808  -2.920  1.00  0.00     0.000 C 
BRANCH  19  20
ATOM     20  C   UNL     1     -17.914  42.512  -3.282  1.00  0.00     0.000 C 
BRANCH  20  21
ATOM     21  C   UNL     1     -18.750  41.438  -4.003  1.00  0.00     0.000 C 
BRANCH  21  22
ATOM     22  C   UNL     1     -18.159  40.937  -5.337  1.00  0.00    -0.000 C 
BRANCH  22  23
ATOM     23  C   UNL     1     -18.529  39.476  -5.671  1.00  0.00    -0.000 C 
BRANCH  23  24
ATOM     24  C   UNL     1     -17.293  38.592  -5.913  1.00  0.00    -0.000 C 
BRANCH  24  25
ATOM     25  C   UNL     1     -17.613  37.346  -6.752  1.00  0.00    -0.000 C 
BRANCH  25  26
ATOM     26  C   UNL     1     -18.261  36.224  -5.919  1.00  0.00    -0.000 C 
BRANCH  26  27
ATOM     27  C   UNL     1     -19.398  35.514  -6.671  1.00  0.00    -0.000 C 
BRANCH  27  28
ATOM     28  C   UNL     1     -20.604  36.437  -6.918  1.00  0.00    -0.000 C 
BRANCH  28  29
ATOM     29  C   UNL     1     -20.997  36.511  -8.401  1.00  0.00    -0.003 C 
ATOM     30  C   UNL     1     -19.832  36.194  -9.336  1.00  0.00     0.004 C 
ENDBRANCH  28  29
ENDBRANCH  27  28
ENDBRANCH  26  27
ENDBRANCH  25  26
ENDBRANCH  24  25
ENDBRANCH  23  24
ENDBRANCH  22  23
ENDBRANCH  21  22
ENDBRANCH  20  21
ENDBRANCH  19  20
ENDBRANCH  18  19
ENDBRANCH  17  18
ENDBRANCH   1  17
TORSDOF 26
ENDMDL
MODEL 6
REMARK VINA RESULT:     0.084      4.221      9.358
REMARK INTER + INTRA:          -2.041
REMARK INTER:                   0.132
REMARK INTRA:                  -2.174
REMARK UNBOUND:                -2.253
REMARK SMILES CCCCCCCCCCCCCCCCCCCCCCCCCCCC(=O)[O-]
REMARK SMILES IDX 15 1 16 2 17 3 18 4 19 5 20 6 21 7 22 8 23 9 24 10 25 11
REMARK SMILES IDX 26 12 27 13 28 14 29 15 30 16 14 17 13 18 12 19 11 20 10 21
REMARK SMILES IDX 9 22 8 23 7 24 6 25 5 26 4 27 3 28 2 29 1 30
REMARK H PARENT
REMARK Flexibility Score: inf
ROOT
ATOM      1  C   UNL     1     -15.508  44.995  -7.533  1.00  0.00     0.000 C 
ENDROOT
BRANCH   1   2
ATOM      2  C   UNL     1     -15.543  43.533  -7.041  1.00  0.00     0.000 C 
BRANCH   2   3
ATOM      3  C   UNL     1     -16.171  43.326  -5.649  1.00  0.00     0.000 C 
BRANCH   3   4
ATOM      4  C   UNL     1     -17.705  43.449  -5.615  1.00  0.00     0.000 C 
BRANCH   4   5
ATOM      5  C   UNL     1     -18.241  44.111  -4.326  1.00  0.00     0.000 C 
BRANCH   5   6
ATOM      6  C   UNL     1     -19.370  43.295  -3.671  1.00  0.00     0.000 C 
BRANCH   6   7
ATOM      7  C   UNL     1     -18.899  41.886  -3.263  1.00  0.00     0.000 C 
BRANCH   7   8
ATOM      8  C   UNL     1     -19.291  40.801  -4.286  1.00  0.00     0.000 C 
BRANCH   8   9
ATOM      9  C   UNL     1     -18.166  40.536  -5.306  1.00  0.00     0.000 C 
BRANCH   9  10
ATOM     10  C   UNL     1     -18.402  39.262  -6.141  1.00  0.00     0.000 C 
BRANCH  10  11
ATOM     11  C   UNL     1     -17.313  38.188  -5.975  1.00  0.00     0.000 C 
BRANCH  11  12
ATOM     12  C   UNL     1     -17.889  36.770  -5.805  1.00  0.00     0.006 C 
BRANCH  12  13
ATOM     13  C   UNL     1     -19.394  36.706  -6.112  1.00  0.00     0.053 C 
BRANCH  13  14
ATOM     14  C   UNL     1     -19.713  35.706  -7.184  1.00  0.00     0.041 C 
ATOM     15  O   UNL     1     -20.042  36.090  -8.338  1.00  0.00    -0.550 OA
ATOM     16  O   UNL     1     -19.646  34.346  -6.908  1.00  0.00    -0.550 OA
ENDBRANCH  13  14
ENDBRANCH  12  13
ENDBRANCH  11  12
ENDBRANCH  10  11
ENDBRANCH   9  10
ENDBRANCH   8   9
ENDBRANCH   7   8
ENDBRANCH   6   7
ENDBRANCH   5   6
ENDBRANCH   4   5
ENDBRANCH   3   4
ENDBRANCH   2   3
ENDBRANCH   1   2
BRANCH   1  17
ATOM     17  C   UNL     1     -14.793  45.989  -6.596  1.00  0.00     0.000 C 
BRANCH  17  18
ATOM     18  C   UNL     1     -13.884  46.973  -7.351  1.00  0.00     0.000 C 
BRANCH  18  19
ATOM     19  C   UNL     1     -14.442  48.408  -7.376  1.00  0.00     0.000 C 
BRANCH  19  20
ATOM     20  C   UNL     1     -15.261  48.771  -8.632  1.00  0.00     0.000 C 
BRANCH  20  21
ATOM     21  C   UNL     1     -14.441  48.994  -9.916  1.00  0.00     0.000 C 
BRANCH  21  22
ATOM     22  C   UNL     1     -14.820  48.081 -11.100  1.00  0.00    -0.000 C 
BRANCH  22  23
ATOM     23  C   UNL     1     -14.806  46.577 -10.754  1.00  0.00    -0.000 C 
BRANCH  23  24
ATOM     24  C   UNL     1     -16.140  45.881 -11.080  1.00  0.00    -0.000 C 
BRANCH  24  25
ATOM     25  C   UNL     1     -17.297  46.383 -10.202  1.00  0.00    -0.000 C 
BRANCH  25  26
ATOM     26  C   UNL     1     -18.558  45.510 -10.333  1.00  0.00    -0.000 C 
BRANCH  26  27
ATOM     27  C   UNL     1     -18.636  44.420  -9.251  1.00  0.00    -0.000 C 
BRANCH  27  28
ATOM     28  C   UNL     1     -19.521  43.236  -9.675  1.00  0.00    -0.000 C 
BRANCH  28  29
ATOM     29  C   UNL     1     -18.905  42.419 -10.821  1.00  0.00    -0.003 C 
ATOM     30  C   UNL     1     -17.379  42.459 -10.818  1.00  0.00     0.004 C 
ENDBRANCH  28  29
ENDBRANCH  27  28
ENDBRANCH  26  27
ENDBRANCH  25  26
ENDBRANCH  24  25
ENDBRANCH  23  24
ENDBRANCH  22  23
ENDBRANCH  21  22
ENDBRANCH  20  21
ENDBRANCH  19  20
ENDBRANCH  18  19
ENDBRANCH  17  18
ENDBRANCH   1  17
TORSDOF 26
ENDMDL
MODEL 7
REMARK VINA RESULT:     0.428      3.982      5.501
REMARK INTER + INTRA:          -1.174
REMARK INTER:                   0.523
REMARK INTRA:                  -1.697
REMARK UNBOUND:                -2.253
REMARK SMILES CCCCCCCCCCCCCCCCCCCCCCCCCCCC(=O)[O-]
REMARK SMILES IDX 15 1 16 2 17 3 18 4 19 5 20 6 21 7 22 8 23 9 24 10 25 11
REMARK SMILES IDX 26 12 27 13 28 14 29 15 30 16 14 17 13 18 12 19 11 20 10 21
REMARK SMILES IDX 9 22 8 23 7 24 6 25 5 26 4 27 3 28 2 29 1 30
REMARK H PARENT
REMARK Flexibility Score: inf
ROOT
ATOM      1  C   UNL     1     -16.795  42.986  -5.774  1.00  0.00     0.000 C 
ENDROOT
BRANCH   1   2
ATOM      2  C   UNL     1     -15.636  43.518  -6.642  1.00  0.00     0.000 C 
BRANCH   2   3
ATOM      3  C   UNL     1     -16.064  44.278  -7.911  1.00  0.00     0.000 C 
BRANCH   3   4
ATOM      4  C   UNL     1     -14.961  44.420  -8.974  1.00  0.00     0.000 C 
BRANCH   4   5
ATOM      5  C   UNL     1     -13.891  45.475  -8.615  1.00  0.00     0.000 C 
BRANCH   5   6
ATOM      6  C   UNL     1     -14.366  46.446  -7.519  1.00  0.00     0.000 C 
BRANCH   6   7
ATOM      7  C   UNL     1     -14.460  47.895  -8.035  1.00  0.00     0.000 C 
BRANCH   7   8
ATOM      8  C   UNL     1     -14.320  47.997  -9.567  1.00  0.00     0.000 C 
BRANCH   8   9
ATOM      9  C   UNL     1     -15.288  49.036 -10.166  1.00  0.00     0.000 C 
BRANCH   9  10
ATOM     10  C   UNL     1     -16.322  48.411 -11.123  1.00  0.00     0.000 C 
BRANCH  10  11
ATOM     11  C   UNL     1     -16.504  46.893 -10.951  1.00  0.00     0.000 C 
BRANCH  11  12
ATOM     12  C   UNL     1     -17.968  46.442 -11.103  1.00  0.00     0.006 C 
BRANCH  12  13
ATOM     13  C   UNL     1     -18.136  44.923 -10.936  1.00  0.00     0.053 C 
BRANCH  13  14
ATOM     14  C   UNL     1     -19.344  44.572 -10.117  1.00  0.00     0.041 C 
ATOM     15  O   UNL     1     -19.213  44.138  -8.941  1.00  0.00    -0.550 OA
ATOM     16  O   UNL     1     -20.616  44.726 -10.654  1.00  0.00    -0.550 OA
ENDBRANCH  13  14
ENDBRANCH  12  13
ENDBRANCH  11  12
ENDBRANCH  10  11
ENDBRANCH   9  10
ENDBRANCH   8   9
ENDBRANCH   7   8
ENDBRANCH   6   7
ENDBRANCH   5   6
ENDBRANCH   4   5
ENDBRANCH   3   4
ENDBRANCH   2   3
ENDBRANCH   1   2
BRANCH   1  17
ATOM     17  C   UNL     1     -16.737  43.376  -4.284  1.00  0.00     0.000 C 
BRANCH  17  18
ATOM     18  C   UNL     1     -18.131  43.544  -3.656  1.00  0.00     0.000 C 
BRANCH  18  19
ATOM     19  C   UNL     1     -18.762  42.207  -3.227  1.00  0.00     0.000 C 
BRANCH  19  20
ATOM     20  C   UNL     1     -20.109  42.324  -2.485  1.00  0.00     0.000 C 
BRANCH  20  21
ATOM     21  C   UNL     1     -20.118  41.794  -1.040  1.00  0.00     0.000 C 
BRANCH  21  22
ATOM     22  C   UNL     1     -21.142  40.673  -0.763  1.00  0.00    -0.000 C 
BRANCH  22  23
ATOM     23  C   UNL     1     -21.505  40.518   0.730  1.00  0.00    -0.000 C 
BRANCH  23  24
ATOM     24  C   UNL     1     -22.292  39.227   1.017  1.00  0.00    -0.000 C 
BRANCH  24  25
ATOM     25  C   UNL     1     -21.774  38.028   0.208  1.00  0.00    -0.000 C 
BRANCH  25  26
ATOM     26  C   UNL     1     -20.413  37.520   0.715  1.00  0.00    -0.000 C 
BRANCH  26  27
ATOM     27  C   UNL     1     -20.370  35.989   0.852  1.00  0.00    -0.000 C 
BRANCH  27  28
ATOM     28  C   UNL     1     -19.761  35.307  -0.385  1.00  0.00    -0.000 C 
BRANCH  28  29
ATOM     29  C   UNL     1     -20.766  34.404  -1.116  1.00  0.00    -0.003 C 
ATOM     30  C   UNL     1     -20.249  32.980  -1.305  1.00  0.00     0.004 C 
ENDBRANCH  28  29
ENDBRANCH  27  28
ENDBRANCH  26  27
ENDBRANCH  25  26
ENDBRANCH  24  25
ENDBRANCH  23  24
ENDBRANCH  22  23
ENDBRANCH  21  22
ENDBRANCH  20  21
ENDBRANCH  19  20
ENDBRANCH  18  19
ENDBRANCH  17  18
ENDBRANCH   1  17
TORSDOF 26
ENDMDL
MODEL 8
REMARK VINA RESULT:     0.763      5.769     12.291
REMARK INTER + INTRA:          -0.331
REMARK INTER:                   1.233
REMARK INTRA:                  -1.563
REMARK UNBOUND:                -2.253
REMARK SMILES CCCCCCCCCCCCCCCCCCCCCCCCCCCC(=O)[O-]
REMARK SMILES IDX 15 1 16 2 17 3 18 4 19 5 20 6 21 7 22 8 23 9 24 10 25 11
REMARK SMILES IDX 26 12 27 13 28 14 29 15 30 16 14 17 13 18 12 19 11 20 10 21
REMARK SMILES IDX 9 22 8 23 7 24 6 25 5 26 4 27 3 28 2 29 1 30
REMARK H PARENT
REMARK Flexibility Score: inf
ROOT
ATOM      1  C   UNL     1     -19.777  44.937  -5.970  1.00  0.00     0.000 C 
ENDROOT
BRANCH   1   2
ATOM      2  C   UNL     1     -19.212  44.462  -4.615  1.00  0.00     0.000 C 
BRANCH   2   3
ATOM      3  C   UNL     1     -18.338  43.195  -4.679  1.00  0.00     0.000 C 
BRANCH   3   4
ATOM      4  C   UNL     1     -18.399  42.314  -3.418  1.00  0.00     0.000 C 
BRANCH   4   5
ATOM      5  C   UNL     1     -19.745  42.407  -2.666  1.00  0.00     0.000 C 
BRANCH   5   6
ATOM      6  C   UNL     1     -19.918  41.284  -1.627  1.00  0.00     0.000 C 
BRANCH   6   7
ATOM      7  C   UNL     1     -20.959  41.650  -0.553  1.00  0.00     0.000 C 
BRANCH   7   8
ATOM      8  C   UNL     1     -21.165  40.532   0.490  1.00  0.00     0.000 C 
BRANCH   8   9
ATOM      9  C   UNL     1     -22.053  39.394  -0.053  1.00  0.00     0.000 C 
BRANCH   9  10
ATOM     10  C   UNL     1     -21.989  38.120   0.812  1.00  0.00     0.000 C 
BRANCH  10  11
ATOM     11  C   UNL     1     -20.653  37.362   0.721  1.00  0.00     0.000 C 
BRANCH  11  12
ATOM     12  C   UNL     1     -20.833  35.834   0.655  1.00  0.00     0.006 C 
BRANCH  12  13
ATOM     13  C   UNL     1     -19.827  35.164  -0.296  1.00  0.00     0.053 C 
BRANCH  13  14
ATOM     14  C   UNL     1     -20.420  33.987  -1.012  1.00  0.00     0.041 C 
ATOM     15  O   UNL     1     -19.677  33.167  -1.616  1.00  0.00    -0.550 OA
ATOM     16  O   UNL     1     -21.795  33.793  -1.011  1.00  0.00    -0.550 OA
ENDBRANCH  13  14
ENDBRANCH  12  13
ENDBRANCH  11  12
ENDBRANCH  10  11
ENDBRANCH   9  10
ENDBRANCH   8   9
ENDBRANCH   7   8
ENDBRANCH   6   7
ENDBRANCH   5   6
ENDBRANCH   4   5
ENDBRANCH   3   4
ENDBRANCH   2   3
ENDBRANCH   1   2
BRANCH   1  17
ATOM     17  C   UNL     1     -18.813  44.811  -7.167  1.00  0.00     0.000 C 
BRANCH  17  18
ATOM     18  C   UNL     1     -19.465  44.147  -8.392  1.00  0.00     0.000 C 
BRANCH  18  19
ATOM     19  C   UNL     1     -18.656  44.348  -9.686  1.00  0.00     0.000 C 
BRANCH  19  20
ATOM     20  C   UNL     1     -17.126  44.425  -9.498  1.00  0.00     0.000 C 
BRANCH  20  21
ATOM     21  C   UNL     1     -16.343  45.018 -10.684  1.00  0.00     0.000 C 
BRANCH  21  22
ATOM     22  C   UNL     1     -16.376  46.556 -10.783  1.00  0.00    -0.000 C 
BRANCH  22  23
ATOM     23  C   UNL     1     -15.502  47.267  -9.727  1.00  0.00    -0.000 C 
BRANCH  23  24
ATOM     24  C   UNL     1     -14.357  46.377  -9.210  1.00  0.00    -0.000 C 
BRANCH  24  25
ATOM     25  C   UNL     1     -13.875  46.790  -7.811  1.00  0.00    -0.000 C 
BRANCH  25  26
ATOM     26  C   UNL     1     -14.661  47.986  -7.246  1.00  0.00    -0.000 C 
BRANCH  26  27
ATOM     27  C   UNL     1     -13.932  49.323  -7.458  1.00  0.00    -0.000 C 
BRANCH  27  28
ATOM     28  C   UNL     1     -14.892  50.454  -7.868  1.00  0.00    -0.000 C 
BRANCH  28  29
ATOM     29  C   UNL     1     -14.271  51.411  -8.897  1.00  0.00    -0.003 C 
ATOM     30  C   UNL     1     -14.025  50.744 -10.248  1.00  0.00     0.004 C 
ENDBRANCH  28  29
ENDBRANCH  27  28
ENDBRANCH  26  27
ENDBRANCH  25  26
ENDBRANCH  24  25
ENDBRANCH  23  24
ENDBRANCH  22  23
ENDBRANCH  21  22
ENDBRANCH  20  21
ENDBRANCH  19  20
ENDBRANCH  18  19
ENDBRANCH  17  18
ENDBRANCH   1  17
TORSDOF 26
ENDMDL
