MODEL 1
REMARK VINA RESULT:    -1.718      0.000      0.000
REMARK INTER + INTRA:          -2.910
REMARK INTER:                  -2.622
REMARK INTRA:                  -0.288
REMARK UNBOUND:                -0.288
REMARK SMILES CCCCCCCCCCC(=O)[O-]
REMARK SMILES IDX 7 1 8 2 9 3 10 4 11 5 12 6 13 7 6 8 5 9 4 10 3 11 2 12 1 13
REMARK H PARENT
REMARK Flexibility Score: inf
ROOT
ATOM      1  C   UNL     1      54.002 147.064  -0.205  1.00  0.00     0.000 C 
ENDROOT
BRANCH   1   2
ATOM      2  C   UNL     1      53.802 147.892   1.075  1.00  0.00     0.000 C 
BRANCH   2   3
ATOM      3  C   UNL     1      52.398 147.717   1.680  1.00  0.00     0.006 C 
BRANCH   3   4
ATOM      4  C   UNL     1      51.290 148.125   0.701  1.00  0.00     0.053 C 
BRANCH   4   5
ATOM      5  C   UNL     1      49.928 147.912   1.286  1.00  0.00     0.041 C 
ATOM      6  O   UNL     1      49.752 147.993   2.531  1.00  0.00    -0.550 OA
ATOM      7  O   UNL     1      48.859 147.591   0.460  1.00  0.00    -0.550 OA
ENDBRANCH   4   5
ENDBRANCH   3   4
ENDBRANCH   2   3
ENDBRANCH   1   2
BRANCH   1   8
ATOM      8  C   UNL     1      54.142 147.939  -1.460  1.00  0.00     0.000 C 
BRANCH   8   9
ATOM      9  C   UNL     1      52.965 147.715  -2.420  1.00  0.00    -0.000 C 
BRANCH   9  10
ATOM     10  C   UNL     1      53.307 148.081  -3.873  1.00  0.00    -0.000 C 
BRANCH  10  11
ATOM     11  C   UNL     1      52.088 148.013  -4.805  1.00  0.00    -0.000 C 
BRANCH  11  12
ATOM     12  C   UNL     1      52.516 148.086  -6.275  1.00  0.00    -0.003 C 
ATOM     13  C   UNL     1      51.352 147.758  -7.205  1.00  0.00     0.004 C 
ENDBRANCH  11  12
ENDBRANCH  10  11
ENDBRANCH   9  10
ENDBRANCH   8   9
ENDBRANCH   1   8
TORSDOF 9
ENDMDL
MODEL 2
REMARK VINA RESULT:    -1.649      3.228      5.409
REMARK INTER + INTRA:          -2.804
REMARK INTER:                  -2.330
REMARK INTRA:                  -0.474
REMARK UNBOUND:                -0.288
REMARK SMILES CCCCCCCCCCC(=O)[O-]
REMARK SMILES IDX 7 1 8 2 9 3 10 4 11 5 12 6 13 7 6 8 5 9 4 10 3 11 2 12 1 13
REMARK H PARENT
REMARK Flexibility Score: inf
ROOT
ATOM      1  C   UNL     1      52.362 146.756   0.687  1.00  0.00     0.000 C 
ENDROOT
BRANCH   1   2
ATOM      2  C   UNL     1      53.589 146.884  -0.230  1.00  0.00     0.000 C 
BRANCH   2   3
ATOM      3  C   UNL     1      53.520 148.120  -1.144  1.00  0.00     0.006 C 
BRANCH   3   4
ATOM      4  C   UNL     1      52.581 147.905  -2.338  1.00  0.00     0.053 C 
BRANCH   4   5
ATOM      5  C   UNL     1      53.312 148.001  -3.642  1.00  0.00     0.041 C 
ATOM      6  O   UNL     1      52.672 148.059  -4.725  1.00  0.00    -0.550 OA
ATOM      7  O   UNL     1      54.700 147.991  -3.662  1.00  0.00    -0.550 OA
ENDBRANCH   4   5
ENDBRANCH   3   4
ENDBRANCH   2   3
ENDBRANCH   1   2
BRANCH   1   8
ATOM      8  C   UNL     1      51.750 148.118   1.049  1.00  0.00     0.000 C 
BRANCH   8   9
ATOM      9  C   UNL     1      50.447 147.940   1.842  1.00  0.00    -0.000 C 
BRANCH   9  10
ATOM     10  C   UNL     1      49.196 148.008   0.951  1.00  0.00    -0.000 C 
BRANCH  10  11
ATOM     11  C   UNL     1      49.538 148.125  -0.542  1.00  0.00    -0.000 C 
BRANCH  11  12
ATOM     12  C   UNL     1      48.300 147.872  -1.410  1.00  0.00    -0.003 C 
ATOM     13  C   UNL     1      47.016 148.029  -0.600  1.00  0.00     0.004 C 
ENDBRANCH  11  12
ENDBRANCH  10  11
ENDBRANCH   9  10
ENDBRANCH   8   9
ENDBRANCH   1   8
TORSDOF 9
ENDMDL
MODEL 3
REMARK VINA RESULT:    -0.699      3.335      6.176
REMARK INTER + INTRA:          -1.354
REMARK INTER:                  -0.901
REMARK INTRA:                  -0.452
REMARK UNBOUND:                -0.288
REMARK SMILES CCCCCCCCCCC(=O)[O-]
REMARK SMILES IDX 7 1 8 2 9 3 10 4 11 5 12 6 13 7 6 8 5 9 4 10 3 11 2 12 1 13
REMARK H PARENT
REMARK Flexibility Score: inf
ROOT
ATOM      1  C   UNL     1      54.611 147.565  -1.200  1.00  0.00     0.000 C 
ENDROOT
BRANCH   1   2
ATOM      2  C   UNL     1      54.137 148.124  -2.550  1.00  0.00     0.000 C 
BRANCH   2   3
ATOM      3  C   UNL     1      54.391 147.154  -3.717  1.00  0.00     0.006 C 
BRANCH   3   4
ATOM      4  C   UNL     1      53.101 146.803  -4.470  1.00  0.00     0.053 C 
BRANCH   4   5
ATOM      5  C   UNL     1      52.951 147.618  -5.718  1.00  0.00     0.041 C 
ATOM      6  O   UNL     1      51.833 148.114  -6.021  1.00  0.00    -0.550 OA
ATOM      7  O   UNL     1      54.037 147.800  -6.564  1.00  0.00    -0.550 OA
ENDBRANCH   4   5
ENDBRANCH   3   4
ENDBRANCH   2   3
ENDBRANCH   1   2
BRANCH   1   8
ATOM      8  C   UNL     1      53.465 146.963  -0.373  1.00  0.00     0.000 C 
BRANCH   8   9
ATOM      9  C   UNL     1      52.617 148.067   0.275  1.00  0.00    -0.000 C 
BRANCH   9  10
ATOM     10  C   UNL     1      52.010 147.635   1.620  1.00  0.00    -0.000 C 
BRANCH  10  11
ATOM     11  C   UNL     1      50.513 147.957   1.726  1.00  0.00    -0.000 C 
BRANCH  11  12
ATOM     12  C   UNL     1      49.884 148.108   0.335  1.00  0.00    -0.003 C 
ATOM     13  C   UNL     1      48.399 147.755   0.360  1.00  0.00     0.004 C 
ENDBRANCH  11  12
ENDBRANCH  10  11
ENDBRANCH   9  10
ENDBRANCH   8   9
ENDBRANCH   1   8
TORSDOF 9
ENDMDL
MODEL 4
REMARK VINA RESULT:    -0.548      1.497      2.002
REMARK INTER + INTRA:          -1.124
REMARK INTER:                  -0.647
REMARK INTRA:                  -0.477
REMARK UNBOUND:                -0.288
REMARK SMILES CCCCCCCCCCC(=O)[O-]
REMARK SMILES IDX 7 1 8 2 9 3 10 4 11 5 12 6 13 7 6 8 5 9 4 10 3 11 2 12 1 13
REMARK H PARENT
REMARK Flexibility Score: inf
ROOT
ATOM      1  C   UNL     1      53.112 147.251  -0.295  1.00  0.00     0.000 C 
ENDROOT
BRANCH   1   2
ATOM      2  C   UNL     1      52.168 148.061   0.607  1.00  0.00     0.000 C 
BRANCH   2   3
ATOM      3  C   UNL     1      50.732 148.124   0.057  1.00  0.00     0.006 C 
BRANCH   3   4
ATOM      4  C   UNL     1      49.681 148.021   1.170  1.00  0.00     0.053 C 
BRANCH   4   5
ATOM      5  C   UNL     1      48.292 147.940   0.614  1.00  0.00     0.041 C 
ATOM      6  O   UNL     1      47.296 148.064   1.375  1.00  0.00    -0.550 OA
ATOM      7  O   UNL     1      48.098 147.692  -0.738  1.00  0.00    -0.550 OA
ENDBRANCH   4   5
ENDBRANCH   3   4
ENDBRANCH   2   3
ENDBRANCH   1   2
BRANCH   1   8
ATOM      8  C   UNL     1      54.565 147.744  -0.225  1.00  0.00     0.000 C 
BRANCH   8   9
ATOM      9  C   UNL     1      55.084 148.125  -1.620  1.00  0.00    -0.000 C 
BRANCH   9  10
ATOM     10  C   UNL     1      54.153 147.651  -2.747  1.00  0.00    -0.000 C 
BRANCH  10  11
ATOM     11  C   UNL     1      54.783 147.803  -4.140  1.00  0.00    -0.000 C 
BRANCH  11  12
ATOM     12  C   UNL     1      53.709 148.058  -5.204  1.00  0.00    -0.003 C 
ATOM     13  C   UNL     1      52.315 148.085  -4.585  1.00  0.00     0.004 C 
ENDBRANCH  11  12
ENDBRANCH  10  11
ENDBRANCH   9  10
ENDBRANCH   8   9
ENDBRANCH   1   8
TORSDOF 9
ENDMDL
MODEL 5
REMARK VINA RESULT:    -0.319     22.135     23.167
REMARK INTER + INTRA:          -0.775
REMARK INTER:                  -1.292
REMARK INTRA:                   0.517
REMARK UNBOUND:                -0.288
REMARK SMILES CCCCCCCCCCC(=O)[O-]
REMARK SMILES IDX 7 1 8 2 9 3 10 4 11 5 12 6 13 7 6 8 5 9 4 10 3 11 2 12 1 13
REMARK H PARENT
REMARK Flexibility Score: inf
ROOT
ATOM      1  C   UNL     1      63.722 131.021  -7.052  1.00  0.00     0.000 C 
ENDROOT
BRANCH   1   2
ATOM      2  C   UNL     1      64.985 131.021  -7.927  1.00  0.00     0.000 C 
BRANCH   2   3
ATOM      3  C   UNL     1      65.601 129.620  -8.079  1.00  0.00     0.006 C 
BRANCH   3   4
ATOM      4  C   UNL     1      66.729 129.370  -7.069  1.00  0.00     0.053 C 
BRANCH   4   5
ATOM      5  C   UNL     1      66.208 128.793  -5.788  1.00  0.00     0.041 C 
ATOM      6  O   UNL     1      66.896 127.957  -5.143  1.00  0.00    -0.550 OA
ATOM      7  O   UNL     1      64.949 129.151  -5.326  1.00  0.00    -0.550 OA
ENDBRANCH   4   5
ENDBRANCH   3   4
ENDBRANCH   2   3
ENDBRANCH   1   2
BRANCH   1   8
ATOM      8  C   UNL     1      62.487 130.490  -7.795  1.00  0.00     0.000 C 
BRANCH   8   9
ATOM      9  C   UNL     1      62.573 128.968  -7.985  1.00  0.00    -0.000 C 
BRANCH   9  10
ATOM     10  C   UNL     1      61.255 128.254  -7.646  1.00  0.00    -0.000 C 
BRANCH  10  11
ATOM     11  C   UNL     1      61.124 127.929  -6.151  1.00  0.00    -0.000 C 
BRANCH  11  12
ATOM     12  C   UNL     1      59.652 127.876  -5.727  1.00  0.00    -0.003 C 
ATOM     13  C   UNL     1      59.510 127.975  -4.211  1.00  0.00     0.004 C 
ENDBRANCH  11  12
ENDBRANCH  10  11
ENDBRANCH   9  10
ENDBRANCH   8   9
ENDBRANCH   1   8
TORSDOF 9
ENDMDL
MODEL 6
REMARK VINA RESULT:    -0.311      1.475      2.241
REMARK INTER + INTRA:          -0.762
REMARK INTER:                  -0.229
REMARK INTRA:                  -0.533
REMARK UNBOUND:                -0.288
REMARK SMILES CCCCCCCCCCC(=O)[O-]
REMARK SMILES IDX 7 1 8 2 9 3 10 4 11 5 12 6 13 7 6 8 5 9 4 10 3 11 2 12 1 13
REMARK H PARENT
REMARK Flexibility Score: inf
ROOT
ATOM      1  C   UNL     1      54.883 146.658  -2.482  1.00  0.00     0.000 C 
ENDROOT
BRANCH   1   2
ATOM      2  C   UNL     1      54.782 148.070  -1.884  1.00  0.00     0.000 C 
BRANCH   2   3
ATOM      3  C   UNL     1      53.924 148.112  -0.607  1.00  0.00     0.006 C 
BRANCH   3   4
ATOM      4  C   UNL     1      52.421 148.091  -0.919  1.00  0.00     0.053 C 
BRANCH   4   5
ATOM      5  C   UNL     1      51.600 147.948   0.326  1.00  0.00     0.041 C 
ATOM      6  O   UNL     1      52.149 147.637   1.417  1.00  0.00    -0.550 OA
ATOM      7  O   UNL     1      50.224 148.124   0.274  1.00  0.00    -0.550 OA
ENDBRANCH   4   5
ENDBRANCH   3   4
ENDBRANCH   2   3
ENDBRANCH   1   2
BRANCH   1   8
ATOM      8  C   UNL     1      54.948 146.669  -4.017  1.00  0.00     0.000 C 
BRANCH   8   9
ATOM      9  C   UNL     1      54.754 148.091  -4.564  1.00  0.00    -0.000 C 
BRANCH   9  10
ATOM     10  C   UNL     1      53.981 148.114  -5.892  1.00  0.00    -0.000 C 
BRANCH  10  11
ATOM     11  C   UNL     1      52.465 147.968  -5.698  1.00  0.00    -0.000 C 
BRANCH  11  12
ATOM     12  C   UNL     1      51.771 147.634  -7.024  1.00  0.00    -0.003 C 
ATOM     13  C   UNL     1      50.316 148.092  -7.016  1.00  0.00     0.004 C 
ENDBRANCH  11  12
ENDBRANCH  10  11
ENDBRANCH   9  10
ENDBRANCH   8   9
ENDBRANCH   1   8
TORSDOF 9
ENDMDL
