MODEL 1
REMARK VINA RESULT:    -5.156      0.000      0.000
REMARK INTER + INTRA:          -8.193
REMARK INTER:                  -7.115
REMARK INTRA:                  -1.078
REMARK UNBOUND:                -1.078
REMARK SMILES CCCCc1cccc(O)c1CCCC
REMARK SMILES IDX 5 1 11 2 9 3 8 4 7 5 6 6 4 7 3 8 2 9 1 10 12 11 13 12 14 13
REMARK SMILES IDX 15 14 10 15
REMARK H PARENT 10 16
REMARK Flexibility Score: inf
ROOT
ATOM      1  C   UNL     1       5.466   5.487 -30.963  1.00  0.00    -0.041 A 
ATOM      2  C   UNL     1       5.047   4.173 -31.325  1.00  0.00    -0.003 A 
ATOM      3  C   UNL     1       3.728   3.760 -30.993  1.00  0.00     0.119 A 
ATOM      4  C   UNL     1       2.892   4.609 -30.262  1.00  0.00     0.046 A 
ATOM      5  C   UNL     1       3.326   5.872 -29.873  1.00  0.00     0.004 A 
ATOM      6  C   UNL     1       4.600   6.310 -30.222  1.00  0.00     0.004 A 
ENDROOT
BRANCH   1   7
ATOM      7  C   UNL     1       6.837   6.035 -31.300  1.00  0.00     0.036 C 
BRANCH   7   8
ATOM      8  C   UNL     1       6.770   6.937 -32.542  1.00  0.00     0.004 C 
BRANCH   8   9
ATOM      9  C   UNL     1       8.151   7.173 -33.171  1.00  0.00    -0.003 C 
ATOM     10  C   UNL     1       9.294   6.696 -32.275  1.00  0.00     0.004 C 
ENDBRANCH   8   9
ENDBRANCH   7   8
ENDBRANCH   1   7
BRANCH   2  11
ATOM     11  C   UNL     1       5.970   3.237 -32.086  1.00  0.00     0.040 C 
BRANCH  11  12
ATOM     12  C   UNL     1       5.838   3.451 -33.599  1.00  0.00     0.005 C 
BRANCH  12  13
ATOM     13  C   UNL     1       6.985   2.767 -34.353  1.00  0.00    -0.003 C 
ATOM     14  C   UNL     1       8.177   3.705 -34.513  1.00  0.00     0.004 C 
ENDBRANCH  12  13
ENDBRANCH  11  12
ENDBRANCH   2  11
BRANCH   3  15
ATOM     15  O   UNL     1       3.205   2.521 -31.374  1.00  0.00    -0.508 OA
ATOM     16  H   UNL     1       3.409   2.064 -32.252  1.00  0.00     0.293 HD
ENDBRANCH   3  15
TORSDOF 7
ENDMDL
MODEL 2
REMARK VINA RESULT:    -5.101      1.402      3.857
REMARK INTER + INTRA:          -8.116
REMARK INTER:                  -7.358
REMARK INTRA:                  -0.759
REMARK UNBOUND:                -1.078
REMARK SMILES CCCCc1cccc(O)c1CCCC
REMARK SMILES IDX 5 1 11 2 9 3 8 4 7 5 6 6 4 7 3 8 2 9 1 10 12 11 13 12 14 13
REMARK SMILES IDX 15 14 10 15
REMARK H PARENT 10 16
REMARK Flexibility Score: inf
ROOT
ATOM      1  C   UNL     1       5.629   5.440 -32.192  1.00  0.00    -0.041 A 
ATOM      2  C   UNL     1       4.724   4.609 -31.469  1.00  0.00    -0.003 A 
ATOM      3  C   UNL     1       4.067   3.553 -32.156  1.00  0.00     0.119 A 
ATOM      4  C   UNL     1       4.258   3.388 -33.531  1.00  0.00     0.046 A 
ATOM      5  C   UNL     1       5.108   4.233 -34.238  1.00  0.00     0.004 A 
ATOM      6  C   UNL     1       5.790   5.248 -33.575  1.00  0.00     0.004 A 
ENDROOT
BRANCH   1   7
ATOM      7  C   UNL     1       6.405   6.570 -31.546  1.00  0.00     0.036 C 
BRANCH   7   8
ATOM      8  C   UNL     1       7.562   7.021 -32.451  1.00  0.00     0.004 C 
BRANCH   8   9
ATOM      9  C   UNL     1       8.894   6.355 -32.077  1.00  0.00    -0.003 C 
ATOM     10  C   UNL     1      10.091   7.003 -32.774  1.00  0.00     0.004 C 
ENDBRANCH   8   9
ENDBRANCH   7   8
ENDBRANCH   1   7
BRANCH   2  11
ATOM     11  C   UNL     1       4.489   4.814 -29.982  1.00  0.00     0.040 C 
BRANCH  11  12
ATOM     12  C   UNL     1       3.380   5.847 -29.741  1.00  0.00     0.005 C 
BRANCH  12  13
ATOM     13  C   UNL     1       2.071   5.162 -29.334  1.00  0.00    -0.003 C 
ATOM     14  C   UNL     1       0.986   5.379 -30.384  1.00  0.00     0.004 C 
ENDBRANCH  12  13
ENDBRANCH  11  12
ENDBRANCH   2  11
BRANCH   3  15
ATOM     15  O   UNL     1       3.224   2.642 -31.515  1.00  0.00    -0.508 OA
ATOM     16  H   UNL     1       2.759   2.821 -30.635  1.00  0.00     0.293 HD
ENDBRANCH   3  15
TORSDOF 7
ENDMDL
MODEL 3
REMARK VINA RESULT:    -5.073      2.368      5.365
REMARK INTER + INTRA:          -8.078
REMARK INTER:                  -6.793
REMARK INTRA:                  -1.284
REMARK UNBOUND:                -1.078
REMARK SMILES CCCCc1cccc(O)c1CCCC
REMARK SMILES IDX 5 1 11 2 9 3 8 4 7 5 6 6 4 7 3 8 2 9 1 10 12 11 13 12 14 13
REMARK SMILES IDX 15 14 10 15
REMARK H PARENT 10 16
REMARK Flexibility Score: inf
ROOT
ATOM      1  C   UNL     1       4.757   3.867 -32.268  1.00  0.00    -0.041 A 
ATOM      2  C   UNL     1       4.894   5.162 -31.686  1.00  0.00    -0.003 A 
ATOM      3  C   UNL     1       6.154   5.815 -31.761  1.00  0.00     0.119 A 
ATOM      4  C   UNL     1       7.249   5.161 -32.332  1.00  0.00     0.046 A 
ATOM      5  C   UNL     1       7.117   3.879 -32.856  1.00  0.00     0.004 A 
ATOM      6  C   UNL     1       5.882   3.238 -32.828  1.00  0.00     0.004 A 
ENDROOT
BRANCH   1   7
ATOM      7  C   UNL     1       3.451   3.101 -32.273  1.00  0.00     0.036 C 
BRANCH   7   8
ATOM      8  C   UNL     1       2.790   3.163 -33.659  1.00  0.00     0.004 C 
BRANCH   8   9
ATOM      9  C   UNL     1       1.902   4.403 -33.832  1.00  0.00    -0.003 C 
ATOM     10  C   UNL     1       2.560   5.482 -34.693  1.00  0.00     0.004 C 
ENDBRANCH   8   9
ENDBRANCH   7   8
ENDBRANCH   1   7
BRANCH   2  11
ATOM     11  C   UNL     1       3.712   5.855 -31.031  1.00  0.00     0.040 C 
BRANCH  11  12
ATOM     12  C   UNL     1       3.661   5.549 -29.529  1.00  0.00     0.005 C 
BRANCH  12  13
ATOM     13  C   UNL     1       2.248   5.136 -29.101  1.00  0.00    -0.003 C 
ATOM     14  C   UNL     1       1.251   5.314 -30.241  1.00  0.00     0.004 C 
ENDBRANCH  12  13
ENDBRANCH  11  12
ENDBRANCH   2  11
BRANCH   3  15
ATOM     15  O   UNL     1       6.361   7.114 -31.287  1.00  0.00    -0.508 OA
ATOM     16  H   UNL     1       6.032   7.948 -31.754  1.00  0.00     0.293 HD
ENDBRANCH   3  15
TORSDOF 7
ENDMDL
MODEL 4
REMARK VINA RESULT:    -5.068      2.128      4.043
REMARK INTER + INTRA:          -8.072
REMARK INTER:                  -6.915
REMARK INTRA:                  -1.156
REMARK UNBOUND:                -1.078
REMARK SMILES CCCCc1cccc(O)c1CCCC
REMARK SMILES IDX 5 1 11 2 9 3 8 4 7 5 6 6 4 7 3 8 2 9 1 10 12 11 13 12 14 13
REMARK SMILES IDX 15 14 10 15
REMARK H PARENT 10 16
REMARK Flexibility Score: inf
ROOT
ATOM      1  C   UNL     1       3.865   3.976 -31.223  1.00  0.00    -0.041 A 
ATOM      2  C   UNL     1       4.888   4.932 -30.950  1.00  0.00    -0.003 A 
ATOM      3  C   UNL     1       4.675   5.884 -29.916  1.00  0.00     0.119 A 
ATOM      4  C   UNL     1       3.454   5.919 -29.238  1.00  0.00     0.046 A 
ATOM      5  C   UNL     1       2.444   5.012 -29.543  1.00  0.00     0.004 A 
ATOM      6  C   UNL     1       2.648   4.046 -30.524  1.00  0.00     0.004 A 
ENDROOT
BRANCH   1   7
ATOM      7  C   UNL     1       4.007   2.898 -32.278  1.00  0.00     0.036 C 
BRANCH   7   8
ATOM      8  C   UNL     1       2.896   3.021 -33.332  1.00  0.00     0.004 C 
BRANCH   8   9
ATOM      9  C   UNL     1       3.005   4.315 -34.153  1.00  0.00    -0.003 C 
ATOM     10  C   UNL     1       1.763   5.198 -34.025  1.00  0.00     0.004 C 
ENDBRANCH   8   9
ENDBRANCH   7   8
ENDBRANCH   1   7
BRANCH   2  11
ATOM     11  C   UNL     1       6.200   4.916 -31.715  1.00  0.00     0.040 C 
BRANCH  11  12
ATOM     12  C   UNL     1       6.161   5.903 -32.888  1.00  0.00     0.005 C 
BRANCH  12  13
ATOM     13  C   UNL     1       7.212   7.005 -32.715  1.00  0.00    -0.003 C 
ATOM     14  C   UNL     1       8.474   6.464 -32.050  1.00  0.00     0.004 C 
ENDBRANCH  12  13
ENDBRANCH  11  12
ENDBRANCH   2  11
BRANCH   3  15
ATOM     15  O   UNL     1       5.649   6.808 -29.527  1.00  0.00    -0.508 OA
ATOM     16  H   UNL     1       6.631   6.591 -29.430  1.00  0.00     0.293 HD
ENDBRANCH   3  15
TORSDOF 7
ENDMDL
MODEL 5
REMARK VINA RESULT:    -5.066      1.975      4.493
REMARK INTER + INTRA:          -8.069
REMARK INTER:                  -6.933
REMARK INTRA:                  -1.136
REMARK UNBOUND:                -1.078
REMARK SMILES CCCCc1cccc(O)c1CCCC
REMARK SMILES IDX 5 1 11 2 9 3 8 4 7 5 6 6 4 7 3 8 2 9 1 10 12 11 13 12 14 13
REMARK SMILES IDX 15 14 10 15
REMARK H PARENT 10 16
REMARK Flexibility Score: inf
ROOT
ATOM      1  C   UNL     1       5.196   5.594 -31.354  1.00  0.00    -0.041 A 
ATOM      2  C   UNL     1       5.283   4.298 -31.943  1.00  0.00    -0.003 A 
ATOM      3  C   UNL     1       6.526   3.879 -32.492  1.00  0.00     0.119 A 
ATOM      4  C   UNL     1       7.613   4.758 -32.514  1.00  0.00     0.046 A 
ATOM      5  C   UNL     1       7.503   6.037 -31.979  1.00  0.00     0.004 A 
ATOM      6  C   UNL     1       6.307   6.452 -31.401  1.00  0.00     0.004 A 
ENDROOT
BRANCH   1   7
ATOM      7  C   UNL     1       3.929   6.121 -30.712  1.00  0.00     0.036 C 
BRANCH   7   8
ATOM      8  C   UNL     1       3.760   5.548 -29.296  1.00  0.00     0.004 C 
BRANCH   8   9
ATOM      9  C   UNL     1       2.317   5.111 -29.008  1.00  0.00    -0.003 C 
ATOM     10  C   UNL     1       1.370   5.405 -30.172  1.00  0.00     0.004 C 
ENDBRANCH   8   9
ENDBRANCH   7   8
ENDBRANCH   1   7
BRANCH   2  11
ATOM     11  C   UNL     1       4.090   3.358 -31.953  1.00  0.00     0.040 C 
BRANCH  11  12
ATOM     12  C   UNL     1       3.451   3.300 -33.345  1.00  0.00     0.005 C 
BRANCH  12  13
ATOM     13  C   UNL     1       2.278   4.282 -33.454  1.00  0.00    -0.003 C 
ATOM     14  C   UNL     1       2.653   5.497 -34.295  1.00  0.00     0.004 C 
ENDBRANCH  12  13
ENDBRANCH  11  12
ENDBRANCH   2  11
BRANCH   3  15
ATOM     15  O   UNL     1       6.727   2.601 -33.020  1.00  0.00    -0.508 OA
ATOM     16  H   UNL     1       6.283   1.765 -32.667  1.00  0.00     0.293 HD
ENDBRANCH   3  15
TORSDOF 7
ENDMDL
MODEL 6
REMARK VINA RESULT:    -5.013      2.165      3.027
REMARK INTER + INTRA:          -7.996
REMARK INTER:                  -6.762
REMARK INTRA:                  -1.234
REMARK UNBOUND:                -1.078
REMARK SMILES CCCCc1cccc(O)c1CCCC
REMARK SMILES IDX 5 1 11 2 9 3 8 4 7 5 6 6 4 7 3 8 2 9 1 10 12 11 13 12 14 13
REMARK SMILES IDX 15 14 10 15
REMARK H PARENT 10 16
REMARK Flexibility Score: inf
ROOT
ATOM      1  C   UNL     1       3.793   4.115 -31.228  1.00  0.00    -0.041 A 
ATOM      2  C   UNL     1       2.602   4.404 -31.957  1.00  0.00    -0.003 A 
ATOM      3  C   UNL     1       1.563   5.128 -31.310  1.00  0.00     0.119 A 
ATOM      4  C   UNL     1       1.689   5.481 -29.964  1.00  0.00     0.046 A 
ATOM      5  C   UNL     1       2.836   5.153 -29.248  1.00  0.00     0.004 A 
ATOM      6  C   UNL     1       3.880   4.479 -29.873  1.00  0.00     0.004 A 
ENDROOT
BRANCH   1   7
ATOM      7  C   UNL     1       4.970   3.381 -31.834  1.00  0.00     0.036 C 
BRANCH   7   8
ATOM      8  C   UNL     1       6.296   4.010 -31.377  1.00  0.00     0.004 C 
BRANCH   8   9
ATOM      9  C   UNL     1       6.669   5.253 -32.197  1.00  0.00    -0.003 C 
ATOM     10  C   UNL     1       6.575   6.544 -31.382  1.00  0.00     0.004 C 
ENDBRANCH   8   9
ENDBRANCH   7   8
ENDBRANCH   1   7
BRANCH   2  11
ATOM     11  C   UNL     1       2.451   3.987 -33.409  1.00  0.00     0.040 C 
BRANCH  11  12
ATOM     12  C   UNL     1       2.754   5.159 -34.350  1.00  0.00     0.005 C 
BRANCH  12  13
ATOM     13  C   UNL     1       4.086   4.949 -35.078  1.00  0.00    -0.003 C 
ATOM     14  C   UNL     1       4.899   6.240 -35.125  1.00  0.00     0.004 C 
ENDBRANCH  12  13
ENDBRANCH  11  12
ENDBRANCH   2  11
BRANCH   3  15
ATOM     15  O   UNL     1       0.394   5.523 -31.967  1.00  0.00    -0.508 OA
ATOM     16  H   UNL     1       0.247   6.442 -32.360  1.00  0.00     0.293 HD
ENDBRANCH   3  15
TORSDOF 7
ENDMDL
MODEL 7
REMARK VINA RESULT:    -4.766      1.369      3.390
REMARK INTER + INTRA:          -7.654
REMARK INTER:                  -6.537
REMARK INTRA:                  -1.117
REMARK UNBOUND:                -1.078
REMARK SMILES CCCCc1cccc(O)c1CCCC
REMARK SMILES IDX 5 1 11 2 9 3 8 4 7 5 6 6 4 7 3 8 2 9 1 10 12 11 13 12 14 13
REMARK SMILES IDX 15 14 10 15
REMARK H PARENT 10 16
REMARK Flexibility Score: inf
ROOT
ATOM      1  C   UNL     1       5.158   3.803 -31.675  1.00  0.00    -0.041 A 
ATOM      2  C   UNL     1       5.413   5.115 -31.177  1.00  0.00    -0.003 A 
ATOM      3  C   UNL     1       4.416   5.752 -30.389  1.00  0.00     0.119 A 
ATOM      4  C   UNL     1       3.185   5.124 -30.176  1.00  0.00     0.046 A 
ATOM      5  C   UNL     1       2.929   3.864 -30.705  1.00  0.00     0.004 A 
ATOM      6  C   UNL     1       3.907   3.206 -31.446  1.00  0.00     0.004 A 
ENDROOT
BRANCH   1   7
ATOM      7  C   UNL     1       6.167   3.024 -32.494  1.00  0.00     0.036 C 
BRANCH   7   8
ATOM      8  C   UNL     1       5.869   3.160 -33.995  1.00  0.00     0.004 C 
BRANCH   8   9
ATOM      9  C   UNL     1       7.074   2.787 -34.870  1.00  0.00    -0.003 C 
ATOM     10  C   UNL     1       8.316   3.618 -34.544  1.00  0.00     0.004 C 
ENDBRANCH   8   9
ENDBRANCH   7   8
ENDBRANCH   1   7
BRANCH   2  11
ATOM     11  C   UNL     1       6.736   5.811 -31.442  1.00  0.00     0.040 C 
BRANCH  11  12
ATOM     12  C   UNL     1       6.693   6.581 -32.769  1.00  0.00     0.005 C 
BRANCH  12  13
ATOM     13  C   UNL     1       8.079   7.127 -33.132  1.00  0.00    -0.003 C 
ATOM     14  C   UNL     1       9.159   6.535 -32.232  1.00  0.00     0.004 C 
ENDBRANCH  12  13
ENDBRANCH  11  12
ENDBRANCH   2  11
BRANCH   3  15
ATOM     15  O   UNL     1       4.606   7.003 -29.796  1.00  0.00    -0.508 OA
ATOM     16  H   UNL     1       5.406   7.597 -29.967  1.00  0.00     0.293 HD
ENDBRANCH   3  15
TORSDOF 7
ENDMDL
MODEL 8
REMARK VINA RESULT:    -4.642      2.308      4.748
REMARK INTER + INTRA:          -7.484
REMARK INTER:                  -6.549
REMARK INTRA:                  -0.935
REMARK UNBOUND:                -1.078
REMARK SMILES CCCCc1cccc(O)c1CCCC
REMARK SMILES IDX 5 1 11 2 9 3 8 4 7 5 6 6 4 7 3 8 2 9 1 10 12 11 13 12 14 13
REMARK SMILES IDX 15 14 10 15
REMARK H PARENT 10 16
REMARK Flexibility Score: inf
ROOT
ATOM      1  C   UNL     1       4.091   4.371 -32.038  1.00  0.00    -0.041 A 
ATOM      2  C   UNL     1       4.945   5.400 -32.533  1.00  0.00    -0.003 A 
ATOM      3  C   UNL     1       4.854   5.762 -33.904  1.00  0.00     0.119 A 
ATOM      4  C   UNL     1       3.992   5.067 -34.757  1.00  0.00     0.046 A 
ATOM      5  C   UNL     1       3.197   4.033 -34.273  1.00  0.00     0.004 A 
ATOM      6  C   UNL     1       3.242   3.689 -32.926  1.00  0.00     0.004 A 
ENDROOT
BRANCH   1   7
ATOM      7  C   UNL     1       4.084   3.934 -30.587  1.00  0.00     0.036 C 
BRANCH   7   8
ATOM      8  C   UNL     1       2.648   3.873 -30.045  1.00  0.00     0.004 C 
BRANCH   8   9
ATOM      9  C   UNL     1       2.056   5.267 -29.791  1.00  0.00    -0.003 C 
ATOM     10  C   UNL     1       0.697   5.459 -30.464  1.00  0.00     0.004 C 
ENDBRANCH   8   9
ENDBRANCH   7   8
ENDBRANCH   1   7
BRANCH   2  11
ATOM     11  C   UNL     1       5.909   6.129 -31.613  1.00  0.00     0.040 C 
BRANCH  11  12
ATOM     12  C   UNL     1       7.310   5.510 -31.686  1.00  0.00     0.005 C 
BRANCH  12  13
ATOM     13  C   UNL     1       8.339   6.534 -32.178  1.00  0.00    -0.003 C 
ATOM     14  C   UNL     1       9.211   5.952 -33.286  1.00  0.00     0.004 C 
ENDBRANCH  12  13
ENDBRANCH  11  12
ENDBRANCH   2  11
BRANCH   3  15
ATOM     15  O   UNL     1       5.595   6.809 -34.460  1.00  0.00    -0.508 OA
ATOM     16  H   UNL     1       6.078   6.755 -35.347  1.00  0.00     0.293 HD
ENDBRANCH   3  15
TORSDOF 7
ENDMDL
MODEL 9
REMARK VINA RESULT:    -4.633      1.512      2.221
REMARK INTER + INTRA:          -7.471
REMARK INTER:                  -6.778
REMARK INTRA:                  -0.693
REMARK UNBOUND:                -1.078
REMARK SMILES CCCCc1cccc(O)c1CCCC
REMARK SMILES IDX 5 1 11 2 9 3 8 4 7 5 6 6 4 7 3 8 2 9 1 10 12 11 13 12 14 13
REMARK SMILES IDX 15 14 10 15
REMARK H PARENT 10 16
REMARK Flexibility Score: inf
ROOT
ATOM      1  C   UNL     1       5.462   5.520 -31.862  1.00  0.00    -0.041 A 
ATOM      2  C   UNL     1       4.758   4.279 -31.882  1.00  0.00    -0.003 A 
ATOM      3  C   UNL     1       3.794   4.025 -30.869  1.00  0.00     0.119 A 
ATOM      4  C   UNL     1       3.600   4.949 -29.839  1.00  0.00     0.046 A 
ATOM      5  C   UNL     1       4.325   6.137 -29.803  1.00  0.00     0.004 A 
ATOM      6  C   UNL     1       5.245   6.422 -30.807  1.00  0.00     0.004 A 
ENDROOT
BRANCH   1   7
ATOM      7  C   UNL     1       6.483   5.903 -32.913  1.00  0.00     0.036 C 
BRANCH   7   8
ATOM      8  C   UNL     1       7.523   6.873 -32.332  1.00  0.00     0.004 C 
BRANCH   8   9
ATOM      9  C   UNL     1       8.892   6.211 -32.122  1.00  0.00    -0.003 C 
ATOM     10  C   UNL     1      10.038   7.027 -32.722  1.00  0.00     0.004 C 
ENDBRANCH   8   9
ENDBRANCH   7   8
ENDBRANCH   1   7
BRANCH   2  11
ATOM     11  C   UNL     1       4.998   3.259 -32.981  1.00  0.00     0.040 C 
BRANCH  11  12
ATOM     12  C   UNL     1       4.272   3.663 -34.270  1.00  0.00     0.005 C 
BRANCH  12  13
ATOM     13  C   UNL     1       2.803   3.228 -34.234  1.00  0.00    -0.003 C 
ATOM     14  C   UNL     1       1.873   4.433 -34.134  1.00  0.00     0.004 C 
ENDBRANCH  12  13
ENDBRANCH  11  12
ENDBRANCH   2  11
BRANCH   3  15
ATOM     15  O   UNL     1       3.003   2.873 -30.851  1.00  0.00    -0.508 OA
ATOM     16  H   UNL     1       2.171   2.764 -30.286  1.00  0.00     0.293 HD
ENDBRANCH   3  15
TORSDOF 7
ENDMDL
