MODEL 1
REMARK VINA RESULT:    -4.178      0.000      0.000
REMARK INTER + INTRA:          -6.180
REMARK INTER:                  -5.644
REMARK INTRA:                  -0.536
REMARK UNBOUND:                -0.536
REMARK SMILES [NH3+]CCCC[C@@H]([NH3+])C(=O)[O-]
REMARK SMILES IDX 4 1 3 2 2 3 1 4 5 8 6 9 7 10 8 14 9 15 10 16
REMARK H PARENT 1 5 1 6 1 7 7 11 7 12 7 13
REMARK Flexibility Score: inf
ROOT
ATOM      1  C   UNL     1     189.004 192.853  83.614  1.00  0.00     0.012 C 
ENDROOT
BRANCH   1   2
ATOM      2  C   UNL     1     188.460 193.940  84.550  1.00  0.00     0.061 C 
BRANCH   2   3
ATOM      3  C   UNL     1     187.777 195.062  83.757  1.00  0.00     0.258 C 
BRANCH   3   4
ATOM      4  N   UNL     1     188.581 196.284  83.784  1.00  0.00    -0.358 N 
ATOM      5  H   UNL     1     187.997 197.092  84.098  1.00  0.00     0.344 HD
ATOM      6  H   UNL     1     189.396 196.164  84.429  1.00  0.00     0.344 HD
ATOM      7  H   UNL     1     188.939 196.479  82.821  1.00  0.00     0.344 HD
ENDBRANCH   3   4
ENDBRANCH   2   3
ENDBRANCH   1   2
BRANCH   1   8
ATOM      8  C   UNL     1     190.429 192.442  84.020  1.00  0.00     0.072 C 
BRANCH   8   9
ATOM      9  C   UNL     1     191.415 193.625  84.165  1.00  0.00     0.227 C 
BRANCH   9  10
ATOM     10  N   UNL     1     192.674 193.219  84.806  1.00  0.00    -0.350 N 
ATOM     11  H   UNL     1     193.439 193.880  84.539  1.00  0.00     0.345 HD
ATOM     12  H   UNL     1     192.584 193.200  85.847  1.00  0.00     0.345 HD
ATOM     13  H   UNL     1     192.939 192.263  84.476  1.00  0.00     0.345 HD
ENDBRANCH   9  10
BRANCH   9  14
ATOM     14  C   UNL     1     191.665 194.304  82.841  1.00  0.00     0.099 C 
ATOM     15  O   UNL     1     191.307 195.499  82.672  1.00  0.00    -0.544 OA
ATOM     16  O   UNL     1     192.244 193.609  81.785  1.00  0.00    -0.544 OA
ENDBRANCH   9  14
ENDBRANCH   8   9
ENDBRANCH   1   8
TORSDOF 7
ENDMDL
MODEL 2
REMARK VINA RESULT:    -3.942      2.173      3.361
REMARK INTER + INTRA:          -5.860
REMARK INTER:                  -5.314
REMARK INTRA:                  -0.546
REMARK UNBOUND:                -0.536
REMARK SMILES [NH3+]CCCC[C@@H]([NH3+])C(=O)[O-]
REMARK SMILES IDX 4 1 3 2 2 3 1 4 5 8 6 9 7 10 8 14 9 15 10 16
REMARK H PARENT 1 5 1 6 1 7 7 11 7 12 7 13
REMARK Flexibility Score: inf
ROOT
ATOM      1  C   UNL     1     191.962 193.638  82.291  1.00  0.00     0.012 C 
ENDROOT
BRANCH   1   2
ATOM      2  C   UNL     1     191.863 195.024  81.640  1.00  0.00     0.061 C 
BRANCH   2   3
ATOM      3  C   UNL     1     192.066 196.138  82.675  1.00  0.00     0.258 C 
BRANCH   3   4
ATOM      4  N   UNL     1     190.783 196.617  83.186  1.00  0.00    -0.358 N 
ATOM      5  H   UNL     1     190.509 196.076  84.037  1.00  0.00     0.344 HD
ATOM      6  H   UNL     1     190.846 197.635  83.419  1.00  0.00     0.344 HD
ATOM      7  H   UNL     1     190.051 196.485  82.450  1.00  0.00     0.344 HD
ENDBRANCH   3   4
ENDBRANCH   2   3
ENDBRANCH   1   2
BRANCH   1   8
ATOM      8  C   UNL     1     190.564 193.073  82.595  1.00  0.00     0.072 C 
BRANCH   8   9
ATOM      9  C   UNL     1     190.262 192.900  84.102  1.00  0.00     0.227 C 
BRANCH   9  10
ATOM     10  N   UNL     1     191.435 193.194  84.937  1.00  0.00    -0.350 N 
ATOM     11  H   UNL     1     191.605 192.407  85.605  1.00  0.00     0.345 HD
ATOM     12  H   UNL     1     192.291 193.343  84.355  1.00  0.00     0.345 HD
ATOM     13  H   UNL     1     191.256 194.061  85.494  1.00  0.00     0.345 HD
ENDBRANCH   9  10
BRANCH   9  14
ATOM     14  C   UNL     1     189.066 193.715  84.525  1.00  0.00     0.099 C 
ATOM     15  O   UNL     1     188.781 194.776  83.909  1.00  0.00    -0.544 OA
ATOM     16  O   UNL     1     188.300 193.336  85.622  1.00  0.00    -0.544 OA
ENDBRANCH   9  14
ENDBRANCH   8   9
ENDBRANCH   1   8
TORSDOF 7
ENDMDL
MODEL 3
REMARK VINA RESULT:    -3.924      1.842      2.099
REMARK INTER + INTRA:          -5.837
REMARK INTER:                  -5.644
REMARK INTRA:                  -0.193
REMARK UNBOUND:                -0.536
REMARK SMILES [NH3+]CCCC[C@@H]([NH3+])C(=O)[O-]
REMARK SMILES IDX 4 1 3 2 2 3 1 4 5 8 6 9 7 10 8 14 9 15 10 16
REMARK H PARENT 1 5 1 6 1 7 7 11 7 12 7 13
REMARK Flexibility Score: inf
ROOT
ATOM      1  C   UNL     1     190.654 192.895  84.589  1.00  0.00     0.012 C 
ENDROOT
BRANCH   1   2
ATOM      2  C   UNL     1     189.423 193.717  84.188  1.00  0.00     0.061 C 
BRANCH   2   3
ATOM      3  C   UNL     1     188.256 193.474  85.154  1.00  0.00     0.258 C 
BRANCH   3   4
ATOM      4  N   UNL     1     187.866 194.713  85.825  1.00  0.00    -0.358 N 
ATOM      5  H   UNL     1     188.559 195.467  85.619  1.00  0.00     0.344 HD
ATOM      6  H   UNL     1     186.915 195.010  85.507  1.00  0.00     0.344 HD
ATOM      7  H   UNL     1     187.840 194.550  86.858  1.00  0.00     0.344 HD
ENDBRANCH   3   4
ENDBRANCH   2   3
ENDBRANCH   1   2
BRANCH   1   8
ATOM      8  C   UNL     1     191.936 193.497  83.989  1.00  0.00     0.072 C 
BRANCH   8   9
ATOM      9  C   UNL     1     191.690 194.493  82.832  1.00  0.00     0.227 C 
BRANCH   9  10
ATOM     10  N   UNL     1     192.382 195.771  83.046  1.00  0.00    -0.350 N 
ATOM     11  H   UNL     1     192.127 196.162  83.983  1.00  0.00     0.345 HD
ATOM     12  H   UNL     1     193.420 195.658  82.992  1.00  0.00     0.345 HD
ATOM     13  H   UNL     1     192.082 196.456  82.315  1.00  0.00     0.345 HD
ENDBRANCH   9  10
BRANCH   9  14
ATOM     14  C   UNL     1     192.049 193.890  81.497  1.00  0.00     0.099 C 
ATOM     15  O   UNL     1     192.983 194.387  80.815  1.00  0.00    -0.544 OA
ATOM     16  O   UNL     1     191.326 192.818  80.984  1.00  0.00    -0.544 OA
ENDBRANCH   9  14
ENDBRANCH   8   9
ENDBRANCH   1   8
TORSDOF 7
ENDMDL
MODEL 4
REMARK VINA RESULT:    -3.885     17.475     18.221
REMARK INTER + INTRA:          -5.783
REMARK INTER:                  -5.270
REMARK INTRA:                  -0.513
REMARK UNBOUND:                -0.536
REMARK SMILES [NH3+]CCCC[C@@H]([NH3+])C(=O)[O-]
REMARK SMILES IDX 4 1 3 2 2 3 1 4 5 8 6 9 7 10 8 14 9 15 10 16
REMARK H PARENT 1 5 1 6 1 7 7 11 7 12 7 13
REMARK Flexibility Score: inf
ROOT
ATOM      1  C   UNL     1     186.274 206.950  95.990  1.00  0.00     0.012 C 
ENDROOT
BRANCH   1   2
ATOM      2  C   UNL     1     187.569 206.994  95.170  1.00  0.00     0.061 C 
BRANCH   2   3
ATOM      3  C   UNL     1     188.399 208.239  95.512  1.00  0.00     0.258 C 
BRANCH   3   4
ATOM      4  N   UNL     1     188.248 209.267  94.483  1.00  0.00    -0.358 N 
ATOM      5  H   UNL     1     188.246 210.216  94.921  1.00  0.00     0.344 HD
ATOM      6  H   UNL     1     189.028 209.198  93.790  1.00  0.00     0.344 HD
ATOM      7  H   UNL     1     187.340 209.122  93.985  1.00  0.00     0.344 HD
ENDBRANCH   3   4
ENDBRANCH   2   3
ENDBRANCH   1   2
BRANCH   1   8
ATOM      8  C   UNL     1     185.070 207.388  95.139  1.00  0.00     0.072 C 
BRANCH   8   9
ATOM      9  C   UNL     1     185.298 207.284  93.613  1.00  0.00     0.227 C 
BRANCH   9  10
ATOM     10  N   UNL     1     184.659 206.092  93.040  1.00  0.00    -0.350 N 
ATOM     11  H   UNL     1     185.005 205.936  92.065  1.00  0.00     0.345 HD
ATOM     12  H   UNL     1     184.854 205.240  93.614  1.00  0.00     0.345 HD
ATOM     13  H   UNL     1     183.624 206.238  92.998  1.00  0.00     0.345 HD
ENDBRANCH   9  10
BRANCH   9  14
ATOM     14  C   UNL     1     184.861 208.540  92.901  1.00  0.00     0.099 C 
ATOM     15  O   UNL     1     185.629 209.537  92.858  1.00  0.00    -0.544 OA
ATOM     16  O   UNL     1     183.595 208.629  92.331  1.00  0.00    -0.544 OA
ENDBRANCH   9  14
ENDBRANCH   8   9
ENDBRANCH   1   8
TORSDOF 7
ENDMDL
MODEL 5
REMARK VINA RESULT:    -3.881      2.481      3.223
REMARK INTER + INTRA:          -5.778
REMARK INTER:                  -5.544
REMARK INTRA:                  -0.235
REMARK UNBOUND:                -0.536
REMARK SMILES [NH3+]CCCC[C@@H]([NH3+])C(=O)[O-]
REMARK SMILES IDX 4 1 3 2 2 3 1 4 5 8 6 9 7 10 8 14 9 15 10 16
REMARK H PARENT 1 5 1 6 1 7 7 11 7 12 7 13
REMARK Flexibility Score: inf
ROOT
ATOM      1  C   UNL     1     190.043 192.957  82.543  1.00  0.00     0.012 C 
ENDROOT
BRANCH   1   2
ATOM      2  C   UNL     1     190.468 193.734  83.796  1.00  0.00     0.061 C 
BRANCH   2   3
ATOM      3  C   UNL     1     191.250 192.837  84.764  1.00  0.00     0.258 C 
BRANCH   3   4
ATOM      4  N   UNL     1     192.651 193.249  84.842  1.00  0.00    -0.358 N 
ATOM      5  H   UNL     1     192.817 193.794  85.718  1.00  0.00     0.344 HD
ATOM      6  H   UNL     1     193.274 192.409  84.824  1.00  0.00     0.344 HD
ATOM      7  H   UNL     1     192.876 193.854  84.019  1.00  0.00     0.344 HD
ENDBRANCH   3   4
ENDBRANCH   2   3
ENDBRANCH   1   2
BRANCH   1   8
ATOM      8  C   UNL     1     190.662 193.575  81.278  1.00  0.00     0.072 C 
BRANCH   8   9
ATOM      9  C   UNL     1     191.836 194.544  81.552  1.00  0.00     0.227 C 
BRANCH   9  10
ATOM     10  N   UNL     1     193.125 193.985  81.122  1.00  0.00    -0.350 N 
ATOM     11  H   UNL     1     193.504 194.540  80.320  1.00  0.00     0.345 HD
ATOM     12  H   UNL     1     193.822 193.987  81.902  1.00  0.00     0.345 HD
ATOM     13  H   UNL     1     192.987 193.000  80.800  1.00  0.00     0.345 HD
ENDBRANCH   9  10
BRANCH   9  14
ATOM     14  C   UNL     1     191.591 195.899  80.938  1.00  0.00     0.099 C 
ATOM     15  O   UNL     1     191.658 196.934  81.653  1.00  0.00    -0.544 OA
ATOM     16  O   UNL     1     191.241 196.019  79.597  1.00  0.00    -0.544 OA
ENDBRANCH   9  14
ENDBRANCH   8   9
ENDBRANCH   1   8
TORSDOF 7
ENDMDL
MODEL 6
REMARK VINA RESULT:    -3.875      1.876      2.247
REMARK INTER + INTRA:          -5.770
REMARK INTER:                  -5.340
REMARK INTRA:                  -0.430
REMARK UNBOUND:                -0.536
REMARK SMILES [NH3+]CCCC[C@@H]([NH3+])C(=O)[O-]
REMARK SMILES IDX 4 1 3 2 2 3 1 4 5 8 6 9 7 10 8 14 9 15 10 16
REMARK H PARENT 1 5 1 6 1 7 7 11 7 12 7 13
REMARK Flexibility Score: inf
ROOT
ATOM      1  C   UNL     1     190.197 192.874  83.013  1.00  0.00     0.012 C 
ENDROOT
BRANCH   1   2
ATOM      2  C   UNL     1     189.639 193.918  83.987  1.00  0.00     0.061 C 
BRANCH   2   3
ATOM      3  C   UNL     1     188.515 194.737  83.338  1.00  0.00     0.258 C 
BRANCH   3   4
ATOM      4  N   UNL     1     188.606 196.145  83.721  1.00  0.00    -0.358 N 
ATOM      5  H   UNL     1     189.459 196.305  84.304  1.00  0.00     0.344 HD
ATOM      6  H   UNL     1     188.643 196.748  82.867  1.00  0.00     0.344 HD
ATOM      7  H   UNL     1     187.760 196.403  84.279  1.00  0.00     0.344 HD
ENDBRANCH   3   4
ENDBRANCH   2   3
ENDBRANCH   1   2
BRANCH   1   8
ATOM      8  C   UNL     1     190.755 193.546  81.747  1.00  0.00     0.072 C 
BRANCH   8   9
ATOM      9  C   UNL     1     192.009 194.418  81.991  1.00  0.00     0.227 C 
BRANCH   9  10
ATOM     10  N   UNL     1     193.123 194.041  81.111  1.00  0.00    -0.350 N 
ATOM     11  H   UNL     1     193.847 193.519  81.656  1.00  0.00     0.345 HD
ATOM     12  H   UNL     1     192.798 193.447  80.314  1.00  0.00     0.345 HD
ATOM     13  H   UNL     1     193.568 194.905  80.723  1.00  0.00     0.345 HD
ENDBRANCH   9  10
BRANCH   9  14
ATOM     14  C   UNL     1     191.691 195.888  81.878  1.00  0.00     0.099 C 
ATOM     15  O   UNL     1     191.539 196.411  80.742  1.00  0.00    -0.544 OA
ATOM     16  O   UNL     1     191.613 196.688  83.013  1.00  0.00    -0.544 OA
ENDBRANCH   9  14
ENDBRANCH   8   9
ENDBRANCH   1   8
TORSDOF 7
ENDMDL
MODEL 7
REMARK VINA RESULT:    -3.830     17.170     17.963
REMARK INTER + INTRA:          -5.710
REMARK INTER:                  -5.176
REMARK INTRA:                  -0.534
REMARK UNBOUND:                -0.536
REMARK SMILES [NH3+]CCCC[C@@H]([NH3+])C(=O)[O-]
REMARK SMILES IDX 4 1 3 2 2 3 1 4 5 8 6 9 7 10 8 14 9 15 10 16
REMARK H PARENT 1 5 1 6 1 7 7 11 7 12 7 13
REMARK Flexibility Score: inf
ROOT
ATOM      1  C   UNL     1     187.380 206.386  95.365  1.00  0.00     0.012 C 
ENDROOT
BRANCH   1   2
ATOM      2  C   UNL     1     186.031 206.717  96.016  1.00  0.00     0.061 C 
BRANCH   2   3
ATOM      3  C   UNL     1     184.880 205.997  95.301  1.00  0.00     0.258 C 
BRANCH   3   4
ATOM      4  N   UNL     1     185.174 205.827  93.878  1.00  0.00    -0.358 N 
ATOM      5  H   UNL     1     184.639 205.015  93.495  1.00  0.00     0.344 HD
ATOM      6  H   UNL     1     184.922 206.696  93.353  1.00  0.00     0.344 HD
ATOM      7  H   UNL     1     186.197 205.646  93.759  1.00  0.00     0.344 HD
ENDBRANCH   3   4
ENDBRANCH   2   3
ENDBRANCH   1   2
BRANCH   1   8
ATOM      8  C   UNL     1     188.171 207.668  95.057  1.00  0.00     0.072 C 
BRANCH   8   9
ATOM      9  C   UNL     1     187.302 208.848  94.562  1.00  0.00     0.227 C 
BRANCH   9  10
ATOM     10  N   UNL     1     187.703 210.123  95.172  1.00  0.00    -0.350 N 
ATOM     11  H   UNL     1     187.061 210.887  94.856  1.00  0.00     0.345 HD
ATOM     12  H   UNL     1     187.687 210.069  96.216  1.00  0.00     0.345 HD
ATOM     13  H   UNL     1     188.673 210.365  94.865  1.00  0.00     0.345 HD
ENDBRANCH   9  10
BRANCH   9  14
ATOM     14  C   UNL     1     187.295 208.936  93.056  1.00  0.00     0.099 C 
ATOM     15  O   UNL     1     188.014 209.791  92.475  1.00  0.00    -0.544 OA
ATOM     16  O   UNL     1     186.464 208.116  92.300  1.00  0.00    -0.544 OA
ENDBRANCH   9  14
ENDBRANCH   8   9
ENDBRANCH   1   8
TORSDOF 7
ENDMDL
MODEL 8
REMARK VINA RESULT:    -3.766     13.567     14.662
REMARK INTER + INTRA:          -5.623
REMARK INTER:                  -5.103
REMARK INTRA:                  -0.520
REMARK UNBOUND:                -0.536
REMARK SMILES [NH3+]CCCC[C@@H]([NH3+])C(=O)[O-]
REMARK SMILES IDX 4 1 3 2 2 3 1 4 5 8 6 9 7 10 8 14 9 15 10 16
REMARK H PARENT 1 5 1 6 1 7 7 11 7 12 7 13
REMARK Flexibility Score: inf
ROOT
ATOM      1  C   UNL     1     178.649 201.618  87.168  1.00  0.00     0.012 C 
ENDROOT
BRANCH   1   2
ATOM      2  C   UNL     1     179.307 202.253  85.937  1.00  0.00     0.061 C 
BRANCH   2   3
ATOM      3  C   UNL     1     180.836 202.159  86.016  1.00  0.00     0.258 C 
BRANCH   3   4
ATOM      4  N   UNL     1     181.448 203.482  85.900  1.00  0.00    -0.358 N 
ATOM      5  H   UNL     1     182.005 203.698  86.758  1.00  0.00     0.344 HD
ATOM      6  H   UNL     1     182.067 203.519  85.057  1.00  0.00     0.344 HD
ATOM      7  H   UNL     1     180.694 204.200  85.796  1.00  0.00     0.344 HD
ENDBRANCH   3   4
ENDBRANCH   2   3
ENDBRANCH   1   2
BRANCH   1   8
ATOM      8  C   UNL     1     179.606 201.635  88.373  1.00  0.00     0.072 C 
BRANCH   8   9
ATOM      9  C   UNL     1     179.261 202.697  89.443  1.00  0.00     0.227 C 
BRANCH   9  10
ATOM     10  N   UNL     1     179.197 202.119  90.792  1.00  0.00    -0.350 N 
ATOM     11  H   UNL     1     179.893 201.343  90.882  1.00  0.00     0.345 HD
ATOM     12  H   UNL     1     179.387 202.839  91.527  1.00  0.00     0.345 HD
ATOM     13  H   UNL     1     178.243 201.721  90.955  1.00  0.00     0.345 HD
ENDBRANCH   9  10
BRANCH   9  14
ATOM     14  C   UNL     1     180.212 203.867  89.390  1.00  0.00     0.099 C 
ATOM     15  O   UNL     1     180.190 204.648  88.403  1.00  0.00    -0.544 OA
ATOM     16  O   UNL     1     181.150 204.066  90.397  1.00  0.00    -0.544 OA
ENDBRANCH   9  14
ENDBRANCH   8   9
ENDBRANCH   1   8
TORSDOF 7
ENDMDL
MODEL 9
REMARK VINA RESULT:    -3.697     14.198     14.959
REMARK INTER + INTRA:          -5.529
REMARK INTER:                  -5.059
REMARK INTRA:                  -0.470
REMARK UNBOUND:                -0.536
REMARK SMILES [NH3+]CCCC[C@@H]([NH3+])C(=O)[O-]
REMARK SMILES IDX 4 1 3 2 2 3 1 4 5 8 6 9 7 10 8 14 9 15 10 16
REMARK H PARENT 1 5 1 6 1 7 7 11 7 12 7 13
REMARK Flexibility Score: inf
ROOT
ATOM      1  C   UNL     1     178.114 202.161  88.067  1.00  0.00     0.012 C 
ENDROOT
BRANCH   1   2
ATOM      2  C   UNL     1     178.578 200.897  88.802  1.00  0.00     0.061 C 
BRANCH   2   3
ATOM      3  C   UNL     1     178.180 200.940  90.283  1.00  0.00     0.258 C 
BRANCH   3   4
ATOM      4  N   UNL     1     179.026 201.874  91.025  1.00  0.00    -0.358 N 
ATOM      5  H   UNL     1     178.554 202.161  91.912  1.00  0.00     0.344 HD
ATOM      6  H   UNL     1     179.948 201.430  91.241  1.00  0.00     0.344 HD
ATOM      7  H   UNL     1     179.192 202.725  90.439  1.00  0.00     0.344 HD
ENDBRANCH   3   4
ENDBRANCH   2   3
ENDBRANCH   1   2
BRANCH   1   8
ATOM      8  C   UNL     1     179.035 202.473  86.876  1.00  0.00     0.072 C 
BRANCH   8   9
ATOM      9  C   UNL     1     180.424 203.023  87.273  1.00  0.00     0.227 C 
BRANCH   9  10
ATOM     10  N   UNL     1     181.196 203.468  86.104  1.00  0.00    -0.350 N 
ATOM     11  H   UNL     1     182.220 203.435  86.319  1.00  0.00     0.345 HD
ATOM     12  H   UNL     1     181.001 202.872  85.267  1.00  0.00     0.345 HD
ATOM     13  H   UNL     1     180.944 204.457  85.876  1.00  0.00     0.345 HD
ENDBRANCH   9  10
BRANCH   9  14
ATOM     14  C   UNL     1     180.313 204.116  88.307  1.00  0.00     0.099 C 
ATOM     15  O   UNL     1     179.813 205.228  87.992  1.00  0.00    -0.544 OA
ATOM     16  O   UNL     1     180.801 203.927  89.595  1.00  0.00    -0.544 OA
ENDBRANCH   9  14
ENDBRANCH   8   9
ENDBRANCH   1   8
TORSDOF 7
ENDMDL
