MODEL 1
REMARK VINA RESULT:    -6.046      0.000      0.000
REMARK INTER + INTRA:          -7.395
REMARK INTER:                  -7.106
REMARK INTRA:                  -0.288
REMARK UNBOUND:                -0.288
REMARK SMILES O=c1c(O)c(-c2ccc(O)cc2)oc2cc(O)cc(O)c12
REMARK SMILES IDX 5 1 3 2 2 3 1 4 21 5 19 6 18 7 16 8 15 9 14 10 13 11 6 12
REMARK SMILES IDX 7 13 8 14 9 15 12 16 11 17 10 18 4 20 20 22 17 24
REMARK H PARENT 10 19 4 21 20 23 17 25
REMARK Flexibility Score: inf
ROOT
ATOM      1  C   UNL     1      -7.722   3.763  14.519  1.00  0.00     0.180 A 
ATOM      2  C   UNL     1      -7.144   2.703  15.241  1.00  0.00     0.208 A 
ATOM      3  C   UNL     1      -7.009   2.821  16.633  1.00  0.00     0.238 A 
ATOM      4  O   UNL     1      -6.443   1.891  17.265  1.00  0.00    -0.285 OA
ATOM      5  C   UNL     1      -7.466   3.989  17.289  1.00  0.00     0.111 A 
ATOM      6  C   UNL     1      -7.416   4.198  18.700  1.00  0.00     0.134 A 
ATOM      7  C   UNL     1      -7.777   5.445  19.226  1.00  0.00     0.093 A 
ATOM      8  C   UNL     1      -8.248   6.467  18.399  1.00  0.00     0.123 A 
ATOM      9  C   UNL     1      -8.356   6.252  17.027  1.00  0.00     0.094 A 
ATOM     10  C   UNL     1      -7.970   5.031  16.468  1.00  0.00     0.146 A 
ATOM     11  O   UNL     1      -8.080   4.872  15.155  1.00  0.00    -0.452 OA
ENDROOT
BRANCH   1  12
ATOM     12  C   UNL     1      -7.920   3.703  13.053  1.00  0.00     0.021 A 
ATOM     13  C   UNL     1      -9.086   3.115  12.536  1.00  0.00     0.016 A 
ATOM     14  C   UNL     1      -9.282   3.027  11.154  1.00  0.00     0.047 A 
ATOM     15  C   UNL     1      -8.310   3.512  10.273  1.00  0.00     0.115 A 
ATOM     16  C   UNL     1      -6.937   4.171  12.162  1.00  0.00     0.016 A 
ATOM     17  C   UNL     1      -7.135   4.081  10.780  1.00  0.00     0.047 A 
BRANCH  15  18
ATOM     18  O   UNL     1      -8.520   3.419   8.899  1.00  0.00    -0.508 OA
ATOM     19  H   UNL     1      -8.321   4.197   8.279  1.00  0.00     0.293 HD
ENDBRANCH  15  18
ENDBRANCH   1  12
BRANCH   2  20
ATOM     20  O   UNL     1      -6.679   1.568  14.571  1.00  0.00    -0.502 OA
ATOM     21  H   UNL     1      -7.072   1.256  13.690  1.00  0.00     0.293 HD
ENDBRANCH   2  20
BRANCH   6  22
ATOM     22  O   UNL     1      -7.050   3.214  19.622  1.00  0.00    -0.507 OA
ATOM     23  H   UNL     1      -6.561   3.389  20.488  1.00  0.00     0.293 HD
ENDBRANCH   6  22
BRANCH   8  24
ATOM     24  O   UNL     1      -8.619   7.699  18.933  1.00  0.00    -0.508 OA
ATOM     25  H   UNL     1      -8.108   8.546  18.716  1.00  0.00     0.293 HD
ENDBRANCH   8  24
TORSDOF 5
ENDMDL
MODEL 2
REMARK VINA RESULT:    -5.993      0.106      1.061
REMARK INTER + INTRA:          -7.333
REMARK INTER:                  -7.034
REMARK INTRA:                  -0.299
REMARK UNBOUND:                -0.288
REMARK SMILES O=c1c(O)c(-c2ccc(O)cc2)oc2cc(O)cc(O)c12
REMARK SMILES IDX 5 1 3 2 2 3 1 4 21 5 19 6 18 7 16 8 15 9 14 10 13 11 6 12
REMARK SMILES IDX 7 13 8 14 9 15 12 16 11 17 10 18 4 20 20 22 17 24
REMARK H PARENT 10 19 4 21 20 23 17 25
REMARK Flexibility Score: inf
ROOT
ATOM      1  C   UNL     1      -7.719   3.642  14.515  1.00  0.00     0.180 A 
ATOM      2  C   UNL     1      -7.103   2.604  15.237  1.00  0.00     0.208 A 
ATOM      3  C   UNL     1      -6.950   2.737  16.626  1.00  0.00     0.238 A 
ATOM      4  O   UNL     1      -6.351   1.828  17.257  1.00  0.00    -0.285 OA
ATOM      5  C   UNL     1      -7.427   3.899  17.279  1.00  0.00     0.111 A 
ATOM      6  C   UNL     1      -7.361   4.122  18.687  1.00  0.00     0.134 A 
ATOM      7  C   UNL     1      -7.745   5.364  19.208  1.00  0.00     0.093 A 
ATOM      8  C   UNL     1      -8.255   6.366  18.380  1.00  0.00     0.123 A 
ATOM      9  C   UNL     1      -8.379   6.136  17.011  1.00  0.00     0.094 A 
ATOM     10  C   UNL     1      -7.970   4.921  16.457  1.00  0.00     0.146 A 
ATOM     11  O   UNL     1      -8.096   4.747  15.147  1.00  0.00    -0.452 OA
ENDROOT
BRANCH   1  12
ATOM     12  C   UNL     1      -7.938   3.564  13.053  1.00  0.00     0.021 A 
ATOM     13  C   UNL     1      -7.005   4.149  12.181  1.00  0.00     0.016 A 
ATOM     14  C   UNL     1      -7.206   4.107  10.798  1.00  0.00     0.047 A 
ATOM     15  C   UNL     1      -8.346   3.493  10.270  1.00  0.00     0.115 A 
ATOM     16  C   UNL     1      -9.093   2.965  12.517  1.00  0.00     0.016 A 
ATOM     17  C   UNL     1      -9.291   2.925  11.133  1.00  0.00     0.047 A 
BRANCH  15  18
ATOM     18  O   UNL     1      -8.531   3.457   8.890  1.00  0.00    -0.508 OA
ATOM     19  H   UNL     1      -8.080   4.128   8.277  1.00  0.00     0.293 HD
ENDBRANCH  15  18
ENDBRANCH   1  12
BRANCH   2  20
ATOM     20  O   UNL     1      -6.619   1.475  14.569  1.00  0.00    -0.502 OA
ATOM     21  H   UNL     1      -6.427   0.602  15.045  1.00  0.00     0.293 HD
ENDBRANCH   2  20
BRANCH   6  22
ATOM     22  O   UNL     1      -6.955   3.156  19.612  1.00  0.00    -0.507 OA
ATOM     23  H   UNL     1      -6.014   2.803  19.700  1.00  0.00     0.293 HD
ENDBRANCH   6  22
BRANCH   8  24
ATOM     24  O   UNL     1      -8.650   7.593  18.909  1.00  0.00    -0.508 OA
ATOM     25  H   UNL     1      -9.623   7.798  19.102  1.00  0.00     0.293 HD
ENDBRANCH   8  24
TORSDOF 5
ENDMDL
MODEL 3
REMARK VINA RESULT:    -5.669      1.456      3.073
REMARK INTER + INTRA:          -6.951
REMARK INTER:                  -6.655
REMARK INTRA:                  -0.296
REMARK UNBOUND:                -0.288
REMARK SMILES O=c1c(O)c(-c2ccc(O)cc2)oc2cc(O)cc(O)c12
REMARK SMILES IDX 5 1 3 2 2 3 1 4 21 5 19 6 18 7 16 8 15 9 14 10 13 11 6 12
REMARK SMILES IDX 7 13 8 14 9 15 12 16 11 17 10 18 4 20 20 22 17 24
REMARK H PARENT 10 19 4 21 20 23 17 25
REMARK Flexibility Score: inf
ROOT
ATOM      1  C   UNL     1      -7.663   3.872  13.957  1.00  0.00     0.180 A 
ATOM      2  C   UNL     1      -7.750   5.122  14.594  1.00  0.00     0.208 A 
ATOM      3  C   UNL     1      -7.451   5.211  15.963  1.00  0.00     0.238 A 
ATOM      4  O   UNL     1      -7.583   6.323  16.539  1.00  0.00    -0.285 OA
ATOM      5  C   UNL     1      -7.054   4.054  16.675  1.00  0.00     0.111 A 
ATOM      6  C   UNL     1      -6.688   4.036  18.055  1.00  0.00     0.134 A 
ATOM      7  C   UNL     1      -6.437   2.813  18.686  1.00  0.00     0.093 A 
ATOM      8  C   UNL     1      -6.475   1.612  17.973  1.00  0.00     0.123 A 
ATOM      9  C   UNL     1      -6.773   1.625  16.612  1.00  0.00     0.094 A 
ATOM     10  C   UNL     1      -7.062   2.827  15.961  1.00  0.00     0.146 A 
ATOM     11  O   UNL     1      -7.351   2.793  14.666  1.00  0.00    -0.452 OA
ENDROOT
BRANCH   1  12
ATOM     12  C   UNL     1      -7.939   3.702  12.513  1.00  0.00     0.021 A 
ATOM     13  C   UNL     1      -9.207   3.264  12.097  1.00  0.00     0.016 A 
ATOM     14  C   UNL     1      -9.481   3.075  10.739  1.00  0.00     0.047 A 
ATOM     15  C   UNL     1      -8.489   3.306   9.782  1.00  0.00     0.115 A 
ATOM     16  C   UNL     1      -6.939   3.913  11.546  1.00  0.00     0.016 A 
ATOM     17  C   UNL     1      -7.215   3.723  10.189  1.00  0.00     0.047 A 
BRANCH  15  18
ATOM     18  O   UNL     1      -8.777   3.115   8.432  1.00  0.00    -0.508 OA
ATOM     19  H   UNL     1      -9.630   2.657   8.132  1.00  0.00     0.293 HD
ENDBRANCH  15  18
ENDBRANCH   1  12
BRANCH   2  20
ATOM     20  O   UNL     1      -8.166   6.248  13.878  1.00  0.00    -0.502 OA
ATOM     21  H   UNL     1      -8.795   6.188  13.086  1.00  0.00     0.293 HD
ENDBRANCH   2  20
BRANCH   6  22
ATOM     22  O   UNL     1      -6.531   5.185  18.834  1.00  0.00    -0.507 OA
ATOM     23  H   UNL     1      -7.266   5.623  19.370  1.00  0.00     0.293 HD
ENDBRANCH   6  22
BRANCH   8  24
ATOM     24  O   UNL     1      -6.209   0.400  18.607  1.00  0.00    -0.508 OA
ATOM     25  H   UNL     1      -6.922  -0.312  18.710  1.00  0.00     0.293 HD
ENDBRANCH   8  24
TORSDOF 5
ENDMDL
MODEL 4
REMARK VINA RESULT:    -5.633     15.653     17.140
REMARK INTER + INTRA:          -6.909
REMARK INTER:                  -6.626
REMARK INTRA:                  -0.283
REMARK UNBOUND:                -0.288
REMARK SMILES O=c1c(O)c(-c2ccc(O)cc2)oc2cc(O)cc(O)c12
REMARK SMILES IDX 5 1 3 2 2 3 1 4 21 5 19 6 18 7 16 8 15 9 14 10 13 11 6 12
REMARK SMILES IDX 7 13 8 14 9 15 12 16 11 17 10 18 4 20 20 22 17 24
REMARK H PARENT 10 19 4 21 20 23 17 25
REMARK Flexibility Score: inf
ROOT
ATOM      1  C   UNL     1     -24.120   6.540  13.447  1.00  0.00     0.180 A 
ATOM      2  C   UNL     1     -24.854   7.296  12.516  1.00  0.00     0.208 A 
ATOM      3  C   UNL     1     -24.308   8.494  12.029  1.00  0.00     0.238 A 
ATOM      4  O   UNL     1     -24.993   9.192  11.237  1.00  0.00    -0.285 OA
ATOM      5  C   UNL     1     -23.029   8.914  12.466  1.00  0.00     0.111 A 
ATOM      6  C   UNL     1     -22.362  10.090  12.008  1.00  0.00     0.134 A 
ATOM      7  C   UNL     1     -21.156  10.476  12.606  1.00  0.00     0.093 A 
ATOM      8  C   UNL     1     -20.561   9.695  13.599  1.00  0.00     0.123 A 
ATOM      9  C   UNL     1     -21.175   8.514  14.011  1.00  0.00     0.094 A 
ATOM     10  C   UNL     1     -22.397   8.120  13.459  1.00  0.00     0.146 A 
ATOM     11  O   UNL     1     -22.953   6.994  13.887  1.00  0.00    -0.452 OA
ENDROOT
BRANCH   1  12
ATOM     12  C   UNL     1     -24.618   5.255  13.987  1.00  0.00     0.021 A 
ATOM     13  C   UNL     1     -24.271   4.054  13.347  1.00  0.00     0.016 A 
ATOM     14  C   UNL     1     -24.751   2.832  13.828  1.00  0.00     0.047 A 
ATOM     15  C   UNL     1     -25.593   2.795  14.943  1.00  0.00     0.115 A 
ATOM     16  C   UNL     1     -25.482   5.213  15.097  1.00  0.00     0.016 A 
ATOM     17  C   UNL     1     -25.961   3.989  15.575  1.00  0.00     0.047 A 
BRANCH  15  18
ATOM     18  O   UNL     1     -26.061   1.569  15.412  1.00  0.00    -0.508 OA
ATOM     19  H   UNL     1     -25.543   0.711  15.260  1.00  0.00     0.293 HD
ENDBRANCH  15  18
ENDBRANCH   1  12
BRANCH   2  20
ATOM     20  O   UNL     1     -26.125   6.875  12.114  1.00  0.00    -0.502 OA
ATOM     21  H   UNL     1     -26.313   5.927  11.808  1.00  0.00     0.293 HD
ENDBRANCH   2  20
BRANCH   6  22
ATOM     22  O   UNL     1     -22.823  10.890  10.959  1.00  0.00    -0.507 OA
ATOM     23  H   UNL     1     -22.270  11.583  10.477  1.00  0.00     0.293 HD
ENDBRANCH   6  22
BRANCH   8  24
ATOM     24  O   UNL     1     -19.353  10.079  14.177  1.00  0.00    -0.508 OA
ATOM     25  H   UNL     1     -18.557  10.350  13.612  1.00  0.00     0.293 HD
ENDBRANCH   8  24
TORSDOF 5
ENDMDL
MODEL 5
REMARK VINA RESULT:    -5.605      1.821      3.185
REMARK INTER + INTRA:          -6.876
REMARK INTER:                  -6.591
REMARK INTRA:                  -0.286
REMARK UNBOUND:                -0.288
REMARK SMILES O=c1c(O)c(-c2ccc(O)cc2)oc2cc(O)cc(O)c12
REMARK SMILES IDX 5 1 3 2 2 3 1 4 21 5 19 6 18 7 16 8 15 9 14 10 13 11 6 12
REMARK SMILES IDX 7 13 8 14 9 15 12 16 11 17 10 18 4 20 20 22 17 24
REMARK H PARENT 10 19 4 21 20 23 17 25
REMARK Flexibility Score: inf
ROOT
ATOM      1  C   UNL     1      -7.714   5.399  13.882  1.00  0.00     0.180 A 
ATOM      2  C   UNL     1      -7.176   6.691  14.019  1.00  0.00     0.208 A 
ATOM      3  C   UNL     1      -6.860   7.165  15.302  1.00  0.00     0.238 A 
ATOM      4  O   UNL     1      -6.429   8.341  15.422  1.00  0.00    -0.285 OA
ATOM      5  C   UNL     1      -7.071   6.337  16.431  1.00  0.00     0.111 A 
ATOM      6  C   UNL     1      -6.750   6.700  17.773  1.00  0.00     0.134 A 
ATOM      7  C   UNL     1      -7.123   5.853  18.825  1.00  0.00     0.093 A 
ATOM      8  C   UNL     1      -7.746   4.628  18.577  1.00  0.00     0.123 A 
ATOM      9  C   UNL     1      -8.011   4.239  17.266  1.00  0.00     0.094 A 
ATOM     10  C   UNL     1      -7.683   5.077  16.198  1.00  0.00     0.146 A 
ATOM     11  O   UNL     1      -7.962   4.673  14.965  1.00  0.00    -0.452 OA
ENDROOT
BRANCH   1  12
ATOM     12  C   UNL     1      -8.049   4.821  12.561  1.00  0.00     0.021 A 
ATOM     13  C   UNL     1      -7.047   4.183  11.810  1.00  0.00     0.016 A 
ATOM     14  C   UNL     1      -7.338   3.651  10.550  1.00  0.00     0.047 A 
ATOM     15  C   UNL     1      -8.626   3.761  10.019  1.00  0.00     0.115 A 
ATOM     16  C   UNL     1      -9.339   4.946  12.012  1.00  0.00     0.016 A 
ATOM     17  C   UNL     1      -9.626   4.413  10.752  1.00  0.00     0.047 A 
BRANCH  15  18
ATOM     18  O   UNL     1      -8.901   3.224   8.763  1.00  0.00    -0.508 OA
ATOM     19  H   UNL     1      -9.776   2.749   8.570  1.00  0.00     0.293 HD
ENDBRANCH  15  18
ENDBRANCH   1  12
BRANCH   2  20
ATOM     20  O   UNL     1      -6.996   7.500  12.894  1.00  0.00    -0.502 OA
ATOM     21  H   UNL     1      -6.800   8.492  12.961  1.00  0.00     0.293 HD
ENDBRANCH   2  20
BRANCH   6  22
ATOM     22  O   UNL     1      -6.047   7.856  18.122  1.00  0.00    -0.507 OA
ATOM     23  H   UNL     1      -5.415   7.931  18.906  1.00  0.00     0.293 HD
ENDBRANCH   6  22
BRANCH   8  24
ATOM     24  O   UNL     1      -8.100   3.785  19.629  1.00  0.00    -0.508 OA
ATOM     25  H   UNL     1      -8.706   4.098  20.378  1.00  0.00     0.293 HD
ENDBRANCH   8  24
TORSDOF 5
ENDMDL
MODEL 6
REMARK VINA RESULT:    -5.414      2.379      6.241
REMARK INTER + INTRA:          -6.652
REMARK INTER:                  -6.727
REMARK INTRA:                   0.074
REMARK UNBOUND:                -0.288
REMARK SMILES O=c1c(O)c(-c2ccc(O)cc2)oc2cc(O)cc(O)c12
REMARK SMILES IDX 5 1 3 2 2 3 1 4 21 5 19 6 18 7 16 8 15 9 14 10 13 11 6 12
REMARK SMILES IDX 7 13 8 14 9 15 12 16 11 17 10 18 4 20 20 22 17 24
REMARK H PARENT 10 19 4 21 20 23 17 25
REMARK Flexibility Score: inf
ROOT
ATOM      1  C   UNL     1      -7.719   6.130  15.845  1.00  0.00     0.180 A 
ATOM      2  C   UNL     1      -7.759   5.047  16.741  1.00  0.00     0.208 A 
ATOM      3  C   UNL     1      -8.150   3.785  16.268  1.00  0.00     0.238 A 
ATOM      4  O   UNL     1      -8.234   2.833  17.087  1.00  0.00    -0.285 OA
ATOM      5  C   UNL     1      -8.482   3.616  14.902  1.00  0.00     0.111 A 
ATOM      6  C   UNL     1      -8.852   2.373  14.306  1.00  0.00     0.134 A 
ATOM      7  C   UNL     1      -9.285   2.348  12.975  1.00  0.00     0.093 A 
ATOM      8  C   UNL     1      -9.299   3.510  12.199  1.00  0.00     0.123 A 
ATOM      9  C   UNL     1      -8.882   4.718  12.756  1.00  0.00     0.094 A 
ATOM     10  C   UNL     1      -8.479   4.781  14.092  1.00  0.00     0.146 A 
ATOM     11  O   UNL     1      -8.099   5.954  14.585  1.00  0.00    -0.452 OA
ENDROOT
BRANCH   1  12
ATOM     12  C   UNL     1      -7.294   7.485  16.263  1.00  0.00     0.021 A 
ATOM     13  C   UNL     1      -6.307   8.159  15.525  1.00  0.00     0.016 A 
ATOM     14  C   UNL     1      -5.875   9.430  15.916  1.00  0.00     0.047 A 
ATOM     15  C   UNL     1      -6.412  10.036  17.056  1.00  0.00     0.115 A 
ATOM     16  C   UNL     1      -7.816   8.091  17.420  1.00  0.00     0.016 A 
ATOM     17  C   UNL     1      -7.381   9.362  17.810  1.00  0.00     0.047 A 
BRANCH  15  18
ATOM     18  O   UNL     1      -5.972  11.303  17.433  1.00  0.00    -0.508 OA
ATOM     19  H   UNL     1      -6.285  11.737  18.295  1.00  0.00     0.293 HD
ENDBRANCH  15  18
ENDBRANCH   1  12
BRANCH   2  20
ATOM     20  O   UNL     1      -7.449   5.241  18.090  1.00  0.00    -0.502 OA
ATOM     21  H   UNL     1      -6.899   4.578  18.623  1.00  0.00     0.293 HD
ENDBRANCH   2  20
BRANCH   6  22
ATOM     22  O   UNL     1      -8.786   1.142  14.964  1.00  0.00    -0.507 OA
ATOM     23  H   UNL     1      -9.576   0.662  15.368  1.00  0.00     0.293 HD
ENDBRANCH   6  22
BRANCH   8  24
ATOM     24  O   UNL     1      -9.717   3.473  10.871  1.00  0.00    -0.508 OA
ATOM     25  H   UNL     1      -9.350   2.791  10.219  1.00  0.00     0.293 HD
ENDBRANCH   8  24
TORSDOF 5
ENDMDL
MODEL 7
REMARK VINA RESULT:    -5.271      1.743      6.460
REMARK INTER + INTRA:          -6.484
REMARK INTER:                  -6.213
REMARK INTRA:                  -0.271
REMARK UNBOUND:                -0.288
REMARK SMILES O=c1c(O)c(-c2ccc(O)cc2)oc2cc(O)cc(O)c12
REMARK SMILES IDX 5 1 3 2 2 3 1 4 21 5 19 6 18 7 16 8 15 9 14 10 13 11 6 12
REMARK SMILES IDX 7 13 8 14 9 15 12 16 11 17 10 18 4 20 20 22 17 24
REMARK H PARENT 10 19 4 21 20 23 17 25
REMARK Flexibility Score: inf
ROOT
ATOM      1  C   UNL     1      -7.969   4.942  15.990  1.00  0.00     0.180 A 
ATOM      2  C   UNL     1      -8.231   3.579  16.216  1.00  0.00     0.208 A 
ATOM      3  C   UNL     1      -8.588   2.765  15.130  1.00  0.00     0.238 A 
ATOM      4  O   UNL     1      -8.872   1.558  15.347  1.00  0.00    -0.285 OA
ATOM      5  C   UNL     1      -8.666   3.319  13.829  1.00  0.00     0.111 A 
ATOM      6  C   UNL     1      -8.979   2.579  12.650  1.00  0.00     0.134 A 
ATOM      7  C   UNL     1      -9.155   3.255  11.437  1.00  0.00     0.093 A 
ATOM      8  C   UNL     1      -8.965   4.636  11.347  1.00  0.00     0.123 A 
ATOM      9  C   UNL     1      -8.601   5.359  12.481  1.00  0.00     0.094 A 
ATOM     10  C   UNL     1      -8.452   4.718  13.713  1.00  0.00     0.146 A 
ATOM     11  O   UNL     1      -8.115   5.446  14.771  1.00  0.00    -0.452 OA
ENDROOT
BRANCH   1  12
ATOM     12  C   UNL     1      -7.564   5.858  17.080  1.00  0.00     0.021 A 
ATOM     13  C   UNL     1      -8.499   6.764  17.608  1.00  0.00     0.016 A 
ATOM     14  C   UNL     1      -8.130   7.653  18.621  1.00  0.00     0.047 A 
ATOM     15  C   UNL     1      -6.820   7.659  19.110  1.00  0.00     0.115 A 
ATOM     16  C   UNL     1      -6.242   5.883  17.562  1.00  0.00     0.016 A 
ATOM     17  C   UNL     1      -5.875   6.774  18.575  1.00  0.00     0.047 A 
BRANCH  15  18
ATOM     18  O   UNL     1      -6.467   8.550  20.121  1.00  0.00    -0.508 OA
ATOM     19  H   UNL     1      -6.650   9.544  20.039  1.00  0.00     0.293 HD
ENDBRANCH  15  18
ENDBRANCH   1  12
BRANCH   2  20
ATOM     20  O   UNL     1      -8.171   3.057  17.511  1.00  0.00    -0.502 OA
ATOM     21  H   UNL     1      -8.006   2.075  17.695  1.00  0.00     0.293 HD
ENDBRANCH   2  20
BRANCH   6  22
ATOM     22  O   UNL     1      -9.099   1.187  12.612  1.00  0.00    -0.507 OA
ATOM     23  H   UNL     1      -9.438   0.617  13.372  1.00  0.00     0.293 HD
ENDBRANCH   6  22
BRANCH   8  24
ATOM     24  O   UNL     1      -9.127   5.299  10.132  1.00  0.00    -0.508 OA
ATOM     25  H   UNL     1      -8.619   5.017   9.303  1.00  0.00     0.293 HD
ENDBRANCH   8  24
TORSDOF 5
ENDMDL
MODEL 8
REMARK VINA RESULT:    -5.267     15.026     16.463
REMARK INTER + INTRA:          -6.479
REMARK INTER:                  -6.293
REMARK INTRA:                  -0.186
REMARK UNBOUND:                -0.288
REMARK SMILES O=c1c(O)c(-c2ccc(O)cc2)oc2cc(O)cc(O)c12
REMARK SMILES IDX 5 1 3 2 2 3 1 4 21 5 19 6 18 7 16 8 15 9 14 10 13 11 6 12
REMARK SMILES IDX 7 13 8 14 9 15 12 16 11 17 10 18 4 20 20 22 17 24
REMARK H PARENT 10 19 4 21 20 23 17 25
REMARK Flexibility Score: inf
ROOT
ATOM      1  C   UNL     1     -23.195   8.019  13.764  1.00  0.00     0.180 A 
ATOM      2  C   UNL     1     -23.522   8.674  12.564  1.00  0.00     0.208 A 
ATOM      3  C   UNL     1     -22.731   9.754  12.141  1.00  0.00     0.238 A 
ATOM      4  O   UNL     1     -23.061  10.370  11.093  1.00  0.00    -0.285 OA
ATOM      5  C   UNL     1     -21.615  10.157  12.913  1.00  0.00     0.111 A 
ATOM      6  C   UNL     1     -20.721  11.212  12.558  1.00  0.00     0.134 A 
ATOM      7  C   UNL     1     -19.728  11.608  13.461  1.00  0.00     0.093 A 
ATOM      8  C   UNL     1     -19.554  10.944  14.678  1.00  0.00     0.123 A 
ATOM      9  C   UNL     1     -20.384   9.875  15.008  1.00  0.00     0.094 A 
ATOM     10  C   UNL     1     -21.407   9.479  14.143  1.00  0.00     0.146 A 
ATOM     11  O   UNL     1     -22.182   8.462  14.500  1.00  0.00    -0.452 OA
ENDROOT
BRANCH   1  12
ATOM     12  C   UNL     1     -23.965   6.858  14.264  1.00  0.00     0.021 A 
ATOM     13  C   UNL     1     -24.674   6.966  15.473  1.00  0.00     0.016 A 
ATOM     14  C   UNL     1     -25.389   5.874  15.974  1.00  0.00     0.047 A 
ATOM     15  C   UNL     1     -25.393   4.658  15.283  1.00  0.00     0.115 A 
ATOM     16  C   UNL     1     -23.957   5.626  13.584  1.00  0.00     0.016 A 
ATOM     17  C   UNL     1     -24.673   4.536  14.088  1.00  0.00     0.047 A 
BRANCH  15  18
ATOM     18  O   UNL     1     -26.112   3.579  15.794  1.00  0.00    -0.508 OA
ATOM     19  H   UNL     1     -26.555   3.622  16.705  1.00  0.00     0.293 HD
ENDBRANCH  15  18
ENDBRANCH   1  12
BRANCH   2  20
ATOM     20  O   UNL     1     -24.641   8.276  11.828  1.00  0.00    -0.502 OA
ATOM     21  H   UNL     1     -25.258   8.938  11.374  1.00  0.00     0.293 HD
ENDBRANCH   2  20
BRANCH   6  22
ATOM     22  O   UNL     1     -20.749  11.877  11.329  1.00  0.00    -0.507 OA
ATOM     23  H   UNL     1     -20.126  12.626  11.066  1.00  0.00     0.293 HD
ENDBRANCH   6  22
BRANCH   8  24
ATOM     24  O   UNL     1     -18.553  11.336  15.565  1.00  0.00    -0.508 OA
ATOM     25  H   UNL     1     -18.480  12.291  15.893  1.00  0.00     0.293 HD
ENDBRANCH   8  24
TORSDOF 5
ENDMDL
