MODEL 1
REMARK VINA RESULT:    -3.794      0.000      0.000
REMARK INTER + INTRA:          -4.862
REMARK INTER:                  -4.681
REMARK INTRA:                  -0.181
REMARK UNBOUND:                -0.181
REMARK SMILES CCCCCC(=O)[O-]
REMARK SMILES IDX 4 1 5 2 6 3 7 4 8 5 3 6 2 7 1 8
REMARK H PARENT
REMARK Flexibility Score: inf
ROOT
ATOM      1  C   UNL     1     103.303 106.107 231.468  1.00  0.00     0.006 C 
ENDROOT
BRANCH   1   2
ATOM      2  C   UNL     1     104.564 106.750 232.065  1.00  0.00     0.053 C 
BRANCH   2   3
ATOM      3  C   UNL     1     104.938 106.121 233.372  1.00  0.00     0.041 C 
ATOM      4  O   UNL     1     106.069 105.586 233.519  1.00  0.00    -0.550 OA
ATOM      5  O   UNL     1     104.029 106.105 234.423  1.00  0.00    -0.550 OA
ENDBRANCH   2   3
ENDBRANCH   1   2
BRANCH   1   6
ATOM      6  C   UNL     1     102.020 106.930 231.721  1.00  0.00     0.000 C 
BRANCH   6   7
ATOM      7  C   UNL     1     100.972 106.192 232.570  1.00  0.00    -0.003 C 
ATOM      8  C   UNL     1     100.597 106.947 233.844  1.00  0.00     0.004 C 
ENDBRANCH   6   7
ENDBRANCH   1   6
TORSDOF 4
ENDMDL
MODEL 2
REMARK VINA RESULT:    -3.731      1.639      2.080
REMARK INTER + INTRA:          -4.785
REMARK INTER:                  -4.715
REMARK INTRA:                  -0.070
REMARK UNBOUND:                -0.181
REMARK SMILES CCCCCC(=O)[O-]
REMARK SMILES IDX 4 1 5 2 6 3 7 4 8 5 3 6 2 7 1 8
REMARK H PARENT
REMARK Flexibility Score: inf
ROOT
ATOM      1  C   UNL     1     104.120 106.299 232.793  1.00  0.00     0.006 C 
ENDROOT
BRANCH   1   2
ATOM      2  C   UNL     1     105.398 105.953 233.573  1.00  0.00     0.053 C 
BRANCH   2   3
ATOM      3  C   UNL     1     106.189 104.880 232.889  1.00  0.00     0.041 C 
ATOM      4  O   UNL     1     105.711 104.278 231.891  1.00  0.00    -0.550 OA
ATOM      5  O   UNL     1     107.445 104.529 233.366  1.00  0.00    -0.550 OA
ENDBRANCH   2   3
ENDBRANCH   1   2
BRANCH   1   6
ATOM      6  C   UNL     1     102.825 106.014 233.585  1.00  0.00     0.000 C 
BRANCH   6   7
ATOM      7  C   UNL     1     101.544 106.427 232.840  1.00  0.00    -0.003 C 
ATOM      8  C   UNL     1     100.461 106.970 233.771  1.00  0.00     0.004 C 
ENDBRANCH   6   7
ENDBRANCH   1   6
TORSDOF 4
ENDMDL
MODEL 3
REMARK VINA RESULT:    -3.727      1.913      3.815
REMARK INTER + INTRA:          -4.780
REMARK INTER:                  -4.633
REMARK INTRA:                  -0.147
REMARK UNBOUND:                -0.181
REMARK SMILES CCCCCC(=O)[O-]
REMARK SMILES IDX 4 1 5 2 6 3 7 4 8 5 3 6 2 7 1 8
REMARK H PARENT
REMARK Flexibility Score: inf
ROOT
ATOM      1  C   UNL     1     102.415 106.980 231.604  1.00  0.00     0.006 C 
ENDROOT
BRANCH   1   2
ATOM      2  C   UNL     1     101.120 106.295 232.068  1.00  0.00     0.053 C 
BRANCH   2   3
ATOM      3  C   UNL     1     100.769 106.674 233.474  1.00  0.00     0.041 C 
ATOM      4  O   UNL     1     101.600 106.499 234.405  1.00  0.00    -0.550 OA
ATOM      5  O   UNL     1      99.516 107.199 233.763  1.00  0.00    -0.550 OA
ENDBRANCH   2   3
ENDBRANCH   1   2
BRANCH   1   6
ATOM      6  C   UNL     1     103.650 106.053 231.661  1.00  0.00     0.000 C 
BRANCH   6   7
ATOM      7  C   UNL     1     104.868 106.691 232.350  1.00  0.00    -0.003 C 
ATOM      8  C   UNL     1     105.251 105.992 233.653  1.00  0.00     0.004 C 
ENDBRANCH   6   7
ENDBRANCH   1   6
TORSDOF 4
ENDMDL
MODEL 4
REMARK VINA RESULT:    -3.677      2.515      4.479
REMARK INTER + INTRA:          -4.719
REMARK INTER:                  -4.662
REMARK INTRA:                  -0.057
REMARK UNBOUND:                -0.181
REMARK SMILES CCCCCC(=O)[O-]
REMARK SMILES IDX 4 1 5 2 6 3 7 4 8 5 3 6 2 7 1 8
REMARK H PARENT
REMARK Flexibility Score: inf
ROOT
ATOM      1  C   UNL     1     103.900 106.208 233.057  1.00  0.00     0.006 C 
ENDROOT
BRANCH   1   2
ATOM      2  C   UNL     1     102.864 105.959 234.164  1.00  0.00     0.053 C 
BRANCH   2   3
ATOM      3  C   UNL     1     101.471 106.242 233.690  1.00  0.00     0.041 C 
ATOM      4  O   UNL     1     100.680 106.910 234.408  1.00  0.00    -0.550 OA
ATOM      5  O   UNL     1     101.038 105.751 232.464  1.00  0.00    -0.550 OA
ENDBRANCH   2   3
ENDBRANCH   1   2
BRANCH   1   6
ATOM      6  C   UNL     1     105.349 105.906 233.498  1.00  0.00     0.000 C 
BRANCH   6   7
ATOM      7  C   UNL     1     106.146 105.081 232.474  1.00  0.00    -0.003 C 
ATOM      8  C   UNL     1     106.931 103.936 233.111  1.00  0.00     0.004 C 
ENDBRANCH   6   7
ENDBRANCH   1   6
TORSDOF 4
ENDMDL
MODEL 5
REMARK VINA RESULT:    -3.643      2.295      2.887
REMARK INTER + INTRA:          -4.676
REMARK INTER:                  -4.512
REMARK INTRA:                  -0.164
REMARK UNBOUND:                -0.181
REMARK SMILES CCCCCC(=O)[O-]
REMARK SMILES IDX 4 1 5 2 6 3 7 4 8 5 3 6 2 7 1 8
REMARK H PARENT
REMARK Flexibility Score: inf
ROOT
ATOM      1  C   UNL     1     104.531 106.278 233.189  1.00  0.00     0.006 C 
ENDROOT
BRANCH   1   2
ATOM      2  C   UNL     1     104.041 106.251 231.732  1.00  0.00     0.053 C 
BRANCH   2   3
ATOM      3  C   UNL     1     103.993 107.627 231.141  1.00  0.00     0.041 C 
ATOM      4  O   UNL     1     102.903 108.098 230.720  1.00  0.00    -0.550 OA
ATOM      5  O   UNL     1     105.155 108.381 231.034  1.00  0.00    -0.550 OA
ENDBRANCH   2   3
ENDBRANCH   1   2
BRANCH   1   6
ATOM      6  C   UNL     1     103.396 106.083 234.218  1.00  0.00     0.000 C 
BRANCH   6   7
ATOM      7  C   UNL     1     102.022 105.825 233.578  1.00  0.00    -0.003 C 
ATOM      8  C   UNL     1     100.947 106.800 234.056  1.00  0.00     0.004 C 
ENDBRANCH   6   7
ENDBRANCH   1   6
TORSDOF 4
ENDMDL
MODEL 6
REMARK VINA RESULT:    -3.635      6.848      8.701
REMARK INTER + INTRA:          -4.667
REMARK INTER:                  -4.560
REMARK INTRA:                  -0.106
REMARK UNBOUND:                -0.181
REMARK SMILES CCCCCC(=O)[O-]
REMARK SMILES IDX 4 1 5 2 6 3 7 4 8 5 3 6 2 7 1 8
REMARK H PARENT
REMARK Flexibility Score: inf
ROOT
ATOM      1  C   UNL     1     110.647 103.052 228.774  1.00  0.00     0.006 C 
ENDROOT
BRANCH   1   2
ATOM      2  C   UNL     1     109.659 102.521 229.824  1.00  0.00     0.053 C 
BRANCH   2   3
ATOM      3  C   UNL     1     108.354 103.254 229.774  1.00  0.00     0.041 C 
ATOM      4  O   UNL     1     107.686 103.289 228.707  1.00  0.00    -0.550 OA
ATOM      5  O   UNL     1     107.884 103.918 230.901  1.00  0.00    -0.550 OA
ENDBRANCH   2   3
ENDBRANCH   1   2
BRANCH   1   6
ATOM      6  C   UNL     1     111.827 103.839 229.388  1.00  0.00     0.000 C 
BRANCH   6   7
ATOM      7  C   UNL     1     111.569 104.313 230.827  1.00  0.00    -0.003 C 
ATOM      8  C   UNL     1     112.747 104.050 231.763  1.00  0.00     0.004 C 
ENDBRANCH   6   7
ENDBRANCH   1   6
TORSDOF 4
ENDMDL
MODEL 7
REMARK VINA RESULT:    -3.633      1.845      2.460
REMARK INTER + INTRA:          -4.664
REMARK INTER:                  -4.489
REMARK INTRA:                  -0.175
REMARK UNBOUND:                -0.181
REMARK SMILES CCCCCC(=O)[O-]
REMARK SMILES IDX 4 1 5 2 6 3 7 4 8 5 3 6 2 7 1 8
REMARK H PARENT
REMARK Flexibility Score: inf
ROOT
ATOM      1  C   UNL     1     104.351 106.090 233.717  1.00  0.00     0.006 C 
ENDROOT
BRANCH   1   2
ATOM      2  C   UNL     1     104.329 106.572 232.258  1.00  0.00     0.053 C 
BRANCH   2   3
ATOM      3  C   UNL     1     104.909 105.549 231.331  1.00  0.00     0.041 C 
ATOM      4  O   UNL     1     104.673 104.324 231.508  1.00  0.00    -0.550 OA
ATOM      5  O   UNL     1     105.730 105.945 230.281  1.00  0.00    -0.550 OA
ENDBRANCH   2   3
ENDBRANCH   1   2
BRANCH   1   6
ATOM      6  C   UNL     1     102.941 105.896 234.318  1.00  0.00     0.000 C 
BRANCH   6   7
ATOM      7  C   UNL     1     101.804 106.221 233.335  1.00  0.00    -0.003 C 
ATOM      8  C   UNL     1     100.656 106.992 233.984  1.00  0.00     0.004 C 
ENDBRANCH   6   7
ENDBRANCH   1   6
TORSDOF 4
ENDMDL
MODEL 8
REMARK VINA RESULT:    -3.554      3.604      4.795
REMARK INTER + INTRA:          -4.566
REMARK INTER:                  -4.427
REMARK INTRA:                  -0.138
REMARK UNBOUND:                -0.181
REMARK SMILES CCCCCC(=O)[O-]
REMARK SMILES IDX 4 1 5 2 6 3 7 4 8 5 3 6 2 7 1 8
REMARK H PARENT
REMARK Flexibility Score: inf
ROOT
ATOM      1  C   UNL     1     104.932 107.429 228.513  1.00  0.00     0.006 C 
ENDROOT
BRANCH   1   2
ATOM      2  C   UNL     1     105.019 108.128 229.878  1.00  0.00     0.053 C 
BRANCH   2   3
ATOM      3  C   UNL     1     103.895 107.720 230.780  1.00  0.00     0.041 C 
ATOM      4  O   UNL     1     102.717 108.090 230.533  1.00  0.00    -0.550 OA
ATOM      5  O   UNL     1     104.151 106.949 231.908  1.00  0.00    -0.550 OA
ENDBRANCH   2   3
ENDBRANCH   1   2
BRANCH   1   6
ATOM      6  C   UNL     1     105.028 105.890 228.608  1.00  0.00     0.000 C 
BRANCH   6   7
ATOM      7  C   UNL     1     104.633 105.166 227.309  1.00  0.00    -0.003 C 
ATOM      8  C   UNL     1     103.226 105.521 226.833  1.00  0.00     0.004 C 
ENDBRANCH   6   7
ENDBRANCH   1   6
TORSDOF 4
ENDMDL
MODEL 9
REMARK VINA RESULT:    -3.509      4.193      5.243
REMARK INTER + INTRA:          -4.511
REMARK INTER:                  -4.299
REMARK INTRA:                  -0.212
REMARK UNBOUND:                -0.181
REMARK SMILES CCCCCC(=O)[O-]
REMARK SMILES IDX 4 1 5 2 6 3 7 4 8 5 3 6 2 7 1 8
REMARK H PARENT
REMARK Flexibility Score: inf
ROOT
ATOM      1  C   UNL     1     104.734 105.531 229.465  1.00  0.00     0.006 C 
ENDROOT
BRANCH   1   2
ATOM      2  C   UNL     1     105.678 106.513 230.178  1.00  0.00     0.053 C 
BRANCH   2   3
ATOM      3  C   UNL     1     105.360 107.935 229.830  1.00  0.00     0.041 C 
ATOM      4  O   UNL     1     105.347 108.820 230.726  1.00  0.00    -0.550 OA
ATOM      5  O   UNL     1     105.056 108.280 228.519  1.00  0.00    -0.550 OA
ENDBRANCH   2   3
ENDBRANCH   1   2
BRANCH   1   6
ATOM      6  C   UNL     1     105.446 104.660 228.406  1.00  0.00     0.000 C 
BRANCH   6   7
ATOM      7  C   UNL     1     104.838 104.782 226.999  1.00  0.00    -0.003 C 
ATOM      8  C   UNL     1     103.474 105.470 226.995  1.00  0.00     0.004 C 
ENDBRANCH   6   7
ENDBRANCH   1   6
TORSDOF 4
ENDMDL
