MODEL 1
REMARK VINA RESULT:    -3.947      0.000      0.000
REMARK INTER + INTRA:          -4.840
REMARK INTER:                  -4.755
REMARK INTRA:                  -0.085
REMARK UNBOUND:                -0.085
REMARK SMILES CC[C@H](C)[C@H]([NH3+])C(=O)[O-]
REMARK SMILES IDX 3 1 4 2 5 3 6 4 7 8 8 9 9 10 2 11 1 12
REMARK H PARENT 6 5 6 6 6 7
REMARK Flexibility Score: inf
ROOT
ATOM      1  C   UNL     1     159.888 151.721 168.564  1.00  0.00     0.050 C 
ATOM      2  C   UNL     1     159.415 150.355 169.095  1.00  0.00     0.014 C 
ENDROOT
BRANCH   1   3
ATOM      3  C   UNL     1     158.836 152.408 167.632  1.00  0.00     0.230 C 
BRANCH   3   4
ATOM      4  N   UNL     1     159.420 152.796 166.340  1.00  0.00    -0.350 N 
ATOM      5  H   UNL     1     159.144 153.776 166.101  1.00  0.00     0.345 HD
ATOM      6  H   UNL     1     160.463 152.760 166.404  1.00  0.00     0.345 HD
ATOM      7  H   UNL     1     159.115 152.156 165.572  1.00  0.00     0.345 HD
ENDBRANCH   3   4
BRANCH   3   8
ATOM      8  C   UNL     1     158.162 153.591 168.287  1.00  0.00     0.099 C 
ATOM      9  O   UNL     1     156.937 153.804 168.093  1.00  0.00    -0.544 OA
ATOM     10  O   UNL     1     158.877 154.440 169.125  1.00  0.00    -0.544 OA
ENDBRANCH   3   8
ENDBRANCH   1   3
BRANCH   1  11
ATOM     11  C   UNL     1     161.277 151.560 167.895  1.00  0.00     0.006 C 
ATOM     12  C   UNL     1     161.799 150.122 167.922  1.00  0.00     0.004 C 
ENDBRANCH   1  11
TORSDOF 4
ENDMDL
MODEL 2
REMARK VINA RESULT:    -3.907     22.323     23.070
REMARK INTER + INTRA:          -4.791
REMARK INTER:                  -4.789
REMARK INTRA:                  -0.002
REMARK UNBOUND:                -0.085
REMARK SMILES CC[C@H](C)[C@H]([NH3+])C(=O)[O-]
REMARK SMILES IDX 3 1 4 2 5 3 6 4 7 8 8 9 9 10 2 11 1 12
REMARK H PARENT 6 5 6 6 6 7
REMARK Flexibility Score: inf
ROOT
ATOM      1  C   UNL     1     161.191 166.914 149.920  1.00  0.00     0.050 C 
ATOM      2  C   UNL     1     162.295 167.980 150.045  1.00  0.00     0.014 C 
ENDROOT
BRANCH   1   3
ATOM      3  C   UNL     1     159.774 167.533 149.684  1.00  0.00     0.230 C 
BRANCH   3   4
ATOM      4  N   UNL     1     159.628 168.837 150.347  1.00  0.00    -0.350 N 
ATOM      5  H   UNL     1     158.618 169.106 150.392  1.00  0.00     0.345 HD
ATOM      6  H   UNL     1     159.989 168.772 151.327  1.00  0.00     0.345 HD
ATOM      7  H   UNL     1     160.161 169.585 149.849  1.00  0.00     0.345 HD
ENDBRANCH   3   4
BRANCH   3   8
ATOM      8  C   UNL     1     158.656 166.602 150.093  1.00  0.00     0.099 C 
ATOM      9  O   UNL     1     157.821 166.965 150.961  1.00  0.00    -0.544 OA
ATOM     10  O   UNL     1     158.523 165.351 149.500  1.00  0.00    -0.544 OA
ENDBRANCH   3   8
ENDBRANCH   1   3
BRANCH   1  11
ATOM     11  C   UNL     1     161.244 165.972 151.150  1.00  0.00     0.006 C 
ATOM     12  C   UNL     1     162.246 164.827 150.995  1.00  0.00     0.004 C 
ENDBRANCH   1  11
TORSDOF 4
ENDMDL
MODEL 3
REMARK VINA RESULT:    -3.883     17.683     18.322
REMARK INTER + INTRA:          -4.762
REMARK INTER:                  -4.680
REMARK INTRA:                  -0.082
REMARK UNBOUND:                -0.085
REMARK SMILES CC[C@H](C)[C@H]([NH3+])C(=O)[O-]
REMARK SMILES IDX 3 1 4 2 5 3 6 4 7 8 8 9 9 10 2 11 1 12
REMARK H PARENT 6 5 6 6 6 7
REMARK Flexibility Score: inf
ROOT
ATOM      1  C   UNL     1     157.767 151.900 149.687  1.00  0.00     0.050 C 
ATOM      2  C   UNL     1     158.253 150.684 148.876  1.00  0.00     0.014 C 
ENDROOT
BRANCH   1   3
ATOM      3  C   UNL     1     158.858 152.457 150.658  1.00  0.00     0.230 C 
BRANCH   3   4
ATOM      4  N   UNL     1     158.266 153.044 151.869  1.00  0.00    -0.350 N 
ATOM      5  H   UNL     1     158.347 154.087 151.839  1.00  0.00     0.345 HD
ATOM      6  H   UNL     1     157.250 152.800 151.913  1.00  0.00     0.345 HD
ATOM      7  H   UNL     1     158.728 152.688 152.736  1.00  0.00     0.345 HD
ENDBRANCH   3   4
BRANCH   3   8
ATOM      8  C   UNL     1     159.786 153.444 149.989  1.00  0.00     0.099 C 
ATOM      9  O   UNL     1     161.024 153.221 149.955  1.00  0.00    -0.544 OA
ATOM     10  O   UNL     1     159.283 154.592 149.386  1.00  0.00    -0.544 OA
ENDBRANCH   3   8
ENDBRANCH   1   3
BRANCH   1  11
ATOM     11  C   UNL     1     156.441 151.542 150.405  1.00  0.00     0.006 C 
ATOM     12  C   UNL     1     155.997 150.096 150.173  1.00  0.00     0.004 C 
ENDBRANCH   1  11
TORSDOF 4
ENDMDL
MODEL 4
REMARK VINA RESULT:    -3.881     21.855     22.704
REMARK INTER + INTRA:          -4.759
REMARK INTER:                  -4.674
REMARK INTRA:                  -0.085
REMARK UNBOUND:                -0.085
REMARK SMILES CC[C@H](C)[C@H]([NH3+])C(=O)[O-]
REMARK SMILES IDX 3 1 4 2 5 3 6 4 7 8 8 9 9 10 2 11 1 12
REMARK H PARENT 6 5 6 6 6 7
REMARK Flexibility Score: inf
ROOT
ATOM      1  C   UNL     1     160.035 166.227 149.520  1.00  0.00     0.050 C 
ATOM      2  C   UNL     1     159.543 167.549 148.902  1.00  0.00     0.014 C 
ENDROOT
BRANCH   1   3
ATOM      3  C   UNL     1     158.996 165.592 150.501  1.00  0.00     0.230 C 
BRANCH   3   4
ATOM      4  N   UNL     1     159.568 165.371 151.837  1.00  0.00    -0.350 N 
ATOM      5  H   UNL     1     160.368 166.025 151.998  1.00  0.00     0.345 HD
ATOM      6  H   UNL     1     158.841 165.565 152.563  1.00  0.00     0.345 HD
ATOM      7  H   UNL     1     159.899 164.387 151.957  1.00  0.00     0.345 HD
ENDBRANCH   3   4
BRANCH   3   8
ATOM      8  C   UNL     1     158.393 164.314 149.964  1.00  0.00     0.099 C 
ATOM      9  O   UNL     1     159.135 163.335 149.690  1.00  0.00    -0.544 OA
ATOM     10  O   UNL     1     157.018 164.198 149.791  1.00  0.00    -0.544 OA
ENDBRANCH   3   8
ENDBRANCH   1   3
BRANCH   1  11
ATOM     11  C   UNL     1     161.425 166.449 150.169  1.00  0.00     0.006 C 
ATOM     12  C   UNL     1     161.899 167.902 150.105  1.00  0.00     0.004 C 
ENDBRANCH   1  11
TORSDOF 4
ENDMDL
MODEL 5
REMARK VINA RESULT:    -3.878     17.627     18.322
REMARK INTER + INTRA:          -4.756
REMARK INTER:                  -4.715
REMARK INTRA:                  -0.041
REMARK UNBOUND:                -0.085
REMARK SMILES CC[C@H](C)[C@H]([NH3+])C(=O)[O-]
REMARK SMILES IDX 3 1 4 2 5 3 6 4 7 8 8 9 9 10 2 11 1 12
REMARK H PARENT 6 5 6 6 6 7
REMARK Flexibility Score: inf
ROOT
ATOM      1  C   UNL     1     156.733 151.092 149.909  1.00  0.00     0.050 C 
ATOM      2  C   UNL     1     155.674 149.987 150.087  1.00  0.00     0.014 C 
ENDROOT
BRANCH   1   3
ATOM      3  C   UNL     1     158.171 150.523 149.682  1.00  0.00     0.230 C 
BRANCH   3   4
ATOM      4  N   UNL     1     158.401 149.290 150.450  1.00  0.00    -0.350 N 
ATOM      5  H   UNL     1     157.723 149.230 151.244  1.00  0.00     0.345 HD
ATOM      6  H   UNL     1     158.248 148.461 149.831  1.00  0.00     0.345 HD
ATOM      7  H   UNL     1     159.375 149.246 150.825  1.00  0.00     0.345 HD
ENDBRANCH   3   4
BRANCH   3   8
ATOM      8  C   UNL     1     159.252 151.537 149.972  1.00  0.00     0.099 C 
ATOM      9  O   UNL     1     160.152 151.275 150.812  1.00  0.00    -0.544 OA
ATOM     10  O   UNL     1     159.279 152.756 149.302  1.00  0.00    -0.544 OA
ENDBRANCH   3   8
ENDBRANCH   1   3
BRANCH   1  11
ATOM     11  C   UNL     1     156.652 152.078 151.102  1.00  0.00     0.006 C 
ATOM     12  C   UNL     1     155.966 153.400 150.750  1.00  0.00     0.004 C 
ENDBRANCH   1  11
TORSDOF 4
ENDMDL
MODEL 6
REMARK VINA RESULT:    -3.871     13.493     14.844
REMARK INTER + INTRA:          -4.748
REMARK INTER:                  -4.712
REMARK INTRA:                  -0.036
REMARK UNBOUND:                -0.085
REMARK SMILES CC[C@H](C)[C@H]([NH3+])C(=O)[O-]
REMARK SMILES IDX 3 1 4 2 5 3 6 4 7 8 8 9 9 10 2 11 1 12
REMARK H PARENT 6 5 6 6 6 7
REMARK Flexibility Score: inf
ROOT
ATOM      1  C   UNL     1     156.752 166.891 168.087  1.00  0.00     0.050 C 
ATOM      2  C   UNL     1     155.690 167.992 167.908  1.00  0.00     0.014 C 
ENDROOT
BRANCH   1   3
ATOM      3  C   UNL     1     158.189 167.465 168.316  1.00  0.00     0.230 C 
BRANCH   3   4
ATOM      4  N   UNL     1     158.419 168.693 167.541  1.00  0.00    -0.350 N 
ATOM      5  H   UNL     1     158.797 168.455 166.595  1.00  0.00     0.345 HD
ATOM      6  H   UNL     1     157.511 169.196 167.409  1.00  0.00     0.345 HD
ATOM      7  H   UNL     1     159.084 169.336 168.026  1.00  0.00     0.345 HD
ENDBRANCH   3   4
BRANCH   3   8
ATOM      8  C   UNL     1     159.273 166.451 168.036  1.00  0.00     0.099 C 
ATOM      9  O   UNL     1     160.183 166.714 167.208  1.00  0.00    -0.544 OA
ATOM     10  O   UNL     1     159.292 165.231 168.705  1.00  0.00    -0.544 OA
ENDBRANCH   3   8
ENDBRANCH   1   3
BRANCH   1  11
ATOM     11  C   UNL     1     156.677 165.905 166.893  1.00  0.00     0.006 C 
ATOM     12  C   UNL     1     155.943 164.605 167.226  1.00  0.00     0.004 C 
ENDBRANCH   1  11
TORSDOF 4
ENDMDL
MODEL 7
REMARK VINA RESULT:    -3.862     12.144     13.901
REMARK INTER + INTRA:          -4.737
REMARK INTER:                  -4.652
REMARK INTRA:                  -0.085
REMARK UNBOUND:                -0.085
REMARK SMILES CC[C@H](C)[C@H]([NH3+])C(=O)[O-]
REMARK SMILES IDX 3 1 4 2 5 3 6 4 7 8 8 9 9 10 2 11 1 12
REMARK H PARENT 6 5 6 6 6 7
REMARK Flexibility Score: inf
ROOT
ATOM      1  C   UNL     1     158.025 166.205 168.411  1.00  0.00     0.050 C 
ATOM      2  C   UNL     1     158.574 167.534 168.962  1.00  0.00     0.014 C 
ENDROOT
BRANCH   1   3
ATOM      3  C   UNL     1     158.982 165.537 167.371  1.00  0.00     0.230 C 
BRANCH   3   4
ATOM      4  N   UNL     1     158.317 165.309 166.080  1.00  0.00    -0.350 N 
ATOM      5  H   UNL     1     157.690 164.473 166.142  1.00  0.00     0.345 HD
ATOM      6  H   UNL     1     157.727 166.139 165.841  1.00  0.00     0.345 HD
ATOM      7  H   UNL     1     159.008 165.164 165.310  1.00  0.00     0.345 HD
ENDBRANCH   3   4
BRANCH   3   8
ATOM      8  C   UNL     1     159.599 164.257 167.884  1.00  0.00     0.099 C 
ATOM      9  O   UNL     1     158.902 163.212 167.966  1.00  0.00    -0.544 OA
ATOM     10  O   UNL     1     160.941 164.211 168.245  1.00  0.00    -0.544 OA
ENDBRANCH   3   8
ENDBRANCH   1   3
BRANCH   1  11
ATOM     11  C   UNL     1     156.593 166.429 167.860  1.00  0.00     0.006 C 
ATOM     12  C   UNL     1     156.152 167.894 167.896  1.00  0.00     0.004 C 
ENDBRANCH   1  11
TORSDOF 4
ENDMDL
MODEL 8
REMARK VINA RESULT:    -3.860      1.957      2.617
REMARK INTER + INTRA:          -4.734
REMARK INTER:                  -4.693
REMARK INTRA:                  -0.041
REMARK UNBOUND:                -0.085
REMARK SMILES CC[C@H](C)[C@H]([NH3+])C(=O)[O-]
REMARK SMILES IDX 3 1 4 2 5 3 6 4 7 8 8 9 9 10 2 11 1 12
REMARK H PARENT 6 5 6 6 6 7
REMARK Flexibility Score: inf
ROOT
ATOM      1  C   UNL     1     161.279 151.075 168.105  1.00  0.00     0.050 C 
ATOM      2  C   UNL     1     162.358 149.985 167.968  1.00  0.00     0.014 C 
ENDROOT
BRANCH   1   3
ATOM      3  C   UNL     1     159.847 150.487 168.324  1.00  0.00     0.230 C 
BRANCH   3   4
ATOM      4  N   UNL     1     159.655 149.224 167.595  1.00  0.00    -0.350 N 
ATOM      5  H   UNL     1     158.895 148.662 168.044  1.00  0.00     0.345 HD
ATOM      6  H   UNL     1     159.367 149.430 166.611  1.00  0.00     0.345 HD
ATOM      7  H   UNL     1     160.533 148.657 167.569  1.00  0.00     0.345 HD
ENDBRANCH   3   4
BRANCH   3   8
ATOM      8  C   UNL     1     158.753 151.470 167.976  1.00  0.00     0.099 C 
ATOM      9  O   UNL     1     157.884 151.167 167.118  1.00  0.00    -0.544 OA
ATOM     10  O   UNL     1     158.681 152.704 168.614  1.00  0.00    -0.544 OA
ENDBRANCH   3   8
ENDBRANCH   1   3
BRANCH   1  11
ATOM     11  C   UNL     1     161.361 152.035 166.890  1.00  0.00     0.006 C 
ATOM     12  C   UNL     1     162.017 153.376 167.221  1.00  0.00     0.004 C 
ENDBRANCH   1  11
TORSDOF 4
ENDMDL
MODEL 9
REMARK VINA RESULT:    -3.777     17.357     18.114
REMARK INTER + INTRA:          -4.634
REMARK INTER:                  -4.533
REMARK INTRA:                  -0.101
REMARK UNBOUND:                -0.085
REMARK SMILES CC[C@H](C)[C@H]([NH3+])C(=O)[O-]
REMARK SMILES IDX 3 1 4 2 5 3 6 4 7 8 8 9 9 10 2 11 1 12
REMARK H PARENT 6 5 6 6 6 7
REMARK Flexibility Score: inf
ROOT
ATOM      1  C   UNL     1     158.572 152.731 150.903  1.00  0.00     0.050 C 
ATOM      2  C   UNL     1     158.201 153.208 149.487  1.00  0.00     0.014 C 
ENDROOT
BRANCH   1   3
ATOM      3  C   UNL     1     159.062 151.246 150.934  1.00  0.00     0.230 C 
BRANCH   3   4
ATOM      4  N   UNL     1     160.520 151.146 150.776  1.00  0.00    -0.350 N 
ATOM      5  H   UNL     1     160.867 151.909 150.151  1.00  0.00     0.345 HD
ATOM      6  H   UNL     1     160.980 151.258 151.709  1.00  0.00     0.345 HD
ATOM      7  H   UNL     1     160.802 150.221 150.380  1.00  0.00     0.345 HD
ENDBRANCH   3   4
BRANCH   3   8
ATOM      8  C   UNL     1     158.357 150.378 149.918  1.00  0.00     0.099 C 
ATOM      9  O   UNL     1     158.961 150.014 148.875  1.00  0.00    -0.544 OA
ATOM     10  O   UNL     1     157.050 149.955 150.131  1.00  0.00    -0.544 OA
ENDBRANCH   3   8
ENDBRANCH   1   3
BRANCH   1  11
ATOM     11  C   UNL     1     157.385 152.998 151.864  1.00  0.00     0.006 C 
ATOM     12  C   UNL     1     156.046 153.159 151.143  1.00  0.00     0.004 C 
ENDBRANCH   1  11
TORSDOF 4
ENDMDL
