MODEL 1
REMARK VINA RESULT:    -2.990      0.000      0.000
REMARK INTER + INTRA:          -3.115
REMARK INTER:                  -3.514
REMARK INTRA:                   0.399
REMARK UNBOUND:                 0.399
REMARK SMILES O=c1c(O)c(-c2ccc(O)cc2)oc2cc(O)cc(O)c12
REMARK SMILES IDX 5 1 3 2 2 3 1 4 21 5 19 6 18 7 16 8 15 9 14 10 13 11 6 12
REMARK SMILES IDX 7 13 8 14 9 15 12 16 11 17 10 18 4 20 20 22 17 24
REMARK H PARENT 10 19 4 21 20 23 17 25
REMARK Flexibility Score: inf
ROOT
ATOM      1  C   UNL     1      48.622   6.763  66.990  1.00  0.00     0.180 A 
ATOM      2  C   UNL     1      47.509   7.582  67.260  1.00  0.00     0.208 A 
ATOM      3  C   UNL     1      46.306   6.981  67.660  1.00  0.00     0.238 A 
ATOM      4  O   UNL     1      45.305   7.704  67.915  1.00  0.00    -0.285 OA
ATOM      5  C   UNL     1      46.229   5.577  67.762  1.00  0.00     0.111 A 
ATOM      6  C   UNL     1      45.053   4.892  68.156  1.00  0.00     0.134 A 
ATOM      7  C   UNL     1      45.055   3.491  68.225  1.00  0.00     0.093 A 
ATOM      8  C   UNL     1      46.204   2.763  67.911  1.00  0.00     0.123 A 
ATOM      9  C   UNL     1      47.368   3.433  67.523  1.00  0.00     0.094 A 
ATOM     10  C   UNL     1      47.388   4.829  67.449  1.00  0.00     0.146 A 
ATOM     11  O   UNL     1      48.508   5.441  67.083  1.00  0.00    -0.452 OA
ENDROOT
BRANCH   1  12
ATOM     12  C   UNL     1      49.931   7.323  66.581  1.00  0.00     0.021 A 
ATOM     13  C   UNL     1      50.035   8.608  66.019  1.00  0.00     0.016 A 
ATOM     14  C   UNL     1      51.285   9.125  65.663  1.00  0.00     0.047 A 
ATOM     15  C   UNL     1      52.444   8.374  65.876  1.00  0.00     0.115 A 
ATOM     16  C   UNL     1      51.102   6.582  66.812  1.00  0.00     0.016 A 
ATOM     17  C   UNL     1      52.350   7.101  66.454  1.00  0.00     0.047 A 
BRANCH  15  18
ATOM     18  O   UNL     1      53.682   8.901  65.516  1.00  0.00    -0.508 OA
ATOM     19  H   UNL     1      53.767   9.619  64.806  1.00  0.00     0.293 HD
ENDBRANCH  15  18
ENDBRANCH   1  12
BRANCH   2  20
ATOM     20  O   UNL     1      47.597   8.968  67.102  1.00  0.00    -0.502 OA
ATOM     21  H   UNL     1      46.779   9.564  67.086  1.00  0.00     0.293 HD
ENDBRANCH   2  20
BRANCH   6  22
ATOM     22  O   UNL     1      43.888   5.591  68.475  1.00  0.00    -0.507 OA
ATOM     23  H   UNL     1      43.888   6.594  68.613  1.00  0.00     0.293 HD
ENDBRANCH   6  22
BRANCH   8  24
ATOM     24  O   UNL     1      46.178   1.373  67.987  1.00  0.00    -0.508 OA
ATOM     25  H   UNL     1      45.325   0.868  68.201  1.00  0.00     0.293 HD
ENDBRANCH   8  24
TORSDOF 5
ENDMDL
MODEL 2
REMARK VINA RESULT:    -2.887      1.378      3.289
REMARK INTER + INTRA:          -2.994
REMARK INTER:                  -3.312
REMARK INTRA:                   0.318
REMARK UNBOUND:                 0.399
REMARK SMILES O=c1c(O)c(-c2ccc(O)cc2)oc2cc(O)cc(O)c12
REMARK SMILES IDX 5 1 3 2 2 3 1 4 21 5 19 6 18 7 16 8 15 9 14 10 13 11 6 12
REMARK SMILES IDX 7 13 8 14 9 15 12 16 11 17 10 18 4 20 20 22 17 24
REMARK H PARENT 10 19 4 21 20 23 17 25
REMARK Flexibility Score: inf
ROOT
ATOM      1  C   UNL     1      48.755   6.770  67.304  1.00  0.00     0.180 A 
ATOM      2  C   UNL     1      48.381   5.421  67.163  1.00  0.00     0.208 A 
ATOM      3  C   UNL     1      47.122   5.013  67.630  1.00  0.00     0.238 A 
ATOM      4  O   UNL     1      46.772   3.808  67.501  1.00  0.00    -0.285 OA
ATOM      5  C   UNL     1      46.271   5.951  68.248  1.00  0.00     0.111 A 
ATOM      6  C   UNL     1      44.988   5.621  68.749  1.00  0.00     0.134 A 
ATOM      7  C   UNL     1      44.203   6.612  69.359  1.00  0.00     0.093 A 
ATOM      8  C   UNL     1      44.674   7.921  69.476  1.00  0.00     0.123 A 
ATOM      9  C   UNL     1      45.939   8.254  68.981  1.00  0.00     0.094 A 
ATOM     10  C   UNL     1      46.736   7.282  68.370  1.00  0.00     0.146 A 
ATOM     11  O   UNL     1      47.931   7.625  67.905  1.00  0.00    -0.452 OA
ENDROOT
BRANCH   1  12
ATOM     12  C   UNL     1      50.058   7.282  66.819  1.00  0.00     0.021 A 
ATOM     13  C   UNL     1      51.190   6.450  66.745  1.00  0.00     0.016 A 
ATOM     14  C   UNL     1      52.403   6.949  66.262  1.00  0.00     0.047 A 
ATOM     15  C   UNL     1      52.498   8.276  65.834  1.00  0.00     0.115 A 
ATOM     16  C   UNL     1      50.155   8.608  66.368  1.00  0.00     0.016 A 
ATOM     17  C   UNL     1      51.370   9.105  65.886  1.00  0.00     0.047 A 
BRANCH  15  18
ATOM     18  O   UNL     1      53.714   8.760  65.355  1.00  0.00    -0.508 OA
ATOM     19  H   UNL     1      54.412   9.148  65.978  1.00  0.00     0.293 HD
ENDBRANCH  15  18
ENDBRANCH   1  12
BRANCH   2  20
ATOM     20  O   UNL     1      49.264   4.499  66.594  1.00  0.00    -0.502 OA
ATOM     21  H   UNL     1      50.135   4.779  66.159  1.00  0.00     0.293 HD
ENDBRANCH   2  20
BRANCH   6  22
ATOM     22  O   UNL     1      44.490   4.321  68.648  1.00  0.00    -0.507 OA
ATOM     23  H   UNL     1      45.095   3.512  68.715  1.00  0.00     0.293 HD
ENDBRANCH   6  22
BRANCH   8  24
ATOM     24  O   UNL     1      43.875   8.885  70.086  1.00  0.00    -0.508 OA
ATOM     25  H   UNL     1      43.309   9.527  69.542  1.00  0.00     0.293 HD
ENDBRANCH   8  24
TORSDOF 5
ENDMDL
MODEL 3
REMARK VINA RESULT:    -2.736      1.687      3.139
REMARK INTER + INTRA:          -2.817
REMARK INTER:                  -2.919
REMARK INTRA:                   0.102
REMARK UNBOUND:                 0.399
REMARK SMILES O=c1c(O)c(-c2ccc(O)cc2)oc2cc(O)cc(O)c12
REMARK SMILES IDX 5 1 3 2 2 3 1 4 21 5 19 6 18 7 16 8 15 9 14 10 13 11 6 12
REMARK SMILES IDX 7 13 8 14 9 15 12 16 11 17 10 18 4 20 20 22 17 24
REMARK H PARENT 10 19 4 21 20 23 17 25
REMARK Flexibility Score: inf
ROOT
ATOM      1  C   UNL     1      48.178   6.300  67.531  1.00  0.00     0.180 A 
ATOM      2  C   UNL     1      47.725   5.088  66.977  1.00  0.00     0.208 A 
ATOM      3  C   UNL     1      46.533   4.525  67.459  1.00  0.00     0.238 A 
ATOM      4  O   UNL     1      46.111   3.445  66.964  1.00  0.00    -0.285 OA
ATOM      5  C   UNL     1      45.828   5.169  68.497  1.00  0.00     0.111 A 
ATOM      6  C   UNL     1      44.621   4.668  69.041  1.00  0.00     0.134 A 
ATOM      7  C   UNL     1      43.984   5.364  70.080  1.00  0.00     0.093 A 
ATOM      8  C   UNL     1      44.527   6.547  70.581  1.00  0.00     0.123 A 
ATOM      9  C   UNL     1      45.718   7.049  70.047  1.00  0.00     0.094 A 
ATOM     10  C   UNL     1      46.368   6.372  69.011  1.00  0.00     0.146 A 
ATOM     11  O   UNL     1      47.494   6.872  68.518  1.00  0.00    -0.452 OA
ENDROOT
BRANCH   1  12
ATOM     12  C   UNL     1      49.416   6.965  67.063  1.00  0.00     0.021 A 
ATOM     13  C   UNL     1      50.602   6.240  66.849  1.00  0.00     0.016 A 
ATOM     14  C   UNL     1      51.751   6.887  66.385  1.00  0.00     0.047 A 
ATOM     15  C   UNL     1      51.728   8.257  66.114  1.00  0.00     0.115 A 
ATOM     16  C   UNL     1      49.393   8.339  66.769  1.00  0.00     0.016 A 
ATOM     17  C   UNL     1      50.545   8.983  66.305  1.00  0.00     0.047 A 
BRANCH  15  18
ATOM     18  O   UNL     1      52.881   8.888  65.652  1.00  0.00    -0.508 OA
ATOM     19  H   UNL     1      52.884   9.420  64.789  1.00  0.00     0.293 HD
ENDBRANCH  15  18
ENDBRANCH   1  12
BRANCH   2  20
ATOM     20  O   UNL     1      48.468   4.442  65.985  1.00  0.00    -0.502 OA
ATOM     21  H   UNL     1      49.427   4.693  65.777  1.00  0.00     0.293 HD
ENDBRANCH   2  20
BRANCH   6  22
ATOM     22  O   UNL     1      44.053   3.486  68.562  1.00  0.00    -0.507 OA
ATOM     23  H   UNL     1      43.058   3.310  68.625  1.00  0.00     0.293 HD
ENDBRANCH   6  22
BRANCH   8  24
ATOM     24  O   UNL     1      43.875   7.219  71.613  1.00  0.00    -0.508 OA
ATOM     25  H   UNL     1      44.275   7.280  72.543  1.00  0.00     0.293 HD
ENDBRANCH   8  24
TORSDOF 5
ENDMDL
MODEL 4
REMARK VINA RESULT:    -2.453      1.665      2.070
REMARK INTER + INTRA:          -2.485
REMARK INTER:                  -2.286
REMARK INTRA:                  -0.199
REMARK UNBOUND:                 0.399
REMARK SMILES O=c1c(O)c(-c2ccc(O)cc2)oc2cc(O)cc(O)c12
REMARK SMILES IDX 5 1 3 2 2 3 1 4 21 5 19 6 18 7 16 8 15 9 14 10 13 11 6 12
REMARK SMILES IDX 7 13 8 14 9 15 12 16 11 17 10 18 4 20 20 22 17 24
REMARK H PARENT 10 19 4 21 20 23 17 25
REMARK Flexibility Score: inf
ROOT
ATOM      1  C   UNL     1      47.999   6.364  67.863  1.00  0.00     0.180 A 
ATOM      2  C   UNL     1      47.478   6.689  69.129  1.00  0.00     0.208 A 
ATOM      3  C   UNL     1      46.306   6.052  69.566  1.00  0.00     0.238 A 
ATOM      4  O   UNL     1      45.836   6.328  70.703  1.00  0.00    -0.285 OA
ATOM      5  C   UNL     1      45.665   5.120  68.724  1.00  0.00     0.111 A 
ATOM      6  C   UNL     1      44.479   4.437  69.087  1.00  0.00     0.134 A 
ATOM      7  C   UNL     1      43.896   3.530  68.188  1.00  0.00     0.093 A 
ATOM      8  C   UNL     1      44.475   3.293  66.940  1.00  0.00     0.123 A 
ATOM      9  C   UNL     1      45.647   3.964  66.577  1.00  0.00     0.094 A 
ATOM     10  C   UNL     1      46.244   4.870  67.458  1.00  0.00     0.146 A 
ATOM     11  O   UNL     1      47.359   5.490  67.090  1.00  0.00    -0.452 OA
ENDROOT
BRANCH   1  12
ATOM     12  C   UNL     1      49.241   6.978  67.340  1.00  0.00     0.021 A 
ATOM     13  C   UNL     1      50.427   6.233  67.207  1.00  0.00     0.016 A 
ATOM     14  C   UNL     1      51.581   6.829  66.689  1.00  0.00     0.047 A 
ATOM     15  C   UNL     1      51.562   8.166  66.284  1.00  0.00     0.115 A 
ATOM     16  C   UNL     1      49.223   8.316  66.913  1.00  0.00     0.016 A 
ATOM     17  C   UNL     1      50.379   8.909  66.395  1.00  0.00     0.047 A 
BRANCH  15  18
ATOM     18  O   UNL     1      52.719   8.747  65.770  1.00  0.00    -0.508 OA
ATOM     19  H   UNL     1      53.518   8.950  66.360  1.00  0.00     0.293 HD
ENDBRANCH  15  18
ENDBRANCH   1  12
BRANCH   2  20
ATOM     20  O   UNL     1      48.104   7.654  69.924  1.00  0.00    -0.502 OA
ATOM     21  H   UNL     1      48.887   7.434  70.528  1.00  0.00     0.293 HD
ENDBRANCH   2  20
BRANCH   6  22
ATOM     22  O   UNL     1      43.876   4.653  70.327  1.00  0.00    -0.507 OA
ATOM     23  H   UNL     1      44.248   4.248  71.178  1.00  0.00     0.293 HD
ENDBRANCH   6  22
BRANCH   8  24
ATOM     24  O   UNL     1      43.876   2.388  66.067  1.00  0.00    -0.508 OA
ATOM     25  H   UNL     1      43.762   1.411  66.311  1.00  0.00     0.293 HD
ENDBRANCH   8  24
TORSDOF 5
ENDMDL
