MODEL 1
REMARK VINA RESULT:    -4.603      0.000      0.000
REMARK INTER + INTRA:          -4.603
REMARK INTER:                  -4.603
REMARK INTRA:                   0.000
REMARK UNBOUND:                 0.000
REMARK SMILES CC1(C)O[C@]2(C)CC[C@H]1CC2
REMARK SMILES IDX 1 1 2 2 9 3 8 4 7 5 5 6 4 7 11 8 10 9 6 10 3 11
REMARK H PARENT
REMARK Flexibility Score: inf
ROOT
ATOM      1  C   UNL     1     -37.440  76.082 -28.034  1.00  0.00     0.042 C 
ATOM      2  C   UNL     1     -36.513  75.074 -27.322  1.00  0.00     0.066 C 
ATOM      3  C   UNL     1     -35.657  74.266 -28.372  1.00  0.00     0.021 C 
ATOM      4  C   UNL     1     -34.713  73.311 -27.603  1.00  0.00     0.009 C 
ATOM      5  C   UNL     1     -33.933  74.117 -26.537  1.00  0.00     0.035 C 
ATOM      6  C   UNL     1     -34.288  75.628 -26.654  1.00  0.00     0.066 C 
ATOM      7  O   UNL     1     -35.684  75.802 -26.405  1.00  0.00    -0.369 OA
ATOM      8  C   UNL     1     -33.961  76.113 -28.095  1.00  0.00     0.035 C 
ATOM      9  C   UNL     1     -34.740  75.260 -29.125  1.00  0.00     0.009 C 
ATOM     10  C   UNL     1     -33.497  76.443 -25.625  1.00  0.00     0.042 C 
ATOM     11  C   UNL     1     -37.413  74.123 -26.504  1.00  0.00     0.042 C 
ENDROOT
TORSDOF 0
ENDMDL
MODEL 2
REMARK VINA RESULT:    -4.544     16.647     18.135
REMARK INTER + INTRA:          -4.544
REMARK INTER:                  -4.544
REMARK INTRA:                   0.000
REMARK UNBOUND:                 0.000
REMARK SMILES CC1(C)O[C@]2(C)CC[C@H]1CC2
REMARK SMILES IDX 1 1 2 2 9 3 8 4 7 5 5 6 4 7 11 8 10 9 6 10 3 11
REMARK H PARENT
REMARK Flexibility Score: inf
ROOT
ATOM      1  C   UNL     1     -39.190  75.064  -9.075  1.00  0.00     0.042 C 
ATOM      2  C   UNL     1     -39.109  73.675  -9.746  1.00  0.00     0.066 C 
ATOM      3  C   UNL     1     -39.897  72.601  -8.901  1.00  0.00     0.021 C 
ATOM      4  C   UNL     1     -39.826  71.246  -9.644  1.00  0.00     0.009 C 
ATOM      5  C   UNL     1     -40.274  71.447 -11.112  1.00  0.00     0.035 C 
ATOM      6  C   UNL     1     -40.732  72.919 -11.325  1.00  0.00     0.066 C 
ATOM      7  O   UNL     1     -39.631  73.793 -11.077  1.00  0.00    -0.369 OA
ATOM      8  C   UNL     1     -41.878  73.242 -10.324  1.00  0.00     0.035 C 
ATOM      9  C   UNL     1     -41.392  72.998  -8.875  1.00  0.00     0.009 C 
ATOM     10  C   UNL     1     -41.211  73.124 -12.767  1.00  0.00     0.042 C 
ATOM     11  C   UNL     1     -37.615  73.302  -9.848  1.00  0.00     0.042 C 
ENDROOT
TORSDOF 0
ENDMDL
MODEL 3
REMARK VINA RESULT:    -4.473     16.294     17.665
REMARK INTER + INTRA:          -4.473
REMARK INTER:                  -4.473
REMARK INTRA:                   0.000
REMARK UNBOUND:                 0.000
REMARK SMILES CC1(C)O[C@]2(C)CC[C@H]1CC2
REMARK SMILES IDX 1 1 2 2 9 3 8 4 7 5 5 6 4 7 11 8 10 9 6 10 3 11
REMARK H PARENT
REMARK Flexibility Score: inf
ROOT
ATOM      1  C   UNL     1     -41.452  74.526 -11.603  1.00  0.00     0.042 C 
ATOM      2  C   UNL     1     -39.976  74.156 -11.341  1.00  0.00     0.066 C 
ATOM      3  C   UNL     1     -39.551  74.563  -9.877  1.00  0.00     0.021 C 
ATOM      4  C   UNL     1     -38.084  74.124  -9.654  1.00  0.00     0.009 C 
ATOM      5  C   UNL     1     -37.937  72.632 -10.034  1.00  0.00     0.035 C 
ATOM      6  C   UNL     1     -39.325  72.048 -10.426  1.00  0.00     0.066 C 
ATOM      7  O   UNL     1     -39.822  72.748 -11.568  1.00  0.00    -0.369 OA
ATOM      8  C   UNL     1     -40.309  72.244  -9.238  1.00  0.00     0.035 C 
ATOM      9  C   UNL     1     -40.400  73.746  -8.875  1.00  0.00     0.009 C 
ATOM     10  C   UNL     1     -39.199  70.560 -10.774  1.00  0.00     0.042 C 
ATOM     11  C   UNL     1     -39.123  74.906 -12.386  1.00  0.00     0.042 C 
ENDROOT
TORSDOF 0
ENDMDL
MODEL 4
REMARK VINA RESULT:    -4.441      1.083      3.304
REMARK INTER + INTRA:          -4.441
REMARK INTER:                  -4.441
REMARK INTRA:                   0.000
REMARK UNBOUND:                 0.000
REMARK SMILES CC1(C)O[C@]2(C)CC[C@H]1CC2
REMARK SMILES IDX 1 1 2 2 9 3 8 4 7 5 5 6 4 7 11 8 10 9 6 10 3 11
REMARK H PARENT
REMARK Flexibility Score: inf
ROOT
ATOM      1  C   UNL     1     -33.579  74.053 -26.874  1.00  0.00     0.042 C 
ATOM      2  C   UNL     1     -34.640  75.007 -27.464  1.00  0.00     0.066 C 
ATOM      3  C   UNL     1     -35.457  74.293 -28.608  1.00  0.00     0.021 C 
ATOM      4  C   UNL     1     -36.536  75.275 -29.125  1.00  0.00     0.009 C 
ATOM      5  C   UNL     1     -37.346  75.818 -27.923  1.00  0.00     0.035 C 
ATOM      6  C   UNL     1     -36.868  75.131 -26.612  1.00  0.00     0.066 C 
ATOM      7  O   UNL     1     -35.491  75.442 -26.394  1.00  0.00    -0.369 OA
ATOM      8  C   UNL     1     -37.025  73.591 -26.762  1.00  0.00     0.035 C 
ATOM      9  C   UNL     1     -36.224  73.099 -27.992  1.00  0.00     0.009 C 
ATOM     10  C   UNL     1     -37.684  75.636 -25.417  1.00  0.00     0.042 C 
ATOM     11  C   UNL     1     -33.892  76.241 -28.014  1.00  0.00     0.042 C 
ENDROOT
TORSDOF 0
ENDMDL
MODEL 5
REMARK VINA RESULT:    -4.419     16.512     17.972
REMARK INTER + INTRA:          -4.419
REMARK INTER:                  -4.419
REMARK INTRA:                   0.000
REMARK UNBOUND:                 0.000
REMARK SMILES CC1(C)O[C@]2(C)CC[C@H]1CC2
REMARK SMILES IDX 1 1 2 2 9 3 8 4 7 5 5 6 4 7 11 8 10 9 6 10 3 11
REMARK H PARENT
REMARK Flexibility Score: inf
ROOT
ATOM      1  C   UNL     1     -41.879  72.627 -12.651  1.00  0.00     0.042 C 
ATOM      2  C   UNL     1     -41.109  73.128 -11.410  1.00  0.00     0.066 C 
ATOM      3  C   UNL     1     -41.862  72.722 -10.085  1.00  0.00     0.021 C 
ATOM      4  C   UNL     1     -41.022  73.203  -8.877  1.00  0.00     0.009 C 
ATOM      5  C   UNL     1     -39.568  72.699  -9.037  1.00  0.00     0.035 C 
ATOM      6  C   UNL     1     -39.456  71.805 -10.306  1.00  0.00     0.066 C 
ATOM      7  O   UNL     1     -39.783  72.583 -11.458  1.00  0.00    -0.369 OA
ATOM      8  C   UNL     1     -40.463  70.626 -10.183  1.00  0.00     0.035 C 
ATOM      9  C   UNL     1     -41.897  71.178  -9.995  1.00  0.00     0.009 C 
ATOM     10  C   UNL     1     -38.027  71.272 -10.458  1.00  0.00     0.042 C 
ATOM     11  C   UNL     1     -41.000  74.664 -11.527  1.00  0.00     0.042 C 
ENDROOT
TORSDOF 0
ENDMDL
MODEL 6
REMARK VINA RESULT:    -4.392     16.383     17.724
REMARK INTER + INTRA:          -4.392
REMARK INTER:                  -4.392
REMARK INTRA:                   0.000
REMARK UNBOUND:                 0.000
REMARK SMILES CC1(C)O[C@]2(C)CC[C@H]1CC2
REMARK SMILES IDX 1 1 2 2 9 3 8 4 7 5 5 6 4 7 11 8 10 9 6 10 3 11
REMARK H PARENT
REMARK Flexibility Score: inf
ROOT
ATOM      1  C   UNL     1     -39.252  70.634 -10.822  1.00  0.00     0.042 C 
ATOM      2  C   UNL     1     -40.045  71.915 -10.484  1.00  0.00     0.066 C 
ATOM      3  C   UNL     1     -39.528  72.551  -9.137  1.00  0.00     0.021 C 
ATOM      4  C   UNL     1     -40.320  73.855  -8.875  1.00  0.00     0.009 C 
ATOM      5  C   UNL     1     -40.260  74.748 -10.138  1.00  0.00     0.035 C 
ATOM      6  C   UNL     1     -39.352  74.081 -11.211  1.00  0.00     0.066 C 
ATOM      7  O   UNL     1     -39.914  72.823 -11.587  1.00  0.00    -0.369 OA
ATOM      8  C   UNL     1     -37.939  73.849 -10.604  1.00  0.00     0.035 C 
ATOM      9  C   UNL     1     -38.053  72.978  -9.330  1.00  0.00     0.009 C 
ATOM     10  C   UNL     1     -39.256  74.972 -12.456  1.00  0.00     0.042 C 
ATOM     11  C   UNL     1     -41.531  71.516 -10.365  1.00  0.00     0.042 C 
ENDROOT
TORSDOF 0
ENDMDL
MODEL 7
REMARK VINA RESULT:    -4.390     16.655     18.102
REMARK INTER + INTRA:          -4.390
REMARK INTER:                  -4.390
REMARK INTRA:                   0.000
REMARK UNBOUND:                 0.000
REMARK SMILES CC1(C)O[C@]2(C)CC[C@H]1CC2
REMARK SMILES IDX 1 1 2 2 9 3 8 4 7 5 5 6 4 7 11 8 10 9 6 10 3 11
REMARK H PARENT
REMARK Flexibility Score: inf
ROOT
ATOM      1  C   UNL     1     -37.897  71.891 -10.383  1.00  0.00     0.042 C 
ATOM      2  C   UNL     1     -39.431  72.028 -10.278  1.00  0.00     0.066 C 
ATOM      3  C   UNL     1     -39.838  72.699  -8.909  1.00  0.00     0.021 C 
ATOM      4  C   UNL     1     -41.378  72.858  -8.881  1.00  0.00     0.009 C 
ATOM      5  C   UNL     1     -41.839  73.572 -10.174  1.00  0.00     0.035 C 
ATOM      6  C   UNL     1     -40.599  73.972 -11.025  1.00  0.00     0.066 C 
ATOM      7  O   UNL     1     -39.888  72.793 -11.402  1.00  0.00    -0.369 OA
ATOM      8  C   UNL     1     -39.669  74.878 -10.169  1.00  0.00     0.035 C 
ATOM      9  C   UNL     1     -39.259  74.133  -8.875  1.00  0.00     0.009 C 
ATOM     10  C   UNL     1     -41.040  74.711 -12.294  1.00  0.00     0.042 C 
ATOM     11  C   UNL     1     -40.027  70.608 -10.389  1.00  0.00     0.042 C 
ENDROOT
TORSDOF 0
ENDMDL
MODEL 8
REMARK VINA RESULT:    -4.352     16.483     17.842
REMARK INTER + INTRA:          -4.352
REMARK INTER:                  -4.352
REMARK INTRA:                   0.000
REMARK UNBOUND:                 0.000
REMARK SMILES CC1(C)O[C@]2(C)CC[C@H]1CC2
REMARK SMILES IDX 1 1 2 2 9 3 8 4 7 5 5 6 4 7 11 8 10 9 6 10 3 11
REMARK H PARENT
REMARK Flexibility Score: inf
ROOT
ATOM      1  C   UNL     1     -38.516  74.867 -11.364  1.00  0.00     0.042 C 
ATOM      2  C   UNL     1     -39.305  74.085 -10.292  1.00  0.00     0.066 C 
ATOM      3  C   UNL     1     -40.858  74.226 -10.529  1.00  0.00     0.021 C 
ATOM      4  C   UNL     1     -41.594  73.383  -9.460  1.00  0.00     0.009 C 
ATOM      5  C   UNL     1     -41.015  71.948  -9.457  1.00  0.00     0.035 C 
ATOM      6  C   UNL     1     -39.954  71.806 -10.585  1.00  0.00     0.066 C 
ATOM      7  O   UNL     1     -38.881  72.715 -10.338  1.00  0.00    -0.369 OA
ATOM      8  C   UNL     1     -40.616  72.156 -11.949  1.00  0.00     0.035 C 
ATOM      9  C   UNL     1     -41.205  73.586 -11.893  1.00  0.00     0.009 C 
ATOM     10  C   UNL     1     -39.396  70.378 -10.615  1.00  0.00     0.042 C 
ATOM     11  C   UNL     1     -38.907  74.664  -8.917  1.00  0.00     0.042 C 
ENDROOT
TORSDOF 0
ENDMDL
MODEL 9
REMARK VINA RESULT:    -4.180     16.025     17.346
REMARK INTER + INTRA:          -4.180
REMARK INTER:                  -4.180
REMARK INTRA:                   0.000
REMARK UNBOUND:                 0.000
REMARK SMILES CC1(C)O[C@]2(C)CC[C@H]1CC2
REMARK SMILES IDX 1 1 2 2 9 3 8 4 7 5 5 6 4 7 11 8 10 9 6 10 3 11
REMARK H PARENT
REMARK Flexibility Score: inf
ROOT
ATOM      1  C   UNL     1     -38.484  75.814 -12.695  1.00  0.00     0.042 C 
ATOM      2  C   UNL     1     -38.172  75.466 -11.223  1.00  0.00     0.066 C 
ATOM      3  C   UNL     1     -39.457  75.641 -10.325  1.00  0.00     0.021 C 
ATOM      4  C   UNL     1     -39.100  75.231  -8.876  1.00  0.00     0.009 C 
ATOM      5  C   UNL     1     -38.444  73.829  -8.892  1.00  0.00     0.035 C 
ATOM      6  C   UNL     1     -38.445  73.264 -10.341  1.00  0.00     0.066 C 
ATOM      7  O   UNL     1     -37.671  74.123 -11.180  1.00  0.00    -0.369 OA
ATOM      8  C   UNL     1     -39.908  73.219 -10.866  1.00  0.00     0.035 C 
ATOM      9  C   UNL     1     -40.530  74.635 -10.804  1.00  0.00     0.009 C 
ATOM     10  C   UNL     1     -37.827  71.861 -10.366  1.00  0.00     0.042 C 
ATOM     11  C   UNL     1     -37.046  76.414 -10.757  1.00  0.00     0.042 C 
ENDROOT
TORSDOF 0
ENDMDL
