MODEL 1
REMARK VINA RESULT:     4.254      0.000      0.000
REMARK INTER + INTRA:           8.352
REMARK INTER:                   5.994
REMARK INTRA:                   2.358
REMARK UNBOUND:                 2.358
REMARK SMILES C=C(CC[C@@H](C(=O)[O-])[C@H]1[C@@H](O)C[C@@]2(C)C3=C(CC[C@@]12C)[C@@]1(C)CC[C@H](O)C(C)(C)[C@@H]1CC3)C(C)C
REMARK SMILES IDX 4 1 5 2 6 3 7 4 8 5 9 6 10 7 19 8 12 9 13 10 18 11 20 12
REMARK SMILES IDX 14 13 15 14 17 15 16 16 32 17 21 18 31 19 30 20 23 21 22 22
REMARK SMILES IDX 27 23 24 24 25 25 28 26 29 27 11 28 26 30 3 32 2 33 1 34
REMARK SMILES IDX 33 35 34 36 35 37
REMARK H PARENT 11 29 26 31
REMARK Flexibility Score: inf
ROOT
ATOM      1  C   UNL     1      28.371  33.535  23.426  1.00  0.00     0.014 C 
ENDROOT
BRANCH   1   2
ATOM      2  C   UNL     1      28.655  33.827  21.928  1.00  0.00     0.042 C 
BRANCH   2   3
ATOM      3  C   UNL     1      28.988  32.531  21.233  1.00  0.00     0.045 C 
ATOM      4  O   UNL     1      29.125  32.496  19.982  1.00  0.00    -0.550 OA
ATOM      5  O   UNL     1      29.125  31.358  21.965  1.00  0.00    -0.550 OA
ENDBRANCH   2   3
BRANCH   2   6
ATOM      6  C   UNL     1      27.437  34.544  21.240  1.00  0.00     0.033 C 
ATOM      7  C   UNL     1      26.270  34.840  22.207  1.00  0.00     0.119 C 
ATOM      8  C   UNL     1      27.682  35.878  20.443  1.00  0.00    -0.017 C 
ATOM      9  C   UNL     1      25.501  36.036  21.639  1.00  0.00     0.043 C 
ATOM     10  C   UNL     1      26.235  36.518  20.358  1.00  0.00    -0.003 C 
ATOM     11  C   UNL     1      28.703  36.849  21.145  1.00  0.00     0.012 C 
ATOM     12  C   UNL     1      28.264  35.577  19.029  1.00  0.00     0.013 C 
ATOM     13  C   UNL     1      25.419  35.958  19.147  1.00  0.00     0.017 C 
ATOM     14  C   UNL     1      26.279  38.069  20.359  1.00  0.00    -0.064 C 
ATOM     15  C   UNL     1      28.070  37.886  22.068  1.00  0.00     0.032 C 
ATOM     16  C   UNL     1      27.048  38.708  21.301  1.00  0.00    -0.064 C 
ATOM     17  C   UNL     1      25.429  38.867  19.349  1.00  0.00     0.032 C 
ATOM     18  C   UNL     1      26.848  40.219  21.530  1.00  0.00    -0.008 C 
ATOM     19  C   UNL     1      25.609  40.407  19.322  1.00  0.00     0.009 C 
ATOM     20  C   UNL     1      26.870  40.843  20.090  1.00  0.00     0.007 C 
ATOM     21  C   UNL     1      27.915  40.914  22.442  1.00  0.00     0.014 C 
ATOM     22  C   UNL     1      25.485  40.363  22.272  1.00  0.00     0.016 C 
ATOM     23  C   UNL     1      27.284  42.360  20.005  1.00  0.00    -0.006 C 
ATOM     24  C   UNL     1      29.125  41.414  21.654  1.00  0.00     0.033 C 
ATOM     25  C   UNL     1      28.731  42.516  20.630  1.00  0.00     0.120 C 
ATOM     26  C   UNL     1      26.249  43.293  20.687  1.00  0.00     0.014 C 
ATOM     27  C   UNL     1      27.365  42.802  18.519  1.00  0.00     0.014 C 
BRANCH   7  28
ATOM     28  O   UNL     1      26.740  35.134  23.499  1.00  0.00    -0.393 OA
ATOM     29  H   UNL     1      27.657  35.500  23.394  1.00  0.00     0.210 HD
ENDBRANCH   7  28
BRANCH  25  30
ATOM     30  O   UNL     1      28.940  43.806  21.156  1.00  0.00    -0.393 OA
ATOM     31  H   UNL     1      29.635  44.254  20.608  1.00  0.00     0.210 HD
ENDBRANCH  25  30
ENDBRANCH   2   6
ENDBRANCH   1   2
BRANCH   1  32
ATOM     32  C   UNL     1      27.544  32.253  23.669  1.00  0.00     0.031 C 
BRANCH  32  33
ATOM     33  C   UNL     1      28.065  31.389  24.810  1.00  0.00    -0.075 C 
ATOM     34  C   UNL     1      29.109  31.820  25.543  1.00  0.00     0.008 C 
BRANCH  33  35
ATOM     35  C   UNL     1      27.302  30.150  25.269  1.00  0.00     0.008 C 
ATOM     36  C   UNL     1      27.643  29.754  26.708  1.00  0.00     0.012 C 
ATOM     37  C   UNL     1      27.548  28.980  24.310  1.00  0.00     0.012 C 
ENDBRANCH  33  35
ENDBRANCH  32  33
ENDBRANCH   1  32
TORSDOF 8
ENDMDL
