MODEL 1
REMARK VINA RESULT:    13.328      0.000      0.000
REMARK INTER + INTRA:          16.393
REMARK INTER:                  16.055
REMARK INTRA:                   0.338
REMARK UNBOUND:                 0.338
REMARK SMILES O=c1c(O)c(-c2ccc(O)c(O)c2)oc2cc(O)cc(O)c12
REMARK SMILES IDX 5 1 3 2 2 3 1 4 22 5 20 6 19 7 17 8 16 9 15 10 14 11 6 12
REMARK SMILES IDX 7 13 8 14 9 15 13 16 11 17 10 18 12 20 4 22 21 24 18 26
REMARK H PARENT 10 19 12 21 4 23 21 25 18 27
REMARK Flexibility Score: inf
ROOT
ATOM      1  C   UNL     1       9.752  23.119  -5.411  1.00  0.00     0.180 A 
ATOM      2  C   UNL     1      10.126  23.819  -4.247  1.00  0.00     0.208 A 
ATOM      3  C   UNL     1      11.480  23.843  -3.878  1.00  0.00     0.238 A 
ATOM      4  O   UNL     1      11.829  24.476  -2.843  1.00  0.00    -0.285 OA
ATOM      5  C   UNL     1      12.430  23.156  -4.660  1.00  0.00     0.111 A 
ATOM      6  C   UNL     1      13.811  23.127  -4.354  1.00  0.00     0.134 A 
ATOM      7  C   UNL     1      14.692  22.412  -5.178  1.00  0.00     0.093 A 
ATOM      8  C   UNL     1      14.221  21.725  -6.299  1.00  0.00     0.123 A 
ATOM      9  C   UNL     1      12.856  21.749  -6.607  1.00  0.00     0.094 A 
ATOM     10  C   UNL     1      11.962  22.458  -5.799  1.00  0.00     0.146 A 
ATOM     11  O   UNL     1      10.673  22.470  -6.117  1.00  0.00    -0.452 OA
ENDROOT
BRANCH   1  12
ATOM     12  C   UNL     1       8.348  23.062  -5.878  1.00  0.00     0.025 A 
ATOM     13  C   UNL     1       7.856  21.951  -6.586  1.00  0.00     0.016 A 
ATOM     14  C   UNL     1       6.522  21.909  -6.997  1.00  0.00     0.051 A 
ATOM     15  C   UNL     1       5.656  22.965  -6.696  1.00  0.00     0.157 A 
ATOM     16  C   UNL     1       7.470  24.111  -5.560  1.00  0.00     0.062 A 
ATOM     17  C   UNL     1       6.130  24.070  -5.972  1.00  0.00     0.158 A 
BRANCH  15  18
ATOM     18  O   UNL     1       4.329  22.895  -7.121  1.00  0.00    -0.504 OA
ATOM     19  H   UNL     1       4.081  22.808  -8.099  1.00  0.00     0.293 HD
ENDBRANCH  15  18
BRANCH  17  20
ATOM     20  O   UNL     1       5.270  25.123  -5.662  1.00  0.00    -0.504 OA
ATOM     21  H   UNL     1       4.328  24.959  -5.326  1.00  0.00     0.293 HD
ENDBRANCH  17  20
ENDBRANCH   1  12
BRANCH   2  22
ATOM     22  O   UNL     1       9.159  24.452  -3.462  1.00  0.00    -0.502 OA
ATOM     23  H   UNL     1       8.184  24.491  -3.730  1.00  0.00     0.293 HD
ENDBRANCH   2  22
BRANCH   6  24
ATOM     24  O   UNL     1      14.314  23.803  -3.240  1.00  0.00    -0.507 OA
ATOM     25  H   UNL     1      14.864  23.329  -2.534  1.00  0.00     0.293 HD
ENDBRANCH   6  24
BRANCH   8  26
ATOM     26  O   UNL     1      15.116  21.021  -7.101  1.00  0.00    -0.508 OA
ATOM     27  H   UNL     1      14.825  20.210  -7.635  1.00  0.00     0.293 HD
ENDBRANCH   8  26
TORSDOF 6
ENDMDL
MODEL 2
REMARK VINA RESULT:    13.733      1.408      3.189
REMARK INTER + INTRA:          16.881
REMARK INTER:                  16.485
REMARK INTRA:                   0.396
REMARK UNBOUND:                 0.338
REMARK SMILES O=c1c(O)c(-c2ccc(O)c(O)c2)oc2cc(O)cc(O)c12
REMARK SMILES IDX 5 1 3 2 2 3 1 4 22 5 20 6 19 7 17 8 16 9 15 10 14 11 6 12
REMARK SMILES IDX 7 13 8 14 9 15 13 16 11 17 10 18 12 20 4 22 21 24 18 26
REMARK H PARENT 10 19 12 21 4 23 21 25 18 27
REMARK Flexibility Score: inf
ROOT
ATOM      1  C   UNL     1      10.574  23.194  -5.434  1.00  0.00     0.180 A 
ATOM      2  C   UNL     1      11.251  22.167  -6.119  1.00  0.00     0.208 A 
ATOM      3  C   UNL     1      12.591  21.905  -5.796  1.00  0.00     0.238 A 
ATOM      4  O   UNL     1      13.205  20.980  -6.396  1.00  0.00    -0.285 OA
ATOM      5  C   UNL     1      13.237  22.682  -4.813  1.00  0.00     0.111 A 
ATOM      6  C   UNL     1      14.585  22.485  -4.431  1.00  0.00     0.134 A 
ATOM      7  C   UNL     1      15.158  23.308  -3.450  1.00  0.00     0.093 A 
ATOM      8  C   UNL     1      14.411  24.320  -2.843  1.00  0.00     0.123 A 
ATOM      9  C   UNL     1      13.077  24.520  -3.216  1.00  0.00     0.094 A 
ATOM     10  C   UNL     1      12.488  23.710  -4.190  1.00  0.00     0.146 A 
ATOM     11  O   UNL     1      11.219  23.917  -4.521  1.00  0.00    -0.452 OA
ENDROOT
BRANCH   1  12
ATOM     12  C   UNL     1       9.155  23.519  -5.703  1.00  0.00     0.025 A 
ATOM     13  C   UNL     1       8.636  24.801  -5.448  1.00  0.00     0.016 A 
ATOM     14  C   UNL     1       7.299  25.091  -5.732  1.00  0.00     0.051 A 
ATOM     15  C   UNL     1       6.466  24.115  -6.287  1.00  0.00     0.157 A 
ATOM     16  C   UNL     1       8.320  22.547  -6.280  1.00  0.00     0.062 A 
ATOM     17  C   UNL     1       6.978  22.837  -6.565  1.00  0.00     0.158 A 
BRANCH  15  18
ATOM     18  O   UNL     1       5.135  24.434  -6.559  1.00  0.00    -0.504 OA
ATOM     19  H   UNL     1       4.878  25.103  -7.274  1.00  0.00     0.293 HD
ENDBRANCH  15  18
BRANCH  17  20
ATOM     20  O   UNL     1       6.155  21.861  -7.125  1.00  0.00    -0.504 OA
ATOM     21  H   UNL     1       5.272  21.602  -6.699  1.00  0.00     0.293 HD
ENDBRANCH  17  20
ENDBRANCH   1  12
BRANCH   2  22
ATOM     22  O   UNL     1      10.603  21.444  -7.125  1.00  0.00    -0.502 OA
ATOM     23  H   UNL     1      10.912  20.525  -7.415  1.00  0.00     0.293 HD
ENDBRANCH   2  22
BRANCH   6  24
ATOM     24  O   UNL     1      15.359  21.483  -5.019  1.00  0.00    -0.507 OA
ATOM     25  H   UNL     1      15.054  20.995  -5.853  1.00  0.00     0.293 HD
ENDBRANCH   6  24
BRANCH   8  26
ATOM     26  O   UNL     1      15.005  25.123  -1.872  1.00  0.00    -0.508 OA
ATOM     27  H   UNL     1      15.833  25.672  -2.072  1.00  0.00     0.293 HD
ENDBRANCH   8  26
TORSDOF 6
ENDMDL
MODEL 3
REMARK VINA RESULT:    15.310      1.913      3.498
REMARK INTER + INTRA:          18.780
REMARK INTER:                  19.085
REMARK INTRA:                  -0.304
REMARK UNBOUND:                 0.338
REMARK SMILES O=c1c(O)c(-c2ccc(O)c(O)c2)oc2cc(O)cc(O)c12
REMARK SMILES IDX 5 1 3 2 2 3 1 4 22 5 20 6 19 7 17 8 16 9 15 10 14 11 6 12
REMARK SMILES IDX 7 13 8 14 9 15 13 16 11 17 10 18 12 20 4 22 21 24 18 26
REMARK H PARENT 10 19 12 21 4 23 21 25 18 27
REMARK Flexibility Score: inf
ROOT
ATOM      1  C   UNL     1      10.577  23.307  -4.914  1.00  0.00     0.180 A 
ATOM      2  C   UNL     1      11.733  23.550  -5.680  1.00  0.00     0.208 A 
ATOM      3  C   UNL     1      12.875  24.059  -5.042  1.00  0.00     0.238 A 
ATOM      4  O   UNL     1      13.920  24.271  -5.718  1.00  0.00    -0.285 OA
ATOM      5  C   UNL     1      12.838  24.335  -3.661  1.00  0.00     0.111 A 
ATOM      6  C   UNL     1      13.943  24.852  -2.944  1.00  0.00     0.134 A 
ATOM      7  C   UNL     1      13.823  25.109  -1.570  1.00  0.00     0.093 A 
ATOM      8  C   UNL     1      12.623  24.859  -0.900  1.00  0.00     0.123 A 
ATOM      9  C   UNL     1      11.527  24.348  -1.603  1.00  0.00     0.094 A 
ATOM     10  C   UNL     1      11.627  24.084  -2.972  1.00  0.00     0.146 A 
ATOM     11  O   UNL     1      10.574  23.593  -3.614  1.00  0.00    -0.452 OA
ENDROOT
BRANCH   1  12
ATOM     12  C   UNL     1       9.340  22.753  -5.509  1.00  0.00     0.025 A 
ATOM     13  C   UNL     1       9.209  21.380  -5.782  1.00  0.00     0.016 A 
ATOM     14  C   UNL     1       8.024  20.876  -6.322  1.00  0.00     0.051 A 
ATOM     15  C   UNL     1       6.947  21.730  -6.584  1.00  0.00     0.157 A 
ATOM     16  C   UNL     1       8.249  23.604  -5.754  1.00  0.00     0.062 A 
ATOM     17  C   UNL     1       7.059  23.100  -6.296  1.00  0.00     0.158 A 
BRANCH  15  18
ATOM     18  O   UNL     1       5.776  21.198  -7.125  1.00  0.00    -0.504 OA
ATOM     19  H   UNL     1       5.767  20.319  -7.626  1.00  0.00     0.293 HD
ENDBRANCH  15  18
BRANCH  17  20
ATOM     20  O   UNL     1       5.987  23.956  -6.548  1.00  0.00    -0.504 OA
ATOM     21  H   UNL     1       5.099  23.851  -6.070  1.00  0.00     0.293 HD
ENDBRANCH  17  20
ENDBRANCH   1  12
BRANCH   2  22
ATOM     22  O   UNL     1      11.729  23.315  -7.058  1.00  0.00    -0.502 OA
ATOM     23  H   UNL     1      12.244  22.552  -7.479  1.00  0.00     0.293 HD
ENDBRANCH   2  22
BRANCH   6  24
ATOM     24  O   UNL     1      15.156  25.113  -3.584  1.00  0.00    -0.507 OA
ATOM     25  H   UNL     1      15.276  25.916  -4.191  1.00  0.00     0.293 HD
ENDBRANCH   6  24
BRANCH   8  26
ATOM     26  O   UNL     1      12.530  25.124   0.464  1.00  0.00    -0.508 OA
ATOM     27  H   UNL     1      12.248  24.409   1.125  1.00  0.00     0.293 HD
ENDBRANCH   8  26
TORSDOF 6
ENDMDL
