MODEL 1
REMARK VINA RESULT:    -3.486      0.000      0.000
REMARK INTER + INTRA:          -4.377
REMARK INTER:                  -4.301
REMARK INTRA:                  -0.077
REMARK UNBOUND:                -0.077
REMARK SMILES CCCCCC=O
REMARK SMILES IDX 4 1 3 2 2 3 1 4 5 5 6 6 7 7
REMARK H PARENT
REMARK Flexibility Score: inf
ROOT
ATOM      1  C   UNL     1      21.396   5.263 101.966  1.00  0.00     0.008 C 
ENDROOT
BRANCH   1   2
ATOM      2  C   UNL     1      22.084   5.370 100.594  1.00  0.00     0.000 C 
BRANCH   2   3
ATOM      3  C   UNL     1      22.503   6.808 100.254  1.00  0.00    -0.003 C 
ATOM      4  C   UNL     1      24.008   7.036 100.397  1.00  0.00     0.004 C 
ENDBRANCH   2   3
ENDBRANCH   1   2
BRANCH   1   5
ATOM      5  C   UNL     1      22.163   4.343 102.925  1.00  0.00     0.072 C 
BRANCH   5   6
ATOM      6  C   UNL     1      21.729   4.525 104.351  1.00  0.00     0.224 C 
ATOM      7  O   UNL     1      21.369   3.565 105.015  1.00  0.00    -0.303 OA
ENDBRANCH   5   6
ENDBRANCH   1   5
TORSDOF 4
ENDMDL
MODEL 2
REMARK VINA RESULT:    -3.402      2.342      5.048
REMARK INTER + INTRA:          -4.274
REMARK INTER:                  -4.190
REMARK INTRA:                  -0.084
REMARK UNBOUND:                -0.077
REMARK SMILES CCCCCC=O
REMARK SMILES IDX 4 1 3 2 2 3 1 4 5 5 6 6 7 7
REMARK H PARENT
REMARK Flexibility Score: inf
ROOT
ATOM      1  C   UNL     1      21.375   4.811 104.357  1.00  0.00     0.008 C 
ENDROOT
BRANCH   1   2
ATOM      2  C   UNL     1      21.278   4.064 105.699  1.00  0.00     0.000 C 
BRANCH   2   3
ATOM      3  C   UNL     1      19.848   3.601 106.015  1.00  0.00    -0.003 C 
ATOM      4  C   UNL     1      19.648   2.102 105.790  1.00  0.00     0.004 C 
ENDBRANCH   2   3
ENDBRANCH   1   2
BRANCH   1   5
ATOM      5  C   UNL     1      22.203   4.035 103.324  1.00  0.00     0.072 C 
BRANCH   5   6
ATOM      6  C   UNL     1      22.083   4.622 101.948  1.00  0.00     0.224 C 
ATOM      7  O   UNL     1      21.441   5.645 101.765  1.00  0.00    -0.303 OA
ENDBRANCH   5   6
ENDBRANCH   1   5
TORSDOF 4
ENDMDL
MODEL 3
REMARK VINA RESULT:    -3.372      1.018      1.106
REMARK INTER + INTRA:          -4.237
REMARK INTER:                  -4.185
REMARK INTRA:                  -0.051
REMARK UNBOUND:                -0.077
REMARK SMILES CCCCCC=O
REMARK SMILES IDX 4 1 3 2 2 3 1 4 5 5 6 6 7 7
REMARK H PARENT
REMARK Flexibility Score: inf
ROOT
ATOM      1  C   UNL     1      21.404   5.099 102.793  1.00  0.00     0.008 C 
ENDROOT
BRANCH   1   2
ATOM      2  C   UNL     1      22.231   4.882 101.516  1.00  0.00     0.000 C 
BRANCH   2   3
ATOM      3  C   UNL     1      22.165   6.081 100.558  1.00  0.00    -0.003 C 
ATOM      4  C   UNL     1      23.520   6.768 100.374  1.00  0.00     0.004 C 
ENDBRANCH   2   3
ENDBRANCH   1   2
BRANCH   1   5
ATOM      5  C   UNL     1      22.086   4.503 104.032  1.00  0.00     0.072 C 
BRANCH   5   6
ATOM      6  C   UNL     1      21.184   4.505 105.231  1.00  0.00     0.224 C 
ATOM      7  O   UNL     1      21.615   4.822 106.329  1.00  0.00    -0.303 OA
ENDBRANCH   5   6
ENDBRANCH   1   5
TORSDOF 4
ENDMDL
MODEL 4
REMARK VINA RESULT:    -3.292      2.436      4.324
REMARK INTER + INTRA:          -4.138
REMARK INTER:                  -4.054
REMARK INTRA:                  -0.084
REMARK UNBOUND:                -0.077
REMARK SMILES CCCCCC=O
REMARK SMILES IDX 4 1 3 2 2 3 1 4 5 5 6 6 7 7
REMARK H PARENT
REMARK Flexibility Score: inf
ROOT
ATOM      1  C   UNL     1      22.720   4.506 102.416  1.00  0.00     0.008 C 
ENDROOT
BRANCH   1   2
ATOM      2  C   UNL     1      22.227   3.924 103.751  1.00  0.00     0.000 C 
BRANCH   2   3
ATOM      3  C   UNL     1      21.265   4.869 104.488  1.00  0.00    -0.003 C 
ATOM      4  C   UNL     1      21.754   5.237 105.889  1.00  0.00     0.004 C 
ENDBRANCH   2   3
ENDBRANCH   1   2
BRANCH   1   5
ATOM      5  C   UNL     1      21.634   5.326 101.708  1.00  0.00     0.072 C 
BRANCH   5   6
ATOM      6  C   UNL     1      22.115   5.894 100.404  1.00  0.00     0.224 C 
ATOM      7  O   UNL     1      22.967   6.768 100.386  1.00  0.00    -0.303 OA
ENDBRANCH   5   6
ENDBRANCH   1   5
TORSDOF 4
ENDMDL
MODEL 5
REMARK VINA RESULT:    -3.249      2.417      4.391
REMARK INTER + INTRA:          -4.085
REMARK INTER:                  -4.012
REMARK INTRA:                  -0.072
REMARK UNBOUND:                -0.077
REMARK SMILES CCCCCC=O
REMARK SMILES IDX 4 1 3 2 2 3 1 4 5 5 6 6 7 7
REMARK H PARENT
REMARK Flexibility Score: inf
ROOT
ATOM      1  C   UNL     1      21.463   5.238 102.208  1.00  0.00     0.008 C 
ENDROOT
BRANCH   1   2
ATOM      2  C   UNL     1      22.491   4.402 102.990  1.00  0.00     0.000 C 
BRANCH   2   3
ATOM      3  C   UNL     1      21.834   3.480 104.028  1.00  0.00    -0.003 C 
ATOM      4  C   UNL     1      21.413   4.222 105.297  1.00  0.00     0.004 C 
ENDBRANCH   2   3
ENDBRANCH   1   2
BRANCH   1   5
ATOM      5  C   UNL     1      21.759   5.255 100.702  1.00  0.00     0.072 C 
BRANCH   5   6
ATOM      6  C   UNL     1      22.350   6.560 100.257  1.00  0.00     0.224 C 
ATOM      7  O   UNL     1      23.543   6.779 100.394  1.00  0.00    -0.303 OA
ENDBRANCH   5   6
ENDBRANCH   1   5
TORSDOF 4
ENDMDL
MODEL 6
REMARK VINA RESULT:    -3.230      2.487      4.134
REMARK INTER + INTRA:          -4.062
REMARK INTER:                  -3.854
REMARK INTRA:                  -0.208
REMARK UNBOUND:                -0.077
REMARK SMILES CCCCCC=O
REMARK SMILES IDX 4 1 3 2 2 3 1 4 5 5 6 6 7 7
REMARK H PARENT
REMARK Flexibility Score: inf
ROOT
ATOM      1  C   UNL     1      21.786   4.613 103.093  1.00  0.00     0.008 C 
ENDROOT
BRANCH   1   2
ATOM      2  C   UNL     1      21.785   3.480 104.133  1.00  0.00     0.000 C 
BRANCH   2   3
ATOM      3  C   UNL     1      21.248   3.934 105.499  1.00  0.00    -0.003 C 
ATOM      4  C   UNL     1      21.787   5.301 105.923  1.00  0.00     0.004 C 
ENDBRANCH   2   3
ENDBRANCH   1   2
BRANCH   1   5
ATOM      5  C   UNL     1      23.115   4.694 102.330  1.00  0.00     0.072 C 
BRANCH   5   6
ATOM      6  C   UNL     1      24.265   4.171 103.140  1.00  0.00     0.224 C 
ATOM      7  O   UNL     1      24.971   4.935 103.778  1.00  0.00    -0.303 OA
ENDBRANCH   5   6
ENDBRANCH   1   5
TORSDOF 4
ENDMDL
MODEL 7
REMARK VINA RESULT:    -3.189      1.570      1.991
REMARK INTER + INTRA:          -4.011
REMARK INTER:                  -3.939
REMARK INTRA:                  -0.073
REMARK UNBOUND:                -0.077
REMARK SMILES CCCCCC=O
REMARK SMILES IDX 4 1 3 2 2 3 1 4 5 5 6 6 7 7
REMARK H PARENT
REMARK Flexibility Score: inf
ROOT
ATOM      1  C   UNL     1      21.679   4.671 103.416  1.00  0.00     0.008 C 
ENDROOT
BRANCH   1   2
ATOM      2  C   UNL     1      22.542   4.717 102.144  1.00  0.00     0.000 C 
BRANCH   2   3
ATOM      3  C   UNL     1      21.944   5.623 101.057  1.00  0.00    -0.003 C 
ATOM      4  C   UNL     1      22.986   6.530 100.402  1.00  0.00     0.004 C 
ENDBRANCH   2   3
ENDBRANCH   1   2
BRANCH   1   5
ATOM      5  C   UNL     1      21.789   3.323 104.140  1.00  0.00     0.072 C 
BRANCH   5   6
ATOM      6  C   UNL     1      22.113   2.200 103.198  1.00  0.00     0.224 C 
ATOM      7  O   UNL     1      22.194   1.052 103.607  1.00  0.00    -0.303 OA
ENDBRANCH   5   6
ENDBRANCH   1   5
TORSDOF 4
ENDMDL
MODEL 8
REMARK VINA RESULT:    -3.159      3.411      4.291
REMARK INTER + INTRA:          -3.974
REMARK INTER:                  -3.943
REMARK INTRA:                  -0.031
REMARK UNBOUND:                -0.077
REMARK SMILES CCCCCC=O
REMARK SMILES IDX 4 1 3 2 2 3 1 4 5 5 6 6 7 7
REMARK H PARENT
REMARK Flexibility Score: inf
ROOT
ATOM      1  C   UNL     1      24.143   5.210 101.900  1.00  0.00     0.008 C 
ENDROOT
BRANCH   1   2
ATOM      2  C   UNL     1      24.722   4.498 103.135  1.00  0.00     0.000 C 
BRANCH   2   3
ATOM      3  C   UNL     1      25.909   3.586 102.788  1.00  0.00    -0.003 C 
ATOM      4  C   UNL     1      27.032   3.656 103.824  1.00  0.00     0.004 C 
ENDBRANCH   2   3
ENDBRANCH   1   2
BRANCH   1   5
ATOM      5  C   UNL     1      22.657   4.887 101.693  1.00  0.00     0.072 C 
BRANCH   5   6
ATOM      6  C   UNL     1      22.128   5.457 100.409  1.00  0.00     0.224 C 
ATOM      7  O   UNL     1      21.031   5.122  99.989  1.00  0.00    -0.303 OA
ENDBRANCH   5   6
ENDBRANCH   1   5
TORSDOF 4
ENDMDL
MODEL 9
REMARK VINA RESULT:    -3.151      1.604      2.756
REMARK INTER + INTRA:          -3.965
REMARK INTER:                  -3.893
REMARK INTRA:                  -0.071
REMARK UNBOUND:                -0.077
REMARK SMILES CCCCCC=O
REMARK SMILES IDX 4 1 3 2 2 3 1 4 5 5 6 6 7 7
REMARK H PARENT
REMARK Flexibility Score: inf
ROOT
ATOM      1  C   UNL     1      21.472   4.911 104.578  1.00  0.00     0.008 C 
ENDROOT
BRANCH   1   2
ATOM      2  C   UNL     1      22.181   4.010 103.552  1.00  0.00     0.000 C 
BRANCH   2   3
ATOM      3  C   UNL     1      21.954   4.472 102.105  1.00  0.00    -0.003 C 
ATOM      4  C   UNL     1      23.150   5.232 101.531  1.00  0.00     0.004 C 
ENDBRANCH   2   3
ENDBRANCH   1   2
BRANCH   1   5
ATOM      5  C   UNL     1      21.243   4.193 105.915  1.00  0.00     0.072 C 
BRANCH   5   6
ATOM      6  C   UNL     1      19.927   3.472 105.950  1.00  0.00     0.224 C 
ATOM      7  O   UNL     1      19.874   2.270 105.736  1.00  0.00    -0.303 OA
ENDBRANCH   5   6
ENDBRANCH   1   5
TORSDOF 4
ENDMDL
