MODEL 1
REMARK VINA RESULT:    -3.312      0.000      0.000
REMARK INTER + INTRA:          -4.825
REMARK INTER:                  -5.054
REMARK INTRA:                   0.229
REMARK UNBOUND:                 0.229
REMARK SMILES CC1=CCC[C@@H](C)C(=O)C[C@H](C(C)C)C(=O)C1
REMARK SMILES IDX 8 1 9 2 6 3 7 4 5 5 4 6 3 7 2 8 1 9 10 11 11 12 15 13 16 14
REMARK SMILES IDX 17 15 12 17 13 18 14 19
REMARK H PARENT
REMARK Flexibility Score: 70.00
ROOT
ATOM      1  C   UNL     1      -3.236  28.105  30.672  1.00  0.00     0.136 C 
ATOM      2  O   UNL     1      -3.083  29.121  31.337  1.00  0.00    -0.299 OA
ENDROOT
BRANCH   1   3
ATOM      3  C   UNL     1      -4.611  27.469  30.585  1.00  0.00     0.053 C 
ATOM      4  C   UNL     1      -4.658  26.453  29.435  1.00  0.00     0.016 C 
BRANCH   3   5
ATOM      5  C   UNL     1      -5.699  28.552  30.410  1.00  0.00     0.015 C 
BRANCH   5   6
ATOM      6  C   UNL     1      -5.947  28.873  28.923  1.00  0.00     0.028 C 
BRANCH   6   7
ATOM      7  C   UNL     1      -5.422  30.226  28.512  1.00  0.00    -0.028 C 
ATOM      8  C   UNL     1      -4.315  30.439  27.756  1.00  0.00    -0.070 CG0
ATOM      9  C   UNL     1      -3.875  31.857  27.490  1.00  0.00     0.039 C 
ATOM     10  G   UNL     1      -3.543  29.328  27.061  1.00  0.00     0.000 G0
ENDBRANCH   6   7
ENDBRANCH   5   6
ENDBRANCH   3   5
ENDBRANCH   1   3
BRANCH   1  11
ATOM     11  C   UNL     1      -2.046  27.521  29.943  1.00  0.00     0.087 C 
BRANCH  11  12
ATOM     12  C   UNL     1      -2.270  27.456  28.409  1.00  0.00     0.066 C 
BRANCH  12  13
ATOM     13  C   UNL     1      -2.302  28.850  27.797  1.00  0.00     0.140 C 
ATOM     14  O   UNL     1      -1.319  29.575  27.857  1.00  0.00    -0.299 OA
BRANCH  13  15
ATOM     15  C   UNL     1      -3.533  29.322  27.060  1.00  0.00     0.106 CG0
ATOM     16  G   UNL     1      -4.291  30.431  27.774  1.00  0.00     0.000 G0
ENDBRANCH  13  15
ENDBRANCH  12  13
BRANCH  12  17
ATOM     17  C   UNL     1      -1.257  26.519  27.672  1.00  0.00    -0.006 C 
ATOM     18  C   UNL     1      -0.048  26.108  28.533  1.00  0.00     0.008 C 
ATOM     19  C   UNL     1      -1.950  25.264  27.117  1.00  0.00     0.008 C 
ENDBRANCH  12  17
ENDBRANCH  11  12
ENDBRANCH   1  11
TORSDOF 1
ENDMDL
MODEL 2
REMARK VINA RESULT:    -2.254      1.719      3.236
REMARK INTER + INTRA:          -3.210
REMARK INTER:                  -5.136
REMARK INTRA:                   1.926
REMARK UNBOUND:                 0.229
REMARK SMILES CC1=CCC[C@@H](C)C(=O)C[C@H](C(C)C)C(=O)C1
REMARK SMILES IDX 8 1 9 2 6 3 7 4 5 5 4 6 3 7 2 8 1 9 10 11 11 12 15 13 16 14
REMARK SMILES IDX 17 15 12 17 13 18 14 19
REMARK H PARENT
REMARK Flexibility Score: 70.00
ROOT
ATOM      1  C   UNL     1      -3.492  29.438  27.572  1.00  0.00     0.136 C 
ATOM      2  O   UNL     1      -2.547  30.155  27.870  1.00  0.00    -0.299 OA
ENDROOT
BRANCH   1   3
ATOM      3  C   UNL     1      -4.808  30.070  27.158  1.00  0.00     0.053 C 
ATOM      4  C   UNL     1      -4.577  31.498  26.644  1.00  0.00     0.016 C 
BRANCH   3   5
ATOM      5  C   UNL     1      -5.808  30.062  28.336  1.00  0.00     0.015 C 
BRANCH   5   6
ATOM      6  C   UNL     1      -5.444  28.992  29.383  1.00  0.00     0.028 C 
BRANCH   6   7
ATOM      7  C   UNL     1      -4.479  29.490  30.431  1.00  0.00    -0.028 C 
ATOM      8  C   UNL     1      -3.455  28.772  30.955  1.00  0.00    -0.070 CG0
ATOM      9  C   UNL     1      -2.620  29.385  32.052  1.00  0.00     0.039 C 
ATOM     10  G   UNL     1      -3.018  27.415  30.424  1.00  0.00     0.000 G0
ENDBRANCH   6   7
ENDBRANCH   5   6
ENDBRANCH   3   5
ENDBRANCH   1   3
BRANCH   1  11
ATOM     11  C   UNL     1      -3.313  27.937  27.611  1.00  0.00     0.087 C 
BRANCH  11  12
ATOM     12  C   UNL     1      -1.882  27.526  28.051  1.00  0.00     0.066 C 
BRANCH  12  13
ATOM     13  C   UNL     1      -1.774  27.447  29.567  1.00  0.00     0.140 C 
ATOM     14  O   UNL     1      -0.678  27.461  30.111  1.00  0.00    -0.299 OA
BRANCH  13  15
ATOM     15  C   UNL     1      -3.025  27.409  30.412  1.00  0.00     0.106 CG0
ATOM     16  G   UNL     1      -3.453  28.770  30.940  1.00  0.00     0.000 G0
ENDBRANCH  13  15
ENDBRANCH  12  13
BRANCH  12  17
ATOM     17  C   UNL     1      -1.371  26.218  27.361  1.00  0.00    -0.006 C 
ATOM     18  C   UNL     1       0.012  25.753  27.854  1.00  0.00     0.008 C 
ATOM     19  C   UNL     1      -2.386  25.072  27.505  1.00  0.00     0.008 C 
ENDBRANCH  12  17
ENDBRANCH  11  12
ENDBRANCH   1  11
TORSDOF 1
ENDMDL
MODEL 3
REMARK VINA RESULT:    -1.660      1.811      4.464
REMARK INTER + INTRA:          -2.304
REMARK INTER:                  -3.210
REMARK INTRA:                   0.906
REMARK UNBOUND:                 0.229
REMARK SMILES CC1=CCC[C@@H](C)C(=O)C[C@H](C(C)C)C(=O)C1
REMARK SMILES IDX 8 1 9 2 6 3 7 4 5 5 4 6 3 7 2 8 1 9 10 11 11 12 15 13 16 14
REMARK SMILES IDX 17 15 12 17 13 18 14 19
REMARK H PARENT
REMARK Flexibility Score: 70.00
ROOT
ATOM      1  C   UNL     1      -2.614  28.243  27.541  1.00  0.00     0.136 C 
ATOM      2  O   UNL     1      -2.755  27.925  26.368  1.00  0.00    -0.299 OA
ENDROOT
BRANCH   1   3
ATOM      3  C   UNL     1      -2.261  27.181  28.566  1.00  0.00     0.053 C 
ATOM      4  C   UNL     1      -1.079  26.334  28.073  1.00  0.00     0.016 C 
BRANCH   3   5
ATOM      5  C   UNL     1      -3.488  26.293  28.872  1.00  0.00     0.015 C 
BRANCH   5   6
ATOM      6  C   UNL     1      -4.211  26.746  30.154  1.00  0.00     0.028 C 
BRANCH   6   7
ATOM      7  C   UNL     1      -3.448  27.793  30.929  1.00  0.00    -0.028 C 
ATOM      8  C   UNL     1      -3.730  29.120  30.937  1.00  0.00    -0.070 CG0
ATOM      9  C   UNL     1      -2.827  30.053  31.705  1.00  0.00     0.039 C 
ATOM     10  G   UNL     1      -4.975  29.722  30.305  1.00  0.00     0.000 G0
ENDBRANCH   6   7
ENDBRANCH   5   6
ENDBRANCH   3   5
ENDBRANCH   1   3
BRANCH   1  11
ATOM     11  C   UNL     1      -2.781  29.695  27.931  1.00  0.00     0.087 C 
BRANCH  11  12
ATOM     12  C   UNL     1      -4.258  30.163  27.834  1.00  0.00     0.066 C 
BRANCH  12  13
ATOM     13  C   UNL     1      -5.132  29.442  28.851  1.00  0.00     0.140 C 
ATOM     14  O   UNL     1      -5.933  28.591  28.487  1.00  0.00    -0.299 OA
BRANCH  13  15
ATOM     15  C   UNL     1      -4.974  29.734  30.324  1.00  0.00     0.106 CG0
ATOM     16  G   UNL     1      -3.734  29.109  30.946  1.00  0.00     0.000 G0
ENDBRANCH  13  15
ENDBRANCH  12  13
BRANCH  12  17
ATOM     17  C   UNL     1      -4.425  31.716  27.920  1.00  0.00    -0.006 C 
ATOM     18  C   UNL     1      -3.529  32.495  26.938  1.00  0.00     0.008 C 
ATOM     19  C   UNL     1      -5.891  32.137  27.729  1.00  0.00     0.008 C 
ENDBRANCH  12  17
ENDBRANCH  11  12
ENDBRANCH   1  11
TORSDOF 1
ENDMDL
MODEL 4
REMARK VINA RESULT:    -1.548      1.650      4.297
REMARK INTER + INTRA:          -2.132
REMARK INTER:                  -3.152
REMARK INTRA:                   1.020
REMARK UNBOUND:                 0.229
REMARK SMILES CC1=CCC[C@@H](C)C(=O)C[C@H](C(C)C)C(=O)C1
REMARK SMILES IDX 8 1 9 2 6 3 7 4 5 5 4 6 3 7 2 8 1 9 10 11 11 12 15 13 16 14
REMARK SMILES IDX 17 15 12 17 13 18 14 19
REMARK H PARENT
REMARK Flexibility Score: 70.00
ROOT
ATOM      1  C   UNL     1      -4.944  28.732  29.528  1.00  0.00     0.136 C 
ATOM      2  O   UNL     1      -6.099  28.578  29.154  1.00  0.00    -0.299 OA
ENDROOT
BRANCH   1   3
ATOM      3  C   UNL     1      -4.114  27.520  29.906  1.00  0.00     0.053 C 
ATOM      4  C   UNL     1      -5.024  26.353  30.314  1.00  0.00     0.016 C 
BRANCH   3   5
ATOM      5  C   UNL     1      -3.125  27.872  31.041  1.00  0.00     0.015 C 
BRANCH   5   6
ATOM      6  C   UNL     1      -1.667  27.875  30.543  1.00  0.00     0.028 C 
BRANCH   6   7
ATOM      7  C   UNL     1      -1.449  26.992  29.339  1.00  0.00    -0.028 C 
ATOM      8  C   UNL     1      -1.545  27.394  28.047  1.00  0.00    -0.070 CG0
ATOM      9  C   UNL     1      -1.370  26.374  26.950  1.00  0.00     0.039 C 
ATOM     10  G   UNL     1      -1.712  28.846  27.626  1.00  0.00     0.000 G0
ENDBRANCH   6   7
ENDBRANCH   5   6
ENDBRANCH   3   5
ENDBRANCH   1   3
BRANCH   1  11
ATOM     11  C   UNL     1      -4.375  30.131  29.586  1.00  0.00     0.087 C 
BRANCH  11  12
ATOM     12  C   UNL     1      -3.646  30.526  28.274  1.00  0.00     0.066 C 
BRANCH  12  13
ATOM     13  C   UNL     1      -3.177  29.293  27.513  1.00  0.00     0.140 C 
ATOM     14  O   UNL     1      -3.947  28.686  26.781  1.00  0.00    -0.299 OA
BRANCH  13  15
ATOM     15  C   UNL     1      -1.738  28.846  27.615  1.00  0.00     0.106 CG0
ATOM     16  G   UNL     1      -1.571  27.398  28.049  1.00  0.00     0.000 G0
ENDBRANCH  13  15
ENDBRANCH  12  13
BRANCH  12  17
ATOM     17  C   UNL     1      -4.480  31.488  27.365  1.00  0.00    -0.006 C 
ATOM     18  C   UNL     1      -5.933  31.685  27.834  1.00  0.00     0.008 C 
ATOM     19  C   UNL     1      -3.793  32.856  27.215  1.00  0.00     0.008 C 
ENDBRANCH  12  17
ENDBRANCH  11  12
ENDBRANCH   1  11
TORSDOF 1
ENDMDL
MODEL 5
REMARK VINA RESULT:    -0.556      2.092      4.401
REMARK INTER + INTRA:          -0.619
REMARK INTER:                  -3.432
REMARK INTRA:                   2.813
REMARK UNBOUND:                 0.229
REMARK SMILES CC1=CCC[C@@H](C)C(=O)C[C@H](C(C)C)C(=O)C1
REMARK SMILES IDX 8 1 9 2 6 3 7 4 5 5 4 6 3 7 2 8 1 9 10 11 11 12 15 13 16 14
REMARK SMILES IDX 17 15 12 17 13 18 14 19
REMARK H PARENT
REMARK Flexibility Score: 70.00
ROOT
ATOM      1  C   UNL     1      -5.199  30.038  29.280  1.00  0.00     0.136 C 
ATOM      2  O   UNL     1      -5.821  30.868  29.929  1.00  0.00    -0.299 OA
ENDROOT
BRANCH   1   3
ATOM      3  C   UNL     1      -4.278  30.500  28.166  1.00  0.00     0.053 C 
ATOM      4  C   UNL     1      -4.925  31.647  27.377  1.00  0.00     0.016 C 
BRANCH   3   5
ATOM      5  C   UNL     1      -3.921  29.321  27.233  1.00  0.00     0.015 C 
BRANCH   5   6
ATOM      6  C   UNL     1      -2.410  29.016  27.256  1.00  0.00     0.028 C 
BRANCH   6   7
ATOM      7  C   UNL     1      -2.088  27.581  26.915  1.00  0.00    -0.028 C 
ATOM      8  C   UNL     1      -1.869  26.593  27.817  1.00  0.00    -0.070 CG0
ATOM      9  C   UNL     1      -1.485  25.222  27.319  1.00  0.00     0.039 C 
ATOM     10  G   UNL     1      -2.097  26.751  29.313  1.00  0.00     0.000 G0
ENDBRANCH   6   7
ENDBRANCH   5   6
ENDBRANCH   3   5
ENDBRANCH   1   3
BRANCH   1  11
ATOM     11  C   UNL     1      -5.358  28.573  29.619  1.00  0.00     0.087 C 
BRANCH  11  12
ATOM     12  C   UNL     1      -4.140  28.016  30.403  1.00  0.00     0.066 C 
BRANCH  12  13
ATOM     13  C   UNL     1      -3.558  26.788  29.716  1.00  0.00     0.140 C 
ATOM     14  O   UNL     1      -4.274  25.835  29.441  1.00  0.00    -0.299 OA
BRANCH  13  15
ATOM     15  C   UNL     1      -2.102  26.767  29.316  1.00  0.00     0.106 CG0
ATOM     16  G   UNL     1      -1.875  26.591  27.823  1.00  0.00     0.000 G0
ENDBRANCH  13  15
ENDBRANCH  12  13
BRANCH  12  17
ATOM     17  C   UNL     1      -3.045  29.092  30.698  1.00  0.00    -0.006 C 
ATOM     18  C   UNL     1      -3.148  29.718  32.102  1.00  0.00     0.008 C 
ATOM     19  C   UNL     1      -1.630  28.530  30.484  1.00  0.00     0.008 C 
ENDBRANCH  12  17
ENDBRANCH  11  12
ENDBRANCH   1  11
TORSDOF 1
ENDMDL
