MODEL 1
REMARK VINA RESULT:    -7.863      0.000      0.000
REMARK INTER + INTRA:         -11.951
REMARK INTER:                 -10.851
REMARK INTRA:                  -1.100
REMARK UNBOUND:                -1.100
REMARK SMILES O=C([O-])[C@@H]1O[C@@H](Oc2cc3oc(-c4ccccc4)cc(=O)c3c(O)c2O)[C@H](O)[C@H](O)[C@@H]1O
REMARK SMILES IDX 7 1 6 2 4 3 31 4 5 5 29 6 27 7 2 8 1 9 3 10 32 11 30 13
REMARK SMILES IDX 28 15 8 17 25 18 9 19 23 20 10 21 22 22 11 23 20 24 12 25
REMARK SMILES IDX 19 26 21 27 26 28 24 30 13 32 14 33 18 34 15 35 17 36 16 37
REMARK H PARENT 32 12 30 14 28 16 26 29 24 31
REMARK Flexibility Score: inf
ROOT
ATOM      1  O   UNL     1     -21.427 -46.832 102.132  1.00  0.00    -0.458 OA
ENDROOT
BRANCH   1   2
ATOM      2  C   UNL     1     -20.394 -46.512 101.190  1.00  0.00     0.339 C 
ATOM      3  C   UNL     1     -20.391 -44.253 101.842  1.00  0.00     0.199 C 
ATOM      4  C   UNL     1     -20.924 -43.754 100.479  1.00  0.00     0.180 C 
ATOM      5  O   UNL     1     -19.612 -45.429 101.672  1.00  0.00    -0.328 OA
ATOM      6  C   UNL     1     -21.754 -44.868  99.823  1.00  0.00     0.181 C 
ATOM      7  C   UNL     1     -20.963 -46.193  99.789  1.00  0.00     0.214 C 
BRANCH   3   8
ATOM      8  C   UNL     1     -19.561 -43.202 102.525  1.00  0.00     0.073 C 
ATOM      9  O   UNL     1     -18.746 -43.525 103.429  1.00  0.00    -0.547 OA
ATOM     10  O   UNL     1     -19.628 -41.875 102.114  1.00  0.00    -0.547 OA
ENDBRANCH   3   8
BRANCH   4  11
ATOM     11  O   UNL     1     -19.856 -43.395  99.636  1.00  0.00    -0.387 OA
ATOM     12  H   UNL     1     -19.186 -44.125  99.688  1.00  0.00     0.211 HD
ENDBRANCH   4  11
BRANCH   6  13
ATOM     13  O   UNL     1     -22.129 -44.476  98.526  1.00  0.00    -0.387 OA
ATOM     14  H   UNL     1     -21.944 -45.249  97.929  1.00  0.00     0.211 HD
ENDBRANCH   6  13
BRANCH   7  15
ATOM     15  O   UNL     1     -19.898 -46.107  98.876  1.00  0.00    -0.384 OA
ATOM     16  H   UNL     1     -20.187 -45.506  98.141  1.00  0.00     0.211 HD
ENDBRANCH   7  15
ENDBRANCH   1   2
BRANCH   1  17
ATOM     17  C   UNL     1     -21.329 -47.652 103.270  1.00  0.00     0.172 A 
ATOM     18  C   UNL     1     -22.109 -48.809 103.483  1.00  0.00     0.201 A 
ATOM     19  C   UNL     1     -20.378 -47.286 104.221  1.00  0.00     0.098 A 
ATOM     20  C   UNL     1     -21.964 -49.556 104.672  1.00  0.00     0.176 A 
ATOM     21  C   UNL     1     -20.245 -47.989 105.415  1.00  0.00     0.146 A 
ATOM     22  C   UNL     1     -21.059 -49.115 105.682  1.00  0.00     0.111 A 
ATOM     23  O   UNL     1     -19.349 -47.567 106.302  1.00  0.00    -0.456 OA
ATOM     24  C   UNL     1     -20.931 -49.706 106.963  1.00  0.00     0.197 A 
ATOM     25  C   UNL     1     -19.164 -48.142 107.486  1.00  0.00     0.138 A 
ATOM     26  C   UNL     1     -19.969 -49.229 107.855  1.00  0.00     0.100 A 
ATOM     27  O   UNL     1     -21.689 -50.634 107.348  1.00  0.00    -0.289 OA
BRANCH  18  28
ATOM     28  O   UNL     1     -23.000 -49.243 102.501  1.00  0.00    -0.502 OA
ATOM     29  H   UNL     1     -22.976 -50.175 102.105  1.00  0.00     0.293 HD
ENDBRANCH  18  28
BRANCH  20  30
ATOM     30  O   UNL     1     -22.712 -50.734 104.783  1.00  0.00    -0.504 OA
ATOM     31  H   UNL     1     -23.502 -50.969 104.204  1.00  0.00     0.293 HD
ENDBRANCH  20  30
BRANCH  25  32
ATOM     32  C   UNL     1     -18.123 -47.593 108.392  1.00  0.00     0.017 A 
ATOM     33  C   UNL     1     -17.240 -46.607 107.913  1.00  0.00     0.012 A 
ATOM     34  C   UNL     1     -17.969 -48.060 109.714  1.00  0.00     0.012 A 
ATOM     35  C   UNL     1     -16.242 -46.086 108.742  1.00  0.00     0.001 A 
ATOM     36  C   UNL     1     -16.966 -47.537 110.536  1.00  0.00     0.001 A 
ATOM     37  C   UNL     1     -16.105 -46.550 110.052  1.00  0.00     0.000 A 
ENDBRANCH  25  32
ENDBRANCH   1  17
TORSDOF 9
ENDMDL
MODEL 2
REMARK VINA RESULT:    -7.843      1.341      2.164
REMARK INTER + INTRA:         -11.924
REMARK INTER:                 -10.775
REMARK INTRA:                  -1.149
REMARK UNBOUND:                -1.100
REMARK SMILES O=C([O-])[C@@H]1O[C@@H](Oc2cc3oc(-c4ccccc4)cc(=O)c3c(O)c2O)[C@H](O)[C@H](O)[C@@H]1O
REMARK SMILES IDX 7 1 6 2 4 3 31 4 5 5 29 6 27 7 2 8 1 9 3 10 32 11 30 13
REMARK SMILES IDX 28 15 8 17 25 18 9 19 23 20 10 21 22 22 11 23 20 24 12 25
REMARK SMILES IDX 19 26 21 27 26 28 24 30 13 32 14 33 18 34 15 35 17 36 16 37
REMARK H PARENT 32 12 30 14 28 16 26 29 24 31
REMARK Flexibility Score: inf
ROOT
ATOM      1  O   UNL     1     -20.334 -46.088 103.504  1.00  0.00    -0.458 OA
ENDROOT
BRANCH   1   2
ATOM      2  C   UNL     1     -19.493 -45.984 102.348  1.00  0.00     0.339 C 
ATOM      3  C   UNL     1     -20.956 -44.457 101.323  1.00  0.00     0.199 C 
ATOM      4  C   UNL     1     -21.338 -45.430 100.185  1.00  0.00     0.180 C 
ATOM      5  O   UNL     1     -19.626 -44.698 101.761  1.00  0.00    -0.328 OA
ATOM      6  C   UNL     1     -21.182 -46.876 100.683  1.00  0.00     0.181 C 
ATOM      7  C   UNL     1     -19.789 -47.091 101.310  1.00  0.00     0.214 C 
BRANCH   3   8
ATOM      8  C   UNL     1     -21.082 -43.023 100.885  1.00  0.00     0.073 C 
ATOM      9  O   UNL     1     -20.530 -42.107 101.548  1.00  0.00    -0.547 OA
ATOM     10  O   UNL     1     -21.743 -42.704  99.703  1.00  0.00    -0.547 OA
ENDBRANCH   3   8
BRANCH   4  11
ATOM     11  O   UNL     1     -20.515 -45.221  99.063  1.00  0.00    -0.387 OA
ATOM     12  H   UNL     1     -19.682 -45.738  99.212  1.00  0.00     0.211 HD
ENDBRANCH   4  11
BRANCH   6  13
ATOM     13  O   UNL     1     -21.394 -47.768  99.617  1.00  0.00    -0.387 OA
ATOM     14  H   UNL     1     -20.682 -48.458  99.677  1.00  0.00     0.211 HD
ENDBRANCH   6  13
BRANCH   7  15
ATOM     15  O   UNL     1     -18.792 -47.062 100.319  1.00  0.00    -0.384 OA
ATOM     16  H   UNL     1     -19.209 -47.374  99.474  1.00  0.00     0.211 HD
ENDBRANCH   7  15
ENDBRANCH   1   2
BRANCH   1  17
ATOM     17  C   UNL     1     -20.207 -46.979 104.584  1.00  0.00     0.172 A 
ATOM     18  C   UNL     1     -20.944 -48.176 104.717  1.00  0.00     0.201 A 
ATOM     19  C   UNL     1     -19.269 -46.645 105.560  1.00  0.00     0.098 A 
ATOM     20  C   UNL     1     -20.770 -48.996 105.853  1.00  0.00     0.176 A 
ATOM     21  C   UNL     1     -19.110 -47.420 106.704  1.00  0.00     0.146 A 
ATOM     22  C   UNL     1     -19.882 -48.591 106.892  1.00  0.00     0.111 A 
ATOM     23  O   UNL     1     -18.229 -47.027 107.618  1.00  0.00    -0.456 OA
ATOM     24  C   UNL     1     -19.732 -49.262 108.131  1.00  0.00     0.197 A 
ATOM     25  C   UNL     1     -18.023 -47.673 108.762  1.00  0.00     0.138 A 
ATOM     26  C   UNL     1     -18.787 -48.811 109.054  1.00  0.00     0.100 A 
ATOM     27  O   UNL     1     -20.455 -50.240 108.452  1.00  0.00    -0.289 OA
BRANCH  18  28
ATOM     28  O   UNL     1     -21.819 -48.575 103.706  1.00  0.00    -0.502 OA
ATOM     29  H   UNL     1     -22.418 -47.929 103.206  1.00  0.00     0.293 HD
ENDBRANCH  18  28
BRANCH  20  30
ATOM     30  O   UNL     1     -21.475 -50.205 105.883  1.00  0.00    -0.504 OA
ATOM     31  H   UNL     1     -22.036 -50.561 105.126  1.00  0.00     0.293 HD
ENDBRANCH  20  30
BRANCH  25  32
ATOM     32  C   UNL     1     -17.001 -47.150 109.704  1.00  0.00     0.017 A 
ATOM     33  C   UNL     1     -16.969 -47.632 111.026  1.00  0.00     0.012 A 
ATOM     34  C   UNL     1     -16.082 -46.151 109.322  1.00  0.00     0.012 A 
ATOM     35  C   UNL     1     -16.027 -47.145 111.937  1.00  0.00     0.001 A 
ATOM     36  C   UNL     1     -15.145 -45.665 110.239  1.00  0.00     0.001 A 
ATOM     37  C   UNL     1     -15.115 -46.162 111.543  1.00  0.00     0.000 A 
ENDBRANCH  25  32
ENDBRANCH   1  17
TORSDOF 9
ENDMDL
MODEL 3
REMARK VINA RESULT:    -7.615      2.996      5.984
REMARK INTER + INTRA:         -11.609
REMARK INTER:                 -10.306
REMARK INTRA:                  -1.303
REMARK UNBOUND:                -1.100
REMARK SMILES O=C([O-])[C@@H]1O[C@@H](Oc2cc3oc(-c4ccccc4)cc(=O)c3c(O)c2O)[C@H](O)[C@H](O)[C@@H]1O
REMARK SMILES IDX 7 1 6 2 4 3 31 4 5 5 29 6 27 7 2 8 1 9 3 10 32 11 30 13
REMARK SMILES IDX 28 15 8 17 25 18 9 19 23 20 10 21 22 22 11 23 20 24 12 25
REMARK SMILES IDX 19 26 21 27 26 28 24 30 13 32 14 33 18 34 15 35 17 36 16 37
REMARK H PARENT 32 12 30 14 28 16 26 29 24 31
REMARK Flexibility Score: inf
ROOT
ATOM      1  O   UNL     1     -21.851 -46.325 101.761  1.00  0.00    -0.458 OA
ENDROOT
BRANCH   1   2
ATOM      2  C   UNL     1     -20.784 -46.144 100.820  1.00  0.00     0.339 C 
ATOM      3  C   UNL     1     -20.311 -43.997 101.654  1.00  0.00     0.199 C 
ATOM      4  C   UNL     1     -20.743 -43.285 100.352  1.00  0.00     0.180 C 
ATOM      5  O   UNL     1     -19.792 -45.288 101.368  1.00  0.00    -0.328 OA
ATOM      6  C   UNL     1     -21.791 -44.146  99.629  1.00  0.00     0.181 C 
ATOM      7  C   UNL     1     -21.289 -45.597  99.466  1.00  0.00     0.214 C 
BRANCH   3   8
ATOM      8  C   UNL     1     -19.276 -43.200 102.398  1.00  0.00     0.073 C 
ATOM      9  O   UNL     1     -19.377 -43.031 103.642  1.00  0.00    -0.547 OA
ATOM     10  O   UNL     1     -18.156 -42.708 101.735  1.00  0.00    -0.547 OA
ENDBRANCH   3   8
BRANCH   4  11
ATOM     11  O   UNL     1     -19.633 -43.081  99.512  1.00  0.00    -0.387 OA
ATOM     12  H   UNL     1     -18.982 -43.804  99.708  1.00  0.00     0.211 HD
ENDBRANCH   4  11
BRANCH   6  13
ATOM     13  O   UNL     1     -22.089 -43.577  98.379  1.00  0.00    -0.387 OA
ATOM     14  H   UNL     1     -21.358 -42.936  98.175  1.00  0.00     0.211 HD
ENDBRANCH   6  13
BRANCH   7  15
ATOM     15  O   UNL     1     -20.238 -45.653  98.534  1.00  0.00    -0.384 OA
ATOM     16  H   UNL     1     -19.669 -44.853  98.684  1.00  0.00     0.211 HD
ENDBRANCH   7  15
ENDBRANCH   1   2
BRANCH   1  17
ATOM     17  C   UNL     1     -21.943 -47.287 102.783  1.00  0.00     0.172 A 
ATOM     18  C   UNL     1     -21.221 -47.228 103.995  1.00  0.00     0.201 A 
ATOM     19  C   UNL     1     -22.829 -48.341 102.568  1.00  0.00     0.098 A 
ATOM     20  C   UNL     1     -21.354 -48.256 104.953  1.00  0.00     0.176 A 
ATOM     21  C   UNL     1     -22.947 -49.382 103.484  1.00  0.00     0.146 A 
ATOM     22  C   UNL     1     -22.186 -49.380 104.678  1.00  0.00     0.111 A 
ATOM     23  O   UNL     1     -23.777 -50.381 103.204  1.00  0.00    -0.456 OA
ATOM     24  C   UNL     1     -22.290 -50.528 105.502  1.00  0.00     0.197 A 
ATOM     25  C   UNL     1     -23.941 -51.440 103.991  1.00  0.00     0.138 A 
ATOM     26  C   UNL     1     -23.183 -51.546 105.165  1.00  0.00     0.100 A 
ATOM     27  O   UNL     1     -21.568 -50.684 106.521  1.00  0.00    -0.289 OA
BRANCH  18  28
ATOM     28  O   UNL     1     -20.400 -46.133 104.268  1.00  0.00    -0.502 OA
ATOM     29  H   UNL     1     -20.026 -45.938 105.189  1.00  0.00     0.293 HD
ENDBRANCH  18  28
BRANCH  20  30
ATOM     30  O   UNL     1     -20.669 -48.095 106.163  1.00  0.00    -0.504 OA
ATOM     31  H   UNL     1     -20.328 -48.851 106.735  1.00  0.00     0.293 HD
ENDBRANCH  20  30
BRANCH  25  32
ATOM     32  C   UNL     1     -24.908 -52.491 103.584  1.00  0.00     0.017 A 
ATOM     33  C   UNL     1     -25.910 -52.895 104.486  1.00  0.00     0.012 A 
ATOM     34  C   UNL     1     -24.829 -53.125 102.326  1.00  0.00     0.012 A 
ATOM     35  C   UNL     1     -26.823 -53.892 104.131  1.00  0.00     0.001 A 
ATOM     36  C   UNL     1     -25.743 -54.125 101.980  1.00  0.00     0.001 A 
ATOM     37  C   UNL     1     -26.740 -54.506 102.880  1.00  0.00     0.000 A 
ENDBRANCH  25  32
ENDBRANCH   1  17
TORSDOF 9
ENDMDL
MODEL 4
REMARK VINA RESULT:    -7.604      1.280      1.998
REMARK INTER + INTRA:         -11.593
REMARK INTER:                 -10.461
REMARK INTRA:                  -1.132
REMARK UNBOUND:                -1.100
REMARK SMILES O=C([O-])[C@@H]1O[C@@H](Oc2cc3oc(-c4ccccc4)cc(=O)c3c(O)c2O)[C@H](O)[C@H](O)[C@@H]1O
REMARK SMILES IDX 7 1 6 2 4 3 31 4 5 5 29 6 27 7 2 8 1 9 3 10 32 11 30 13
REMARK SMILES IDX 28 15 8 17 25 18 9 19 23 20 10 21 22 22 11 23 20 24 12 25
REMARK SMILES IDX 19 26 21 27 26 28 24 30 13 32 14 33 18 34 15 35 17 36 16 37
REMARK H PARENT 32 12 30 14 28 16 26 29 24 31
REMARK Flexibility Score: inf
ROOT
ATOM      1  O   UNL     1     -20.724 -46.421 103.508  1.00  0.00    -0.458 OA
ENDROOT
BRANCH   1   2
ATOM      2  C   UNL     1     -19.717 -46.185 102.515  1.00  0.00     0.339 C 
ATOM      3  C   UNL     1     -21.019 -44.524 101.479  1.00  0.00     0.199 C 
ATOM      4  C   UNL     1     -21.217 -45.344 100.184  1.00  0.00     0.180 C 
ATOM      5  O   UNL     1     -19.769 -44.834 102.080  1.00  0.00    -0.328 OA
ATOM      6  C   UNL     1     -21.128 -46.842 100.516  1.00  0.00     0.181 C 
ATOM      7  C   UNL     1     -19.845 -47.150 101.315  1.00  0.00     0.214 C 
BRANCH   3   8
ATOM      8  C   UNL     1     -21.087 -43.046 101.210  1.00  0.00     0.073 C 
ATOM      9  O   UNL     1     -20.424 -42.241 101.915  1.00  0.00    -0.547 OA
ATOM     10  O   UNL     1     -21.820 -42.561 100.132  1.00  0.00    -0.547 OA
ENDBRANCH   3   8
BRANCH   4  11
ATOM     11  O   UNL     1     -20.235 -45.007  99.235  1.00  0.00    -0.387 OA
ATOM     12  H   UNL     1     -19.711 -44.254  99.611  1.00  0.00     0.211 HD
ENDBRANCH   4  11
BRANCH   6  13
ATOM     13  O   UNL     1     -21.170 -47.592  99.327  1.00  0.00    -0.387 OA
ATOM     14  H   UNL     1     -21.820 -47.140  98.727  1.00  0.00     0.211 HD
ENDBRANCH   6  13
BRANCH   7  15
ATOM     15  O   UNL     1     -18.709 -47.010 100.498  1.00  0.00    -0.384 OA
ATOM     16  H   UNL     1     -18.506 -47.905 100.121  1.00  0.00     0.211 HD
ENDBRANCH   7  15
ENDBRANCH   1   2
BRANCH   1  17
ATOM     17  C   UNL     1     -20.811 -47.501 104.405  1.00  0.00     0.172 A 
ATOM     18  C   UNL     1     -21.643 -48.626 104.214  1.00  0.00     0.201 A 
ATOM     19  C   UNL     1     -19.996 -47.440 105.534  1.00  0.00     0.098 A 
ATOM     20  C   UNL     1     -21.689 -49.650 105.184  1.00  0.00     0.176 A 
ATOM     21  C   UNL     1     -20.054 -48.422 106.519  1.00  0.00     0.146 A 
ATOM     22  C   UNL     1     -20.927 -49.528 106.382  1.00  0.00     0.111 A 
ATOM     23  O   UNL     1     -19.283 -48.288 107.593  1.00  0.00    -0.456 OA
ATOM     24  C   UNL     1     -20.998 -50.423 107.478  1.00  0.00     0.197 A 
ATOM     25  C   UNL     1     -19.284 -49.147 108.608  1.00  0.00     0.138 A 
ATOM     26  C   UNL     1     -20.161 -50.240 108.580  1.00  0.00     0.100 A 
ATOM     27  O   UNL     1     -21.827 -51.369 107.513  1.00  0.00    -0.289 OA
BRANCH  18  28
ATOM     28  O   UNL     1     -22.396 -48.749 103.045  1.00  0.00    -0.502 OA
ATOM     29  H   UNL     1     -21.988 -48.972 102.145  1.00  0.00     0.293 HD
ENDBRANCH  18  28
BRANCH  20  30
ATOM     30  O   UNL     1     -22.476 -50.771 104.894  1.00  0.00    -0.504 OA
ATOM     31  H   UNL     1     -23.017 -50.891 104.053  1.00  0.00     0.293 HD
ENDBRANCH  20  30
BRANCH  25  32
ATOM     32  C   UNL     1     -18.369 -48.903 109.751  1.00  0.00     0.017 A 
ATOM     33  C   UNL     1     -18.263 -49.869 110.770  1.00  0.00     0.012 A 
ATOM     34  C   UNL     1     -17.626 -47.710 109.866  1.00  0.00     0.012 A 
ATOM     35  C   UNL     1     -17.420 -49.657 111.864  1.00  0.00     0.001 A 
ATOM     36  C   UNL     1     -16.788 -47.502 110.966  1.00  0.00     0.001 A 
ATOM     37  C   UNL     1     -16.683 -48.474 111.962  1.00  0.00     0.000 A 
ENDBRANCH  25  32
ENDBRANCH   1  17
TORSDOF 9
ENDMDL
MODEL 5
REMARK VINA RESULT:    -7.360      1.409      2.784
REMARK INTER + INTRA:         -11.257
REMARK INTER:                 -10.205
REMARK INTRA:                  -1.051
REMARK UNBOUND:                -1.100
REMARK SMILES O=C([O-])[C@@H]1O[C@@H](Oc2cc3oc(-c4ccccc4)cc(=O)c3c(O)c2O)[C@H](O)[C@H](O)[C@@H]1O
REMARK SMILES IDX 7 1 6 2 4 3 31 4 5 5 29 6 27 7 2 8 1 9 3 10 32 11 30 13
REMARK SMILES IDX 28 15 8 17 25 18 9 19 23 20 10 21 22 22 11 23 20 24 12 25
REMARK SMILES IDX 19 26 21 27 26 28 24 30 13 32 14 33 18 34 15 35 17 36 16 37
REMARK H PARENT 32 12 30 14 28 16 26 29 24 31
REMARK Flexibility Score: inf
ROOT
ATOM      1  O   UNL     1     -19.784 -46.164 103.392  1.00  0.00    -0.458 OA
ENDROOT
BRANCH   1   2
ATOM      2  C   UNL     1     -20.698 -45.371 102.623  1.00  0.00     0.339 C 
ATOM      3  C   UNL     1     -19.523 -45.807 100.634  1.00  0.00     0.199 C 
ATOM      4  C   UNL     1     -19.077 -44.339 100.455  1.00  0.00     0.180 C 
ATOM      5  O   UNL     1     -20.779 -45.870 101.296  1.00  0.00    -0.328 OA
ATOM      6  C   UNL     1     -19.000 -43.663 101.834  1.00  0.00     0.181 C 
ATOM      7  C   UNL     1     -20.311 -43.875 102.620  1.00  0.00     0.214 C 
BRANCH   3   8
ATOM      8  C   UNL     1     -19.625 -46.515  99.310  1.00  0.00     0.073 C 
ATOM      9  O   UNL     1     -20.527 -46.202  98.490  1.00  0.00    -0.547 OA
ATOM     10  O   UNL     1     -18.677 -47.467  98.947  1.00  0.00    -0.547 OA
ENDBRANCH   3   8
BRANCH   4  11
ATOM     11  O   UNL     1     -19.985 -43.645  99.635  1.00  0.00    -0.387 OA
ATOM     12  H   UNL     1     -20.708 -43.304 100.222  1.00  0.00     0.211 HD
ENDBRANCH   4  11
BRANCH   6  13
ATOM     13  O   UNL     1     -18.729 -42.293 101.674  1.00  0.00    -0.387 OA
ATOM     14  H   UNL     1     -19.607 -41.836 101.589  1.00  0.00     0.211 HD
ENDBRANCH   6  13
BRANCH   7  15
ATOM     15  O   UNL     1     -21.358 -43.137 102.041  1.00  0.00    -0.384 OA
ATOM     16  H   UNL     1     -22.006 -43.789 101.667  1.00  0.00     0.211 HD
ENDBRANCH   7  15
ENDBRANCH   1   2
BRANCH   1  17
ATOM     17  C   UNL     1     -20.087 -47.224 104.265  1.00  0.00     0.172 A 
ATOM     18  C   UNL     1     -21.014 -48.249 103.976  1.00  0.00     0.201 A 
ATOM     19  C   UNL     1     -19.397 -47.251 105.476  1.00  0.00     0.098 A 
ATOM     20  C   UNL     1     -21.278 -49.259 104.927  1.00  0.00     0.176 A 
ATOM     21  C   UNL     1     -19.669 -48.216 106.440  1.00  0.00     0.146 A 
ATOM     22  C   UNL     1     -20.640 -49.218 106.201  1.00  0.00     0.111 A 
ATOM     23  O   UNL     1     -19.008 -48.165 107.592  1.00  0.00    -0.456 OA
ATOM     24  C   UNL     1     -20.928 -50.095 107.275  1.00  0.00     0.197 A 
ATOM     25  C   UNL     1     -19.214 -49.015 108.593  1.00  0.00     0.138 A 
ATOM     26  C   UNL     1     -20.200 -50.003 108.462  1.00  0.00     0.100 A 
ATOM     27  O   UNL     1     -21.857 -50.942 107.213  1.00  0.00    -0.289 OA
BRANCH  18  28
ATOM     28  O   UNL     1     -21.646 -48.291 102.733  1.00  0.00    -0.502 OA
ATOM     29  H   UNL     1     -21.142 -48.383 101.859  1.00  0.00     0.293 HD
ENDBRANCH  18  28
BRANCH  20  30
ATOM     30  O   UNL     1     -22.149 -50.285 104.545  1.00  0.00    -0.504 OA
ATOM     31  H   UNL     1     -22.232 -50.650 103.610  1.00  0.00     0.293 HD
ENDBRANCH  20  30
BRANCH  25  32
ATOM     32  C   UNL     1     -18.406 -48.871 109.830  1.00  0.00     0.017 A 
ATOM     33  C   UNL     1     -17.661 -47.695 110.037  1.00  0.00     0.012 A 
ATOM     34  C   UNL     1     -18.333 -49.899 110.793  1.00  0.00     0.012 A 
ATOM     35  C   UNL     1     -16.881 -47.541 111.187  1.00  0.00     0.001 A 
ATOM     36  C   UNL     1     -17.548 -49.742 111.939  1.00  0.00     0.001 A 
ATOM     37  C   UNL     1     -16.824 -48.564 112.137  1.00  0.00     0.000 A 
ENDBRANCH  25  32
ENDBRANCH   1  17
TORSDOF 9
ENDMDL
MODEL 6
REMARK VINA RESULT:    -7.324      1.380      1.755
REMARK INTER + INTRA:         -11.206
REMARK INTER:                 -10.084
REMARK INTRA:                  -1.122
REMARK UNBOUND:                -1.100
REMARK SMILES O=C([O-])[C@@H]1O[C@@H](Oc2cc3oc(-c4ccccc4)cc(=O)c3c(O)c2O)[C@H](O)[C@H](O)[C@@H]1O
REMARK SMILES IDX 7 1 6 2 4 3 31 4 5 5 29 6 27 7 2 8 1 9 3 10 32 11 30 13
REMARK SMILES IDX 28 15 8 17 25 18 9 19 23 20 10 21 22 22 11 23 20 24 12 25
REMARK SMILES IDX 19 26 21 27 26 28 24 30 13 32 14 33 18 34 15 35 17 36 16 37
REMARK H PARENT 32 12 30 14 28 16 26 29 24 31
REMARK Flexibility Score: inf
ROOT
ATOM      1  O   UNL     1     -20.416 -46.687 103.475  1.00  0.00    -0.458 OA
ENDROOT
BRANCH   1   2
ATOM      2  C   UNL     1     -19.930 -46.951 102.152  1.00  0.00     0.339 C 
ATOM      3  C   UNL     1     -19.106 -44.761 101.933  1.00  0.00     0.199 C 
ATOM      4  C   UNL     1     -20.107 -44.387 100.815  1.00  0.00     0.180 C 
ATOM      5  O   UNL     1     -18.793 -46.145 101.879  1.00  0.00    -0.328 OA
ATOM      6  C   UNL     1     -21.377 -45.239 100.970  1.00  0.00     0.181 C 
ATOM      7  C   UNL     1     -21.021 -46.737 101.078  1.00  0.00     0.214 C 
BRANCH   3   8
ATOM      8  C   UNL     1     -17.837 -43.961 101.823  1.00  0.00     0.073 C 
ATOM      9  O   UNL     1     -16.774 -44.382 102.349  1.00  0.00    -0.547 OA
ATOM     10  O   UNL     1     -17.807 -42.788 101.075  1.00  0.00    -0.547 OA
ENDBRANCH   3   8
BRANCH   4  11
ATOM     11  O   UNL     1     -19.535 -44.609  99.549  1.00  0.00    -0.387 OA
ATOM     12  H   UNL     1     -19.755 -45.540  99.289  1.00  0.00     0.211 HD
ENDBRANCH   4  11
BRANCH   6  13
ATOM     13  O   UNL     1     -22.236 -45.007  99.881  1.00  0.00    -0.387 OA
ATOM     14  H   UNL     1     -21.662 -44.741  99.115  1.00  0.00     0.211 HD
ENDBRANCH   6  13
BRANCH   7  15
ATOM     15  O   UNL     1     -20.546 -47.221  99.846  1.00  0.00    -0.384 OA
ATOM     16  H   UNL     1     -19.580 -46.999  99.796  1.00  0.00     0.211 HD
ENDBRANCH   7  15
ENDBRANCH   1   2
BRANCH   1  17
ATOM     17  C   UNL     1     -20.238 -47.470 104.629  1.00  0.00     0.172 A 
ATOM     18  C   UNL     1     -20.925 -48.677 104.882  1.00  0.00     0.201 A 
ATOM     19  C   UNL     1     -19.302 -47.012 105.555  1.00  0.00     0.098 A 
ATOM     20  C   UNL     1     -20.704 -49.383 106.085  1.00  0.00     0.176 A 
ATOM     21  C   UNL     1     -19.097 -47.674 106.762  1.00  0.00     0.146 A 
ATOM     22  C   UNL     1     -19.820 -48.851 107.068  1.00  0.00     0.111 A 
ATOM     23  O   UNL     1     -18.221 -47.165 107.622  1.00  0.00    -0.456 OA
ATOM     24  C   UNL     1     -19.626 -49.400 108.360  1.00  0.00     0.197 A 
ATOM     25  C   UNL     1     -17.974 -47.696 108.816  1.00  0.00     0.138 A 
ATOM     26  C   UNL     1     -18.688 -48.831 109.223  1.00  0.00     0.100 A 
ATOM     27  O   UNL     1     -20.306 -50.372 108.780  1.00  0.00    -0.289 OA
BRANCH  18  28
ATOM     28  O   UNL     1     -21.797 -49.200 103.926  1.00  0.00    -0.502 OA
ATOM     29  H   UNL     1     -21.880 -48.825 102.989  1.00  0.00     0.293 HD
ENDBRANCH  18  28
BRANCH  20  30
ATOM     30  O   UNL     1     -21.360 -50.610 106.236  1.00  0.00    -0.504 OA
ATOM     31  H   UNL     1     -21.727 -51.162 105.478  1.00  0.00     0.293 HD
ENDBRANCH  20  30
BRANCH  25  32
ATOM     32  C   UNL     1     -16.962 -47.049 109.690  1.00  0.00     0.017 A 
ATOM     33  C   UNL     1     -16.165 -46.010 109.174  1.00  0.00     0.012 A 
ATOM     34  C   UNL     1     -16.751 -47.473 111.018  1.00  0.00     0.012 A 
ATOM     35  C   UNL     1     -15.196 -45.395 109.972  1.00  0.00     0.001 A 
ATOM     36  C   UNL     1     -15.777 -46.857 111.810  1.00  0.00     0.001 A 
ATOM     37  C   UNL     1     -15.002 -45.818 111.289  1.00  0.00     0.000 A 
ENDBRANCH  25  32
ENDBRANCH   1  17
TORSDOF 9
ENDMDL
MODEL 7
REMARK VINA RESULT:    -7.192      1.473      3.013
REMARK INTER + INTRA:         -11.024
REMARK INTER:                  -9.628
REMARK INTRA:                  -1.396
REMARK UNBOUND:                -1.100
REMARK SMILES O=C([O-])[C@@H]1O[C@@H](Oc2cc3oc(-c4ccccc4)cc(=O)c3c(O)c2O)[C@H](O)[C@H](O)[C@@H]1O
REMARK SMILES IDX 7 1 6 2 4 3 31 4 5 5 29 6 27 7 2 8 1 9 3 10 32 11 30 13
REMARK SMILES IDX 28 15 8 17 25 18 9 19 23 20 10 21 22 22 11 23 20 24 12 25
REMARK SMILES IDX 19 26 21 27 26 28 24 30 13 32 14 33 18 34 15 35 17 36 16 37
REMARK H PARENT 32 12 30 14 28 16 26 29 24 31
REMARK Flexibility Score: inf
ROOT
ATOM      1  O   UNL     1     -18.947 -45.478 103.515  1.00  0.00    -0.458 OA
ENDROOT
BRANCH   1   2
ATOM      2  C   UNL     1     -19.896 -44.554 102.966  1.00  0.00     0.339 C 
ATOM      3  C   UNL     1     -19.737 -45.536 100.836  1.00  0.00     0.199 C 
ATOM      4  C   UNL     1     -19.090 -44.286 100.196  1.00  0.00     0.180 C 
ATOM      5  O   UNL     1     -20.605 -45.161 101.896  1.00  0.00    -0.328 OA
ATOM      6  C   UNL     1     -18.326 -43.504 101.276  1.00  0.00     0.181 C 
ATOM      7  C   UNL     1     -19.227 -43.240 102.502  1.00  0.00     0.214 C 
BRANCH   3   8
ATOM      8  C   UNL     1     -20.508 -46.335  99.822  1.00  0.00     0.073 C 
ATOM      9  O   UNL     1     -20.156 -46.336  98.613  1.00  0.00    -0.547 OA
ATOM     10  O   UNL     1     -21.568 -47.143 100.221  1.00  0.00    -0.547 OA
ENDBRANCH   3   8
BRANCH   4  11
ATOM     11  O   UNL     1     -20.076 -43.464  99.620  1.00  0.00    -0.387 OA
ATOM     12  H   UNL     1     -19.751 -43.205  98.719  1.00  0.00     0.211 HD
ENDBRANCH   4  11
BRANCH   6  13
ATOM     13  O   UNL     1     -17.850 -42.296 100.737  1.00  0.00    -0.387 OA
ATOM     14  H   UNL     1     -17.533 -41.747 101.502  1.00  0.00     0.211 HD
ENDBRANCH   6  13
BRANCH   7  15
ATOM     15  O   UNL     1     -20.231 -42.308 102.184  1.00  0.00    -0.384 OA
ATOM     16  H   UNL     1     -20.791 -42.710 101.471  1.00  0.00     0.211 HD
ENDBRANCH   7  15
ENDBRANCH   1   2
BRANCH   1  17
ATOM     17  C   UNL     1     -19.168 -46.450 104.508  1.00  0.00     0.172 A 
ATOM     18  C   UNL     1     -20.081 -47.519 104.383  1.00  0.00     0.201 A 
ATOM     19  C   UNL     1     -18.405 -46.337 105.669  1.00  0.00     0.098 A 
ATOM     20  C   UNL     1     -20.258 -48.432 105.445  1.00  0.00     0.176 A 
ATOM     21  C   UNL     1     -18.591 -47.205 106.741  1.00  0.00     0.146 A 
ATOM     22  C   UNL     1     -19.546 -48.246 106.666  1.00  0.00     0.111 A 
ATOM     23  O   UNL     1     -17.863 -47.022 107.838  1.00  0.00    -0.456 OA
ATOM     24  C   UNL     1     -19.744 -49.016 107.839  1.00  0.00     0.197 A 
ATOM     25  C   UNL     1     -17.984 -47.769 108.931  1.00  0.00     0.138 A 
ATOM     26  C   UNL     1     -18.947 -48.787 108.962  1.00  0.00     0.100 A 
ATOM     27  O   UNL     1     -20.650 -49.885 107.922  1.00  0.00    -0.289 OA
BRANCH  18  28
ATOM     28  O   UNL     1     -20.785 -47.702 103.192  1.00  0.00    -0.502 OA
ATOM     29  H   UNL     1     -21.172 -46.936 102.655  1.00  0.00     0.293 HD
ENDBRANCH  18  28
BRANCH  20  30
ATOM     30  O   UNL     1     -21.122 -49.511 105.224  1.00  0.00    -0.504 OA
ATOM     31  H   UNL     1     -21.593 -50.027 105.949  1.00  0.00     0.293 HD
ENDBRANCH  20  30
BRANCH  25  32
ATOM     32  C   UNL     1     -17.107 -47.482 110.094  1.00  0.00     0.017 A 
ATOM     33  C   UNL     1     -16.071 -46.538 109.962  1.00  0.00     0.012 A 
ATOM     34  C   UNL     1     -17.259 -48.156 111.323  1.00  0.00     0.012 A 
ATOM     35  C   UNL     1     -15.222 -46.260 111.038  1.00  0.00     0.001 A 
ATOM     36  C   UNL     1     -16.405 -47.877 112.394  1.00  0.00     0.001 A 
ATOM     37  C   UNL     1     -15.389 -46.929 112.252  1.00  0.00     0.000 A 
ENDBRANCH  25  32
ENDBRANCH   1  17
TORSDOF 9
ENDMDL
MODEL 8
REMARK VINA RESULT:    -7.151      2.055      4.892
REMARK INTER + INTRA:         -10.967
REMARK INTER:                  -9.977
REMARK INTRA:                  -0.991
REMARK UNBOUND:                -1.100
REMARK SMILES O=C([O-])[C@@H]1O[C@@H](Oc2cc3oc(-c4ccccc4)cc(=O)c3c(O)c2O)[C@H](O)[C@H](O)[C@@H]1O
REMARK SMILES IDX 7 1 6 2 4 3 31 4 5 5 29 6 27 7 2 8 1 9 3 10 32 11 30 13
REMARK SMILES IDX 28 15 8 17 25 18 9 19 23 20 10 21 22 22 11 23 20 24 12 25
REMARK SMILES IDX 19 26 21 27 26 28 24 30 13 32 14 33 18 34 15 35 17 36 16 37
REMARK H PARENT 32 12 30 14 28 16 26 29 24 31
REMARK Flexibility Score: inf
ROOT
ATOM      1  O   UNL     1     -19.492 -43.770 102.744  1.00  0.00    -0.458 OA
ENDROOT
BRANCH   1   2
ATOM      2  C   UNL     1     -20.869 -43.603 102.382  1.00  0.00     0.339 C 
ATOM      3  C   UNL     1     -20.758 -45.375 100.841  1.00  0.00     0.199 C 
ATOM      4  C   UNL     1     -20.974 -44.458  99.616  1.00  0.00     0.180 C 
ATOM      5  O   UNL     1     -21.422 -44.848 101.982  1.00  0.00    -0.328 OA
ATOM      6  C   UNL     1     -20.457 -43.048  99.944  1.00  0.00     0.181 C 
ATOM      7  C   UNL     1     -21.055 -42.542 101.274  1.00  0.00     0.214 C 
BRANCH   3   8
ATOM      8  C   UNL     1     -21.257 -46.770 100.578  1.00  0.00     0.073 C 
ATOM      9  O   UNL     1     -21.984 -47.354 101.423  1.00  0.00    -0.547 OA
ATOM     10  O   UNL     1     -20.985 -47.397  99.366  1.00  0.00    -0.547 OA
ENDBRANCH   3   8
BRANCH   4  11
ATOM     11  O   UNL     1     -22.339 -44.399  99.280  1.00  0.00    -0.387 OA
ATOM     12  H   UNL     1     -22.397 -44.411  98.290  1.00  0.00     0.211 HD
ENDBRANCH   4  11
BRANCH   6  13
ATOM     13  O   UNL     1     -20.772 -42.173  98.889  1.00  0.00    -0.387 OA
ATOM     14  H   UNL     1     -21.759 -42.061  98.895  1.00  0.00     0.211 HD
ENDBRANCH   6  13
BRANCH   7  15
ATOM     15  O   UNL     1     -22.428 -42.275 101.128  1.00  0.00    -0.384 OA
ATOM     16  H   UNL     1     -22.534 -41.289 101.102  1.00  0.00     0.211 HD
ENDBRANCH   7  15
ENDBRANCH   1   2
BRANCH   1  17
ATOM     17  C   UNL     1     -18.972 -44.184 103.983  1.00  0.00     0.172 A 
ATOM     18  C   UNL     1     -18.029 -43.449 104.734  1.00  0.00     0.201 A 
ATOM     19  C   UNL     1     -19.453 -45.391 104.488  1.00  0.00     0.098 A 
ATOM     20  C   UNL     1     -17.540 -43.958 105.957  1.00  0.00     0.176 A 
ATOM     21  C   UNL     1     -18.956 -45.927 105.672  1.00  0.00     0.146 A 
ATOM     22  C   UNL     1     -17.964 -45.241 106.412  1.00  0.00     0.111 A 
ATOM     23  O   UNL     1     -19.424 -47.102 106.081  1.00  0.00    -0.456 OA
ATOM     24  C   UNL     1     -17.440 -45.907 107.547  1.00  0.00     0.197 A 
ATOM     25  C   UNL     1     -18.995 -47.720 107.177  1.00  0.00     0.138 A 
ATOM     26  C   UNL     1     -17.972 -47.137 107.938  1.00  0.00     0.100 A 
ATOM     27  O   UNL     1     -16.473 -45.443 108.205  1.00  0.00    -0.289 OA
BRANCH  18  28
ATOM     28  O   UNL     1     -17.606 -42.195 104.291  1.00  0.00    -0.502 OA
ATOM     29  H   UNL     1     -17.864 -41.811 103.390  1.00  0.00     0.293 HD
ENDBRANCH  18  28
BRANCH  20  30
ATOM     30  O   UNL     1     -16.667 -43.142 106.686  1.00  0.00    -0.504 OA
ATOM     31  H   UNL     1     -15.716 -43.380 106.915  1.00  0.00     0.293 HD
ENDBRANCH  20  30
BRANCH  25  32
ATOM     32  C   UNL     1     -19.601 -49.025 107.546  1.00  0.00     0.017 A 
ATOM     33  C   UNL     1     -19.124 -49.714 108.677  1.00  0.00     0.012 A 
ATOM     34  C   UNL     1     -20.621 -49.615 106.771  1.00  0.00     0.012 A 
ATOM     35  C   UNL     1     -19.668 -50.950 109.036  1.00  0.00     0.001 A 
ATOM     36  C   UNL     1     -21.158 -50.854 107.133  1.00  0.00     0.001 A 
ATOM     37  C   UNL     1     -20.684 -51.520 108.265  1.00  0.00     0.000 A 
ENDBRANCH  25  32
ENDBRANCH   1  17
TORSDOF 9
ENDMDL
MODEL 9
REMARK VINA RESULT:    -7.149      3.002      5.797
REMARK INTER + INTRA:         -10.965
REMARK INTER:                  -9.580
REMARK INTRA:                  -1.384
REMARK UNBOUND:                -1.100
REMARK SMILES O=C([O-])[C@@H]1O[C@@H](Oc2cc3oc(-c4ccccc4)cc(=O)c3c(O)c2O)[C@H](O)[C@H](O)[C@@H]1O
REMARK SMILES IDX 7 1 6 2 4 3 31 4 5 5 29 6 27 7 2 8 1 9 3 10 32 11 30 13
REMARK SMILES IDX 28 15 8 17 25 18 9 19 23 20 10 21 22 22 11 23 20 24 12 25
REMARK SMILES IDX 19 26 21 27 26 28 24 30 13 32 14 33 18 34 15 35 17 36 16 37
REMARK H PARENT 32 12 30 14 28 16 26 29 24 31
REMARK Flexibility Score: inf
ROOT
ATOM      1  O   UNL     1     -19.430 -46.350 104.670  1.00  0.00    -0.458 OA
ENDROOT
BRANCH   1   2
ATOM      2  C   UNL     1     -19.842 -47.672 104.296  1.00  0.00     0.339 C 
ATOM      3  C   UNL     1     -20.659 -46.914 102.226  1.00  0.00     0.199 C 
ATOM      4  C   UNL     1     -22.131 -47.231 102.576  1.00  0.00     0.180 C 
ATOM      5  O   UNL     1     -19.784 -47.819 102.884  1.00  0.00    -0.328 OA
ATOM      6  C   UNL     1     -22.315 -47.155 104.100  1.00  0.00     0.181 C 
ATOM      7  C   UNL     1     -21.254 -48.013 104.823  1.00  0.00     0.214 C 
BRANCH   3   8
ATOM      8  C   UNL     1     -20.421 -46.984 100.743  1.00  0.00     0.073 C 
ATOM      9  O   UNL     1     -21.379 -46.847  99.938  1.00  0.00    -0.547 OA
ATOM     10  O   UNL     1     -19.130 -47.121 100.244  1.00  0.00    -0.547 OA
ENDBRANCH   3   8
BRANCH   4  11
ATOM     11  O   UNL     1     -22.480 -48.514 102.117  1.00  0.00    -0.387 OA
ATOM     12  H   UNL     1     -22.387 -49.134 102.886  1.00  0.00     0.211 HD
ENDBRANCH   4  11
BRANCH   6  13
ATOM     13  O   UNL     1     -23.613 -47.574 104.441  1.00  0.00    -0.387 OA
ATOM     14  H   UNL     1     -23.891 -47.032 105.226  1.00  0.00     0.211 HD
ENDBRANCH   6  13
BRANCH   7  15
ATOM     15  O   UNL     1     -21.499 -49.381 104.611  1.00  0.00    -0.384 OA
ATOM     16  H   UNL     1     -21.960 -49.725 105.420  1.00  0.00     0.211 HD
ENDBRANCH   7  15
ENDBRANCH   1   2
BRANCH   1  17
ATOM     17  C   UNL     1     -18.123 -45.894 104.920  1.00  0.00     0.172 A 
ATOM     18  C   UNL     1     -17.085 -45.897 103.963  1.00  0.00     0.201 A 
ATOM     19  C   UNL     1     -17.872 -45.392 106.196  1.00  0.00     0.098 A 
ATOM     20  C   UNL     1     -15.794 -45.447 104.313  1.00  0.00     0.176 A 
ATOM     21  C   UNL     1     -16.598 -44.978 106.570  1.00  0.00     0.146 A 
ATOM     22  C   UNL     1     -15.525 -45.031 105.649  1.00  0.00     0.111 A 
ATOM     23  O   UNL     1     -16.411 -44.548 107.814  1.00  0.00    -0.456 OA
ATOM     24  C   UNL     1     -14.242 -44.690 106.144  1.00  0.00     0.197 A 
ATOM     25  C   UNL     1     -15.230 -44.162 108.286  1.00  0.00     0.138 A 
ATOM     26  C   UNL     1     -14.102 -44.237 107.457  1.00  0.00     0.100 A 
ATOM     27  O   UNL     1     -13.202 -44.818 105.447  1.00  0.00    -0.289 OA
BRANCH  18  28
ATOM     28  O   UNL     1     -17.341 -46.309 102.655  1.00  0.00    -0.502 OA
ATOM     29  H   UNL     1     -16.689 -46.862 102.111  1.00  0.00     0.293 HD
ENDBRANCH  18  28
BRANCH  20  30
ATOM     30  O   UNL     1     -14.834 -45.405 103.295  1.00  0.00    -0.504 OA
ATOM     31  H   UNL     1     -14.981 -45.005 102.382  1.00  0.00     0.293 HD
ENDBRANCH  20  30
BRANCH  25  32
ATOM     32  C   UNL     1     -15.143 -43.685 109.690  1.00  0.00     0.017 A 
ATOM     33  C   UNL     1     -15.478 -42.352 109.990  1.00  0.00     0.012 A 
ATOM     34  C   UNL     1     -14.696 -44.525 110.732  1.00  0.00     0.012 A 
ATOM     35  C   UNL     1     -15.390 -41.875 111.301  1.00  0.00     0.001 A 
ATOM     36  C   UNL     1     -14.606 -44.041 112.040  1.00  0.00     0.001 A 
ATOM     37  C   UNL     1     -14.954 -42.719 112.325  1.00  0.00     0.000 A 
ENDBRANCH  25  32
ENDBRANCH   1  17
TORSDOF 9
ENDMDL
