MODEL 1
REMARK VINA RESULT:    -5.121      0.000      0.000
REMARK INTER + INTRA:          -9.870
REMARK INTER:                  -8.713
REMARK INTRA:                  -1.157
REMARK UNBOUND:                -1.157
REMARK SMILES CCCCCCCCCCCCCC(=O)[O-]
REMARK SMILES IDX 8 1 9 2 10 3 11 4 12 5 13 6 14 7 15 8 16 9 7 10 6 11 5 12
REMARK SMILES IDX 4 13 3 14 2 15 1 16
REMARK H PARENT
REMARK Flexibility Score: inf
ROOT
ATOM      1  C   UNL     1      17.353  17.108  36.307  1.00  0.00     0.000 C 
ENDROOT
BRANCH   1   2
ATOM      2  C   UNL     1      16.440  18.162  36.953  1.00  0.00     0.000 C 
BRANCH   2   3
ATOM      3  C   UNL     1      15.813  17.676  38.270  1.00  0.00     0.000 C 
BRANCH   3   4
ATOM      4  C   UNL     1      15.806  16.144  38.392  1.00  0.00     0.000 C 
BRANCH   4   5
ATOM      5  C   UNL     1      14.380  15.592  38.279  1.00  0.00     0.006 C 
BRANCH   5   6
ATOM      6  C   UNL     1      14.062  15.178  36.839  1.00  0.00     0.053 C 
BRANCH   6   7
ATOM      7  C   UNL     1      13.227  16.220  36.167  1.00  0.00     0.041 C 
ATOM      8  O   UNL     1      13.651  16.803  35.135  1.00  0.00    -0.550 OA
ATOM      9  O   UNL     1      11.959  16.516  36.652  1.00  0.00    -0.550 OA
ENDBRANCH   6   7
ENDBRANCH   5   6
ENDBRANCH   4   5
ENDBRANCH   3   4
ENDBRANCH   2   3
ENDBRANCH   1   2
BRANCH   1  10
ATOM     10  C   UNL     1      17.131  17.047  34.791  1.00  0.00     0.000 C 
BRANCH  10  11
ATOM     11  C   UNL     1      18.387  17.502  34.033  1.00  0.00    -0.000 C 
BRANCH  11  12
ATOM     12  C   UNL     1      19.425  18.177  34.948  1.00  0.00    -0.000 C 
BRANCH  12  13
ATOM     13  C   UNL     1      20.837  17.559  34.903  1.00  0.00    -0.000 C 
BRANCH  13  14
ATOM     14  C   UNL     1      21.143  16.720  33.649  1.00  0.00    -0.000 C 
BRANCH  14  15
ATOM     15  C   UNL     1      22.096  17.430  32.676  1.00  0.00    -0.003 C 
ATOM     16  C   UNL     1      21.354  18.471  31.843  1.00  0.00     0.004 C 
ENDBRANCH  14  15
ENDBRANCH  13  14
ENDBRANCH  12  13
ENDBRANCH  11  12
ENDBRANCH  10  11
ENDBRANCH   1  10
TORSDOF 12
ENDMDL
MODEL 2
REMARK VINA RESULT:    -5.098      1.183      1.712
REMARK INTER + INTRA:          -9.831
REMARK INTER:                  -8.789
REMARK INTRA:                  -1.043
REMARK UNBOUND:                -1.157
REMARK SMILES CCCCCCCCCCCCCC(=O)[O-]
REMARK SMILES IDX 8 1 9 2 10 3 11 4 12 5 13 6 14 7 15 8 16 9 7 10 6 11 5 12
REMARK SMILES IDX 4 13 3 14 2 15 1 16
REMARK H PARENT
REMARK Flexibility Score: inf
ROOT
ATOM      1  C   UNL     1      18.059  16.508  35.445  1.00  0.00     0.000 C 
ENDROOT
BRANCH   1   2
ATOM      2  C   UNL     1      17.190  16.505  36.712  1.00  0.00     0.000 C 
BRANCH   2   3
ATOM      3  C   UNL     1      16.640  17.898  37.056  1.00  0.00     0.000 C 
BRANCH   3   4
ATOM      4  C   UNL     1      15.796  17.900  38.340  1.00  0.00     0.000 C 
BRANCH   4   5
ATOM      5  C   UNL     1      14.311  17.696  38.021  1.00  0.00     0.006 C 
BRANCH   5   6
ATOM      6  C   UNL     1      13.877  16.256  38.313  1.00  0.00     0.053 C 
BRANCH   6   7
ATOM      7  C   UNL     1      13.872  15.445  37.057  1.00  0.00     0.041 C 
ATOM      8  O   UNL     1      14.074  14.204  37.104  1.00  0.00    -0.550 OA
ATOM      9  O   UNL     1      13.596  16.051  35.838  1.00  0.00    -0.550 OA
ENDBRANCH   6   7
ENDBRANCH   5   6
ENDBRANCH   4   5
ENDBRANCH   3   4
ENDBRANCH   2   3
ENDBRANCH   1   2
BRANCH   1  10
ATOM     10  C   UNL     1      17.491  17.471  34.394  1.00  0.00     0.000 C 
BRANCH  10  11
ATOM     11  C   UNL     1      18.614  18.068  33.533  1.00  0.00    -0.000 C 
BRANCH  11  12
ATOM     12  C   UNL     1      19.472  19.094  34.296  1.00  0.00    -0.000 C 
BRANCH  12  13
ATOM     13  C   UNL     1      20.990  18.824  34.274  1.00  0.00    -0.000 C 
BRANCH  13  14
ATOM     14  C   UNL     1      21.432  17.527  34.975  1.00  0.00    -0.000 C 
BRANCH  14  15
ATOM     15  C   UNL     1      21.962  16.471  33.994  1.00  0.00    -0.003 C 
ATOM     16  C   UNL     1      21.920  16.985  32.558  1.00  0.00     0.004 C 
ENDBRANCH  14  15
ENDBRANCH  13  14
ENDBRANCH  12  13
ENDBRANCH  11  12
ENDBRANCH  10  11
ENDBRANCH   1  10
TORSDOF 12
ENDMDL
MODEL 3
REMARK VINA RESULT:    -5.050      3.626      7.102
REMARK INTER + INTRA:          -9.749
REMARK INTER:                  -8.373
REMARK INTRA:                  -1.376
REMARK UNBOUND:                -1.157
REMARK SMILES CCCCCCCCCCCCCC(=O)[O-]
REMARK SMILES IDX 8 1 9 2 10 3 11 4 12 5 13 6 14 7 15 8 16 9 7 10 6 11 5 12
REMARK SMILES IDX 4 13 3 14 2 15 1 16
REMARK H PARENT
REMARK Flexibility Score: inf
ROOT
ATOM      1  C   UNL     1      17.095  17.238  34.659  1.00  0.00     0.000 C 
ENDROOT
BRANCH   1   2
ATOM      2  C   UNL     1      18.132  16.406  35.428  1.00  0.00     0.000 C 
BRANCH   2   3
ATOM      3  C   UNL     1      19.054  15.601  34.497  1.00  0.00     0.000 C 
BRANCH   3   4
ATOM      4  C   UNL     1      20.380  16.321  34.211  1.00  0.00     0.000 C 
BRANCH   4   5
ATOM      5  C   UNL     1      20.453  17.656  34.960  1.00  0.00     0.006 C 
BRANCH   5   6
ATOM      6  C   UNL     1      20.558  18.831  33.984  1.00  0.00     0.053 C 
BRANCH   6   7
ATOM      7  C   UNL     1      21.749  18.669  33.094  1.00  0.00     0.041 C 
ATOM      8  O   UNL     1      21.601  18.596  31.846  1.00  0.00    -0.550 OA
ATOM      9  O   UNL     1      23.027  18.646  33.638  1.00  0.00    -0.550 OA
ENDBRANCH   6   7
ENDBRANCH   5   6
ENDBRANCH   4   5
ENDBRANCH   3   4
ENDBRANCH   2   3
ENDBRANCH   1   2
BRANCH   1  10
ATOM     10  C   UNL     1      16.369  18.211  35.597  1.00  0.00     0.000 C 
BRANCH  10  11
ATOM     11  C   UNL     1      16.853  18.043  37.044  1.00  0.00    -0.000 C 
BRANCH  11  12
ATOM     12  C   UNL     1      15.735  17.591  38.001  1.00  0.00    -0.000 C 
BRANCH  12  13
ATOM     13  C   UNL     1      15.640  16.069  38.224  1.00  0.00    -0.000 C 
BRANCH  13  14
ATOM     14  C   UNL     1      14.724  15.320  37.239  1.00  0.00    -0.000 C 
BRANCH  14  15
ATOM     15  C   UNL     1      13.431  16.088  36.928  1.00  0.00    -0.003 C 
ATOM     16  C   UNL     1      13.292  16.346  35.430  1.00  0.00     0.004 C 
ENDBRANCH  14  15
ENDBRANCH  13  14
ENDBRANCH  12  13
ENDBRANCH  11  12
ENDBRANCH  10  11
ENDBRANCH   1  10
TORSDOF 12
ENDMDL
MODEL 4
REMARK VINA RESULT:    -5.023      3.558      7.454
REMARK INTER + INTRA:          -9.703
REMARK INTER:                  -8.750
REMARK INTRA:                  -0.953
REMARK UNBOUND:                -1.157
REMARK SMILES CCCCCCCCCCCCCC(=O)[O-]
REMARK SMILES IDX 8 1 9 2 10 3 11 4 12 5 13 6 14 7 15 8 16 9 7 10 6 11 5 12
REMARK SMILES IDX 4 13 3 14 2 15 1 16
REMARK H PARENT
REMARK Flexibility Score: inf
ROOT
ATOM      1  C   UNL     1      17.658  17.071  35.914  1.00  0.00     0.000 C 
ENDROOT
BRANCH   1   2
ATOM      2  C   UNL     1      18.610  16.545  34.830  1.00  0.00     0.000 C 
BRANCH   2   3
ATOM      3  C   UNL     1      18.597  17.411  33.559  1.00  0.00     0.000 C 
BRANCH   3   4
ATOM      4  C   UNL     1      19.496  18.651  33.679  1.00  0.00     0.000 C 
BRANCH   4   5
ATOM      5  C   UNL     1      20.459  18.746  32.490  1.00  0.00     0.006 C 
BRANCH   5   6
ATOM      6  C   UNL     1      21.100  17.388  32.189  1.00  0.00     0.053 C 
BRANCH   6   7
ATOM      7  C   UNL     1      22.167  17.079  33.191  1.00  0.00     0.041 C 
ATOM      8  O   UNL     1      23.200  17.796  33.257  1.00  0.00    -0.550 OA
ATOM      9  O   UNL     1      22.001  16.028  34.084  1.00  0.00    -0.550 OA
ENDBRANCH   6   7
ENDBRANCH   5   6
ENDBRANCH   4   5
ENDBRANCH   3   4
ENDBRANCH   2   3
ENDBRANCH   1   2
BRANCH   1  10
ATOM     10  C   UNL     1      16.431  17.745  35.286  1.00  0.00     0.000 C 
BRANCH  10  11
ATOM     11  C   UNL     1      15.533  18.367  36.366  1.00  0.00    -0.000 C 
BRANCH  11  12
ATOM     12  C   UNL     1      15.834  17.829  37.776  1.00  0.00    -0.000 C 
BRANCH  12  13
ATOM     13  C   UNL     1      14.593  17.541  38.646  1.00  0.00    -0.000 C 
BRANCH  13  14
ATOM     14  C   UNL     1      14.056  16.102  38.561  1.00  0.00    -0.000 C 
BRANCH  14  15
ATOM     15  C   UNL     1      15.068  15.125  37.944  1.00  0.00    -0.003 C 
ATOM     16  C   UNL     1      14.785  13.691  38.383  1.00  0.00     0.004 C 
ENDBRANCH  14  15
ENDBRANCH  13  14
ENDBRANCH  12  13
ENDBRANCH  11  12
ENDBRANCH  10  11
ENDBRANCH   1  10
TORSDOF 12
ENDMDL
MODEL 5
REMARK VINA RESULT:    -4.986      8.157      9.612
REMARK INTER + INTRA:          -9.641
REMARK INTER:                  -8.547
REMARK INTRA:                  -1.094
REMARK UNBOUND:                -1.157
REMARK SMILES CCCCCCCCCCCCCC(=O)[O-]
REMARK SMILES IDX 8 1 9 2 10 3 11 4 12 5 13 6 14 7 15 8 16 9 7 10 6 11 5 12
REMARK SMILES IDX 4 13 3 14 2 15 1 16
REMARK H PARENT
REMARK Flexibility Score: inf
ROOT
ATOM      1  C   UNL     1       9.890  19.066  32.184  1.00  0.00     0.000 C 
ENDROOT
BRANCH   1   2
ATOM      2  C   UNL     1       9.546  17.987  33.222  1.00  0.00     0.000 C 
BRANCH   2   3
ATOM      3  C   UNL     1       8.165  18.200  33.863  1.00  0.00     0.000 C 
BRANCH   3   4
ATOM      4  C   UNL     1       8.191  19.241  34.993  1.00  0.00     0.000 C 
BRANCH   4   5
ATOM      5  C   UNL     1       7.884  18.589  36.346  1.00  0.00     0.006 C 
BRANCH   5   6
ATOM      6  C   UNL     1       8.124  19.570  37.497  1.00  0.00     0.053 C 
BRANCH   6   7
ATOM      7  C   UNL     1       8.922  18.920  38.582  1.00  0.00     0.041 C 
ATOM      8  O   UNL     1       9.790  18.054  38.297  1.00  0.00    -0.550 OA
ATOM      9  O   UNL     1       8.741  19.304  39.905  1.00  0.00    -0.550 OA
ENDBRANCH   6   7
ENDBRANCH   5   6
ENDBRANCH   4   5
ENDBRANCH   3   4
ENDBRANCH   2   3
ENDBRANCH   1   2
BRANCH   1  10
ATOM     10  C   UNL     1       9.098  18.852  30.888  1.00  0.00     0.000 C 
BRANCH  10  11
ATOM     11  C   UNL     1       8.269  20.096  30.539  1.00  0.00    -0.000 C 
BRANCH  11  12
ATOM     12  C   UNL     1       8.256  21.142  31.669  1.00  0.00    -0.000 C 
BRANCH  12  13
ATOM     13  C   UNL     1       8.476  22.599  31.215  1.00  0.00    -0.000 C 
BRANCH  13  14
ATOM     14  C   UNL     1       9.806  23.229  31.663  1.00  0.00    -0.000 C 
BRANCH  14  15
ATOM     15  C   UNL     1      10.425  22.515  32.874  1.00  0.00    -0.003 C 
ATOM     16  C   UNL     1      11.922  22.791  32.969  1.00  0.00     0.004 C 
ENDBRANCH  14  15
ENDBRANCH  13  14
ENDBRANCH  12  13
ENDBRANCH  11  12
ENDBRANCH  10  11
ENDBRANCH   1  10
TORSDOF 12
ENDMDL
MODEL 6
REMARK VINA RESULT:    -4.957      6.755      8.504
REMARK INTER + INTRA:          -9.592
REMARK INTER:                  -7.658
REMARK INTRA:                  -1.934
REMARK UNBOUND:                -1.157
REMARK SMILES CCCCCCCCCCCCCC(=O)[O-]
REMARK SMILES IDX 8 1 9 2 10 3 11 4 12 5 13 6 14 7 15 8 16 9 7 10 6 11 5 12
REMARK SMILES IDX 4 13 3 14 2 15 1 16
REMARK H PARENT
REMARK Flexibility Score: inf
ROOT
ATOM      1  C   UNL     1       9.819  20.527  36.985  1.00  0.00     0.000 C 
ENDROOT
BRANCH   1   2
ATOM      2  C   UNL     1       8.343  20.252  37.309  1.00  0.00     0.000 C 
BRANCH   2   3
ATOM      3  C   UNL     1       8.015  18.750  37.350  1.00  0.00     0.000 C 
BRANCH   3   4
ATOM      4  C   UNL     1       8.116  18.085  35.970  1.00  0.00     0.000 C 
BRANCH   4   5
ATOM      5  C   UNL     1       9.005  16.837  36.026  1.00  0.00     0.006 C 
BRANCH   5   6
ATOM      6  C   UNL     1      10.360  17.096  35.360  1.00  0.00     0.053 C 
BRANCH   6   7
ATOM      7  C   UNL     1      11.465  16.985  36.361  1.00  0.00     0.041 C 
ATOM      8  O   UNL     1      12.604  16.586  36.005  1.00  0.00    -0.550 OA
ATOM      9  O   UNL     1      11.252  17.367  37.680  1.00  0.00    -0.550 OA
ENDBRANCH   6   7
ENDBRANCH   5   6
ENDBRANCH   4   5
ENDBRANCH   3   4
ENDBRANCH   2   3
ENDBRANCH   1   2
BRANCH   1  10
ATOM     10  C   UNL     1       9.957  21.259  35.644  1.00  0.00     0.000 C 
BRANCH  10  11
ATOM     11  C   UNL     1      11.138  20.703  34.834  1.00  0.00    -0.000 C 
BRANCH  11  12
ATOM     12  C   UNL     1      10.715  20.155  33.460  1.00  0.00    -0.000 C 
BRANCH  12  13
ATOM     13  C   UNL     1       9.223  20.334  33.114  1.00  0.00    -0.000 C 
BRANCH  13  14
ATOM     14  C   UNL     1       8.561  19.123  32.433  1.00  0.00    -0.000 C 
BRANCH  14  15
ATOM     15  C   UNL     1       9.576  18.055  32.001  1.00  0.00    -0.003 C 
ATOM     16  C   UNL     1       9.650  17.950  30.481  1.00  0.00     0.004 C 
ENDBRANCH  14  15
ENDBRANCH  13  14
ENDBRANCH  12  13
ENDBRANCH  11  12
ENDBRANCH  10  11
ENDBRANCH   1  10
TORSDOF 12
ENDMDL
MODEL 7
REMARK VINA RESULT:    -4.953      8.742     10.220
REMARK INTER + INTRA:          -9.585
REMARK INTER:                  -8.254
REMARK INTRA:                  -1.331
REMARK UNBOUND:                -1.157
REMARK SMILES CCCCCCCCCCCCCC(=O)[O-]
REMARK SMILES IDX 8 1 9 2 10 3 11 4 12 5 13 6 14 7 15 8 16 9 7 10 6 11 5 12
REMARK SMILES IDX 4 13 3 14 2 15 1 16
REMARK H PARENT
REMARK Flexibility Score: inf
ROOT
ATOM      1  C   UNL     1       8.344  20.176  30.228  1.00  0.00     0.000 C 
ENDROOT
BRANCH   1   2
ATOM      2  C   UNL     1       8.949  18.858  30.735  1.00  0.00     0.000 C 
BRANCH   2   3
ATOM      3  C   UNL     1       9.883  19.060  31.939  1.00  0.00     0.000 C 
BRANCH   3   4
ATOM      4  C   UNL     1       9.606  18.065  33.076  1.00  0.00     0.000 C 
BRANCH   4   5
ATOM      5  C   UNL     1       8.257  18.355  33.743  1.00  0.00     0.006 C 
BRANCH   5   6
ATOM      6  C   UNL     1       8.444  19.116  35.058  1.00  0.00     0.053 C 
BRANCH   6   7
ATOM      7  C   UNL     1       8.132  18.232  36.224  1.00  0.00     0.041 C 
ATOM      8  O   UNL     1       7.875  17.014  36.043  1.00  0.00    -0.550 OA
ATOM      9  O   UNL     1       8.173  18.743  37.515  1.00  0.00    -0.550 OA
ENDBRANCH   6   7
ENDBRANCH   5   6
ENDBRANCH   4   5
ENDBRANCH   3   4
ENDBRANCH   2   3
ENDBRANCH   1   2
BRANCH   1  10
ATOM     10  C   UNL     1       7.920  21.070  31.400  1.00  0.00     0.000 C 
BRANCH  10  11
ATOM     11  C   UNL     1       8.254  22.542  31.117  1.00  0.00    -0.000 C 
BRANCH  11  12
ATOM     12  C   UNL     1       9.511  23.025  31.862  1.00  0.00    -0.000 C 
BRANCH  12  13
ATOM     13  C   UNL     1       9.908  22.182  33.091  1.00  0.00    -0.000 C 
BRANCH  13  14
ATOM     14  C   UNL     1       9.240  22.601  34.413  1.00  0.00    -0.000 C 
BRANCH  14  15
ATOM     15  C   UNL     1       8.934  24.104  34.476  1.00  0.00    -0.003 C 
ATOM     16  C   UNL     1      10.096  24.876  35.096  1.00  0.00     0.004 C 
ENDBRANCH  14  15
ENDBRANCH  13  14
ENDBRANCH  12  13
ENDBRANCH  11  12
ENDBRANCH  10  11
ENDBRANCH   1  10
TORSDOF 12
ENDMDL
MODEL 8
REMARK VINA RESULT:    -4.855      8.743      9.853
REMARK INTER + INTRA:          -9.418
REMARK INTER:                  -8.162
REMARK INTRA:                  -1.256
REMARK UNBOUND:                -1.157
REMARK SMILES CCCCCCCCCCCCCC(=O)[O-]
REMARK SMILES IDX 8 1 9 2 10 3 11 4 12 5 13 6 14 7 15 8 16 9 7 10 6 11 5 12
REMARK SMILES IDX 4 13 3 14 2 15 1 16
REMARK H PARENT
REMARK Flexibility Score: inf
ROOT
ATOM      1  C   UNL     1       8.662  23.400  34.073  1.00  0.00     0.000 C 
ENDROOT
BRANCH   1   2
ATOM      2  C   UNL     1       9.322  23.122  35.431  1.00  0.00     0.000 C 
BRANCH   2   3
ATOM      3  C   UNL     1      10.319  21.953  35.377  1.00  0.00     0.000 C 
BRANCH   3   4
ATOM      4  C   UNL     1       9.774  20.679  36.040  1.00  0.00     0.000 C 
BRANCH   4   5
ATOM      5  C   UNL     1       8.952  21.019  37.288  1.00  0.00     0.006 C 
BRANCH   5   6
ATOM      6  C   UNL     1       8.150  19.805  37.767  1.00  0.00     0.053 C 
BRANCH   6   7
ATOM      7  C   UNL     1       8.935  19.021  38.771  1.00  0.00     0.041 C 
ATOM      8  O   UNL     1       9.639  18.046  38.401  1.00  0.00    -0.550 OA
ATOM      9  O   UNL     1       8.927  19.398  40.108  1.00  0.00    -0.550 OA
ENDBRANCH   6   7
ENDBRANCH   5   6
ENDBRANCH   4   5
ENDBRANCH   3   4
ENDBRANCH   2   3
ENDBRANCH   1   2
BRANCH   1  10
ATOM     10  C   UNL     1       9.710  23.795  33.025  1.00  0.00     0.000 C 
BRANCH  10  11
ATOM     11  C   UNL     1       9.545  22.966  31.743  1.00  0.00    -0.000 C 
BRANCH  11  12
ATOM     12  C   UNL     1       8.199  22.221  31.682  1.00  0.00    -0.000 C 
BRANCH  12  13
ATOM     13  C   UNL     1       8.302  20.701  31.444  1.00  0.00    -0.000 C 
BRANCH  13  14
ATOM     14  C   UNL     1       8.640  19.867  32.693  1.00  0.00    -0.000 C 
BRANCH  14  15
ATOM     15  C   UNL     1       9.155  18.461  32.349  1.00  0.00    -0.003 C 
ATOM     16  C   UNL     1       9.420  18.324  30.852  1.00  0.00     0.004 C 
ENDBRANCH  14  15
ENDBRANCH  13  14
ENDBRANCH  12  13
ENDBRANCH  11  12
ENDBRANCH  10  11
ENDBRANCH   1  10
TORSDOF 12
ENDMDL
MODEL 9
REMARK VINA RESULT:    -4.853      8.482      9.853
REMARK INTER + INTRA:          -9.415
REMARK INTER:                  -7.608
REMARK INTRA:                  -1.807
REMARK UNBOUND:                -1.157
REMARK SMILES CCCCCCCCCCCCCC(=O)[O-]
REMARK SMILES IDX 8 1 9 2 10 3 11 4 12 5 13 6 14 7 15 8 16 9 7 10 6 11 5 12
REMARK SMILES IDX 4 13 3 14 2 15 1 16
REMARK H PARENT
REMARK Flexibility Score: inf
ROOT
ATOM      1  C   UNL     1       9.394  19.458  36.746  1.00  0.00     0.000 C 
ENDROOT
BRANCH   1   2
ATOM      2  C   UNL     1       9.225  20.983  36.674  1.00  0.00     0.000 C 
BRANCH   2   3
ATOM      3  C   UNL     1       9.449  21.536  35.257  1.00  0.00     0.000 C 
BRANCH   3   4
ATOM      4  C   UNL     1      10.852  21.224  34.714  1.00  0.00     0.000 C 
BRANCH   4   5
ATOM      5  C   UNL     1      10.948  21.556  33.221  1.00  0.00     0.006 C 
BRANCH   5   6
ATOM      6  C   UNL     1       9.938  22.639  32.830  1.00  0.00     0.053 C 
BRANCH   6   7
ATOM      7  C   UNL     1      10.621  23.960  32.674  1.00  0.00     0.041 C 
ATOM      8  O   UNL     1      10.912  24.646  33.689  1.00  0.00    -0.550 OA
ATOM      9  O   UNL     1      10.980  24.414  31.412  1.00  0.00    -0.550 OA
ENDBRANCH   6   7
ENDBRANCH   5   6
ENDBRANCH   4   5
ENDBRANCH   3   4
ENDBRANCH   2   3
ENDBRANCH   1   2
BRANCH   1  10
ATOM     10  C   UNL     1       8.050  18.747  36.542  1.00  0.00     0.000 C 
BRANCH  10  11
ATOM     11  C   UNL     1       8.148  17.696  35.427  1.00  0.00    -0.000 C 
BRANCH  11  12
ATOM     12  C   UNL     1       9.580  17.526  34.890  1.00  0.00    -0.000 C 
BRANCH  12  13
ATOM     13  C   UNL     1       9.750  17.794  33.381  1.00  0.00    -0.000 C 
BRANCH  13  14
ATOM     14  C   UNL     1       8.657  18.672  32.747  1.00  0.00    -0.000 C 
BRANCH  14  15
ATOM     15  C   UNL     1       8.933  18.994  31.271  1.00  0.00    -0.003 C 
ATOM     16  C   UNL     1       9.728  17.876  30.604  1.00  0.00     0.004 C 
ENDBRANCH  14  15
ENDBRANCH  13  14
ENDBRANCH  12  13
ENDBRANCH  11  12
ENDBRANCH  10  11
ENDBRANCH   1  10
TORSDOF 12
ENDMDL
