MODEL 1
REMARK VINA RESULT:    -4.948      0.000      0.000
REMARK INTER + INTRA:          -8.932
REMARK INTER:                  -7.552
REMARK INTRA:                  -1.380
REMARK UNBOUND:                -1.380
REMARK SMILES CCCCCCCCCCC(=O)[O-]
REMARK SMILES IDX 7 1 8 2 9 3 10 4 11 5 12 6 13 7 6 8 5 9 4 10 3 11 2 12 1 13
REMARK H PARENT
REMARK Flexibility Score: inf
ROOT
ATOM      1  C   UNL     1     -26.558  -0.598  23.390  1.00  0.00     0.000 C 
ENDROOT
BRANCH   1   2
ATOM      2  C   UNL     1     -27.138  -1.177  24.696  1.00  0.00     0.000 C 
BRANCH   2   3
ATOM      3  C   UNL     1     -27.760  -0.138  25.647  1.00  0.00     0.006 C 
BRANCH   3   4
ATOM      4  C   UNL     1     -28.775  -0.753  26.618  1.00  0.00     0.053 C 
BRANCH   4   5
ATOM      5  C   UNL     1     -29.972   0.135  26.754  1.00  0.00     0.041 C 
ATOM      6  O   UNL     1     -29.826   1.376  26.908  1.00  0.00    -0.550 OA
ATOM      7  O   UNL     1     -31.250  -0.401  26.660  1.00  0.00    -0.550 OA
ENDBRANCH   4   5
ENDBRANCH   3   4
ENDBRANCH   2   3
ENDBRANCH   1   2
BRANCH   1   8
ATOM      8  C   UNL     1     -27.232   0.696  22.890  1.00  0.00     0.000 C 
BRANCH   8   9
ATOM      9  C   UNL     1     -28.551   0.486  22.128  1.00  0.00    -0.000 C 
BRANCH   9  10
ATOM     10  C   UNL     1     -29.765   1.088  22.859  1.00  0.00    -0.000 C 
BRANCH  10  11
ATOM     11  C   UNL     1     -30.862   0.037  23.129  1.00  0.00    -0.000 C 
BRANCH  11  12
ATOM     12  C   UNL     1     -30.427  -1.404  22.813  1.00  0.00    -0.003 C 
ATOM     13  C   UNL     1     -30.926  -2.419  23.840  1.00  0.00     0.004 C 
ENDBRANCH  11  12
ENDBRANCH  10  11
ENDBRANCH   9  10
ENDBRANCH   8   9
ENDBRANCH   1   8
TORSDOF 9
ENDMDL
MODEL 2
REMARK VINA RESULT:    -4.913      2.989      4.101
REMARK INTER + INTRA:          -8.877
REMARK INTER:                  -7.496
REMARK INTRA:                  -1.381
REMARK UNBOUND:                -1.380
REMARK SMILES CCCCCCCCCCC(=O)[O-]
REMARK SMILES IDX 7 1 8 2 9 3 10 4 11 5 12 6 13 7 6 8 5 9 4 10 3 11 2 12 1 13
REMARK H PARENT
REMARK Flexibility Score: inf
ROOT
ATOM      1  C   UNL     1     -27.361  -0.723  24.878  1.00  0.00     0.000 C 
ENDROOT
BRANCH   1   2
ATOM      2  C   UNL     1     -27.062   0.472  23.950  1.00  0.00     0.000 C 
BRANCH   2   3
ATOM      3  C   UNL     1     -27.510   0.288  22.489  1.00  0.00     0.006 C 
BRANCH   3   4
ATOM      4  C   UNL     1     -27.298  -1.142  21.978  1.00  0.00     0.053 C 
BRANCH   4   5
ATOM      5  C   UNL     1     -28.215  -1.427  20.829  1.00  0.00     0.041 C 
ATOM      6  O   UNL     1     -28.591  -0.493  20.072  1.00  0.00    -0.550 OA
ATOM      7  O   UNL     1     -28.613  -2.731  20.564  1.00  0.00    -0.550 OA
ENDBRANCH   4   5
ENDBRANCH   3   4
ENDBRANCH   2   3
ENDBRANCH   1   2
BRANCH   1   8
ATOM      8  C   UNL     1     -28.236  -0.396  26.105  1.00  0.00     0.000 C 
BRANCH   8   9
ATOM      9  C   UNL     1     -29.362   0.619  25.846  1.00  0.00    -0.000 C 
BRANCH   9  10
ATOM     10  C   UNL     1     -30.647  -0.038  25.312  1.00  0.00    -0.000 C 
BRANCH  10  11
ATOM     11  C   UNL     1     -30.905   0.306  23.830  1.00  0.00    -0.000 C 
BRANCH  11  12
ATOM     12  C   UNL     1     -31.137  -0.929  22.943  1.00  0.00    -0.003 C 
ATOM     13  C   UNL     1     -30.747  -2.239  23.626  1.00  0.00     0.004 C 
ENDBRANCH  11  12
ENDBRANCH  10  11
ENDBRANCH   9  10
ENDBRANCH   8   9
ENDBRANCH   1   8
TORSDOF 9
ENDMDL
MODEL 3
REMARK VINA RESULT:    -4.900      3.468      4.840
REMARK INTER + INTRA:          -8.859
REMARK INTER:                  -7.484
REMARK INTRA:                  -1.375
REMARK UNBOUND:                -1.380
REMARK SMILES CCCCCCCCCCC(=O)[O-]
REMARK SMILES IDX 7 1 8 2 9 3 10 4 11 5 12 6 13 7 6 8 5 9 4 10 3 11 2 12 1 13
REMARK H PARENT
REMARK Flexibility Score: inf
ROOT
ATOM      1  C   UNL     1     -27.195   0.482  24.177  1.00  0.00     0.000 C 
ENDROOT
BRANCH   1   2
ATOM      2  C   UNL     1     -27.586   0.800  22.720  1.00  0.00     0.000 C 
BRANCH   2   3
ATOM      3  C   UNL     1     -27.432  -0.372  21.735  1.00  0.00     0.006 C 
BRANCH   3   4
ATOM      4  C   UNL     1     -28.562  -0.433  20.700  1.00  0.00     0.053 C 
BRANCH   4   5
ATOM      5  C   UNL     1     -28.404  -1.636  19.824  1.00  0.00     0.041 C 
ATOM      6  O   UNL     1     -28.669  -2.784  20.270  1.00  0.00    -0.550 OA
ATOM      7  O   UNL     1     -28.013  -1.486  18.500  1.00  0.00    -0.550 OA
ENDBRANCH   4   5
ENDBRANCH   3   4
ENDBRANCH   2   3
ENDBRANCH   1   2
BRANCH   1   8
ATOM      8  C   UNL     1     -27.095  -1.020  24.515  1.00  0.00     0.000 C 
BRANCH   8   9
ATOM      9  C   UNL     1     -28.403  -1.661  25.010  1.00  0.00    -0.000 C 
BRANCH   9  10
ATOM     10  C   UNL     1     -29.024  -2.622  23.980  1.00  0.00    -0.000 C 
BRANCH  10  11
ATOM     11  C   UNL     1     -30.360  -2.091  23.419  1.00  0.00    -0.000 C 
BRANCH  11  12
ATOM     12  C   UNL     1     -30.868  -0.826  24.132  1.00  0.00    -0.003 C 
ATOM     13  C   UNL     1     -31.245   0.295  23.165  1.00  0.00     0.004 C 
ENDBRANCH  11  12
ENDBRANCH  10  11
ENDBRANCH   9  10
ENDBRANCH   8   9
ENDBRANCH   1   8
TORSDOF 9
ENDMDL
MODEL 4
REMARK VINA RESULT:    -4.873      1.192      3.191
REMARK INTER + INTRA:          -8.817
REMARK INTER:                  -7.445
REMARK INTRA:                  -1.372
REMARK UNBOUND:                -1.380
REMARK SMILES CCCCCCCCCCC(=O)[O-]
REMARK SMILES IDX 7 1 8 2 9 3 10 4 11 5 12 6 13 7 6 8 5 9 4 10 3 11 2 12 1 13
REMARK H PARENT
REMARK Flexibility Score: inf
ROOT
ATOM      1  C   UNL     1     -30.592  -1.750  22.782  1.00  0.00     0.000 C 
ENDROOT
BRANCH   1   2
ATOM      2  C   UNL     1     -31.164  -0.361  23.127  1.00  0.00     0.000 C 
BRANCH   2   3
ATOM      3  C   UNL     1     -30.575   0.288  24.393  1.00  0.00     0.006 C 
BRANCH   3   4
ATOM      4  C   UNL     1     -30.338  -0.720  25.523  1.00  0.00     0.053 C 
BRANCH   4   5
ATOM      5  C   UNL     1     -29.620  -0.067  26.663  1.00  0.00     0.041 C 
ATOM      6  O   UNL     1     -28.604  -0.613  27.169  1.00  0.00    -0.550 OA
ATOM      7  O   UNL     1     -30.043   1.169  27.134  1.00  0.00    -0.550 OA
ENDBRANCH   4   5
ENDBRANCH   3   4
ENDBRANCH   2   3
ENDBRANCH   1   2
BRANCH   1   8
ATOM      8  C   UNL     1     -29.760  -1.812  21.485  1.00  0.00     0.000 C 
BRANCH   8   9
ATOM      9  C   UNL     1     -29.018  -0.512  21.129  1.00  0.00    -0.000 C 
BRANCH   9  10
ATOM     10  C   UNL     1     -27.577  -0.481  21.669  1.00  0.00    -0.000 C 
BRANCH  10  11
ATOM     11  C   UNL     1     -27.388   0.588  22.766  1.00  0.00    -0.000 C 
BRANCH  11  12
ATOM     12  C   UNL     1     -26.815   0.028  24.079  1.00  0.00    -0.003 C 
ATOM     13  C   UNL     1     -26.898  -1.495  24.167  1.00  0.00     0.004 C 
ENDBRANCH  11  12
ENDBRANCH  10  11
ENDBRANCH   9  10
ENDBRANCH   8   9
ENDBRANCH   1   8
TORSDOF 9
ENDMDL
MODEL 5
REMARK VINA RESULT:    -4.863      3.037      5.121
REMARK INTER + INTRA:          -8.802
REMARK INTER:                  -7.395
REMARK INTRA:                  -1.408
REMARK UNBOUND:                -1.380
REMARK SMILES CCCCCCCCCCC(=O)[O-]
REMARK SMILES IDX 7 1 8 2 9 3 10 4 11 5 12 6 13 7 6 8 5 9 4 10 3 11 2 12 1 13
REMARK H PARENT
REMARK Flexibility Score: inf
ROOT
ATOM      1  C   UNL     1     -30.782  -0.006  24.100  1.00  0.00     0.000 C 
ENDROOT
BRANCH   1   2
ATOM      2  C   UNL     1     -30.997  -1.518  23.886  1.00  0.00     0.000 C 
BRANCH   2   3
ATOM      3  C   UNL     1     -30.263  -2.113  22.672  1.00  0.00     0.006 C 
BRANCH   3   4
ATOM      4  C   UNL     1     -30.339  -1.215  21.431  1.00  0.00     0.053 C 
BRANCH   4   5
ATOM      5  C   UNL     1     -29.219  -1.529  20.489  1.00  0.00     0.041 C 
ATOM      6  O   UNL     1     -28.800  -2.712  20.376  1.00  0.00    -0.550 OA
ATOM      7  O   UNL     1     -28.672  -0.526  19.699  1.00  0.00    -0.550 OA
ENDBRANCH   4   5
ENDBRANCH   3   4
ENDBRANCH   2   3
ENDBRANCH   1   2
BRANCH   1   8
ATOM      8  C   UNL     1     -30.075   0.375  25.416  1.00  0.00     0.000 C 
BRANCH   8   9
ATOM      9  C   UNL     1     -29.070  -0.667  25.937  1.00  0.00    -0.000 C 
BRANCH   9  10
ATOM     10  C   UNL     1     -27.627  -0.385  25.480  1.00  0.00    -0.000 C 
BRANCH  10  11
ATOM     11  C   UNL     1     -27.125  -1.430  24.461  1.00  0.00    -0.000 C 
BRANCH  11  12
ATOM     12  C   UNL     1     -26.726  -0.825  23.105  1.00  0.00    -0.003 C 
ATOM     13  C   UNL     1     -27.235   0.603  22.913  1.00  0.00     0.004 C 
ENDBRANCH  11  12
ENDBRANCH  10  11
ENDBRANCH   9  10
ENDBRANCH   8   9
ENDBRANCH   1   8
TORSDOF 9
ENDMDL
MODEL 6
REMARK VINA RESULT:    -4.846      1.367      2.175
REMARK INTER + INTRA:          -8.776
REMARK INTER:                  -7.591
REMARK INTRA:                  -1.185
REMARK UNBOUND:                -1.380
REMARK SMILES CCCCCCCCCCC(=O)[O-]
REMARK SMILES IDX 7 1 8 2 9 3 10 4 11 5 12 6 13 7 6 8 5 9 4 10 3 11 2 12 1 13
REMARK H PARENT
REMARK Flexibility Score: inf
ROOT
ATOM      1  C   UNL     1     -27.520  -0.276  22.263  1.00  0.00     0.000 C 
ENDROOT
BRANCH   1   2
ATOM      2  C   UNL     1     -26.678  -0.897  23.396  1.00  0.00     0.000 C 
BRANCH   2   3
ATOM      3  C   UNL     1     -27.406  -1.032  24.746  1.00  0.00     0.006 C 
BRANCH   3   4
ATOM      4  C   UNL     1     -27.517   0.300  25.497  1.00  0.00     0.053 C 
BRANCH   4   5
ATOM      5  C   UNL     1     -28.637   0.248  26.489  1.00  0.00     0.041 C 
ATOM      6  O   UNL     1     -28.595  -0.566  27.449  1.00  0.00    -0.550 OA
ATOM      7  O   UNL     1     -29.702   1.133  26.382  1.00  0.00    -0.550 OA
ENDBRANCH   4   5
ENDBRANCH   3   4
ENDBRANCH   2   3
ENDBRANCH   1   2
BRANCH   1   8
ATOM      8  C   UNL     1     -27.646  -1.140  20.991  1.00  0.00     0.000 C 
BRANCH   8   9
ATOM      9  C   UNL     1     -28.765  -2.194  21.033  1.00  0.00    -0.000 C 
BRANCH   9  10
ATOM     10  C   UNL     1     -30.103  -1.625  21.537  1.00  0.00    -0.000 C 
BRANCH  10  11
ATOM     11  C   UNL     1     -30.469  -2.152  22.940  1.00  0.00    -0.000 C 
BRANCH  11  12
ATOM     12  C   UNL     1     -31.055  -1.075  23.869  1.00  0.00    -0.003 C 
ATOM     13  C   UNL     1     -31.110   0.308  23.222  1.00  0.00     0.004 C 
ENDBRANCH  11  12
ENDBRANCH  10  11
ENDBRANCH   9  10
ENDBRANCH   8   9
ENDBRANCH   1   8
TORSDOF 9
ENDMDL
MODEL 7
REMARK VINA RESULT:    -4.826      3.155      5.129
REMARK INTER + INTRA:          -8.746
REMARK INTER:                  -7.326
REMARK INTRA:                  -1.420
REMARK UNBOUND:                -1.380
REMARK SMILES CCCCCCCCCCC(=O)[O-]
REMARK SMILES IDX 7 1 8 2 9 3 10 4 11 5 12 6 13 7 6 8 5 9 4 10 3 11 2 12 1 13
REMARK H PARENT
REMARK Flexibility Score: inf
ROOT
ATOM      1  C   UNL     1     -31.221  -0.262  22.864  1.00  0.00     0.000 C 
ENDROOT
BRANCH   1   2
ATOM      2  C   UNL     1     -30.086   0.779  22.783  1.00  0.00     0.000 C 
BRANCH   2   3
ATOM      3  C   UNL     1     -28.932   0.409  21.834  1.00  0.00     0.006 C 
BRANCH   3   4
ATOM      4  C   UNL     1     -29.366  -0.543  20.713  1.00  0.00     0.053 C 
BRANCH   4   5
ATOM      5  C   UNL     1     -28.330  -1.603  20.499  1.00  0.00     0.041 C 
ATOM      6  O   UNL     1     -27.110  -1.296  20.452  1.00  0.00    -0.550 OA
ATOM      7  O   UNL     1     -28.710  -2.936  20.402  1.00  0.00    -0.550 OA
ENDBRANCH   4   5
ENDBRANCH   3   4
ENDBRANCH   2   3
ENDBRANCH   1   2
BRANCH   1   8
ATOM      8  C   UNL     1     -31.100  -1.274  24.021  1.00  0.00     0.000 C 
BRANCH   8   9
ATOM      9  C   UNL     1     -30.363  -2.577  23.668  1.00  0.00    -0.000 C 
BRANCH   9  10
ATOM     10  C   UNL     1     -28.881  -2.556  24.081  1.00  0.00    -0.000 C 
BRANCH  10  11
ATOM     11  C   UNL     1     -28.608  -1.548  25.218  1.00  0.00    -0.000 C 
BRANCH  11  12
ATOM     12  C   UNL     1     -27.320  -0.731  25.019  1.00  0.00    -0.003 C 
ATOM     13  C   UNL     1     -26.438  -1.268  23.894  1.00  0.00     0.004 C 
ENDBRANCH  11  12
ENDBRANCH  10  11
ENDBRANCH   9  10
ENDBRANCH   8   9
ENDBRANCH   1   8
TORSDOF 9
ENDMDL
MODEL 8
REMARK VINA RESULT:    -4.824      3.442      5.163
REMARK INTER + INTRA:          -8.742
REMARK INTER:                  -7.428
REMARK INTRA:                  -1.314
REMARK UNBOUND:                -1.380
REMARK SMILES CCCCCCCCCCC(=O)[O-]
REMARK SMILES IDX 7 1 8 2 9 3 10 4 11 5 12 6 13 7 6 8 5 9 4 10 3 11 2 12 1 13
REMARK H PARENT
REMARK Flexibility Score: inf
ROOT
ATOM      1  C   UNL     1     -31.107  -0.420  22.566  1.00  0.00     0.000 C 
ENDROOT
BRANCH   1   2
ATOM      2  C   UNL     1     -30.489  -1.805  22.845  1.00  0.00     0.000 C 
BRANCH   2   3
ATOM      3  C   UNL     1     -29.377  -2.229  21.869  1.00  0.00     0.006 C 
BRANCH   3   4
ATOM      4  C   UNL     1     -29.543  -1.613  20.474  1.00  0.00     0.053 C 
BRANCH   4   5
ATOM      5  C   UNL     1     -28.209  -1.441  19.817  1.00  0.00     0.041 C 
ATOM      6  O   UNL     1     -28.119  -1.419  18.561  1.00  0.00    -0.550 OA
ATOM      7  O   UNL     1     -27.071  -1.254  20.592  1.00  0.00    -0.550 OA
ENDBRANCH   4   5
ENDBRANCH   3   4
ENDBRANCH   2   3
ENDBRANCH   1   2
BRANCH   1   8
ATOM      8  C   UNL     1     -30.445   0.756  23.312  1.00  0.00     0.000 C 
BRANCH   8   9
ATOM      9  C   UNL     1     -29.195   1.335  22.627  1.00  0.00    -0.000 C 
BRANCH   9  10
ATOM     10  C   UNL     1     -27.884   0.863  23.279  1.00  0.00    -0.000 C 
BRANCH  10  11
ATOM     11  C   UNL     1     -28.094   0.385  24.731  1.00  0.00    -0.000 C 
BRANCH  11  12
ATOM     12  C   UNL     1     -27.535  -1.021  25.004  1.00  0.00    -0.003 C 
ATOM     13  C   UNL     1     -26.427  -1.424  24.033  1.00  0.00     0.004 C 
ENDBRANCH  11  12
ENDBRANCH  10  11
ENDBRANCH   9  10
ENDBRANCH   8   9
ENDBRANCH   1   8
TORSDOF 9
ENDMDL
MODEL 9
REMARK VINA RESULT:    -4.781      2.020      3.303
REMARK INTER + INTRA:          -8.677
REMARK INTER:                  -7.377
REMARK INTRA:                  -1.300
REMARK UNBOUND:                -1.380
REMARK SMILES CCCCCCCCCCC(=O)[O-]
REMARK SMILES IDX 7 1 8 2 9 3 10 4 11 5 12 6 13 7 6 8 5 9 4 10 3 11 2 12 1 13
REMARK H PARENT
REMARK Flexibility Score: inf
ROOT
ATOM      1  C   UNL     1     -28.975   1.467  22.500  1.00  0.00     0.000 C 
ENDROOT
BRANCH   1   2
ATOM      2  C   UNL     1     -27.508   1.126  22.828  1.00  0.00     0.000 C 
BRANCH   2   3
ATOM      3  C   UNL     1     -27.287   0.457  24.196  1.00  0.00     0.006 C 
BRANCH   3   4
ATOM      4  C   UNL     1     -26.951  -1.035  24.082  1.00  0.00     0.053 C 
BRANCH   4   5
ATOM      5  C   UNL     1     -27.999  -1.859  24.763  1.00  0.00     0.041 C 
ATOM      6  O   UNL     1     -28.233  -3.034  24.373  1.00  0.00    -0.550 OA
ATOM      7  O   UNL     1     -28.682  -1.348  25.859  1.00  0.00    -0.550 OA
ENDBRANCH   4   5
ENDBRANCH   3   4
ENDBRANCH   2   3
ENDBRANCH   1   2
BRANCH   1   8
ATOM      8  C   UNL     1     -30.019   0.863  23.461  1.00  0.00     0.000 C 
BRANCH   8   9
ATOM      9  C   UNL     1     -31.124   0.037  22.780  1.00  0.00    -0.000 C 
BRANCH   9  10
ATOM     10  C   UNL     1     -30.683  -1.402  22.460  1.00  0.00    -0.000 C 
BRANCH  10  11
ATOM     11  C   UNL     1     -30.124  -1.535  21.028  1.00  0.00    -0.000 C 
BRANCH  11  12
ATOM     12  C   UNL     1     -28.776  -2.273  20.959  1.00  0.00    -0.003 C 
ATOM     13  C   UNL     1     -27.683  -1.459  20.268  1.00  0.00     0.004 C 
ENDBRANCH  11  12
ENDBRANCH  10  11
ENDBRANCH   9  10
ENDBRANCH   8   9
ENDBRANCH   1   8
TORSDOF 9
ENDMDL
