MODEL 1
REMARK VINA RESULT:    -3.262      0.000      0.000
REMARK INTER + INTRA:          -4.253
REMARK INTER:                  -4.121
REMARK INTRA:                  -0.132
REMARK UNBOUND:                -0.132
REMARK SMILES CSCC[C@H]([NH3+])C(=O)[O-]
REMARK SMILES IDX 4 1 5 2 6 3 7 7 8 8 9 9 3 10 2 11 1 12
REMARK H PARENT 6 4 6 5 6 6
REMARK Flexibility Score: inf
ROOT
ATOM      1  C   UNL     1      -1.067  -2.862   6.670  1.00  0.00     0.082 C 
ENDROOT
BRANCH   1   2
ATOM      2  C   UNL     1      -2.029  -1.738   7.124  1.00  0.00     0.228 C 
BRANCH   2   3
ATOM      3  N   UNL     1      -2.746  -2.141   8.339  1.00  0.00    -0.350 N 
ATOM      4  H   UNL     1      -3.231  -3.057   8.196  1.00  0.00     0.345 HD
ATOM      5  H   UNL     1      -3.453  -1.413   8.594  1.00  0.00     0.345 HD
ATOM      6  H   UNL     1      -2.073  -2.232   9.135  1.00  0.00     0.345 HD
ENDBRANCH   2   3
BRANCH   2   7
ATOM      7  C   UNL     1      -3.015  -1.386   6.042  1.00  0.00     0.099 C 
ATOM      8  O   UNL     1      -2.643  -0.727   5.036  1.00  0.00    -0.544 OA
ATOM      9  O   UNL     1      -4.342  -1.790   6.145  1.00  0.00    -0.544 OA
ENDBRANCH   2   7
ENDBRANCH   1   2
BRANCH   1  10
ATOM     10  C   UNL     1      -1.777  -4.192   6.370  1.00  0.00     0.076 C 
BRANCH  10  11
ATOM     11  S   UNL     1      -0.830  -5.617   7.012  1.00  0.00    -0.165 SA
ATOM     12  C   UNL     1       0.753  -4.721   7.092  1.00  0.00     0.085 C 
ENDBRANCH  10  11
ENDBRANCH   1  10
TORSDOF 5
ENDMDL
MODEL 2
REMARK VINA RESULT:    -3.253      2.682      3.199
REMARK INTER + INTRA:          -4.241
REMARK INTER:                  -4.000
REMARK INTRA:                  -0.241
REMARK UNBOUND:                -0.132
REMARK SMILES CSCC[C@H]([NH3+])C(=O)[O-]
REMARK SMILES IDX 4 1 5 2 6 3 7 7 8 8 9 9 3 10 2 11 1 12
REMARK H PARENT 6 4 6 5 6 6
REMARK Flexibility Score: inf
ROOT
ATOM      1  C   UNL     1      -2.621  -4.032   7.778  1.00  0.00     0.082 C 
ENDROOT
BRANCH   1   2
ATOM      2  C   UNL     1      -1.737  -3.257   6.771  1.00  0.00     0.228 C 
BRANCH   2   3
ATOM      3  N   UNL     1      -0.335  -3.279   7.202  1.00  0.00    -0.350 N 
ATOM      4  H   UNL     1       0.026  -2.307   7.339  1.00  0.00     0.345 HD
ATOM      5  H   UNL     1       0.251  -3.766   6.485  1.00  0.00     0.345 HD
ATOM      6  H   UNL     1      -0.248  -3.805   8.103  1.00  0.00     0.345 HD
ENDBRANCH   2   3
BRANCH   2   7
ATOM      7  C   UNL     1      -2.200  -1.833   6.614  1.00  0.00     0.099 C 
ATOM      8  O   UNL     1      -1.992  -0.995   7.530  1.00  0.00    -0.544 OA
ATOM      9  O   UNL     1      -2.858  -1.433   5.456  1.00  0.00    -0.544 OA
ENDBRANCH   2   7
ENDBRANCH   1   2
BRANCH   1  10
ATOM     10  C   UNL     1      -4.077  -4.198   7.313  1.00  0.00     0.076 C 
BRANCH  10  11
ATOM     11  S   UNL     1      -5.236  -3.295   8.401  1.00  0.00    -0.165 SA
ATOM     12  C   UNL     1      -4.017  -3.024   9.725  1.00  0.00     0.085 C 
ENDBRANCH  10  11
ENDBRANCH   1  10
TORSDOF 5
ENDMDL
MODEL 3
REMARK VINA RESULT:    -3.188      2.228      2.799
REMARK INTER + INTRA:          -4.159
REMARK INTER:                  -3.971
REMARK INTRA:                  -0.188
REMARK UNBOUND:                -0.132
REMARK SMILES CSCC[C@H]([NH3+])C(=O)[O-]
REMARK SMILES IDX 4 1 5 2 6 3 7 7 8 8 9 9 3 10 2 11 1 12
REMARK H PARENT 6 4 6 5 6 6
REMARK Flexibility Score: inf
ROOT
ATOM      1  C   UNL     1      -2.159  -4.336   7.524  1.00  0.00     0.082 C 
ENDROOT
BRANCH   1   2
ATOM      2  C   UNL     1      -1.411  -3.275   6.681  1.00  0.00     0.228 C 
BRANCH   2   3
ATOM      3  N   UNL     1      -0.070  -3.042   7.230  1.00  0.00    -0.350 N 
ATOM      4  H   UNL     1       0.373  -2.207   6.782  1.00  0.00     0.345 HD
ATOM      5  H   UNL     1       0.533  -3.881   7.065  1.00  0.00     0.345 HD
ATOM      6  H   UNL     1      -0.131  -2.884   8.262  1.00  0.00     0.345 HD
ENDBRANCH   2   3
BRANCH   2   7
ATOM      7  C   UNL     1      -2.173  -1.977   6.627  1.00  0.00     0.099 C 
ATOM      8  O   UNL     1      -1.979  -1.093   7.501  1.00  0.00    -0.544 OA
ATOM      9  O   UNL     1      -3.094  -1.747   5.610  1.00  0.00    -0.544 OA
ENDBRANCH   2   7
ENDBRANCH   1   2
BRANCH   1  10
ATOM     10  C   UNL     1      -2.625  -5.552   6.705  1.00  0.00     0.076 C 
BRANCH  10  11
ATOM     11  S   UNL     1      -4.314  -5.311   6.049  1.00  0.00    -0.165 SA
ATOM     12  C   UNL     1      -3.785  -5.204   4.311  1.00  0.00     0.085 C 
ENDBRANCH  10  11
ENDBRANCH   1  10
TORSDOF 5
ENDMDL
MODEL 4
REMARK VINA RESULT:    -3.075     10.671     11.112
REMARK INTER + INTRA:          -4.016
REMARK INTER:                  -3.913
REMARK INTRA:                  -0.103
REMARK UNBOUND:                -0.132
REMARK SMILES CSCC[C@H]([NH3+])C(=O)[O-]
REMARK SMILES IDX 4 1 5 2 6 3 7 7 8 8 9 9 3 10 2 11 1 12
REMARK H PARENT 6 4 6 5 6 6
REMARK Flexibility Score: inf
ROOT
ATOM      1  C   UNL     1       5.582   5.557   4.549  1.00  0.00     0.082 C 
ENDROOT
BRANCH   1   2
ATOM      2  C   UNL     1       5.345   5.709   6.071  1.00  0.00     0.228 C 
BRANCH   2   3
ATOM      3  N   UNL     1       4.454   4.648   6.555  1.00  0.00    -0.350 N 
ATOM      4  H   UNL     1       4.993   3.774   6.755  1.00  0.00     0.345 HD
ATOM      5  H   UNL     1       3.720   4.444   5.838  1.00  0.00     0.345 HD
ATOM      6  H   UNL     1       3.973   4.960   7.431  1.00  0.00     0.345 HD
ENDBRANCH   2   3
BRANCH   2   7
ATOM      7  C   UNL     1       4.764   7.057   6.406  1.00  0.00     0.099 C 
ATOM      8  O   UNL     1       4.323   7.285   7.563  1.00  0.00    -0.544 OA
ATOM      9  O   UNL     1       4.712   8.057   5.442  1.00  0.00    -0.544 OA
ENDBRANCH   2   7
ENDBRANCH   1   2
BRANCH   1  10
ATOM     10  C   UNL     1       5.527   4.099   4.062  1.00  0.00     0.076 C 
BRANCH  10  11
ATOM     11  S   UNL     1       7.063   3.197   4.471  1.00  0.00    -0.165 SA
ATOM     12  C   UNL     1       6.205   1.733   5.129  1.00  0.00     0.085 C 
ENDBRANCH  10  11
ENDBRANCH   1  10
TORSDOF 5
ENDMDL
MODEL 5
REMARK VINA RESULT:    -3.031      3.331      4.193
REMARK INTER + INTRA:          -3.961
REMARK INTER:                  -3.835
REMARK INTRA:                  -0.126
REMARK UNBOUND:                -0.132
REMARK SMILES CSCC[C@H]([NH3+])C(=O)[O-]
REMARK SMILES IDX 4 1 5 2 6 3 7 7 8 8 9 9 3 10 2 11 1 12
REMARK H PARENT 6 4 6 5 6 6
REMARK Flexibility Score: inf
ROOT
ATOM      1  C   UNL     1      -2.364  -4.102   7.536  1.00  0.00     0.082 C 
ENDROOT
BRANCH   1   2
ATOM      2  C   UNL     1      -1.337  -4.874   6.673  1.00  0.00     0.228 C 
BRANCH   2   3
ATOM      3  N   UNL     1      -1.305  -6.288   7.063  1.00  0.00    -0.350 N 
ATOM      4  H   UNL     1      -0.319  -6.630   7.134  1.00  0.00     0.345 HD
ATOM      5  H   UNL     1      -1.819  -6.865   6.358  1.00  0.00     0.345 HD
ATOM      6  H   UNL     1      -1.776  -6.413   7.989  1.00  0.00     0.345 HD
ENDBRANCH   2   3
BRANCH   2   7
ATOM      7  C   UNL     1       0.041  -4.280   6.793  1.00  0.00     0.099 C 
ATOM      8  O   UNL     1       0.964  -4.930   7.350  1.00  0.00    -0.544 OA
ATOM      9  O   UNL     1       0.304  -3.011   6.289  1.00  0.00    -0.544 OA
ENDBRANCH   2   7
ENDBRANCH   1   2
BRANCH   1  10
ATOM     10  C   UNL     1      -3.627  -3.689   6.762  1.00  0.00     0.076 C 
BRANCH  10  11
ATOM     11  S   UNL     1      -3.376  -2.122   5.856  1.00  0.00    -0.165 SA
ATOM     12  C   UNL     1      -2.421  -1.330   7.188  1.00  0.00     0.085 C 
ENDBRANCH  10  11
ENDBRANCH   1  10
TORSDOF 5
ENDMDL
MODEL 6
REMARK VINA RESULT:    -3.027     11.912     12.327
REMARK INTER + INTRA:          -3.956
REMARK INTER:                  -3.846
REMARK INTRA:                  -0.110
REMARK UNBOUND:                -0.132
REMARK SMILES CSCC[C@H]([NH3+])C(=O)[O-]
REMARK SMILES IDX 4 1 5 2 6 3 7 7 8 8 9 9 3 10 2 11 1 12
REMARK H PARENT 6 4 6 5 6 6
REMARK Flexibility Score: inf
ROOT
ATOM      1  C   UNL     1       5.608   5.534   4.679  1.00  0.00     0.082 C 
ENDROOT
BRANCH   1   2
ATOM      2  C   UNL     1       5.996   6.618   3.645  1.00  0.00     0.228 C 
BRANCH   2   3
ATOM      3  N   UNL     1       7.433   6.554   3.355  1.00  0.00    -0.350 N 
ATOM      4  H   UNL     1       7.706   5.593   3.043  1.00  0.00     0.345 HD
ATOM      5  H   UNL     1       7.981   6.806   4.210  1.00  0.00     0.345 HD
ATOM      6  H   UNL     1       7.675   7.239   2.602  1.00  0.00     0.345 HD
ENDBRANCH   2   3
BRANCH   2   7
ATOM      7  C   UNL     1       5.635   7.997   4.131  1.00  0.00     0.099 C 
ATOM      8  O   UNL     1       5.786   8.300   5.343  1.00  0.00    -0.544 OA
ATOM      9  O   UNL     1       5.134   8.943   3.244  1.00  0.00    -0.544 OA
ENDBRANCH   2   7
ENDBRANCH   1   2
BRANCH   1  10
ATOM     10  C   UNL     1       5.310   4.164   4.048  1.00  0.00     0.076 C 
BRANCH  10  11
ATOM     11  S   UNL     1       6.119   2.809   4.970  1.00  0.00    -0.165 SA
ATOM     12  C   UNL     1       7.719   2.985   4.120  1.00  0.00     0.085 C 
ENDBRANCH  10  11
ENDBRANCH   1  10
TORSDOF 5
ENDMDL
MODEL 7
REMARK VINA RESULT:    -3.004      2.722      3.141
REMARK INTER + INTRA:          -3.926
REMARK INTER:                  -3.706
REMARK INTRA:                  -0.220
REMARK UNBOUND:                -0.132
REMARK SMILES CSCC[C@H]([NH3+])C(=O)[O-]
REMARK SMILES IDX 4 1 5 2 6 3 7 7 8 8 9 9 3 10 2 11 1 12
REMARK H PARENT 6 4 6 5 6 6
REMARK Flexibility Score: inf
ROOT
ATOM      1  C   UNL     1      -3.192  -3.057   5.909  1.00  0.00     0.082 C 
ENDROOT
BRANCH   1   2
ATOM      2  C   UNL     1      -2.328  -3.124   7.192  1.00  0.00     0.228 C 
BRANCH   2   3
ATOM      3  N   UNL     1      -2.388  -1.848   7.913  1.00  0.00    -0.350 N 
ATOM      4  H   UNL     1      -2.899  -1.958   8.819  1.00  0.00     0.345 HD
ATOM      5  H   UNL     1      -2.876  -1.130   7.328  1.00  0.00     0.345 HD
ATOM      6  H   UNL     1      -1.420  -1.503   8.107  1.00  0.00     0.345 HD
ENDBRANCH   2   3
BRANCH   2   7
ATOM      7  C   UNL     1      -0.896  -3.464   6.875  1.00  0.00     0.099 C 
ATOM      8  O   UNL     1      -0.119  -2.579   6.430  1.00  0.00    -0.544 OA
ATOM      9  O   UNL     1      -0.422  -4.756   7.072  1.00  0.00    -0.544 OA
ENDBRANCH   2   7
ENDBRANCH   1   2
BRANCH   1  10
ATOM     10  C   UNL     1      -3.443  -4.432   5.268  1.00  0.00     0.076 C 
BRANCH  10  11
ATOM     11  S   UNL     1      -4.130  -5.620   6.475  1.00  0.00    -0.165 SA
ATOM     12  C   UNL     1      -2.956  -6.948   6.063  1.00  0.00     0.085 C 
ENDBRANCH  10  11
ENDBRANCH   1  10
TORSDOF 5
ENDMDL
MODEL 8
REMARK VINA RESULT:    -2.997      3.256      4.067
REMARK INTER + INTRA:          -3.918
REMARK INTER:                  -3.772
REMARK INTRA:                  -0.146
REMARK UNBOUND:                -0.132
REMARK SMILES CSCC[C@H]([NH3+])C(=O)[O-]
REMARK SMILES IDX 4 1 5 2 6 3 7 7 8 8 9 9 3 10 2 11 1 12
REMARK H PARENT 6 4 6 5 6 6
REMARK Flexibility Score: inf
ROOT
ATOM      1  C   UNL     1      -2.760  -3.747   6.154  1.00  0.00     0.082 C 
ENDROOT
BRANCH   1   2
ATOM      2  C   UNL     1      -1.568  -3.677   7.139  1.00  0.00     0.228 C 
BRANCH   2   3
ATOM      3  N   UNL     1      -0.982  -2.331   7.134  1.00  0.00    -0.350 N 
ATOM      4  H   UNL     1      -0.281  -2.236   6.363  1.00  0.00     0.345 HD
ATOM      5  H   UNL     1      -0.514  -2.143   8.050  1.00  0.00     0.345 HD
ATOM      6  H   UNL     1      -1.734  -1.617   7.001  1.00  0.00     0.345 HD
ENDBRANCH   2   3
BRANCH   2   7
ATOM      7  C   UNL     1      -0.511  -4.695   6.799  1.00  0.00     0.099 C 
ATOM      8  O   UNL     1      -0.639  -5.889   7.175  1.00  0.00    -0.544 OA
ATOM      9  O   UNL     1       0.610  -4.323   6.066  1.00  0.00    -0.544 OA
ENDBRANCH   2   7
ENDBRANCH   1   2
BRANCH   1  10
ATOM     10  C   UNL     1      -4.124  -3.871   6.852  1.00  0.00     0.076 C 
BRANCH  10  11
ATOM     11  S   UNL     1      -3.961  -4.601   8.519  1.00  0.00    -0.165 SA
ATOM     12  C   UNL     1      -4.277  -3.039   9.399  1.00  0.00     0.085 C 
ENDBRANCH  10  11
ENDBRANCH   1  10
TORSDOF 5
ENDMDL
MODEL 9
REMARK VINA RESULT:    -2.902      2.801      3.345
REMARK INTER + INTRA:          -3.798
REMARK INTER:                  -3.561
REMARK INTRA:                  -0.237
REMARK UNBOUND:                -0.132
REMARK SMILES CSCC[C@H]([NH3+])C(=O)[O-]
REMARK SMILES IDX 4 1 5 2 6 3 7 7 8 8 9 9 3 10 2 11 1 12
REMARK H PARENT 6 4 6 5 6 6
REMARK Flexibility Score: inf
ROOT
ATOM      1  C   UNL     1      -2.927  -4.123   6.000  1.00  0.00     0.082 C 
ENDROOT
BRANCH   1   2
ATOM      2  C   UNL     1      -2.078  -3.922   7.279  1.00  0.00     0.228 C 
BRANCH   2   3
ATOM      3  N   UNL     1      -2.485  -2.694   7.972  1.00  0.00    -0.350 N 
ATOM      4  H   UNL     1      -3.498  -2.732   8.228  1.00  0.00     0.345 HD
ATOM      5  H   UNL     1      -2.316  -1.865   7.356  1.00  0.00     0.345 HD
ATOM      6  H   UNL     1      -1.917  -2.572   8.842  1.00  0.00     0.345 HD
ENDBRANCH   2   3
BRANCH   2   7
ATOM      7  C   UNL     1      -0.607  -3.865   6.960  1.00  0.00     0.099 C 
ATOM      8  O   UNL     1       0.114  -4.883   7.121  1.00  0.00    -0.544 OA
ATOM      9  O   UNL     1      -0.038  -2.689   6.484  1.00  0.00    -0.544 OA
ENDBRANCH   2   7
ENDBRANCH   1   2
BRANCH   1  10
ATOM     10  C   UNL     1      -3.294  -5.592   5.733  1.00  0.00     0.076 C 
BRANCH  10  11
ATOM     11  S   UNL     1      -3.284  -6.576   7.273  1.00  0.00    -0.165 SA
ATOM     12  C   UNL     1      -1.998  -7.732   6.703  1.00  0.00     0.085 C 
ENDBRANCH  10  11
ENDBRANCH   1  10
TORSDOF 5
ENDMDL
