MODEL 1
REMARK VINA RESULT:    -5.426      0.000      0.000
REMARK INTER + INTRA:          -9.038
REMARK INTER:                  -8.281
REMARK INTRA:                  -0.757
REMARK UNBOUND:                -0.757
REMARK SMILES CCCCCCCCCCC(=O)[O-]
REMARK SMILES IDX 7 1 8 2 9 3 10 4 11 5 12 6 13 7 6 8 5 9 4 10 3 11 2 12 1 13
REMARK H PARENT
REMARK Flexibility Score: inf
ROOT
ATOM      1  C   UNL     1      15.269   0.441  15.037  1.00  0.00     0.000 C 
ENDROOT
BRANCH   1   2
ATOM      2  C   UNL     1      14.959   1.576  16.038  1.00  0.00     0.000 C 
BRANCH   2   3
ATOM      3  C   UNL     1      13.460   1.732  16.344  1.00  0.00     0.006 C 
BRANCH   3   4
ATOM      4  C   UNL     1      13.149   1.674  17.844  1.00  0.00     0.053 C 
BRANCH   4   5
ATOM      5  C   UNL     1      13.621   0.379  18.426  1.00  0.00     0.041 C 
ATOM      6  O   UNL     1      13.061  -0.701  18.105  1.00  0.00    -0.550 OA
ATOM      7  O   UNL     1      14.648   0.370  19.361  1.00  0.00    -0.550 OA
ENDBRANCH   4   5
ENDBRANCH   3   4
ENDBRANCH   2   3
ENDBRANCH   1   2
BRANCH   1   8
ATOM      8  C   UNL     1      14.463   0.583  13.734  1.00  0.00     0.000 C 
BRANCH   8   9
ATOM      9  C   UNL     1      15.146   1.504  12.711  1.00  0.00    -0.000 C 
BRANCH   9  10
ATOM     10  C   UNL     1      15.549   0.766  11.425  1.00  0.00    -0.000 C 
BRANCH  10  11
ATOM     11  C   UNL     1      17.064   0.517  11.388  1.00  0.00    -0.000 C 
BRANCH  11  12
ATOM     12  C   UNL     1      17.422  -0.971  11.531  1.00  0.00    -0.003 C 
ATOM     13  C   UNL     1      17.817  -1.350  12.958  1.00  0.00     0.004 C 
ENDBRANCH  11  12
ENDBRANCH  10  11
ENDBRANCH   9  10
ENDBRANCH   8   9
ENDBRANCH   1   8
TORSDOF 9
ENDMDL
MODEL 2
REMARK VINA RESULT:    -5.327      1.140      1.771
REMARK INTER + INTRA:          -8.887
REMARK INTER:                  -8.382
REMARK INTRA:                  -0.505
REMARK UNBOUND:                -0.757
REMARK SMILES CCCCCCCCCCC(=O)[O-]
REMARK SMILES IDX 7 1 8 2 9 3 10 4 11 5 12 6 13 7 6 8 5 9 4 10 3 11 2 12 1 13
REMARK H PARENT
REMARK Flexibility Score: inf
ROOT
ATOM      1  C   UNL     1      13.426   1.193  15.512  1.00  0.00     0.000 C 
ENDROOT
BRANCH   1   2
ATOM      2  C   UNL     1      12.875   2.225  16.520  1.00  0.00     0.000 C 
BRANCH   2   3
ATOM      3  C   UNL     1      13.442   2.060  17.940  1.00  0.00     0.006 C 
BRANCH   3   4
ATOM      4  C   UNL     1      13.251   0.645  18.497  1.00  0.00     0.053 C 
BRANCH   4   5
ATOM      5  C   UNL     1      14.526   0.145  19.102  1.00  0.00     0.041 C 
ATOM      6  O   UNL     1      15.383  -0.434  18.385  1.00  0.00    -0.550 OA
ATOM      7  O   UNL     1      14.746   0.276  20.467  1.00  0.00    -0.550 OA
ENDBRANCH   4   5
ENDBRANCH   3   4
ENDBRANCH   2   3
ENDBRANCH   1   2
BRANCH   1   8
ATOM      8  C   UNL     1      14.941   1.351  15.292  1.00  0.00     0.000 C 
BRANCH   8   9
ATOM      9  C   UNL     1      15.419   0.717  13.976  1.00  0.00    -0.000 C 
BRANCH   9  10
ATOM     10  C   UNL     1      15.133   1.602  12.753  1.00  0.00    -0.000 C 
BRANCH  10  11
ATOM     11  C   UNL     1      15.501   0.875  11.452  1.00  0.00    -0.000 C 
BRANCH  11  12
ATOM     12  C   UNL     1      17.016   0.672  11.298  1.00  0.00    -0.003 C 
ATOM     13  C   UNL     1      17.374  -0.697  10.718  1.00  0.00     0.004 C 
ENDBRANCH  11  12
ENDBRANCH  10  11
ENDBRANCH   9  10
ENDBRANCH   8   9
ENDBRANCH   1   8
TORSDOF 9
ENDMDL
MODEL 3
REMARK VINA RESULT:    -5.207      1.401      2.362
REMARK INTER + INTRA:          -8.704
REMARK INTER:                  -7.735
REMARK INTRA:                  -0.969
REMARK UNBOUND:                -0.757
REMARK SMILES CCCCCCCCCCC(=O)[O-]
REMARK SMILES IDX 7 1 8 2 9 3 10 4 11 5 12 6 13 7 6 8 5 9 4 10 3 11 2 12 1 13
REMARK H PARENT
REMARK Flexibility Score: inf
ROOT
ATOM      1  C   UNL     1      15.162   1.465  13.077  1.00  0.00     0.000 C 
ENDROOT
BRANCH   1   2
ATOM      2  C   UNL     1      14.359   0.527  14.004  1.00  0.00     0.000 C 
BRANCH   2   3
ATOM      3  C   UNL     1      13.913   1.193  15.316  1.00  0.00     0.006 C 
BRANCH   3   4
ATOM      4  C   UNL     1      15.091   1.682  16.167  1.00  0.00     0.053 C 
BRANCH   4   5
ATOM      5  C   UNL     1      15.622   0.568  17.013  1.00  0.00     0.041 C 
ATOM      6  O   UNL     1      16.832   0.560  17.361  1.00  0.00    -0.550 OA
ATOM      7  O   UNL     1      14.794  -0.486  17.376  1.00  0.00    -0.550 OA
ENDBRANCH   4   5
ENDBRANCH   3   4
ENDBRANCH   2   3
ENDBRANCH   1   2
BRANCH   1   8
ATOM      8  C   UNL     1      15.451   0.820  11.710  1.00  0.00     0.000 C 
BRANCH   8   9
ATOM      9  C   UNL     1      16.946   0.827  11.355  1.00  0.00    -0.000 C 
BRANCH   9  10
ATOM     10  C   UNL     1      17.434  -0.527  10.816  1.00  0.00    -0.000 C 
BRANCH  10  11
ATOM     11  C   UNL     1      17.303  -1.621  11.885  1.00  0.00    -0.000 C 
BRANCH  11  12
ATOM     12  C   UNL     1      18.129  -1.317  13.145  1.00  0.00    -0.003 C 
ATOM     13  C   UNL     1      17.349  -1.564  14.437  1.00  0.00     0.004 C 
ENDBRANCH  11  12
ENDBRANCH  10  11
ENDBRANCH   9  10
ENDBRANCH   8   9
ENDBRANCH   1   8
TORSDOF 9
ENDMDL
MODEL 4
REMARK VINA RESULT:    -5.179      3.096      6.107
REMARK INTER + INTRA:          -8.662
REMARK INTER:                  -7.627
REMARK INTRA:                  -1.035
REMARK UNBOUND:                -0.757
REMARK SMILES CCCCCCCCCCC(=O)[O-]
REMARK SMILES IDX 7 1 8 2 9 3 10 4 11 5 12 6 13 7 6 8 5 9 4 10 3 11 2 12 1 13
REMARK H PARENT
REMARK Flexibility Score: inf
ROOT
ATOM      1  C   UNL     1      15.905  -1.780  19.134  1.00  0.00     0.000 C 
ENDROOT
BRANCH   1   2
ATOM      2  C   UNL     1      17.141  -0.901  18.838  1.00  0.00     0.000 C 
BRANCH   2   3
ATOM      3  C   UNL     1      16.924   0.096  17.687  1.00  0.00     0.006 C 
BRANCH   3   4
ATOM      4  C   UNL     1      17.271  -0.493  16.315  1.00  0.00     0.053 C 
BRANCH   4   5
ATOM      5  C   UNL     1      16.149  -0.269  15.351  1.00  0.00     0.041 C 
ATOM      6  O   UNL     1      15.732  -1.215  14.632  1.00  0.00    -0.550 OA
ATOM      7  O   UNL     1      15.595   0.997  15.210  1.00  0.00    -0.550 OA
ENDBRANCH   4   5
ENDBRANCH   3   4
ENDBRANCH   2   3
ENDBRANCH   1   2
BRANCH   1   8
ATOM      8  C   UNL     1      15.095  -1.254  20.332  1.00  0.00     0.000 C 
BRANCH   8   9
ATOM      9  C   UNL     1      13.706  -0.736  19.927  1.00  0.00    -0.000 C 
BRANCH   9  10
ATOM     10  C   UNL     1      13.328  -1.115  18.487  1.00  0.00    -0.000 C 
BRANCH  10  11
ATOM     11  C   UNL     1      13.231   0.134  17.599  1.00  0.00    -0.000 C 
BRANCH  11  12
ATOM     12  C   UNL     1      13.384   1.438  18.397  1.00  0.00    -0.003 C 
ATOM     13  C   UNL     1      12.931   2.669  17.611  1.00  0.00     0.004 C 
ENDBRANCH  11  12
ENDBRANCH  10  11
ENDBRANCH   9  10
ENDBRANCH   8   9
ENDBRANCH   1   8
TORSDOF 9
ENDMDL
MODEL 5
REMARK VINA RESULT:    -5.160      3.273      6.400
REMARK INTER + INTRA:          -8.632
REMARK INTER:                  -8.050
REMARK INTRA:                  -0.582
REMARK UNBOUND:                -0.757
REMARK SMILES CCCCCCCCCCC(=O)[O-]
REMARK SMILES IDX 7 1 8 2 9 3 10 4 11 5 12 6 13 7 6 8 5 9 4 10 3 11 2 12 1 13
REMARK H PARENT
REMARK Flexibility Score: inf
ROOT
ATOM      1  C   UNL     1      14.677   0.320  13.924  1.00  0.00     0.000 C 
ENDROOT
BRANCH   1   2
ATOM      2  C   UNL     1      15.107   1.414  12.922  1.00  0.00     0.000 C 
BRANCH   2   3
ATOM      3  C   UNL     1      15.471   0.864  11.532  1.00  0.00     0.006 C 
BRANCH   3   4
ATOM      4  C   UNL     1      16.984   0.731  11.322  1.00  0.00     0.053 C 
BRANCH   4   5
ATOM      5  C   UNL     1      17.375  -0.711  11.246  1.00  0.00     0.041 C 
ATOM      6  O   UNL     1      17.348  -1.318  10.143  1.00  0.00    -0.550 OA
ATOM      7  O   UNL     1      17.723  -1.400  12.401  1.00  0.00    -0.550 OA
ENDBRANCH   4   5
ENDBRANCH   3   4
ENDBRANCH   2   3
ENDBRANCH   1   2
BRANCH   1   8
ATOM      8  C   UNL     1      15.401   0.457  15.275  1.00  0.00     0.000 C 
BRANCH   8   9
ATOM      9  C   UNL     1      14.926   1.675  16.083  1.00  0.00    -0.000 C 
BRANCH   9  10
ATOM     10  C   UNL     1      13.406   1.681  16.310  1.00  0.00    -0.000 C 
BRANCH  10  11
ATOM     11  C   UNL     1      13.077   1.693  17.809  1.00  0.00    -0.000 C 
BRANCH  11  12
ATOM     12  C   UNL     1      13.244   0.311  18.462  1.00  0.00    -0.003 C 
ATOM     13  C   UNL     1      14.448   0.242  19.401  1.00  0.00     0.004 C 
ENDBRANCH  11  12
ENDBRANCH  10  11
ENDBRANCH   9  10
ENDBRANCH   8   9
ENDBRANCH   1   8
TORSDOF 9
ENDMDL
MODEL 6
REMARK VINA RESULT:    -5.146     15.009     16.949
REMARK INTER + INTRA:          -8.611
REMARK INTER:                  -7.726
REMARK INTRA:                  -0.884
REMARK UNBOUND:                -0.757
REMARK SMILES CCCCCCCCCCC(=O)[O-]
REMARK SMILES IDX 7 1 8 2 9 3 10 4 11 5 12 6 13 7 6 8 5 9 4 10 3 11 2 12 1 13
REMARK H PARENT
REMARK Flexibility Score: inf
ROOT
ATOM      1  C   UNL     1      27.119  -3.121   6.099  1.00  0.00     0.000 C 
ENDROOT
BRANCH   1   2
ATOM      2  C   UNL     1      27.027  -2.604   7.552  1.00  0.00     0.000 C 
BRANCH   2   3
ATOM      3  C   UNL     1      27.630  -1.202   7.744  1.00  0.00     0.006 C 
BRANCH   3   4
ATOM      4  C   UNL     1      28.270  -1.013   9.124  1.00  0.00     0.053 C 
BRANCH   4   5
ATOM      5  C   UNL     1      29.734  -1.318   9.068  1.00  0.00     0.041 C 
ATOM      6  O   UNL     1      30.308  -1.847  10.056  1.00  0.00    -0.550 OA
ATOM      7  O   UNL     1      30.474  -0.975   7.945  1.00  0.00    -0.550 OA
ENDBRANCH   4   5
ENDBRANCH   3   4
ENDBRANCH   2   3
ENDBRANCH   1   2
BRANCH   1   8
ATOM      8  C   UNL     1      28.576  -3.325   5.648  1.00  0.00     0.000 C 
BRANCH   8   9
ATOM      9  C   UNL     1      29.169  -4.655   6.139  1.00  0.00    -0.000 C 
BRANCH   9  10
ATOM     10  C   UNL     1      30.282  -4.460   7.179  1.00  0.00    -0.000 C 
BRANCH  10  11
ATOM     11  C   UNL     1      31.596  -4.042   6.503  1.00  0.00    -0.000 C 
BRANCH  11  12
ATOM     12  C   UNL     1      32.775  -3.984   7.488  1.00  0.00    -0.003 C 
ATOM     13  C   UNL     1      32.381  -4.392   8.907  1.00  0.00     0.004 C 
ENDBRANCH  11  12
ENDBRANCH  10  11
ENDBRANCH   9  10
ENDBRANCH   8   9
ENDBRANCH   1   8
TORSDOF 9
ENDMDL
MODEL 7
REMARK VINA RESULT:    -5.144     15.442     16.877
REMARK INTER + INTRA:          -8.608
REMARK INTER:                  -7.441
REMARK INTRA:                  -1.167
REMARK UNBOUND:                -0.757
REMARK SMILES CCCCCCCCCCC(=O)[O-]
REMARK SMILES IDX 7 1 8 2 9 3 10 4 11 5 12 6 13 7 6 8 5 9 4 10 3 11 2 12 1 13
REMARK H PARENT
REMARK Flexibility Score: inf
ROOT
ATOM      1  C   UNL     1      28.032  -1.662   8.431  1.00  0.00     0.000 C 
ENDROOT
BRANCH   1   2
ATOM      2  C   UNL     1      29.333  -0.964   7.979  1.00  0.00     0.000 C 
BRANCH   2   3
ATOM      3  C   UNL     1      30.403  -0.886   9.080  1.00  0.00     0.006 C 
BRANCH   3   4
ATOM      4  C   UNL     1      30.350  -2.073  10.049  1.00  0.00     0.053 C 
BRANCH   4   5
ATOM      5  C   UNL     1      31.731  -2.468  10.468  1.00  0.00     0.041 C 
ATOM      6  O   UNL     1      32.128  -3.651  10.304  1.00  0.00    -0.550 OA
ATOM      7  O   UNL     1      32.563  -1.542  11.083  1.00  0.00    -0.550 OA
ENDBRANCH   4   5
ENDBRANCH   3   4
ENDBRANCH   2   3
ENDBRANCH   1   2
BRANCH   1   8
ATOM      8  C   UNL     1      27.129  -2.032   7.240  1.00  0.00     0.000 C 
BRANCH   8   9
ATOM      9  C   UNL     1      27.270  -3.505   6.823  1.00  0.00    -0.000 C 
BRANCH   9  10
ATOM     10  C   UNL     1      28.357  -3.718   5.758  1.00  0.00    -0.000 C 
BRANCH  10  11
ATOM     11  C   UNL     1      29.298  -4.863   6.159  1.00  0.00    -0.000 C 
BRANCH  11  12
ATOM     12  C   UNL     1      30.356  -4.427   7.185  1.00  0.00    -0.003 C 
ATOM     13  C   UNL     1      31.524  -3.675   6.548  1.00  0.00     0.004 C 
ENDBRANCH  11  12
ENDBRANCH  10  11
ENDBRANCH   9  10
ENDBRANCH   8   9
ENDBRANCH   1   8
TORSDOF 9
ENDMDL
MODEL 8
REMARK VINA RESULT:    -5.139      2.986      5.991
REMARK INTER + INTRA:          -8.600
REMARK INTER:                  -7.932
REMARK INTRA:                  -0.668
REMARK UNBOUND:                -0.757
REMARK SMILES CCCCCCCCCCC(=O)[O-]
REMARK SMILES IDX 7 1 8 2 9 3 10 4 11 5 12 6 13 7 6 8 5 9 4 10 3 11 2 12 1 13
REMARK H PARENT
REMARK Flexibility Score: inf
ROOT
ATOM      1  C   UNL     1      12.904   2.123  16.402  1.00  0.00     0.000 C 
ENDROOT
BRANCH   1   2
ATOM      2  C   UNL     1      13.308   1.203  15.228  1.00  0.00     0.000 C 
BRANCH   2   3
ATOM      3  C   UNL     1      14.796   1.300  14.855  1.00  0.00     0.006 C 
BRANCH   3   4
ATOM      4  C   UNL     1      15.020   1.711  13.395  1.00  0.00     0.053 C 
BRANCH   4   5
ATOM      5  C   UNL     1      15.596   0.571  12.615  1.00  0.00     0.041 C 
ATOM      6  O   UNL     1      15.481   0.541  11.361  1.00  0.00    -0.550 OA
ATOM      7  O   UNL     1      16.215  -0.482  13.274  1.00  0.00    -0.550 OA
ENDBRANCH   4   5
ENDBRANCH   3   4
ENDBRANCH   2   3
ENDBRANCH   1   2
BRANCH   1   8
ATOM      8  C   UNL     1      14.065   2.345  17.388  1.00  0.00     0.000 C 
BRANCH   8   9
ATOM      9  C   UNL     1      13.734   1.867  18.811  1.00  0.00    -0.000 C 
BRANCH   9  10
ATOM     10  C   UNL     1      13.776   0.337  18.947  1.00  0.00    -0.000 C 
BRANCH  10  11
ATOM     11  C   UNL     1      14.752  -0.087  20.053  1.00  0.00    -0.000 C 
BRANCH  11  12
ATOM     12  C   UNL     1      15.910  -0.946  19.521  1.00  0.00    -0.003 C 
ATOM     13  C   UNL     1      16.648  -0.288  18.355  1.00  0.00     0.004 C 
ENDBRANCH  11  12
ENDBRANCH  10  11
ENDBRANCH   9  10
ENDBRANCH   8   9
ENDBRANCH   1   8
TORSDOF 9
ENDMDL
MODEL 9
REMARK VINA RESULT:    -5.127      1.606      3.103
REMARK INTER + INTRA:          -8.582
REMARK INTER:                  -7.922
REMARK INTRA:                  -0.660
REMARK UNBOUND:                -0.757
REMARK SMILES CCCCCCCCCCC(=O)[O-]
REMARK SMILES IDX 7 1 8 2 9 3 10 4 11 5 12 6 13 7 6 8 5 9 4 10 3 11 2 12 1 13
REMARK H PARENT
REMARK Flexibility Score: inf
ROOT
ATOM      1  C   UNL     1      12.949   2.459  17.126  1.00  0.00     0.000 C 
ENDROOT
BRANCH   1   2
ATOM      2  C   UNL     1      13.549   2.104  18.504  1.00  0.00     0.000 C 
BRANCH   2   3
ATOM      3  C   UNL     1      13.502   0.601  18.827  1.00  0.00     0.006 C 
BRANCH   3   4
ATOM      4  C   UNL     1      14.532   0.184  19.882  1.00  0.00     0.053 C 
BRANCH   4   5
ATOM      5  C   UNL     1      15.593  -0.673  19.267  1.00  0.00     0.041 C 
ATOM      6  O   UNL     1      16.518  -0.149  18.592  1.00  0.00    -0.550 OA
ATOM      7  O   UNL     1      15.533  -2.054  19.396  1.00  0.00    -0.550 OA
ENDBRANCH   4   5
ENDBRANCH   3   4
ENDBRANCH   2   3
ENDBRANCH   1   2
BRANCH   1   8
ATOM      8  C   UNL     1      13.236   1.374  16.073  1.00  0.00     0.000 C 
BRANCH   8   9
ATOM      9  C   UNL     1      14.647   1.487  15.474  1.00  0.00    -0.000 C 
BRANCH   9  10
ATOM     10  C   UNL     1      15.330   0.121  15.305  1.00  0.00    -0.000 C 
BRANCH  10  11
ATOM     11  C   UNL     1      15.580  -0.187  13.822  1.00  0.00    -0.000 C 
BRANCH  11  12
ATOM     12  C   UNL     1      15.123   0.952  12.897  1.00  0.00    -0.003 C 
ATOM     13  C   UNL     1      15.511   0.721  11.437  1.00  0.00     0.004 C 
ENDBRANCH  11  12
ENDBRANCH  10  11
ENDBRANCH   9  10
ENDBRANCH   8   9
ENDBRANCH   1   8
TORSDOF 9
ENDMDL
