MODEL 1
REMARK VINA RESULT:    23.928      0.000      0.000
REMARK INTER + INTRA:          34.525
REMARK INTER:                  33.720
REMARK INTRA:                   0.805
REMARK UNBOUND:                 0.805
REMARK SMILES CC1=CCC(=C(C)C)C(=O)CC(C)=CCC1
REMARK SMILES IDX 12 1 14 2 13 3 15 4 16 5 2 6 1 7 3 8 11 10 9 11 10 12 5 13
REMARK SMILES IDX 6 14 7 15 8 16 4 17
REMARK H PARENT
REMARK Flexibility Score: 60.00
ROOT
ATOM      1  C   UNL     1      86.091  14.512 107.908  1.00  0.00    -0.070 C 
ATOM      2  C   UNL     1      85.692  15.617 107.240  1.00  0.00    -0.027 C 
ATOM      3  C   UNL     1      87.289  13.763 107.382  1.00  0.00     0.039 C 
ENDROOT
BRANCH   2   4
ATOM      4  C   UNL     1      84.580  16.552 107.663  1.00  0.00     0.032 C 
BRANCH   4   5
ATOM      5  C   UNL     1      83.347  16.553 106.735  1.00  0.00     0.034 C 
BRANCH   5   6
ATOM      6  C   UNL     1      82.962  15.167 106.252  1.00  0.00    -0.077 C 
ATOM      7  C   UNL     1      83.319  14.794 104.834  1.00  0.00     0.039 C 
ATOM      8  C   UNL     1      82.382  14.220 107.029  1.00  0.00    -0.023 CG0
ATOM      9  G   UNL     1      81.922  14.372 108.464  1.00  0.00     0.000 G0
ENDBRANCH   5   6
ENDBRANCH   4   5
ENDBRANCH   2   4
BRANCH   1  10
ATOM     10  C   UNL     1      85.453  14.046 109.201  1.00  0.00     0.111 C 
BRANCH  10  11
ATOM     11  C   UNL     1      84.181  13.279 108.948  1.00  0.00     0.163 C 
ATOM     12  O   UNL     1      84.262  12.186 108.324  1.00  0.00    -0.294 OA
BRANCH  11  13
ATOM     13  C   UNL     1      82.855  13.734 109.461  1.00  0.00    -0.002 C 
ATOM     14  C   UNL     1      82.557  13.657 110.793  1.00  0.00    -0.069 C 
ATOM     15  C   UNL     1      81.290  14.253 111.366  1.00  0.00     0.039 C 
ATOM     16  C   UNL     1      83.489  12.968 111.767  1.00  0.00     0.039 C 
BRANCH  13  17
ATOM     17  C   UNL     1      81.902  14.368 108.461  1.00  0.00     0.066 CG0
ATOM     18  G   UNL     1      82.388  14.229 107.033  1.00  0.00     0.000 G0
ENDBRANCH  13  17
ENDBRANCH  11  13
ENDBRANCH  10  11
ENDBRANCH   1  10
TORSDOF 0
ENDMDL
MODEL 2
REMARK VINA RESULT:    24.970      1.667      3.778
REMARK INTER + INTRA:          35.993
REMARK INTER:                  32.361
REMARK INTRA:                   3.632
REMARK UNBOUND:                 0.805
REMARK SMILES CC1=CCC(=C(C)C)C(=O)CC(C)=CCC1
REMARK SMILES IDX 12 1 14 2 13 3 15 4 16 5 2 6 1 7 3 8 11 10 9 11 10 12 5 13
REMARK SMILES IDX 6 14 7 15 8 16 4 17
REMARK H PARENT
REMARK Flexibility Score: 60.00
ROOT
ATOM      1  C   UNL     1      85.066  14.166 109.866  1.00  0.00    -0.070 C 
ATOM      2  C   UNL     1      83.893  13.919 110.491  1.00  0.00    -0.027 C 
ATOM      3  C   UNL     1      86.245  14.577 110.712  1.00  0.00     0.039 C 
ENDROOT
BRANCH   2   4
ATOM      4  C   UNL     1      82.632  13.406 109.832  1.00  0.00     0.032 C 
BRANCH   4   5
ATOM      5  C   UNL     1      82.249  14.123 108.520  1.00  0.00     0.034 C 
BRANCH   5   6
ATOM      6  C   UNL     1      82.925  13.533 107.296  1.00  0.00    -0.077 C 
ATOM      7  C   UNL     1      82.948  12.030 107.164  1.00  0.00     0.039 C 
ATOM      8  C   UNL     1      83.448  14.266 106.284  1.00  0.00    -0.023 CG0
ATOM      9  G   UNL     1      83.554  15.775 106.207  1.00  0.00     0.000 G0
ENDBRANCH   5   6
ENDBRANCH   4   5
ENDBRANCH   2   4
BRANCH   1  10
ATOM     10  C   UNL     1      85.275  13.962 108.380  1.00  0.00     0.111 C 
BRANCH  10  11
ATOM     11  C   UNL     1      85.646  15.249 107.689  1.00  0.00     0.163 C 
ATOM     12  O   UNL     1      86.865  15.461 107.446  1.00  0.00    -0.294 OA
BRANCH  11  13
ATOM     13  C   UNL     1      84.625  16.237 107.233  1.00  0.00    -0.002 C 
ATOM     14  C   UNL     1      84.691  17.544 107.630  1.00  0.00    -0.069 C 
ATOM     15  C   UNL     1      83.768  18.600 107.062  1.00  0.00     0.039 C 
ATOM     16  C   UNL     1      85.699  18.001 108.661  1.00  0.00     0.039 C 
BRANCH  13  17
ATOM     17  C   UNL     1      83.577  15.750 106.244  1.00  0.00     0.066 CG0
ATOM     18  G   UNL     1      83.427  14.243 106.259  1.00  0.00     0.000 G0
ENDBRANCH  13  17
ENDBRANCH  11  13
ENDBRANCH  10  11
ENDBRANCH   1  10
TORSDOF 0
ENDMDL
MODEL 3
REMARK VINA RESULT:    24.984      6.606      9.185
REMARK INTER + INTRA:          36.013
REMARK INTER:                  33.254
REMARK INTRA:                   2.758
REMARK UNBOUND:                 0.805
REMARK SMILES CC1=CCC(=C(C)C)C(=O)CC(C)=CCC1
REMARK SMILES IDX 12 1 14 2 13 3 15 4 16 5 2 6 1 7 3 8 11 10 9 11 10 12 5 13
REMARK SMILES IDX 6 14 7 15 8 16 4 17
REMARK H PARENT
REMARK Flexibility Score: 60.00
ROOT
ATOM      1  C   UNL     1      91.864   7.492 107.175  1.00  0.00    -0.070 C 
ATOM      2  C   UNL     1      92.171   7.506 108.491  1.00  0.00    -0.027 C 
ATOM      3  C   UNL     1      92.985   7.271 106.190  1.00  0.00     0.039 C 
ENDROOT
BRANCH   2   4
ATOM      4  C   UNL     1      91.180   7.615 109.628  1.00  0.00     0.032 C 
BRANCH   4   5
ATOM      5  C   UNL     1      89.839   6.889 109.390  1.00  0.00     0.034 C 
BRANCH   5   6
ATOM      6  C   UNL     1      88.638   7.814 109.456  1.00  0.00    -0.077 C 
ATOM      7  C   UNL     1      87.355   7.258 110.023  1.00  0.00     0.039 C 
ATOM      8  C   UNL     1      88.661   9.122 109.105  1.00  0.00    -0.023 CG0
ATOM      9  G   UNL     1      89.821   9.887 108.500  1.00  0.00     0.000 G0
ENDBRANCH   5   6
ENDBRANCH   4   5
ENDBRANCH   2   4
BRANCH   1  10
ATOM     10  C   UNL     1      90.446   7.596 106.651  1.00  0.00     0.111 C 
BRANCH  10  11
ATOM     11  C   UNL     1      90.151   8.973 106.116  1.00  0.00     0.163 C 
ATOM     12  O   UNL     1      90.230   9.154 104.870  1.00  0.00    -0.294 OA
BRANCH  11  13
ATOM     13  C   UNL     1      89.712  10.096 106.994  1.00  0.00    -0.002 C 
ATOM     14  C   UNL     1      89.167  11.230 106.459  1.00  0.00    -0.069 C 
ATOM     15  C   UNL     1      88.568  12.317 107.325  1.00  0.00     0.039 C 
ATOM     16  C   UNL     1      89.131  11.453 104.963  1.00  0.00     0.039 C 
BRANCH  13  17
ATOM     17  C   UNL     1      89.811   9.886 108.497  1.00  0.00     0.066 CG0
ATOM     18  G   UNL     1      88.606   9.158 109.057  1.00  0.00     0.000 G0
ENDBRANCH  13  17
ENDBRANCH  11  13
ENDBRANCH  10  11
ENDBRANCH   1  10
TORSDOF 0
ENDMDL
MODEL 4
REMARK VINA RESULT:    25.072      2.245      4.950
REMARK INTER + INTRA:          36.137
REMARK INTER:                  34.801
REMARK INTRA:                   1.337
REMARK UNBOUND:                 0.805
REMARK SMILES CC1=CCC(=C(C)C)C(=O)CC(C)=CCC1
REMARK SMILES IDX 12 1 14 2 13 3 15 4 16 5 2 6 1 7 3 8 11 10 9 11 10 12 5 13
REMARK SMILES IDX 6 14 7 15 8 16 4 17
REMARK H PARENT
REMARK Flexibility Score: 60.00
ROOT
ATOM      1  C   UNL     1      82.521  14.450 106.861  1.00  0.00    -0.070 C 
ATOM      2  C   UNL     1      82.715  13.277 107.502  1.00  0.00    -0.027 C 
ATOM      3  C   UNL     1      81.125  15.021 106.839  1.00  0.00     0.039 C 
ENDROOT
BRANCH   2   4
ATOM      4  C   UNL     1      84.050  12.597 107.717  1.00  0.00     0.032 C 
BRANCH   4   5
ATOM      5  C   UNL     1      84.692  12.854 109.096  1.00  0.00     0.034 C 
BRANCH   5   6
ATOM      6  C   UNL     1      84.056  14.011 109.845  1.00  0.00    -0.077 C 
ATOM      7  C   UNL     1      83.021  13.684 110.892  1.00  0.00     0.039 C 
ATOM      8  C   UNL     1      84.407  15.310 109.684  1.00  0.00    -0.023 CG0
ATOM      9  G   UNL     1      85.400  15.872 108.688  1.00  0.00     0.000 G0
ENDBRANCH   5   6
ENDBRANCH   4   5
ENDBRANCH   2   4
BRANCH   1  10
ATOM     10  C   UNL     1      83.646  15.259 106.249  1.00  0.00     0.111 C 
BRANCH  10  11
ATOM     11  C   UNL     1      83.738  16.634 106.860  1.00  0.00     0.163 C 
ATOM     12  O   UNL     1      82.840  17.471 106.572  1.00  0.00    -0.294 OA
BRANCH  11  13
ATOM     13  C   UNL     1      84.808  17.010 107.830  1.00  0.00    -0.002 C 
ATOM     14  C   UNL     1      85.170  18.317 108.000  1.00  0.00    -0.069 C 
ATOM     15  C   UNL     1      86.134  18.747 109.084  1.00  0.00     0.039 C 
ATOM     16  C   UNL     1      84.616  19.407 107.107  1.00  0.00     0.039 C 
BRANCH  13  17
ATOM     17  C   UNL     1      85.401  15.896 108.679  1.00  0.00     0.066 CG0
ATOM     18  G   UNL     1      84.394  15.309 109.646  1.00  0.00     0.000 G0
ENDBRANCH  13  17
ENDBRANCH  11  13
ENDBRANCH  10  11
ENDBRANCH   1  10
TORSDOF 0
ENDMDL
MODEL 5
REMARK VINA RESULT:    25.766      1.503      3.139
REMARK INTER + INTRA:          37.115
REMARK INTER:                  36.371
REMARK INTRA:                   0.744
REMARK UNBOUND:                 0.805
REMARK SMILES CC1=CCC(=C(C)C)C(=O)CC(C)=CCC1
REMARK SMILES IDX 12 1 14 2 13 3 15 4 16 5 2 6 1 7 3 8 11 10 9 11 10 12 5 13
REMARK SMILES IDX 6 14 7 15 8 16 4 17
REMARK H PARENT
REMARK Flexibility Score: 60.00
ROOT
ATOM      1  C   UNL     1      82.639  14.456 107.134  1.00  0.00    -0.070 C 
ATOM      2  C   UNL     1      83.302  15.524 106.639  1.00  0.00    -0.027 C 
ATOM      3  C   UNL     1      81.212  14.655 107.581  1.00  0.00     0.039 C 
ENDROOT
BRANCH   2   4
ATOM      4  C   UNL     1      84.697  15.504 106.053  1.00  0.00     0.032 C 
BRANCH   4   5
ATOM      5  C   UNL     1      85.824  15.833 107.055  1.00  0.00     0.034 C 
BRANCH   5   6
ATOM      6  C   UNL     1      86.391  14.604 107.741  1.00  0.00    -0.077 C 
ATOM      7  C   UNL     1      87.604  13.953 107.124  1.00  0.00     0.039 C 
ATOM      8  C   UNL     1      85.923  14.095 108.907  1.00  0.00    -0.023 CG0
ATOM      9  G   UNL     1      84.716  14.568 109.691  1.00  0.00     0.000 G0
ENDBRANCH   5   6
ENDBRANCH   4   5
ENDBRANCH   2   4
BRANCH   1  10
ATOM     10  C   UNL     1      83.225  13.060 107.176  1.00  0.00     0.111 C 
BRANCH  10  11
ATOM     11  C   UNL     1      83.496  12.613 108.589  1.00  0.00     0.163 C 
ATOM     12  O   UNL     1      83.699  11.386 108.795  1.00  0.00    -0.294 OA
BRANCH  11  13
ATOM     13  C   UNL     1      83.593  13.573 109.728  1.00  0.00    -0.002 C 
ATOM     14  C   UNL     1      82.733  13.490 110.788  1.00  0.00    -0.069 C 
ATOM     15  C   UNL     1      82.904  14.342 112.026  1.00  0.00     0.039 C 
ATOM     16  C   UNL     1      81.562  12.533 110.774  1.00  0.00     0.039 C 
BRANCH  13  17
ATOM     17  C   UNL     1      84.738  14.573 109.700  1.00  0.00     0.066 CG0
ATOM     18  G   UNL     1      85.917  14.077 108.888  1.00  0.00     0.000 G0
ENDBRANCH  13  17
ENDBRANCH  11  13
ENDBRANCH  10  11
ENDBRANCH   1  10
TORSDOF 0
ENDMDL
MODEL 6
REMARK VINA RESULT:    25.778      1.916      4.724
REMARK INTER + INTRA:          37.131
REMARK INTER:                  34.007
REMARK INTRA:                   3.124
REMARK UNBOUND:                 0.805
REMARK SMILES CC1=CCC(=C(C)C)C(=O)CC(C)=CCC1
REMARK SMILES IDX 12 1 14 2 13 3 15 4 16 5 2 6 1 7 3 8 11 10 9 11 10 12 5 13
REMARK SMILES IDX 6 14 7 15 8 16 4 17
REMARK H PARENT
REMARK Flexibility Score: 60.00
ROOT
ATOM      1  C   UNL     1      83.115  14.094 106.596  1.00  0.00    -0.070 C 
ATOM      2  C   UNL     1      83.390  12.794 106.841  1.00  0.00    -0.027 C 
ATOM      3  C   UNL     1      82.748  14.486 105.186  1.00  0.00     0.039 C 
ENDROOT
BRANCH   2   4
ATOM      4  C   UNL     1      83.681  12.193 108.198  1.00  0.00     0.032 C 
BRANCH   4   5
ATOM      5  C   UNL     1      82.647  12.533 109.291  1.00  0.00     0.034 C 
BRANCH   5   6
ATOM      6  C   UNL     1      83.162  13.532 110.312  1.00  0.00    -0.077 C 
ATOM      7  C   UNL     1      82.210  13.989 111.389  1.00  0.00     0.039 C 
ATOM      8  C   UNL     1      84.438  13.985 110.360  1.00  0.00    -0.023 CG0
ATOM      9  G   UNL     1      85.555  13.681 109.382  1.00  0.00     0.000 G0
ENDBRANCH   5   6
ENDBRANCH   4   5
ENDBRANCH   2   4
BRANCH   1  10
ATOM     10  C   UNL     1      83.068  15.152 107.679  1.00  0.00     0.111 C 
BRANCH  10  11
ATOM     11  C   UNL     1      84.449  15.615 108.064  1.00  0.00     0.163 C 
ATOM     12  O   UNL     1      84.614  16.839 108.320  1.00  0.00    -0.294 OA
BRANCH  11  13
ATOM     13  C   UNL     1      85.597  14.673 108.212  1.00  0.00    -0.002 C 
ATOM     14  C   UNL     1      86.667  14.737 107.363  1.00  0.00    -0.069 C 
ATOM     15  C   UNL     1      87.913  13.906 107.582  1.00  0.00     0.039 C 
ATOM     16  C   UNL     1      86.658  15.649 106.156  1.00  0.00     0.039 C 
BRANCH  13  17
ATOM     17  C   UNL     1      85.566  13.716 109.394  1.00  0.00     0.066 CG0
ATOM     18  G   UNL     1      84.453  14.040 110.368  1.00  0.00     0.000 G0
ENDBRANCH  13  17
ENDBRANCH  11  13
ENDBRANCH  10  11
ENDBRANCH   1  10
TORSDOF 0
ENDMDL
MODEL 7
REMARK VINA RESULT:    26.272      1.554      3.949
REMARK INTER + INTRA:          37.827
REMARK INTER:                  33.756
REMARK INTRA:                   4.072
REMARK UNBOUND:                 0.805
REMARK SMILES CC1=CCC(=C(C)C)C(=O)CC(C)=CCC1
REMARK SMILES IDX 12 1 14 2 13 3 15 4 16 5 2 6 1 7 3 8 11 10 9 11 10 12 5 13
REMARK SMILES IDX 6 14 7 15 8 16 4 17
REMARK H PARENT
REMARK Flexibility Score: 60.00
ROOT
ATOM      1  C   UNL     1      83.139  13.572 110.785  1.00  0.00    -0.070 C 
ATOM      2  C   UNL     1      84.369  14.124 110.868  1.00  0.00    -0.027 C 
ATOM      3  C   UNL     1      82.501  13.071 112.057  1.00  0.00     0.039 C 
ENDROOT
BRANCH   2   4
ATOM      4  C   UNL     1      85.128  14.769 109.728  1.00  0.00     0.032 C 
BRANCH   4   5
ATOM      5  C   UNL     1      84.560  16.124 109.257  1.00  0.00     0.034 C 
BRANCH   5   6
ATOM      6  C   UNL     1      85.127  16.579 107.925  1.00  0.00    -0.077 C 
ATOM      7  C   UNL     1      85.563  18.018 107.804  1.00  0.00     0.039 C 
ATOM      8  C   UNL     1      85.330  15.763 106.862  1.00  0.00    -0.023 CG0
ATOM      9  G   UNL     1      84.956  14.299 106.748  1.00  0.00     0.000 G0
ENDBRANCH   5   6
ENDBRANCH   4   5
ENDBRANCH   2   4
BRANCH   1  10
ATOM     10  C   UNL     1      82.338  13.518 109.501  1.00  0.00     0.111 C 
BRANCH  10  11
ATOM     11  C   UNL     1      83.206  13.173 108.319  1.00  0.00     0.163 C 
ATOM     12  O   UNL     1      83.669  12.002 108.245  1.00  0.00    -0.294 OA
BRANCH  11  13
ATOM     13  C   UNL     1      83.479  14.140 107.215  1.00  0.00    -0.002 C 
ATOM     14  C   UNL     1      82.469  14.888 106.676  1.00  0.00    -0.069 C 
ATOM     15  C   UNL     1      82.736  15.987 105.671  1.00  0.00     0.039 C 
ATOM     16  C   UNL     1      81.025  14.653 107.063  1.00  0.00     0.039 C 
BRANCH  13  17
ATOM     17  C   UNL     1      84.927  14.322 106.791  1.00  0.00     0.066 CG0
ATOM     18  G   UNL     1      85.359  15.774 106.824  1.00  0.00     0.000 G0
ENDBRANCH  13  17
ENDBRANCH  11  13
ENDBRANCH  10  11
ENDBRANCH   1  10
TORSDOF 0
ENDMDL
MODEL 8
REMARK VINA RESULT:    26.447      8.994     10.587
REMARK INTER + INTRA:          38.075
REMARK INTER:                  33.898
REMARK INTRA:                   4.177
REMARK UNBOUND:                 0.805
REMARK SMILES CC1=CCC(=C(C)C)C(=O)CC(C)=CCC1
REMARK SMILES IDX 12 1 14 2 13 3 15 4 16 5 2 6 1 7 3 8 11 10 9 11 10 12 5 13
REMARK SMILES IDX 6 14 7 15 8 16 4 17
REMARK H PARENT
REMARK Flexibility Score: 60.00
ROOT
ATOM      1  C   UNL     1      90.146  19.290 112.793  1.00  0.00    -0.070 C 
ATOM      2  C   UNL     1      91.430  19.228 112.375  1.00  0.00    -0.027 C 
ATOM      3  C   UNL     1      89.348  18.010 112.816  1.00  0.00     0.039 C 
ENDROOT
BRANCH   2   4
ATOM      4  C   UNL     1      92.415  20.377 112.374  1.00  0.00     0.032 C 
BRANCH   4   5
ATOM      5  C   UNL     1      91.862  21.702 111.808  1.00  0.00     0.034 C 
BRANCH   5   6
ATOM      6  C   UNL     1      91.087  22.512 112.831  1.00  0.00    -0.077 C 
ATOM      7  C   UNL     1      91.713  22.708 114.190  1.00  0.00     0.039 C 
ATOM      8  C   UNL     1      89.905  23.126 112.584  1.00  0.00    -0.023 CG0
ATOM      9  G   UNL     1      89.087  23.056 111.311  1.00  0.00     0.000 G0
ENDBRANCH   5   6
ENDBRANCH   4   5
ENDBRANCH   2   4
BRANCH   1  10
ATOM     10  C   UNL     1      89.504  20.556 113.322  1.00  0.00     0.111 C 
BRANCH  10  11
ATOM     11  C   UNL     1      88.268  20.920 112.540  1.00  0.00     0.163 C 
ATOM     12  O   UNL     1      87.149  20.565 113.001  1.00  0.00    -0.294 OA
BRANCH  11  13
ATOM     13  C   UNL     1      88.322  21.730 111.288  1.00  0.00    -0.002 C 
ATOM     14  C   UNL     1      87.628  21.344 110.175  1.00  0.00    -0.069 C 
ATOM     15  C   UNL     1      87.534  22.221 108.946  1.00  0.00     0.039 C 
ATOM     16  C   UNL     1      86.914  20.011 110.119  1.00  0.00     0.039 C 
BRANCH  13  17
ATOM     17  C   UNL     1      89.095  23.038 111.338  1.00  0.00     0.066 CG0
ATOM     18  G   UNL     1      89.954  23.153 112.580  1.00  0.00     0.000 G0
ENDBRANCH  13  17
ENDBRANCH  11  13
ENDBRANCH  10  11
ENDBRANCH   1  10
TORSDOF 0
ENDMDL
MODEL 9
REMARK VINA RESULT:    26.680      1.840      4.541
REMARK INTER + INTRA:          38.402
REMARK INTER:                  35.892
REMARK INTRA:                   2.510
REMARK UNBOUND:                 0.805
REMARK SMILES CC1=CCC(=C(C)C)C(=O)CC(C)=CCC1
REMARK SMILES IDX 12 1 14 2 13 3 15 4 16 5 2 6 1 7 3 8 11 10 9 11 10 12 5 13
REMARK SMILES IDX 6 14 7 15 8 16 4 17
REMARK H PARENT
REMARK Flexibility Score: 60.00
ROOT
ATOM      1  C   UNL     1      83.123  13.498 109.314  1.00  0.00    -0.070 C 
ATOM      2  C   UNL     1      84.225  12.774 109.016  1.00  0.00    -0.027 C 
ATOM      3  C   UNL     1      82.722  13.608 110.764  1.00  0.00     0.039 C 
ENDROOT
BRANCH   2   4
ATOM      4  C   UNL     1      84.840  12.627 107.641  1.00  0.00     0.032 C 
BRANCH   4   5
ATOM      5  C   UNL     1      86.380  12.527 107.628  1.00  0.00     0.034 C 
BRANCH   5   6
ATOM      6  C   UNL     1      87.057  13.793 107.137  1.00  0.00    -0.077 C 
ATOM      7  C   UNL     1      88.250  13.642 106.226  1.00  0.00     0.039 C 
ATOM      8  C   UNL     1      86.619  15.047 107.406  1.00  0.00    -0.023 CG0
ATOM      9  G   UNL     1      85.463  15.440 108.303  1.00  0.00     0.000 G0
ENDBRANCH   5   6
ENDBRANCH   4   5
ENDBRANCH   2   4
BRANCH   1  10
ATOM     10  C   UNL     1      82.333  14.273 108.281  1.00  0.00     0.111 C 
BRANCH  10  11
ATOM     11  C   UNL     1      83.233  14.898 107.247  1.00  0.00     0.163 C 
ATOM     12  O   UNL     1      83.075  14.564 106.042  1.00  0.00    -0.294 OA
BRANCH  11  13
ATOM     13  C   UNL     1      84.250  15.935 107.593  1.00  0.00    -0.002 C 
ATOM     14  C   UNL     1      84.020  17.256 107.325  1.00  0.00    -0.069 C 
ATOM     15  C   UNL     1      84.956  18.344 107.804  1.00  0.00     0.039 C 
ATOM     16  C   UNL     1      82.808  17.697 106.533  1.00  0.00     0.039 C 
BRANCH  13  17
ATOM     17  C   UNL     1      85.494  15.471 108.334  1.00  0.00     0.066 CG0
ATOM     18  G   UNL     1      86.594  15.028 107.391  1.00  0.00     0.000 G0
ENDBRANCH  13  17
ENDBRANCH  11  13
ENDBRANCH  10  11
ENDBRANCH   1  10
TORSDOF 0
ENDMDL
