MODEL 1
REMARK VINA RESULT:    -5.728      0.000      0.000
REMARK INTER + INTRA:          -6.438
REMARK INTER:                  -6.398
REMARK INTRA:                  -0.040
REMARK UNBOUND:                -0.040
REMARK SMILES O=C([O-])c1ccc(O)c(O)c1
REMARK SMILES IDX 4 1 11 2 5 3 9 4 6 5 7 6 2 7 1 8 3 9 10 10 8 12
REMARK H PARENT 10 11 8 13
REMARK Flexibility Score: inf
ROOT
ATOM      1  C   UNL     1     -33.872  44.925  38.863  1.00  0.00     0.001 A 
ATOM      2  C   UNL     1     -32.539  45.091  38.446  1.00  0.00     0.060 A 
ATOM      3  C   UNL     1     -34.904  45.465  38.076  1.00  0.00     0.014 A 
ATOM      4  C   UNL     1     -32.240  45.783  37.267  1.00  0.00     0.158 A 
ATOM      5  C   UNL     1     -34.609  46.157  36.898  1.00  0.00     0.051 A 
ATOM      6  C   UNL     1     -33.279  46.319  36.488  1.00  0.00     0.157 A 
ENDROOT
BRANCH   1   7
ATOM      7  C   UNL     1     -34.189  44.194  40.109  1.00  0.00     0.072 C 
ATOM      8  O   UNL     1     -33.589  43.124  40.393  1.00  0.00    -0.545 OA
ATOM      9  O   UNL     1     -35.153  44.679  40.985  1.00  0.00    -0.545 OA
ENDBRANCH   1   7
BRANCH   4  10
ATOM     10  O   UNL     1     -30.906  45.927  36.886  1.00  0.00    -0.504 OA
ATOM     11  H   UNL     1     -30.350  46.727  37.163  1.00  0.00     0.293 HD
ENDBRANCH   4  10
BRANCH   6  12
ATOM     12  O   UNL     1     -32.988  47.009  35.312  1.00  0.00    -0.504 OA
ATOM     13  H   UNL     1     -32.906  48.018  35.295  1.00  0.00     0.293 HD
ENDBRANCH   6  12
TORSDOF 3
ENDMDL
MODEL 2
REMARK VINA RESULT:    -5.722      0.879      2.065
REMARK INTER + INTRA:          -6.431
REMARK INTER:                  -6.390
REMARK INTRA:                  -0.041
REMARK UNBOUND:                -0.040
REMARK SMILES O=C([O-])c1ccc(O)c(O)c1
REMARK SMILES IDX 4 1 11 2 5 3 9 4 6 5 7 6 2 7 1 8 3 9 10 10 8 12
REMARK H PARENT 10 11 8 13
REMARK Flexibility Score: inf
ROOT
ATOM      1  C   UNL     1     -33.701  44.813  38.766  1.00  0.00     0.001 A 
ATOM      2  C   UNL     1     -34.754  45.330  37.991  1.00  0.00     0.060 A 
ATOM      3  C   UNL     1     -32.376  45.090  38.387  1.00  0.00     0.014 A 
ATOM      4  C   UNL     1     -34.492  46.109  36.858  1.00  0.00     0.158 A 
ATOM      5  C   UNL     1     -32.111  45.867  37.257  1.00  0.00     0.051 A 
ATOM      6  C   UNL     1     -33.164  46.380  36.488  1.00  0.00     0.157 A 
ENDROOT
BRANCH   1   7
ATOM      7  C   UNL     1     -33.978  43.989  39.964  1.00  0.00     0.072 C 
ATOM      8  O   UNL     1     -33.222  43.029  40.269  1.00  0.00    -0.545 OA
ATOM      9  O   UNL     1     -35.077  44.265  40.770  1.00  0.00    -0.545 OA
ENDBRANCH   1   7
BRANCH   4  10
ATOM     10  O   UNL     1     -35.562  46.605  36.114  1.00  0.00    -0.504 OA
ATOM     11  H   UNL     1     -36.453  46.834  36.539  1.00  0.00     0.293 HD
ENDBRANCH   4  10
BRANCH   6  12
ATOM     12  O   UNL     1     -32.895  47.156  35.361  1.00  0.00    -0.504 OA
ATOM     13  H   UNL     1     -32.957  48.166  35.386  1.00  0.00     0.293 HD
ENDBRANCH   6  12
TORSDOF 3
ENDMDL
MODEL 3
REMARK VINA RESULT:    -5.322     12.836     15.770
REMARK INTER + INTRA:          -5.984
REMARK INTER:                  -5.941
REMARK INTRA:                  -0.043
REMARK UNBOUND:                -0.040
REMARK SMILES O=C([O-])c1ccc(O)c(O)c1
REMARK SMILES IDX 4 1 11 2 5 3 9 4 6 5 7 6 2 7 1 8 3 9 10 10 8 12
REMARK H PARENT 10 11 8 13
REMARK Flexibility Score: inf
ROOT
ATOM      1  C   UNL     1     -39.887  37.333  48.117  1.00  0.00     0.001 A 
ATOM      2  C   UNL     1     -40.036  36.015  48.583  1.00  0.00     0.060 A 
ATOM      3  C   UNL     1     -40.518  38.378  48.813  1.00  0.00     0.014 A 
ATOM      4  C   UNL     1     -40.801  35.743  49.723  1.00  0.00     0.158 A 
ATOM      5  C   UNL     1     -41.283  38.110  49.951  1.00  0.00     0.051 A 
ATOM      6  C   UNL     1     -41.429  36.794  50.412  1.00  0.00     0.157 A 
ENDROOT
BRANCH   1   7
ATOM      7  C   UNL     1     -39.078  37.622  46.912  1.00  0.00     0.072 C 
ATOM      8  O   UNL     1     -38.170  36.829  46.546  1.00  0.00    -0.545 OA
ATOM      9  O   UNL     1     -39.310  38.771  46.166  1.00  0.00    -0.545 OA
ENDBRANCH   1   7
BRANCH   4  10
ATOM     10  O   UNL     1     -40.926  34.423  50.156  1.00  0.00    -0.504 OA
ATOM     11  H   UNL     1     -40.540  33.646  49.634  1.00  0.00     0.293 HD
ENDBRANCH   4  10
BRANCH   6  12
ATOM     12  O   UNL     1     -42.192  36.531  51.548  1.00  0.00    -0.504 OA
ATOM     13  H   UNL     1     -41.784  36.537  52.475  1.00  0.00     0.293 HD
ENDBRANCH   6  12
TORSDOF 3
ENDMDL
MODEL 4
REMARK VINA RESULT:    -5.291     10.395     13.026
REMARK INTER + INTRA:          -5.950
REMARK INTER:                  -5.906
REMARK INTRA:                  -0.044
REMARK UNBOUND:                -0.040
REMARK SMILES O=C([O-])c1ccc(O)c(O)c1
REMARK SMILES IDX 4 1 11 2 5 3 9 4 6 5 7 6 2 7 1 8 3 9 10 10 8 12
REMARK H PARENT 10 11 8 13
REMARK Flexibility Score: inf
ROOT
ATOM      1  C   UNL     1     -39.488  38.971  45.993  1.00  0.00     0.001 A 
ATOM      2  C   UNL     1     -38.257  38.704  46.620  1.00  0.00     0.060 A 
ATOM      3  C   UNL     1     -40.679  38.673  46.677  1.00  0.00     0.014 A 
ATOM      4  C   UNL     1     -38.215  38.150  47.905  1.00  0.00     0.158 A 
ATOM      5  C   UNL     1     -40.641  38.120  47.960  1.00  0.00     0.051 A 
ATOM      6  C   UNL     1     -39.412  37.856  48.580  1.00  0.00     0.157 A 
ENDROOT
BRANCH   1   7
ATOM      7  C   UNL     1     -39.533  39.556  44.635  1.00  0.00     0.072 C 
ATOM      8  O   UNL     1     -40.608  39.568  43.979  1.00  0.00    -0.545 OA
ATOM      9  O   UNL     1     -38.389  40.103  44.065  1.00  0.00    -0.545 OA
ENDBRANCH   1   7
BRANCH   4  10
ATOM     10  O   UNL     1     -36.976  37.900  48.494  1.00  0.00    -0.504 OA
ATOM     11  H   UNL     1     -36.104  38.105  48.022  1.00  0.00     0.293 HD
ENDBRANCH   4  10
BRANCH   6  12
ATOM     12  O   UNL     1     -39.377  37.305  49.859  1.00  0.00    -0.504 OA
ATOM     13  H   UNL     1     -39.146  36.331  50.011  1.00  0.00     0.293 HD
ENDBRANCH   6  12
TORSDOF 3
ENDMDL
MODEL 5
REMARK VINA RESULT:    -5.222      2.541      3.634
REMARK INTER + INTRA:          -5.872
REMARK INTER:                  -5.828
REMARK INTRA:                  -0.044
REMARK UNBOUND:                -0.040
REMARK SMILES O=C([O-])c1ccc(O)c(O)c1
REMARK SMILES IDX 4 1 11 2 5 3 9 4 6 5 7 6 2 7 1 8 3 9 10 10 8 12
REMARK H PARENT 10 11 8 13
REMARK Flexibility Score: inf
ROOT
ATOM      1  C   UNL     1     -35.243  43.970  41.216  1.00  0.00     0.001 A 
ATOM      2  C   UNL     1     -34.883  42.769  40.579  1.00  0.00     0.060 A 
ATOM      3  C   UNL     1     -35.103  45.180  40.516  1.00  0.00     0.014 A 
ATOM      4  C   UNL     1     -34.393  42.774  39.268  1.00  0.00     0.158 A 
ATOM      5  C   UNL     1     -34.614  45.190  39.208  1.00  0.00     0.051 A 
ATOM      6  C   UNL     1     -34.257  43.990  38.577  1.00  0.00     0.157 A 
ENDROOT
BRANCH   1   7
ATOM      7  C   UNL     1     -35.761  43.964  42.602  1.00  0.00     0.072 C 
ATOM      8  O   UNL     1     -35.809  45.030  43.272  1.00  0.00    -0.545 OA
ATOM      9  O   UNL     1     -36.204  42.782  43.184  1.00  0.00    -0.545 OA
ENDBRANCH   1   7
BRANCH   4  10
ATOM     10  O   UNL     1     -34.048  41.564  38.669  1.00  0.00    -0.504 OA
ATOM     11  H   UNL     1     -34.380  41.304  37.748  1.00  0.00     0.293 HD
ENDBRANCH   4  10
BRANCH   6  12
ATOM     12  O   UNL     1     -33.770  44.003  37.271  1.00  0.00    -0.504 OA
ATOM     13  H   UNL     1     -32.960  43.459  37.002  1.00  0.00     0.293 HD
ENDBRANCH   6  12
TORSDOF 3
ENDMDL
MODEL 6
REMARK VINA RESULT:    -5.196      2.543      3.096
REMARK INTER + INTRA:          -5.844
REMARK INTER:                  -5.800
REMARK INTRA:                  -0.044
REMARK UNBOUND:                -0.040
REMARK SMILES O=C([O-])c1ccc(O)c(O)c1
REMARK SMILES IDX 4 1 11 2 5 3 9 4 6 5 7 6 2 7 1 8 3 9 10 10 8 12
REMARK H PARENT 10 11 8 13
REMARK Flexibility Score: inf
ROOT
ATOM      1  C   UNL     1     -34.746  43.322  40.864  1.00  0.00     0.001 A 
ATOM      2  C   UNL     1     -34.440  42.920  39.551  1.00  0.00     0.060 A 
ATOM      3  C   UNL     1     -35.063  44.669  41.107  1.00  0.00     0.014 A 
ATOM      4  C   UNL     1     -34.448  43.845  38.501  1.00  0.00     0.158 A 
ATOM      5  C   UNL     1     -35.072  45.595  40.061  1.00  0.00     0.051 A 
ATOM      6  C   UNL     1     -34.766  45.190  38.755  1.00  0.00     0.157 A 
ENDROOT
BRANCH   1   7
ATOM      7  C   UNL     1     -34.737  42.344  41.974  1.00  0.00     0.072 C 
ATOM      8  O   UNL     1     -34.451  41.137  41.762  1.00  0.00    -0.545 OA
ATOM      9  O   UNL     1     -35.044  42.747  43.269  1.00  0.00    -0.545 OA
ENDBRANCH   1   7
BRANCH   4  10
ATOM     10  O   UNL     1     -34.139  43.410  37.212  1.00  0.00    -0.504 OA
ATOM     11  H   UNL     1     -33.888  44.055  36.472  1.00  0.00     0.293 HD
ENDBRANCH   4  10
BRANCH   6  12
ATOM     12  O   UNL     1     -34.777  46.116  37.714  1.00  0.00    -0.504 OA
ATOM     13  H   UNL     1     -35.593  46.682  37.515  1.00  0.00     0.293 HD
ENDBRANCH   6  12
TORSDOF 3
ENDMDL
MODEL 7
REMARK VINA RESULT:    -5.147     10.197     12.889
REMARK INTER + INTRA:          -5.788
REMARK INTER:                  -5.747
REMARK INTRA:                  -0.041
REMARK UNBOUND:                -0.040
REMARK SMILES O=C([O-])c1ccc(O)c(O)c1
REMARK SMILES IDX 4 1 11 2 5 3 9 4 6 5 7 6 2 7 1 8 3 9 10 10 8 12
REMARK H PARENT 10 11 8 13
REMARK Flexibility Score: inf
ROOT
ATOM      1  C   UNL     1     -38.423  38.702  45.992  1.00  0.00     0.001 A 
ATOM      2  C   UNL     1     -38.008  38.421  47.306  1.00  0.00     0.060 A 
ATOM      3  C   UNL     1     -39.798  38.814  45.721  1.00  0.00     0.014 A 
ATOM      4  C   UNL     1     -38.947  38.253  48.331  1.00  0.00     0.158 A 
ATOM      5  C   UNL     1     -40.737  38.647  46.742  1.00  0.00     0.051 A 
ATOM      6  C   UNL     1     -40.318  38.366  48.049  1.00  0.00     0.157 A 
ENDROOT
BRANCH   1   7
ATOM      7  C   UNL     1     -37.432  38.879  44.908  1.00  0.00     0.072 C 
ATOM      8  O   UNL     1     -36.330  39.444  45.135  1.00  0.00    -0.545 OA
ATOM      9  O   UNL     1     -37.703  38.423  43.623  1.00  0.00    -0.545 OA
ENDBRANCH   1   7
BRANCH   4  10
ATOM     10  O   UNL     1     -38.498  37.975  49.622  1.00  0.00    -0.504 OA
ATOM     11  H   UNL     1     -39.042  38.210  50.443  1.00  0.00     0.293 HD
ENDBRANCH   4  10
BRANCH   6  12
ATOM     12  O   UNL     1     -41.258  38.201  49.065  1.00  0.00    -0.504 OA
ATOM     13  H   UNL     1     -41.168  37.467  49.757  1.00  0.00     0.293 HD
ENDBRANCH   6  12
TORSDOF 3
ENDMDL
MODEL 8
REMARK VINA RESULT:    -5.125     10.246     13.180
REMARK INTER + INTRA:          -5.764
REMARK INTER:                  -5.720
REMARK INTRA:                  -0.044
REMARK UNBOUND:                -0.040
REMARK SMILES O=C([O-])c1ccc(O)c(O)c1
REMARK SMILES IDX 4 1 11 2 5 3 9 4 6 5 7 6 2 7 1 8 3 9 10 10 8 12
REMARK H PARENT 10 11 8 13
REMARK Flexibility Score: inf
ROOT
ATOM      1  C   UNL     1     -39.371  39.067  45.852  1.00  0.00     0.001 A 
ATOM      2  C   UNL     1     -40.522  38.750  46.595  1.00  0.00     0.060 A 
ATOM      3  C   UNL     1     -38.108  38.876  46.439  1.00  0.00     0.014 A 
ATOM      4  C   UNL     1     -40.417  38.252  47.898  1.00  0.00     0.158 A 
ATOM      5  C   UNL     1     -37.999  38.378  47.741  1.00  0.00     0.051 A 
ATOM      6  C   UNL     1     -39.150  38.064  48.476  1.00  0.00     0.157 A 
ENDROOT
BRANCH   1   7
ATOM      7  C   UNL     1     -39.481  39.594  44.474  1.00  0.00     0.072 C 
ATOM      8  O   UNL     1     -40.588  39.589  43.874  1.00  0.00    -0.545 OA
ATOM      9  O   UNL     1     -38.363  40.104  43.823  1.00  0.00    -0.545 OA
ENDBRANCH   1   7
BRANCH   4  10
ATOM     10  O   UNL     1     -41.581  37.949  48.604  1.00  0.00    -0.504 OA
ATOM     11  H   UNL     1     -42.499  38.222  48.272  1.00  0.00     0.293 HD
ENDBRANCH   4  10
BRANCH   6  12
ATOM     12  O   UNL     1     -39.038  37.568  49.774  1.00  0.00    -0.504 OA
ATOM     13  H   UNL     1     -39.155  36.583  49.977  1.00  0.00     0.293 HD
ENDBRANCH   6  12
TORSDOF 3
ENDMDL
MODEL 9
REMARK VINA RESULT:    -4.962     12.031     15.072
REMARK INTER + INTRA:          -5.583
REMARK INTER:                  -5.547
REMARK INTRA:                  -0.036
REMARK UNBOUND:                -0.040
REMARK SMILES O=C([O-])c1ccc(O)c(O)c1
REMARK SMILES IDX 4 1 11 2 5 3 9 4 6 5 7 6 2 7 1 8 3 9 10 10 8 12
REMARK H PARENT 10 11 8 13
REMARK Flexibility Score: inf
ROOT
ATOM      1  C   UNL     1     -39.832  37.964  47.479  1.00  0.00     0.001 A 
ATOM      2  C   UNL     1     -40.644  38.325  48.569  1.00  0.00     0.060 A 
ATOM      3  C   UNL     1     -39.460  36.617  47.324  1.00  0.00     0.014 A 
ATOM      4  C   UNL     1     -41.076  37.362  49.488  1.00  0.00     0.158 A 
ATOM      5  C   UNL     1     -39.890  35.653  48.239  1.00  0.00     0.051 A 
ATOM      6  C   UNL     1     -40.699  36.019  49.324  1.00  0.00     0.157 A 
ENDROOT
BRANCH   1   7
ATOM      7  C   UNL     1     -39.374  38.981  46.508  1.00  0.00     0.072 C 
ATOM      8  O   UNL     1     -40.063  39.248  45.488  1.00  0.00    -0.545 OA
ATOM      9  O   UNL     1     -38.176  39.658  46.709  1.00  0.00    -0.545 OA
ENDBRANCH   1   7
BRANCH   4  10
ATOM     10  O   UNL     1     -41.881  37.758  50.556  1.00  0.00    -0.504 OA
ATOM     11  H   UNL     1     -42.494  38.562  50.500  1.00  0.00     0.293 HD
ENDBRANCH   4  10
BRANCH   6  12
ATOM     12  O   UNL     1     -41.127  35.054  50.235  1.00  0.00    -0.504 OA
ATOM     13  H   UNL     1     -41.593  34.208  49.932  1.00  0.00     0.293 HD
ENDBRANCH   6  12
TORSDOF 3
ENDMDL
