MODEL 1
REMARK VINA RESULT:    -5.044      0.000      0.000
REMARK INTER + INTRA:          -8.925
REMARK INTER:                  -7.698
REMARK INTRA:                  -1.227
REMARK UNBOUND:                -1.227
REMARK SMILES CCCCCCCCCC=CC(=O)[O-]
REMARK SMILES IDX 7 1 8 2 9 3 10 4 11 5 12 6 13 7 14 8 6 9 5 10 4 11 3 12 2 13
REMARK SMILES IDX 1 14
REMARK H PARENT
REMARK Flexibility Score: inf
ROOT
ATOM      1  C   UNL     1     -26.785 -30.859 -10.749  1.00  0.00     0.000 C 
ENDROOT
BRANCH   1   2
ATOM      2  C   UNL     1     -25.554 -31.780 -10.660  1.00  0.00     0.004 C 
BRANCH   2   3
ATOM      3  C   UNL     1     -24.545 -31.600 -11.807  1.00  0.00     0.027 C 
BRANCH   3   4
ATOM      4  C   UNL     1     -23.889 -32.891 -12.211  1.00  0.00    -0.025 C 
ATOM      5  C   UNL     1     -24.558 -34.049 -12.196  1.00  0.00     0.020 C 
BRANCH   5   6
ATOM      6  C   UNL     1     -23.935 -35.323 -12.592  1.00  0.00     0.064 C 
ATOM      7  O   UNL     1     -22.685 -35.477 -12.554  1.00  0.00    -0.545 OA
ATOM      8  O   UNL     1     -24.740 -36.373 -13.013  1.00  0.00    -0.545 OA
ENDBRANCH   5   6
ENDBRANCH   3   4
ENDBRANCH   2   3
ENDBRANCH   1   2
BRANCH   1   9
ATOM      9  C   UNL     1     -27.082 -30.399 -12.185  1.00  0.00     0.000 C 
BRANCH   9  10
ATOM     10  C   UNL     1     -28.351 -31.076 -12.724  1.00  0.00     0.000 C 
BRANCH  10  11
ATOM     11  C   UNL     1     -28.068 -32.440 -13.374  1.00  0.00    -0.000 C 
BRANCH  11  12
ATOM     12  C   UNL     1     -28.419 -33.619 -12.450  1.00  0.00    -0.000 C 
BRANCH  12  13
ATOM     13  C   UNL     1     -27.874 -34.958 -12.970  1.00  0.00    -0.003 C 
ATOM     14  C   UNL     1     -27.684 -34.972 -14.486  1.00  0.00     0.004 C 
ENDBRANCH  12  13
ENDBRANCH  11  12
ENDBRANCH  10  11
ENDBRANCH   9  10
ENDBRANCH   1   9
TORSDOF 9
ENDMDL
MODEL 2
REMARK VINA RESULT:    -4.677      1.741      3.924
REMARK INTER + INTRA:          -8.364
REMARK INTER:                  -7.347
REMARK INTRA:                  -1.018
REMARK UNBOUND:                -1.227
REMARK SMILES CCCCCCCCCC=CC(=O)[O-]
REMARK SMILES IDX 7 1 8 2 9 3 10 4 11 5 12 6 13 7 14 8 6 9 5 10 4 11 3 12 2 13
REMARK SMILES IDX 1 14
REMARK H PARENT
REMARK Flexibility Score: inf
ROOT
ATOM      1  C   UNL     1     -27.110 -30.634 -10.835  1.00  0.00     0.000 C 
ENDROOT
BRANCH   1   2
ATOM      2  C   UNL     1     -27.206 -30.493 -12.366  1.00  0.00     0.004 C 
BRANCH   2   3
ATOM      3  C   UNL     1     -28.515 -31.034 -12.969  1.00  0.00     0.027 C 
BRANCH   3   4
ATOM      4  C   UNL     1     -28.564 -32.536 -12.995  1.00  0.00    -0.025 C 
ATOM      5  C   UNL     1     -27.679 -33.252 -13.699  1.00  0.00     0.020 C 
BRANCH   5   6
ATOM      6  C   UNL     1     -27.707 -34.723 -13.734  1.00  0.00     0.064 C 
ATOM      7  O   UNL     1     -27.666 -35.350 -14.827  1.00  0.00    -0.545 OA
ATOM      8  O   UNL     1     -27.778 -35.432 -12.542  1.00  0.00    -0.545 OA
ENDBRANCH   5   6
ENDBRANCH   3   4
ENDBRANCH   2   3
ENDBRANCH   1   2
BRANCH   1   9
ATOM      9  C   UNL     1     -25.828 -31.350 -10.383  1.00  0.00     0.000 C 
BRANCH   9  10
ATOM     10  C   UNL     1     -24.940 -31.696 -11.588  1.00  0.00     0.000 C 
BRANCH  10  11
ATOM     11  C   UNL     1     -24.602 -33.193 -11.668  1.00  0.00    -0.000 C 
BRANCH  11  12
ATOM     12  C   UNL     1     -23.304 -33.465 -12.447  1.00  0.00    -0.000 C 
BRANCH  12  13
ATOM     13  C   UNL     1     -23.042 -34.966 -12.649  1.00  0.00    -0.003 C 
ATOM     14  C   UNL     1     -24.328 -35.790 -12.710  1.00  0.00     0.004 C 
ENDBRANCH  12  13
ENDBRANCH  11  12
ENDBRANCH  10  11
ENDBRANCH   9  10
ENDBRANCH   1   9
TORSDOF 9
ENDMDL
MODEL 3
REMARK VINA RESULT:    -4.645      1.367      3.457
REMARK INTER + INTRA:          -8.316
REMARK INTER:                  -7.226
REMARK INTRA:                  -1.090
REMARK UNBOUND:                -1.227
REMARK SMILES CCCCCCCCCC=CC(=O)[O-]
REMARK SMILES IDX 7 1 8 2 9 3 10 4 11 5 12 6 13 7 14 8 6 9 5 10 4 11 3 12 2 13
REMARK SMILES IDX 1 14
REMARK H PARENT
REMARK Flexibility Score: inf
ROOT
ATOM      1  C   UNL     1     -27.653 -33.920 -13.908  1.00  0.00     0.000 C 
ENDROOT
BRANCH   1   2
ATOM      2  C   UNL     1     -26.832 -35.083 -13.320  1.00  0.00     0.004 C 
BRANCH   2   3
ATOM      3  C   UNL     1     -26.098 -34.740 -12.012  1.00  0.00     0.027 C 
BRANCH   3   4
ATOM      4  C   UNL     1     -24.662 -34.356 -12.235  1.00  0.00    -0.025 C 
ATOM      5  C   UNL     1     -23.727 -35.274 -12.508  1.00  0.00     0.020 C 
BRANCH   5   6
ATOM      6  C   UNL     1     -22.318 -34.919 -12.734  1.00  0.00     0.064 C 
ATOM      7  O   UNL     1     -22.001 -33.919 -13.433  1.00  0.00    -0.545 OA
ATOM      8  O   UNL     1     -21.318 -35.698 -12.165  1.00  0.00    -0.545 OA
ENDBRANCH   5   6
ENDBRANCH   3   4
ENDBRANCH   2   3
ENDBRANCH   1   2
BRANCH   1   9
ATOM      9  C   UNL     1     -28.590 -33.272 -12.878  1.00  0.00     0.000 C 
BRANCH   9  10
ATOM     10  C   UNL     1     -28.602 -31.744 -13.034  1.00  0.00     0.000 C 
BRANCH  10  11
ATOM     11  C   UNL     1     -27.854 -31.024 -11.901  1.00  0.00    -0.000 C 
BRANCH  11  12
ATOM     12  C   UNL     1     -26.596 -30.291 -12.396  1.00  0.00    -0.000 C 
BRANCH  12  13
ATOM     13  C   UNL     1     -25.308 -30.833 -11.755  1.00  0.00    -0.003 C 
ATOM     14  C   UNL     1     -25.515 -31.306 -10.317  1.00  0.00     0.004 C 
ENDBRANCH  12  13
ENDBRANCH  11  12
ENDBRANCH  10  11
ENDBRANCH   9  10
ENDBRANCH   1   9
TORSDOF 9
ENDMDL
MODEL 4
REMARK VINA RESULT:    -4.611      1.492      2.860
REMARK INTER + INTRA:          -8.263
REMARK INTER:                  -6.808
REMARK INTRA:                  -1.455
REMARK UNBOUND:                -1.227
REMARK SMILES CCCCCCCCCC=CC(=O)[O-]
REMARK SMILES IDX 7 1 8 2 9 3 10 4 11 5 12 6 13 7 14 8 6 9 5 10 4 11 3 12 2 13
REMARK SMILES IDX 1 14
REMARK H PARENT
REMARK Flexibility Score: inf
ROOT
ATOM      1  C   UNL     1     -28.187 -31.182 -12.967  1.00  0.00     0.000 C 
ENDROOT
BRANCH   1   2
ATOM      2  C   UNL     1     -26.735 -30.788 -12.639  1.00  0.00     0.004 C 
BRANCH   2   3
ATOM      3  C   UNL     1     -26.300 -31.118 -11.200  1.00  0.00     0.027 C 
BRANCH   3   4
ATOM      4  C   UNL     1     -24.886 -31.621 -11.122  1.00  0.00    -0.025 C 
ATOM      5  C   UNL     1     -24.224 -32.018 -12.214  1.00  0.00     0.020 C 
BRANCH   5   6
ATOM      6  C   UNL     1     -22.838 -32.510 -12.159  1.00  0.00     0.064 C 
ATOM      7  O   UNL     1     -22.386 -33.286 -13.044  1.00  0.00    -0.545 OA
ATOM      8  O   UNL     1     -22.014 -32.111 -11.115  1.00  0.00    -0.545 OA
ENDBRANCH   5   6
ENDBRANCH   3   4
ENDBRANCH   2   3
ENDBRANCH   1   2
BRANCH   1   9
ATOM      9  C   UNL     1     -28.479 -32.665 -12.690  1.00  0.00     0.000 C 
BRANCH   9  10
ATOM     10  C   UNL     1     -27.847 -33.558 -13.768  1.00  0.00     0.000 C 
BRANCH  10  11
ATOM     11  C   UNL     1     -27.311 -34.884 -13.204  1.00  0.00    -0.000 C 
BRANCH  11  12
ATOM     12  C   UNL     1     -26.870 -34.765 -11.735  1.00  0.00    -0.000 C 
BRANCH  12  13
ATOM     13  C   UNL     1     -25.427 -35.248 -11.513  1.00  0.00    -0.003 C 
ATOM     14  C   UNL     1     -24.807 -35.860 -12.768  1.00  0.00     0.004 C 
ENDBRANCH  12  13
ENDBRANCH  11  12
ENDBRANCH  10  11
ENDBRANCH   9  10
ENDBRANCH   1   9
TORSDOF 9
ENDMDL
MODEL 5
REMARK VINA RESULT:    -4.582      1.210      1.783
REMARK INTER + INTRA:          -8.220
REMARK INTER:                  -6.944
REMARK INTRA:                  -1.276
REMARK UNBOUND:                -1.227
REMARK SMILES CCCCCCCCCC=CC(=O)[O-]
REMARK SMILES IDX 7 1 8 2 9 3 10 4 11 5 12 6 13 7 14 8 6 9 5 10 4 11 3 12 2 13
REMARK SMILES IDX 1 14
REMARK H PARENT
REMARK Flexibility Score: inf
ROOT
ATOM      1  C   UNL     1     -26.450 -30.037 -11.442  1.00  0.00     0.000 C 
ENDROOT
BRANCH   1   2
ATOM      2  C   UNL     1     -25.362 -30.959 -12.025  1.00  0.00     0.004 C 
BRANCH   2   3
ATOM      3  C   UNL     1     -24.961 -32.124 -11.103  1.00  0.00     0.027 C 
BRANCH   3   4
ATOM      4  C   UNL     1     -24.263 -33.233 -11.840  1.00  0.00    -0.025 C 
ATOM      5  C   UNL     1     -23.002 -33.102 -12.267  1.00  0.00     0.020 C 
BRANCH   5   6
ATOM      6  C   UNL     1     -22.299 -34.176 -12.986  1.00  0.00     0.064 C 
ATOM      7  O   UNL     1     -22.459 -35.386 -12.670  1.00  0.00    -0.545 OA
ATOM      8  O   UNL     1     -21.446 -33.852 -14.033  1.00  0.00    -0.545 OA
ENDBRANCH   5   6
ENDBRANCH   3   4
ENDBRANCH   2   3
ENDBRANCH   1   2
BRANCH   1   9
ATOM      9  C   UNL     1     -27.853 -30.661 -11.500  1.00  0.00     0.000 C 
BRANCH   9  10
ATOM     10  C   UNL     1     -28.193 -31.111 -12.929  1.00  0.00     0.000 C 
BRANCH  10  11
ATOM     11  C   UNL     1     -28.611 -32.589 -13.004  1.00  0.00    -0.000 C 
BRANCH  11  12
ATOM     12  C   UNL     1     -27.530 -33.477 -13.643  1.00  0.00    -0.000 C 
BRANCH  12  13
ATOM     13  C   UNL     1     -27.391 -34.835 -12.937  1.00  0.00    -0.003 C 
ATOM     14  C   UNL     1     -27.637 -34.749 -11.431  1.00  0.00     0.004 C 
ENDBRANCH  12  13
ENDBRANCH  11  12
ENDBRANCH  10  11
ENDBRANCH   9  10
ENDBRANCH   1   9
TORSDOF 9
ENDMDL
MODEL 6
REMARK VINA RESULT:    -4.444      1.734      3.410
REMARK INTER + INTRA:          -8.009
REMARK INTER:                  -6.896
REMARK INTRA:                  -1.113
REMARK UNBOUND:                -1.227
REMARK SMILES CCCCCCCCCC=CC(=O)[O-]
REMARK SMILES IDX 7 1 8 2 9 3 10 4 11 5 12 6 13 7 14 8 6 9 5 10 4 11 3 12 2 13
REMARK SMILES IDX 1 14
REMARK H PARENT
REMARK Flexibility Score: inf
ROOT
ATOM      1  C   UNL     1     -26.182 -34.557 -11.161  1.00  0.00     0.000 C 
ENDROOT
BRANCH   1   2
ATOM      2  C   UNL     1     -25.103 -34.392 -12.248  1.00  0.00     0.004 C 
BRANCH   2   3
ATOM      3  C   UNL     1     -24.180 -33.178 -12.043  1.00  0.00     0.027 C 
BRANCH   3   4
ATOM      4  C   UNL     1     -22.792 -33.408 -12.573  1.00  0.00    -0.025 C 
ATOM      5  C   UNL     1     -22.356 -34.635 -12.880  1.00  0.00     0.020 C 
BRANCH   5   6
ATOM      6  C   UNL     1     -21.003 -34.881 -13.404  1.00  0.00     0.064 C 
ATOM      7  O   UNL     1     -20.520 -34.167 -14.324  1.00  0.00    -0.545 OA
ATOM      8  O   UNL     1     -20.244 -35.917 -12.874  1.00  0.00    -0.545 OA
ENDBRANCH   5   6
ENDBRANCH   3   4
ENDBRANCH   2   3
ENDBRANCH   1   2
BRANCH   1   9
ATOM      9  C   UNL     1     -27.606 -34.598 -11.737  1.00  0.00     0.000 C 
BRANCH   9  10
ATOM     10  C   UNL     1     -27.686 -33.810 -13.053  1.00  0.00     0.000 C 
BRANCH  10  11
ATOM     11  C   UNL     1     -28.263 -32.397 -12.867  1.00  0.00    -0.000 C 
BRANCH  11  12
ATOM     12  C   UNL     1     -27.207 -31.297 -13.066  1.00  0.00    -0.000 C 
BRANCH  12  13
ATOM     13  C   UNL     1     -27.181 -30.289 -11.906  1.00  0.00    -0.003 C 
ATOM     14  C   UNL     1     -26.729 -30.914 -10.587  1.00  0.00     0.004 C 
ENDBRANCH  12  13
ENDBRANCH  11  12
ENDBRANCH  10  11
ENDBRANCH   9  10
ENDBRANCH   1   9
TORSDOF 9
ENDMDL
MODEL 7
REMARK VINA RESULT:    -4.382      2.313      4.091
REMARK INTER + INTRA:          -7.914
REMARK INTER:                  -6.730
REMARK INTRA:                  -1.184
REMARK UNBOUND:                -1.227
REMARK SMILES CCCCCCCCCC=CC(=O)[O-]
REMARK SMILES IDX 7 1 8 2 9 3 10 4 11 5 12 6 13 7 14 8 6 9 5 10 4 11 3 12 2 13
REMARK SMILES IDX 1 14
REMARK H PARENT
REMARK Flexibility Score: inf
ROOT
ATOM      1  C   UNL     1     -25.524 -35.999 -13.252  1.00  0.00     0.000 C 
ENDROOT
BRANCH   1   2
ATOM      2  C   UNL     1     -24.488 -35.555 -12.201  1.00  0.00     0.004 C 
BRANCH   2   3
ATOM      3  C   UNL     1     -23.293 -34.779 -12.781  1.00  0.00     0.027 C 
BRANCH   3   4
ATOM      4  C   UNL     1     -23.347 -33.310 -12.466  1.00  0.00    -0.025 C 
ATOM      5  C   UNL     1     -24.215 -32.818 -11.574  1.00  0.00     0.020 C 
BRANCH   5   6
ATOM      6  C   UNL     1     -24.281 -31.385 -11.248  1.00  0.00     0.064 C 
ATOM      7  O   UNL     1     -24.323 -30.511 -12.156  1.00  0.00    -0.545 OA
ATOM      8  O   UNL     1     -24.300 -30.988  -9.917  1.00  0.00    -0.545 OA
ENDBRANCH   5   6
ENDBRANCH   3   4
ENDBRANCH   2   3
ENDBRANCH   1   2
BRANCH   1   9
ATOM      9  C   UNL     1     -26.673 -34.993 -13.417  1.00  0.00     0.000 C 
BRANCH   9  10
ATOM     10  C   UNL     1     -27.439 -34.816 -12.097  1.00  0.00     0.000 C 
BRANCH  10  11
ATOM     11  C   UNL     1     -28.262 -33.518 -12.056  1.00  0.00    -0.000 C 
BRANCH  11  12
ATOM     12  C   UNL     1     -28.000 -32.614 -13.273  1.00  0.00    -0.000 C 
BRANCH  12  13
ATOM     13  C   UNL     1     -27.757 -31.149 -12.876  1.00  0.00    -0.003 C 
ATOM     14  C   UNL     1     -27.756 -30.937 -11.363  1.00  0.00     0.004 C 
ENDBRANCH  12  13
ENDBRANCH  11  12
ENDBRANCH  10  11
ENDBRANCH   9  10
ENDBRANCH   1   9
TORSDOF 9
ENDMDL
MODEL 8
REMARK VINA RESULT:    -4.333      2.334      4.300
REMARK INTER + INTRA:          -7.840
REMARK INTER:                  -6.799
REMARK INTRA:                  -1.041
REMARK UNBOUND:                -1.227
REMARK SMILES CCCCCCCCCC=CC(=O)[O-]
REMARK SMILES IDX 7 1 8 2 9 3 10 4 11 5 12 6 13 7 14 8 6 9 5 10 4 11 3 12 2 13
REMARK SMILES IDX 1 14
REMARK H PARENT
REMARK Flexibility Score: inf
ROOT
ATOM      1  C   UNL     1     -27.280 -32.498 -13.344  1.00  0.00     0.000 C 
ENDROOT
BRANCH   1   2
ATOM      2  C   UNL     1     -28.343 -31.643 -12.628  1.00  0.00     0.004 C 
BRANCH   2   3
ATOM      3  C   UNL     1     -27.789 -30.769 -11.490  1.00  0.00     0.027 C 
BRANCH   3   4
ATOM      4  C   UNL     1     -26.292 -30.633 -11.538  1.00  0.00    -0.025 C 
ATOM      5  C   UNL     1     -25.539 -30.809 -10.447  1.00  0.00     0.020 C 
BRANCH   5   6
ATOM      6  C   UNL     1     -24.073 -30.684 -10.474  1.00  0.00     0.064 C 
ATOM      7  O   UNL     1     -23.435 -30.728 -11.560  1.00  0.00    -0.545 OA
ATOM      8  O   UNL     1     -23.381 -30.514  -9.282  1.00  0.00    -0.545 OA
ENDBRANCH   5   6
ENDBRANCH   3   4
ENDBRANCH   2   3
ENDBRANCH   1   2
BRANCH   1   9
ATOM      9  C   UNL     1     -27.573 -34.004 -13.261  1.00  0.00     0.000 C 
BRANCH   9  10
ATOM     10  C   UNL     1     -27.374 -34.521 -11.828  1.00  0.00     0.000 C 
BRANCH  10  11
ATOM     11  C   UNL     1     -25.901 -34.814 -11.500  1.00  0.00    -0.000 C 
BRANCH  11  12
ATOM     12  C   UNL     1     -25.182 -35.567 -12.632  1.00  0.00    -0.000 C 
BRANCH  12  13
ATOM     13  C   UNL     1     -23.652 -35.506 -12.500  1.00  0.00    -0.003 C 
ATOM     14  C   UNL     1     -23.111 -34.077 -12.519  1.00  0.00     0.004 C 
ENDBRANCH  12  13
ENDBRANCH  11  12
ENDBRANCH  10  11
ENDBRANCH   9  10
ENDBRANCH   1   9
TORSDOF 9
ENDMDL
MODEL 9
REMARK VINA RESULT:    -4.317      1.200      3.571
REMARK INTER + INTRA:          -7.815
REMARK INTER:                  -6.619
REMARK INTRA:                  -1.196
REMARK UNBOUND:                -1.227
REMARK SMILES CCCCCCCCCC=CC(=O)[O-]
REMARK SMILES IDX 7 1 8 2 9 3 10 4 11 5 12 6 13 7 14 8 6 9 5 10 4 11 3 12 2 13
REMARK SMILES IDX 1 14
REMARK H PARENT
REMARK Flexibility Score: inf
ROOT
ATOM      1  C   UNL     1     -28.309 -31.025 -12.601  1.00  0.00     0.000 C 
ENDROOT
BRANCH   1   2
ATOM      2  C   UNL     1     -28.061 -32.388 -13.275  1.00  0.00     0.004 C 
BRANCH   2   3
ATOM      3  C   UNL     1     -28.634 -33.589 -12.502  1.00  0.00     0.027 C 
BRANCH   3   4
ATOM      4  C   UNL     1     -27.575 -34.572 -12.089  1.00  0.00    -0.025 C 
ATOM      5  C   UNL     1     -26.441 -34.711 -12.785  1.00  0.00     0.020 C 
BRANCH   5   6
ATOM      6  C   UNL     1     -25.390 -35.665 -12.395  1.00  0.00     0.064 C 
ATOM      7  O   UNL     1     -24.922 -35.677 -11.225  1.00  0.00    -0.545 OA
ATOM      8  O   UNL     1     -24.907 -36.568 -13.333  1.00  0.00    -0.545 OA
ENDBRANCH   5   6
ENDBRANCH   3   4
ENDBRANCH   2   3
ENDBRANCH   1   2
BRANCH   1   9
ATOM      9  C   UNL     1     -27.046 -30.446 -11.947  1.00  0.00     0.000 C 
BRANCH   9  10
ATOM     10  C   UNL     1     -26.670 -31.238 -10.686  1.00  0.00     0.000 C 
BRANCH  10  11
ATOM     11  C   UNL     1     -25.160 -31.509 -10.581  1.00  0.00    -0.000 C 
BRANCH  11  12
ATOM     12  C   UNL     1     -24.518 -31.810 -11.946  1.00  0.00    -0.000 C 
BRANCH  12  13
ATOM     13  C   UNL     1     -23.013 -32.102 -11.836  1.00  0.00    -0.003 C 
ATOM     14  C   UNL     1     -22.602 -33.381 -12.563  1.00  0.00     0.004 C 
ENDBRANCH  12  13
ENDBRANCH  11  12
ENDBRANCH  10  11
ENDBRANCH   9  10
ENDBRANCH   1   9
TORSDOF 9
ENDMDL
