MODEL 1
REMARK VINA RESULT:     7.986      0.000      0.000
REMARK INTER + INTRA:           8.468
REMARK INTER:                   9.153
REMARK INTRA:                  -0.685
REMARK UNBOUND:                -0.685
REMARK SMILES C=C(C)[C@@H]1CC[C@@]2(C(=O)[O-])CC[C@]3(C)[C@H](CC[C@@H]4[C@@]5(C)CC[C@@H](O)C(C)(C)[C@H]5CC[C@]43C)[C@@H]12
REMARK SMILES IDX 7 1 6 2 33 3 11 4 5 5 15 6 4 7 12 8 16 9 13 10 17 11 31 12
REMARK SMILES IDX 14 13 18 14 30 15 32 16 19 17 29 18 21 19 20 20 28 21 22 22
REMARK SMILES IDX 25 23 23 24 26 25 27 26 8 27 9 28 10 29 2 30 3 31 1 32 24 33
REMARK H PARENT 24 34
REMARK Flexibility Score: inf
ROOT
ATOM      1  C   UNL     1     -11.320  12.664 -32.646  1.00  0.00     0.014 C 
ATOM      2  C   UNL     1     -10.082  12.908 -31.760  1.00  0.00     0.014 C 
ATOM      3  C   UNL     1     -12.263  13.860 -32.274  1.00  0.00     0.012 C 
ATOM      4  C   UNL     1     -11.898  11.241 -32.416  1.00  0.00     0.014 C 
ATOM      5  C   UNL     1      -9.895  14.414 -31.701  1.00  0.00     0.009 C 
ATOM      6  C   UNL     1     -13.207  13.566 -31.047  1.00  0.00     0.000 C 
ATOM      7  C   UNL     1     -11.285  15.035 -31.948  1.00  0.00     0.018 C 
ATOM      8  C   UNL     1     -12.758  11.104 -31.159  1.00  0.00     0.008 C 
ATOM      9  C   UNL     1     -14.245  14.697 -30.841  1.00  0.00     0.005 C 
ATOM     10  C   UNL     1     -13.909  12.158 -31.080  1.00  0.00    -0.024 C 
ATOM     11  C   UNL     1     -15.070  14.506 -29.562  1.00  0.00     0.005 C 
ATOM     12  C   UNL     1     -14.811  11.952 -29.740  1.00  0.00    -0.024 C 
ATOM     13  C   UNL     1     -14.765  12.013 -32.390  1.00  0.00     0.012 C 
ATOM     14  C   UNL     1     -15.836  13.162 -29.600  1.00  0.00     0.002 C 
ATOM     15  C   UNL     1     -15.641  10.640 -29.807  1.00  0.00     0.008 C 
ATOM     16  C   UNL     1     -13.862  11.823 -28.493  1.00  0.00     0.012 C 
ATOM     17  C   UNL     1     -17.044  13.034 -28.557  1.00  0.00    -0.026 C 
ATOM     18  C   UNL     1     -16.591  10.463 -28.616  1.00  0.00     0.005 C 
ATOM     19  C   UNL     1     -18.181  14.048 -28.922  1.00  0.00     0.010 C 
ATOM     20  C   UNL     1     -16.595  13.476 -27.127  1.00  0.00     0.012 C 
ATOM     21  C   UNL     1     -17.676  11.565 -28.518  1.00  0.00     0.003 C 
ATOM     22  C   UNL     1     -18.931  13.785 -30.234  1.00  0.00     0.033 C 
ATOM     23  C   UNL     1     -18.993  11.322 -29.412  1.00  0.00    -0.006 C 
ATOM     24  C   UNL     1     -19.081  12.304 -30.620  1.00  0.00     0.120 C 
ATOM     25  C   UNL     1     -20.263  11.502 -28.527  1.00  0.00     0.014 C 
ATOM     26  C   UNL     1     -19.119   9.876 -29.971  1.00  0.00     0.014 C 
ENDROOT
BRANCH   1  27
ATOM     27  C   UNL     1     -10.916  12.720 -34.118  1.00  0.00     0.048 C 
ATOM     28  O   UNL     1     -11.587  13.397 -34.944  1.00  0.00    -0.550 OA
ATOM     29  O   UNL     1      -9.878  11.928 -34.595  1.00  0.00    -0.550 OA
ENDBRANCH   1  27
BRANCH   7  30
ATOM     30  C   UNL     1     -11.302  16.146 -33.005  1.00  0.00    -0.077 C 
ATOM     31  C   UNL     1     -10.020  16.532 -33.700  1.00  0.00     0.039 C 
ATOM     32  C   UNL     1     -12.430  16.777 -33.386  1.00  0.00     0.008 C 
ENDBRANCH   7  30
BRANCH  24  33
ATOM     33  O   UNL     1     -18.123  11.985 -31.600  1.00  0.00    -0.393 OA
ATOM     34  H   UNL     1     -17.284  11.724 -31.137  1.00  0.00     0.210 HD
ENDBRANCH  24  33
TORSDOF 3
ENDMDL
