MODEL 1
REMARK VINA RESULT:    -6.023      0.000      0.000
REMARK INTER + INTRA:          -9.019
REMARK INTER:                  -8.136
REMARK INTRA:                  -0.884
REMARK UNBOUND:                -0.884
REMARK SMILES CC(=O)CCC=C(C)CCC=C(C)C
REMARK SMILES IDX 7 1 6 2 8 3 9 4 10 5 11 6 13 7 12 8 14 9 5 10 4 11 2 12 3 13
REMARK SMILES IDX 1 14
REMARK H PARENT
REMARK Flexibility Score: inf
ROOT
ATOM      1  C   UNL     1     -10.361  74.745  31.833  1.00  0.00    -0.077 C 
ATOM      2  C   UNL     1     -10.515  73.535  32.416  1.00  0.00    -0.028 C 
ATOM      3  C   UNL     1     -11.183  75.936  32.264  1.00  0.00     0.039 C 
ENDROOT
BRANCH   1   4
ATOM      4  C   UNL     1      -9.352  74.902  30.717  1.00  0.00     0.034 C 
BRANCH   4   5
ATOM      5  C   UNL     1      -9.560  73.835  29.638  1.00  0.00     0.032 C 
BRANCH   5   6
ATOM      6  C   UNL     1     -10.766  74.157  28.792  1.00  0.00    -0.028 C 
ATOM      7  C   UNL     1     -11.927  72.008  29.346  1.00  0.00     0.039 C 
ATOM      8  C   UNL     1     -11.850  73.357  28.671  1.00  0.00    -0.080 C 
ATOM      9  C   UNL     1     -12.999  73.828  27.818  1.00  0.00     0.039 C 
ENDBRANCH   5   6
ENDBRANCH   4   5
ENDBRANCH   1   4
BRANCH   2  10
ATOM     10  C   UNL     1     -11.495  73.278  33.535  1.00  0.00     0.035 C 
BRANCH  10  11
ATOM     11  C   UNL     1     -10.917  72.304  34.566  1.00  0.00     0.079 C 
BRANCH  11  12
ATOM     12  C   UNL     1     -11.049  72.859  35.960  1.00  0.00     0.130 C 
ATOM     13  O   UNL     1     -10.706  74.011  36.183  1.00  0.00    -0.300 OA
ATOM     14  C   UNL     1     -11.584  72.026  37.086  1.00  0.00     0.087 C 
ENDBRANCH  11  12
ENDBRANCH  10  11
ENDBRANCH   2  10
TORSDOF 6
ENDMDL
MODEL 2
REMARK VINA RESULT:    -5.989      4.130      7.378
REMARK INTER + INTRA:          -8.974
REMARK INTER:                  -8.021
REMARK INTRA:                  -0.953
REMARK UNBOUND:                -0.884
REMARK SMILES CC(=O)CCC=C(C)CCC=C(C)C
REMARK SMILES IDX 7 1 6 2 8 3 9 4 10 5 11 6 13 7 12 8 14 9 5 10 4 11 2 12 3 13
REMARK SMILES IDX 1 14
REMARK H PARENT
REMARK Flexibility Score: inf
ROOT
ATOM      1  C   UNL     1     -11.541  73.090  28.363  1.00  0.00    -0.077 C 
ATOM      2  C   UNL     1     -10.277  73.222  27.902  1.00  0.00    -0.028 C 
ATOM      3  C   UNL     1     -12.686  73.863  27.753  1.00  0.00     0.039 C 
ENDROOT
BRANCH   1   4
ATOM      4  C   UNL     1     -11.808  72.157  29.523  1.00  0.00     0.034 C 
BRANCH   4   5
ATOM      5  C   UNL     1     -10.836  72.427  30.677  1.00  0.00     0.032 C 
BRANCH   5   6
ATOM      6  C   UNL     1     -11.267  73.637  31.468  1.00  0.00    -0.028 C 
ATOM      7  C   UNL     1      -9.244  74.970  30.833  1.00  0.00     0.039 C 
ATOM      8  C   UNL     1     -10.574  74.796  31.528  1.00  0.00    -0.080 C 
ATOM      9  C   UNL     1     -11.148  75.935  32.330  1.00  0.00     0.039 C 
ENDBRANCH   5   6
ENDBRANCH   4   5
ENDBRANCH   1   4
BRANCH   2  10
ATOM     10  C   UNL     1      -9.911  74.128  26.751  1.00  0.00     0.035 C 
BRANCH  10  11
ATOM     11  C   UNL     1      -9.143  73.365  25.667  1.00  0.00     0.079 C 
BRANCH  11  12
ATOM     12  C   UNL     1      -9.621  73.759  24.294  1.00  0.00     0.130 C 
ATOM     13  O   UNL     1      -8.955  74.537  23.627  1.00  0.00    -0.300 OA
ATOM     14  C   UNL     1     -10.905  73.227  23.731  1.00  0.00     0.087 C 
ENDBRANCH  11  12
ENDBRANCH  10  11
ENDBRANCH   2  10
TORSDOF 6
ENDMDL
MODEL 3
REMARK VINA RESULT:    -5.960      2.956      6.567
REMARK INTER + INTRA:          -8.934
REMARK INTER:                  -8.189
REMARK INTRA:                  -0.745
REMARK UNBOUND:                -0.884
REMARK SMILES CC(=O)CCC=C(C)CCC=C(C)C
REMARK SMILES IDX 7 1 6 2 8 3 9 4 10 5 11 6 13 7 12 8 14 9 5 10 4 11 2 12 3 13
REMARK SMILES IDX 1 14
REMARK H PARENT
REMARK Flexibility Score: inf
ROOT
ATOM      1  C   UNL     1     -10.752  74.189  31.163  1.00  0.00    -0.077 C 
ATOM      2  C   UNL     1     -11.473  73.406  30.329  1.00  0.00    -0.028 C 
ATOM      3  C   UNL     1      -9.403  74.735  30.759  1.00  0.00     0.039 C 
ENDROOT
BRANCH   1   4
ATOM      4  C   UNL     1     -11.304  74.512  32.533  1.00  0.00     0.034 C 
BRANCH   4   5
ATOM      5  C   UNL     1     -11.901  73.262  33.190  1.00  0.00     0.032 C 
BRANCH   5   6
ATOM      6  C   UNL     1     -10.829  72.456  33.880  1.00  0.00    -0.028 C 
ATOM      7  C   UNL     1     -11.613  73.082  36.175  1.00  0.00     0.039 C 
ATOM      8  C   UNL     1     -10.702  72.345  35.221  1.00  0.00    -0.080 C 
ATOM      9  C   UNL     1      -9.603  71.471  35.769  1.00  0.00     0.039 C 
ENDBRANCH   5   6
ENDBRANCH   4   5
ENDBRANCH   1   4
BRANCH   2  10
ATOM     10  C   UNL     1     -11.006  73.028  28.944  1.00  0.00     0.035 C 
BRANCH  10  11
ATOM     11  C   UNL     1     -11.611  73.953  27.883  1.00  0.00     0.079 C 
BRANCH  11  12
ATOM     12  C   UNL     1     -10.531  74.570  27.033  1.00  0.00     0.130 C 
ATOM     13  O   UNL     1     -10.816  75.470  26.257  1.00  0.00    -0.300 OA
ATOM     14  C   UNL     1      -9.110  74.096  27.110  1.00  0.00     0.087 C 
ENDBRANCH  11  12
ENDBRANCH  10  11
ENDBRANCH   2  10
TORSDOF 6
ENDMDL
MODEL 4
REMARK VINA RESULT:    -5.955      1.771      2.291
REMARK INTER + INTRA:          -8.928
REMARK INTER:                  -8.465
REMARK INTRA:                  -0.462
REMARK UNBOUND:                -0.884
REMARK SMILES CC(=O)CCC=C(C)CCC=C(C)C
REMARK SMILES IDX 7 1 6 2 8 3 9 4 10 5 11 6 13 7 12 8 14 9 5 10 4 11 2 12 3 13
REMARK SMILES IDX 1 14
REMARK H PARENT
REMARK Flexibility Score: inf
ROOT
ATOM      1  C   UNL     1     -11.236  74.050  31.265  1.00  0.00    -0.077 C 
ATOM      2  C   UNL     1     -11.646  73.021  32.041  1.00  0.00    -0.028 C 
ATOM      3  C   UNL     1     -10.766  75.352  31.869  1.00  0.00     0.039 C 
ENDROOT
BRANCH   1   4
ATOM      4  C   UNL     1     -11.260  73.895  29.761  1.00  0.00     0.034 C 
BRANCH   4   5
ATOM      5  C   UNL     1     -10.045  74.577  29.122  1.00  0.00     0.032 C 
BRANCH   5   6
ATOM      6  C   UNL     1      -9.469  73.724  28.020  1.00  0.00    -0.028 C 
ATOM      7  C   UNL     1     -10.573  75.046  26.202  1.00  0.00     0.039 C 
ATOM      8  C   UNL     1      -9.677  73.937  26.702  1.00  0.00    -0.080 C 
ATOM      9  C   UNL     1      -9.003  73.023  25.711  1.00  0.00     0.039 C 
ENDBRANCH   5   6
ENDBRANCH   4   5
ENDBRANCH   1   4
BRANCH   2  10
ATOM     10  C   UNL     1     -11.658  73.080  33.548  1.00  0.00     0.035 C 
BRANCH  10  11
ATOM     11  C   UNL     1     -10.489  72.290  34.145  1.00  0.00     0.079 C 
BRANCH  11  12
ATOM     12  C   UNL     1     -10.587  72.242  35.647  1.00  0.00     0.130 C 
ATOM     13  O   UNL     1      -9.807  71.544  36.278  1.00  0.00    -0.300 OA
ATOM     14  C   UNL     1     -11.629  73.025  36.387  1.00  0.00     0.087 C 
ENDBRANCH  11  12
ENDBRANCH  10  11
ENDBRANCH   2  10
TORSDOF 6
ENDMDL
MODEL 5
REMARK VINA RESULT:    -5.865      1.742      2.788
REMARK INTER + INTRA:          -8.806
REMARK INTER:                  -8.210
REMARK INTRA:                  -0.596
REMARK UNBOUND:                -0.884
REMARK SMILES CC(=O)CCC=C(C)CCC=C(C)C
REMARK SMILES IDX 7 1 6 2 8 3 9 4 10 5 11 6 13 7 12 8 14 9 5 10 4 11 2 12 3 13
REMARK SMILES IDX 1 14
REMARK H PARENT
REMARK Flexibility Score: inf
ROOT
ATOM      1  C   UNL     1     -10.960  72.279  30.309  1.00  0.00    -0.077 C 
ATOM      2  C   UNL     1     -11.617  72.437  31.479  1.00  0.00    -0.028 C 
ATOM      3  C   UNL     1      -9.469  72.040  30.270  1.00  0.00     0.039 C 
ENDROOT
BRANCH   1   4
ATOM      4  C   UNL     1     -11.734  72.357  29.012  1.00  0.00     0.034 C 
BRANCH   4   5
ATOM      5  C   UNL     1     -12.003  73.815  28.623  1.00  0.00     0.032 C 
BRANCH   5   6
ATOM      6  C   UNL     1     -11.709  74.042  27.161  1.00  0.00    -0.028 C 
ATOM      7  C   UNL     1      -9.281  74.512  27.558  1.00  0.00     0.039 C 
ATOM      8  C   UNL     1     -10.486  74.331  26.664  1.00  0.00    -0.080 C 
ATOM      9  C   UNL     1     -10.335  74.494  25.174  1.00  0.00     0.039 C 
ENDBRANCH   5   6
ENDBRANCH   4   5
ENDBRANCH   1   4
BRANCH   2  10
ATOM     10  C   UNL     1     -10.933  72.376  32.823  1.00  0.00     0.035 C 
BRANCH  10  11
ATOM     11  C   UNL     1     -11.674  73.224  33.862  1.00  0.00     0.079 C 
BRANCH  11  12
ATOM     12  C   UNL     1     -11.271  72.830  35.259  1.00  0.00     0.130 C 
ATOM     13  O   UNL     1     -11.955  73.189  36.206  1.00  0.00    -0.300 OA
ATOM     14  C   UNL     1     -10.039  72.015  35.516  1.00  0.00     0.087 C 
ENDBRANCH  11  12
ENDBRANCH  10  11
ENDBRANCH   2  10
TORSDOF 6
ENDMDL
MODEL 6
REMARK VINA RESULT:    -5.841      2.585      3.966
REMARK INTER + INTRA:          -8.773
REMARK INTER:                  -8.050
REMARK INTRA:                  -0.723
REMARK UNBOUND:                -0.884
REMARK SMILES CC(=O)CCC=C(C)CCC=C(C)C
REMARK SMILES IDX 7 1 6 2 8 3 9 4 10 5 11 6 13 7 12 8 14 9 5 10 4 11 2 12 3 13
REMARK SMILES IDX 1 14
REMARK H PARENT
REMARK Flexibility Score: inf
ROOT
ATOM      1  C   UNL     1     -11.403  73.530  28.986  1.00  0.00    -0.077 C 
ATOM      2  C   UNL     1     -10.677  74.382  29.744  1.00  0.00    -0.028 C 
ATOM      3  C   UNL     1     -11.708  72.127  29.453  1.00  0.00     0.039 C 
ENDROOT
BRANCH   1   4
ATOM      4  C   UNL     1     -11.910  73.992  27.638  1.00  0.00     0.034 C 
BRANCH   4   5
ATOM      5  C   UNL     1     -10.788  74.655  26.831  1.00  0.00     0.032 C 
BRANCH   5   6
ATOM      6  C   UNL     1      -9.817  73.624  26.315  1.00  0.00    -0.028 C 
ATOM      7  C   UNL     1      -9.939  74.457  23.956  1.00  0.00     0.039 C 
ATOM      8  C   UNL     1      -9.406  73.538  25.030  1.00  0.00    -0.080 C 
ATOM      9  C   UNL     1      -8.399  72.477  24.667  1.00  0.00     0.039 C 
ENDBRANCH   5   6
ENDBRANCH   4   5
ENDBRANCH   1   4
BRANCH   2  10
ATOM     10  C   UNL     1     -10.128  74.014  31.101  1.00  0.00     0.035 C 
BRANCH  10  11
ATOM     11  C   UNL     1     -11.045  74.512  32.224  1.00  0.00     0.079 C 
BRANCH  11  12
ATOM     12  C   UNL     1     -11.527  73.362  33.068  1.00  0.00     0.130 C 
ATOM     13  O   UNL     1     -12.511  73.509  33.778  1.00  0.00    -0.300 OA
ATOM     14  C   UNL     1     -10.820  72.040  33.066  1.00  0.00     0.087 C 
ENDBRANCH  11  12
ENDBRANCH  10  11
ENDBRANCH   2  10
TORSDOF 6
ENDMDL
MODEL 7
REMARK VINA RESULT:    -5.770      4.633      7.934
REMARK INTER + INTRA:          -8.678
REMARK INTER:                  -7.511
REMARK INTRA:                  -1.167
REMARK UNBOUND:                -0.884
REMARK SMILES CC(=O)CCC=C(C)CCC=C(C)C
REMARK SMILES IDX 7 1 6 2 8 3 9 4 10 5 11 6 13 7 12 8 14 9 5 10 4 11 2 12 3 13
REMARK SMILES IDX 1 14
REMARK H PARENT
REMARK Flexibility Score: inf
ROOT
ATOM      1  C   UNL     1     -10.929  74.064  26.733  1.00  0.00    -0.077 C 
ATOM      2  C   UNL     1     -10.110  73.009  26.522  1.00  0.00    -0.028 C 
ATOM      3  C   UNL     1     -10.546  75.457  26.293  1.00  0.00     0.039 C 
ENDROOT
BRANCH   1   4
ATOM      4  C   UNL     1     -12.250  73.844  27.435  1.00  0.00     0.034 C 
BRANCH   4   5
ATOM      5  C   UNL     1     -12.036  73.221  28.820  1.00  0.00     0.032 C 
BRANCH   5   6
ATOM      6  C   UNL     1     -11.305  74.176  29.729  1.00  0.00    -0.028 C 
ATOM      7  C   UNL     1      -9.425  72.578  30.159  1.00  0.00     0.039 C 
ATOM      8  C   UNL     1     -10.118  73.911  30.319  1.00  0.00    -0.080 C 
ATOM      9  C   UNL     1      -9.486  74.979  31.174  1.00  0.00     0.039 C 
ENDBRANCH   5   6
ENDBRANCH   4   5
ENDBRANCH   1   4
BRANCH   2  10
ATOM     10  C   UNL     1      -8.774  73.129  25.832  1.00  0.00     0.035 C 
BRANCH  10  11
ATOM     11  C   UNL     1      -8.831  72.559  24.410  1.00  0.00     0.079 C 
BRANCH  11  12
ATOM     12  C   UNL     1      -9.318  73.599  23.436  1.00  0.00     0.130 C 
ATOM     13  O   UNL     1      -8.611  74.563  23.184  1.00  0.00    -0.300 OA
ATOM     14  C   UNL     1     -10.659  73.483  22.776  1.00  0.00     0.087 C 
ENDBRANCH  11  12
ENDBRANCH  10  11
ENDBRANCH   2  10
TORSDOF 6
ENDMDL
MODEL 8
REMARK VINA RESULT:    -5.767      3.574      5.131
REMARK INTER + INTRA:          -8.674
REMARK INTER:                  -8.057
REMARK INTRA:                  -0.617
REMARK UNBOUND:                -0.884
REMARK SMILES CC(=O)CCC=C(C)CCC=C(C)C
REMARK SMILES IDX 7 1 6 2 8 3 9 4 10 5 11 6 13 7 12 8 14 9 5 10 4 11 2 12 3 13
REMARK SMILES IDX 1 14
REMARK H PARENT
REMARK Flexibility Score: inf
ROOT
ATOM      1  C   UNL     1     -10.686  74.354  27.401  1.00  0.00    -0.077 C 
ATOM      2  C   UNL     1      -9.614  74.292  28.221  1.00  0.00    -0.028 C 
ATOM      3  C   UNL     1     -12.033  73.817  27.825  1.00  0.00     0.039 C 
ENDROOT
BRANCH   1   4
ATOM      4  C   UNL     1     -10.528  74.963  26.025  1.00  0.00     0.034 C 
BRANCH   4   5
ATOM      5  C   UNL     1      -9.650  74.078  25.134  1.00  0.00     0.032 C 
BRANCH   5   6
ATOM      6  C   UNL     1      -9.664  74.571  23.709  1.00  0.00    -0.028 C 
ATOM      7  C   UNL     1     -11.458  72.970  23.006  1.00  0.00     0.039 C 
ATOM      8  C   UNL     1     -10.489  74.100  22.747  1.00  0.00    -0.080 C 
ATOM      9  C   UNL     1     -10.416  74.717  21.374  1.00  0.00     0.039 C 
ENDBRANCH   5   6
ENDBRANCH   4   5
ENDBRANCH   1   4
BRANCH   2  10
ATOM     10  C   UNL     1      -9.671  73.703  29.610  1.00  0.00     0.035 C 
BRANCH  10  11
ATOM     11  C   UNL     1      -9.852  74.796  30.669  1.00  0.00     0.079 C 
BRANCH  11  12
ATOM     12  C   UNL     1     -10.845  74.366  31.716  1.00  0.00     0.130 C 
ATOM     13  O   UNL     1     -11.158  75.145  32.604  1.00  0.00    -0.300 OA
ATOM     14  C   UNL     1     -11.453  72.995  31.701  1.00  0.00     0.087 C 
ENDBRANCH  11  12
ENDBRANCH  10  11
ENDBRANCH   2  10
TORSDOF 6
ENDMDL
MODEL 9
REMARK VINA RESULT:    -5.735      2.552      6.683
REMARK INTER + INTRA:          -8.631
REMARK INTER:                  -8.058
REMARK INTRA:                  -0.573
REMARK UNBOUND:                -0.884
REMARK SMILES CC(=O)CCC=C(C)CCC=C(C)C
REMARK SMILES IDX 7 1 6 2 8 3 9 4 10 5 11 6 13 7 12 8 14 9 5 10 4 11 2 12 3 13
REMARK SMILES IDX 1 14
REMARK H PARENT
REMARK Flexibility Score: inf
ROOT
ATOM      1  C   UNL     1     -11.278  73.535  32.284  1.00  0.00    -0.077 C 
ATOM      2  C   UNL     1     -11.036  72.399  31.593  1.00  0.00    -0.028 C 
ATOM      3  C   UNL     1     -10.846  74.883  31.758  1.00  0.00     0.039 C 
ENDROOT
BRANCH   1   4
ATOM      4  C   UNL     1     -11.986  73.450  33.618  1.00  0.00     0.034 C 
BRANCH   4   5
ATOM      5  C   UNL     1     -11.018  73.013  34.723  1.00  0.00     0.032 C 
BRANCH   5   6
ATOM      6  C   UNL     1     -11.671  73.112  36.078  1.00  0.00    -0.028 C 
ATOM      7  C   UNL     1     -10.269  71.286  37.065  1.00  0.00     0.039 C 
ATOM      8  C   UNL     1     -11.328  72.360  37.148  1.00  0.00    -0.080 C 
ATOM      9  C   UNL     1     -12.044  72.598  38.453  1.00  0.00     0.039 C 
ENDBRANCH   5   6
ENDBRANCH   4   5
ENDBRANCH   1   4
BRANCH   2  10
ATOM     10  C   UNL     1     -10.336  72.382  30.256  1.00  0.00     0.035 C 
BRANCH  10  11
ATOM     11  C   UNL     1     -11.344  72.309  29.103  1.00  0.00     0.079 C 
BRANCH  11  12
ATOM     12  C   UNL     1     -11.268  73.547  28.248  1.00  0.00     0.130 C 
ATOM     13  O   UNL     1     -12.241  73.883  27.590  1.00  0.00    -0.300 OA
ATOM     14  C   UNL     1     -10.017  74.371  28.176  1.00  0.00     0.087 C 
ENDBRANCH  11  12
ENDBRANCH  10  11
ENDBRANCH   2  10
TORSDOF 6
ENDMDL
