MODEL 1
REMARK VINA RESULT:    -2.966      0.000      0.000
REMARK INTER + INTRA:          -6.916
REMARK INTER:                  -5.394
REMARK INTRA:                  -1.522
REMARK UNBOUND:                -1.522
REMARK SMILES CCCCCCCCCCCCCCCC(=O)[O-]
REMARK SMILES IDX 9 1 10 2 11 3 12 4 13 5 14 6 15 7 16 8 17 9 18 10 8 11 7 12
REMARK SMILES IDX 6 13 5 14 4 15 3 16 2 17 1 18
REMARK H PARENT
REMARK Flexibility Score: inf
ROOT
ATOM      1  C   UNL     1      -9.824   7.574   5.651  1.00  0.00     0.000 C 
ENDROOT
BRANCH   1   2
ATOM      2  C   UNL     1      -9.655   9.014   6.160  1.00  0.00     0.000 C 
BRANCH   2   3
ATOM      3  C   UNL     1      -9.850   9.134   7.680  1.00  0.00     0.000 C 
BRANCH   3   4
ATOM      4  C   UNL     1      -9.682   7.771   8.363  1.00  0.00     0.000 C 
BRANCH   4   5
ATOM      5  C   UNL     1      -8.481   7.779   9.321  1.00  0.00     0.000 C 
BRANCH   5   6
ATOM      6  C   UNL     1      -7.203   7.196   8.692  1.00  0.00     0.006 C 
BRANCH   6   7
ATOM      7  C   UNL     1      -7.400   5.814   8.043  1.00  0.00     0.053 C 
BRANCH   7   8
ATOM      8  C   UNL     1      -7.661   4.736   9.051  1.00  0.00     0.041 C 
ATOM      9  O   UNL     1      -8.816   4.255   9.179  1.00  0.00    -0.550 OA
ATOM     10  O   UNL     1      -6.635   4.289   9.875  1.00  0.00    -0.550 OA
ENDBRANCH   7   8
ENDBRANCH   6   7
ENDBRANCH   5   6
ENDBRANCH   4   5
ENDBRANCH   3   4
ENDBRANCH   2   3
ENDBRANCH   1   2
BRANCH   1  11
ATOM     11  C   UNL     1      -8.621   7.097   4.819  1.00  0.00     0.000 C 
BRANCH  11  12
ATOM     12  C   UNL     1      -8.632   7.656   3.387  1.00  0.00    -0.000 C 
BRANCH  12  13
ATOM     13  C   UNL     1      -7.402   8.526   3.077  1.00  0.00    -0.000 C 
BRANCH  13  14
ATOM     14  C   UNL     1      -7.766   9.789   2.267  1.00  0.00    -0.000 C 
BRANCH  14  15
ATOM     15  C   UNL     1      -9.283  10.005   2.106  1.00  0.00    -0.000 C 
BRANCH  15  16
ATOM     16  C   UNL     1      -9.813   9.842   0.668  1.00  0.00    -0.000 C 
BRANCH  16  17
ATOM     17  C   UNL     1      -8.829   9.174  -0.309  1.00  0.00    -0.003 C 
ATOM     18  C   UNL     1      -9.528   8.450  -1.459  1.00  0.00     0.004 C 
ENDBRANCH  16  17
ENDBRANCH  15  16
ENDBRANCH  14  15
ENDBRANCH  13  14
ENDBRANCH  12  13
ENDBRANCH  11  12
ENDBRANCH   1  11
TORSDOF 14
ENDMDL
MODEL 2
REMARK VINA RESULT:    -2.746      4.264      8.474
REMARK INTER + INTRA:          -6.515
REMARK INTER:                  -5.636
REMARK INTRA:                  -0.880
REMARK UNBOUND:                -1.522
REMARK SMILES CCCCCCCCCCCCCCCC(=O)[O-]
REMARK SMILES IDX 9 1 10 2 11 3 12 4 13 5 14 6 15 7 16 8 17 9 18 10 8 11 7 12
REMARK SMILES IDX 6 13 5 14 4 15 3 16 2 17 1 18
REMARK H PARENT
REMARK Flexibility Score: inf
ROOT
ATOM      1  C   UNL     1      -8.255   6.620   6.226  1.00  0.00     0.000 C 
ENDROOT
BRANCH   1   2
ATOM      2  C   UNL     1      -8.640   7.116   4.824  1.00  0.00     0.000 C 
BRANCH   2   3
ATOM      3  C   UNL     1      -8.249   8.583   4.585  1.00  0.00     0.000 C 
BRANCH   3   4
ATOM      4  C   UNL     1      -9.174   9.235   3.549  1.00  0.00     0.000 C 
BRANCH   4   5
ATOM      5  C   UNL     1      -9.321   8.346   2.306  1.00  0.00     0.000 C 
BRANCH   5   6
ATOM      6  C   UNL     1      -9.840   9.110   1.075  1.00  0.00     0.006 C 
BRANCH   6   7
ATOM      7  C   UNL     1      -8.829   9.192  -0.083  1.00  0.00     0.053 C 
BRANCH   7   8
ATOM      8  C   UNL     1      -9.391   8.683  -1.375  1.00  0.00     0.041 C 
ATOM      9  O   UNL     1      -9.826   7.505  -1.456  1.00  0.00    -0.550 OA
ATOM     10  O   UNL     1      -9.401   9.497  -2.501  1.00  0.00    -0.550 OA
ENDBRANCH   7   8
ENDBRANCH   6   7
ENDBRANCH   5   6
ENDBRANCH   4   5
ENDBRANCH   3   4
ENDBRANCH   2   3
ENDBRANCH   1   2
BRANCH   1  11
ATOM     11  C   UNL     1      -9.371   5.790   6.886  1.00  0.00     0.000 C 
BRANCH  11  12
ATOM     12  C   UNL     1      -9.338   5.870   8.421  1.00  0.00    -0.000 C 
BRANCH  12  13
ATOM     13  C   UNL     1      -9.144   4.496   9.085  1.00  0.00    -0.000 C 
BRANCH  13  14
ATOM     14  C   UNL     1      -7.956   4.485  10.072  1.00  0.00    -0.000 C 
BRANCH  14  15
ATOM     15  C   UNL     1      -6.605   4.828   9.417  1.00  0.00    -0.000 C 
BRANCH  15  16
ATOM     16  C   UNL     1      -5.989   6.168   9.862  1.00  0.00    -0.000 C 
BRANCH  16  17
ATOM     17  C   UNL     1      -4.938   6.746   8.896  1.00  0.00    -0.003 C 
ATOM     18  C   UNL     1      -5.153   8.230   8.600  1.00  0.00     0.004 C 
ENDBRANCH  16  17
ENDBRANCH  15  16
ENDBRANCH  14  15
ENDBRANCH  13  14
ENDBRANCH  12  13
ENDBRANCH  11  12
ENDBRANCH   1  11
TORSDOF 14
ENDMDL
MODEL 3
REMARK VINA RESULT:    -2.669      4.104      7.846
REMARK INTER + INTRA:          -6.376
REMARK INTER:                  -4.875
REMARK INTRA:                  -1.500
REMARK UNBOUND:                -1.522
REMARK SMILES CCCCCCCCCCCCCCCC(=O)[O-]
REMARK SMILES IDX 9 1 10 2 11 3 12 4 13 5 14 6 15 7 16 8 17 9 18 10 8 11 7 12
REMARK SMILES IDX 6 13 5 14 4 15 3 16 2 17 1 18
REMARK H PARENT
REMARK Flexibility Score: inf
ROOT
ATOM      1  C   UNL     1      -9.468   7.067   4.765  1.00  0.00     0.000 C 
ENDROOT
BRANCH   1   2
ATOM      2  C   UNL     1      -9.396   8.593   4.928  1.00  0.00     0.000 C 
BRANCH   2   3
ATOM      3  C   UNL     1      -7.979   9.147   4.713  1.00  0.00     0.000 C 
BRANCH   3   4
ATOM      4  C   UNL     1      -7.920  10.035   3.464  1.00  0.00     0.000 C 
BRANCH   4   5
ATOM      5  C   UNL     1      -7.886   9.185   2.185  1.00  0.00     0.000 C 
BRANCH   5   6
ATOM      6  C   UNL     1      -8.873   9.673   1.110  1.00  0.00     0.006 C 
BRANCH   6   7
ATOM      7  C   UNL     1      -8.324   9.588  -0.326  1.00  0.00     0.053 C 
BRANCH   7   8
ATOM      8  C   UNL     1      -9.261   8.885  -1.261  1.00  0.00     0.041 C 
ATOM      9  O   UNL     1      -9.529   9.385  -2.384  1.00  0.00    -0.550 OA
ATOM     10  O   UNL     1      -9.867   7.695  -0.877  1.00  0.00    -0.550 OA
ENDBRANCH   7   8
ENDBRANCH   6   7
ENDBRANCH   5   6
ENDBRANCH   4   5
ENDBRANCH   3   4
ENDBRANCH   2   3
ENDBRANCH   1   2
BRANCH   1  11
ATOM     11  C   UNL     1      -8.538   6.324   5.740  1.00  0.00     0.000 C 
BRANCH  11  12
ATOM     12  C   UNL     1      -9.241   5.938   7.051  1.00  0.00    -0.000 C 
BRANCH  12  13
ATOM     13  C   UNL     1      -8.253   5.582   8.175  1.00  0.00    -0.000 C 
BRANCH  13  14
ATOM     14  C   UNL     1      -8.379   6.529   9.388  1.00  0.00    -0.000 C 
BRANCH  14  15
ATOM     15  C   UNL     1      -9.236   7.779   9.111  1.00  0.00    -0.000 C 
BRANCH  15  16
ATOM     16  C   UNL     1      -8.444   9.095   8.989  1.00  0.00    -0.000 C 
BRANCH  16  17
ATOM     17  C   UNL     1      -6.920   8.947   9.148  1.00  0.00    -0.003 C 
ATOM     18  C   UNL     1      -6.176   8.967   7.813  1.00  0.00     0.004 C 
ENDBRANCH  16  17
ENDBRANCH  15  16
ENDBRANCH  14  15
ENDBRANCH  13  14
ENDBRANCH  12  13
ENDBRANCH  11  12
ENDBRANCH   1  11
TORSDOF 14
ENDMDL
MODEL 4
REMARK VINA RESULT:    -2.374      1.701      2.381
REMARK INTER + INTRA:          -5.839
REMARK INTER:                  -5.138
REMARK INTRA:                  -0.702
REMARK UNBOUND:                -1.522
REMARK SMILES CCCCCCCCCCCCCCCC(=O)[O-]
REMARK SMILES IDX 9 1 10 2 11 3 12 4 13 5 14 6 15 7 16 8 17 9 18 10 8 11 7 12
REMARK SMILES IDX 6 13 5 14 4 15 3 16 2 17 1 18
REMARK H PARENT
REMARK Flexibility Score: inf
ROOT
ATOM      1  C   UNL     1      -8.631   8.211   4.384  1.00  0.00     0.000 C 
ENDROOT
BRANCH   1   2
ATOM      2  C   UNL     1      -9.527   8.723   5.522  1.00  0.00     0.000 C 
BRANCH   2   3
ATOM      3  C   UNL     1      -9.672   7.709   6.667  1.00  0.00     0.000 C 
BRANCH   3   4
ATOM      4  C   UNL     1      -8.298   7.280   7.197  1.00  0.00     0.000 C 
BRANCH   4   5
ATOM      5  C   UNL     1      -8.253   5.765   7.445  1.00  0.00     0.000 C 
BRANCH   5   6
ATOM      6  C   UNL     1      -8.046   5.402   8.926  1.00  0.00     0.006 C 
BRANCH   6   7
ATOM      7  C   UNL     1      -6.581   5.110   9.300  1.00  0.00     0.053 C 
BRANCH   7   8
ATOM      8  C   UNL     1      -5.732   6.344   9.311  1.00  0.00     0.041 C 
ATOM      9  O   UNL     1      -6.098   7.359   9.958  1.00  0.00    -0.550 OA
ATOM     10  O   UNL     1      -4.553   6.387   8.577  1.00  0.00    -0.550 OA
ENDBRANCH   7   8
ENDBRANCH   6   7
ENDBRANCH   5   6
ENDBRANCH   4   5
ENDBRANCH   3   4
ENDBRANCH   2   3
ENDBRANCH   1   2
BRANCH   1  11
ATOM     11  C   UNL     1      -7.389   9.092   4.168  1.00  0.00     0.000 C 
BRANCH  11  12
ATOM     12  C   UNL     1      -7.356   9.736   2.772  1.00  0.00    -0.000 C 
BRANCH  12  13
ATOM     13  C   UNL     1      -8.761   9.972   2.191  1.00  0.00    -0.000 C 
BRANCH  13  14
ATOM     14  C   UNL     1      -8.823   9.691   0.674  1.00  0.00    -0.000 C 
BRANCH  14  15
ATOM     15  C   UNL     1      -9.752   8.521   0.299  1.00  0.00    -0.000 C 
BRANCH  15  16
ATOM     16  C   UNL     1      -9.819   8.201  -1.207  1.00  0.00    -0.000 C 
BRANCH  16  17
ATOM     17  C   UNL     1     -10.094   9.417  -2.112  1.00  0.00    -0.003 C 
ATOM     18  C   UNL     1     -10.088   9.066  -3.599  1.00  0.00     0.004 C 
ENDBRANCH  16  17
ENDBRANCH  15  16
ENDBRANCH  14  15
ENDBRANCH  13  14
ENDBRANCH  12  13
ENDBRANCH  11  12
ENDBRANCH   1  11
TORSDOF 14
ENDMDL
MODEL 5
REMARK VINA RESULT:    -1.738      4.301      8.223
REMARK INTER + INTRA:          -4.682
REMARK INTER:                  -3.766
REMARK INTRA:                  -0.916
REMARK UNBOUND:                -1.522
REMARK SMILES CCCCCCCCCCCCCCCC(=O)[O-]
REMARK SMILES IDX 9 1 10 2 11 3 12 4 13 5 14 6 15 7 16 8 17 9 18 10 8 11 7 12
REMARK SMILES IDX 6 13 5 14 4 15 3 16 2 17 1 18
REMARK H PARENT
REMARK Flexibility Score: inf
ROOT
ATOM      1  C   UNL     1      -6.795   9.231   4.582  1.00  0.00     0.000 C 
ENDROOT
BRANCH   1   2
ATOM      2  C   UNL     1      -7.424   9.165   3.181  1.00  0.00     0.000 C 
BRANCH   2   3
ATOM      3  C   UNL     1      -8.927   8.843   3.219  1.00  0.00     0.000 C 
BRANCH   3   4
ATOM      4  C   UNL     1      -9.762  10.086   2.888  1.00  0.00     0.000 C 
BRANCH   4   5
ATOM      5  C   UNL     1     -10.125  10.125   1.397  1.00  0.00     0.000 C 
BRANCH   5   6
ATOM      6  C   UNL     1      -9.918   8.773   0.690  1.00  0.00     0.006 C 
BRANCH   6   7
ATOM      7  C   UNL     1     -10.054   8.841  -0.842  1.00  0.00     0.053 C 
BRANCH   7   8
ATOM      8  C   UNL     1      -8.902   9.547  -1.491  1.00  0.00     0.041 C 
ATOM      9  O   UNL     1      -8.933   9.808  -2.722  1.00  0.00    -0.550 OA
ATOM     10  O   UNL     1      -7.780   9.884  -0.745  1.00  0.00    -0.550 OA
ENDBRANCH   7   8
ENDBRANCH   6   7
ENDBRANCH   5   6
ENDBRANCH   4   5
ENDBRANCH   3   4
ENDBRANCH   2   3
ENDBRANCH   1   2
BRANCH   1  11
ATOM     11  C   UNL     1      -7.718   8.658   5.671  1.00  0.00     0.000 C 
BRANCH  11  12
ATOM     12  C   UNL     1      -8.072   9.693   6.752  1.00  0.00    -0.000 C 
BRANCH  12  13
ATOM     13  C   UNL     1      -7.544   9.305   8.144  1.00  0.00    -0.000 C 
BRANCH  13  14
ATOM     14  C   UNL     1      -6.604   8.081   8.094  1.00  0.00    -0.000 C 
BRANCH  14  15
ATOM     15  C   UNL     1      -7.097   6.888   8.934  1.00  0.00    -0.000 C 
BRANCH  15  16
ATOM     16  C   UNL     1      -7.570   5.669   8.119  1.00  0.00    -0.000 C 
BRANCH  16  17
ATOM     17  C   UNL     1      -8.808   4.953   8.689  1.00  0.00    -0.003 C 
ATOM     18  C   UNL     1      -9.916   5.919   9.107  1.00  0.00     0.004 C 
ENDBRANCH  16  17
ENDBRANCH  15  16
ENDBRANCH  14  15
ENDBRANCH  13  14
ENDBRANCH  12  13
ENDBRANCH  11  12
ENDBRANCH   1  11
TORSDOF 14
ENDMDL
MODEL 6
REMARK VINA RESULT:    -1.116      4.729      8.908
REMARK INTER + INTRA:          -3.551
REMARK INTER:                  -2.906
REMARK INTRA:                  -0.645
REMARK UNBOUND:                -1.522
REMARK SMILES CCCCCCCCCCCCCCCC(=O)[O-]
REMARK SMILES IDX 9 1 10 2 11 3 12 4 13 5 14 6 15 7 16 8 17 9 18 10 8 11 7 12
REMARK SMILES IDX 6 13 5 14 4 15 3 16 2 17 1 18
REMARK H PARENT
REMARK Flexibility Score: inf
ROOT
ATOM      1  C   UNL     1      -6.591   9.603   4.070  1.00  0.00     0.000 C 
ENDROOT
BRANCH   1   2
ATOM      2  C   UNL     1      -7.477   9.544   2.816  1.00  0.00     0.000 C 
BRANCH   2   3
ATOM      3  C   UNL     1      -8.970   9.399   3.149  1.00  0.00     0.000 C 
BRANCH   3   4
ATOM      4  C   UNL     1      -9.841   9.987   2.032  1.00  0.00     0.000 C 
BRANCH   4   5
ATOM      5  C   UNL     1      -9.750   9.136   0.757  1.00  0.00     0.000 C 
BRANCH   5   6
ATOM      6  C   UNL     1     -10.108   9.919  -0.519  1.00  0.00     0.006 C 
BRANCH   6   7
ATOM      7  C   UNL     1      -9.233   9.567  -1.735  1.00  0.00     0.053 C 
BRANCH   7   8
ATOM      8  C   UNL     1      -9.862   8.531  -2.617  1.00  0.00     0.041 C 
ATOM      9  O   UNL     1     -10.125   7.388  -2.162  1.00  0.00    -0.550 OA
ATOM     10  O   UNL     1     -10.124   8.816  -3.951  1.00  0.00    -0.550 OA
ENDBRANCH   7   8
ENDBRANCH   6   7
ENDBRANCH   5   6
ENDBRANCH   4   5
ENDBRANCH   3   4
ENDBRANCH   2   3
ENDBRANCH   1   2
BRANCH   1  11
ATOM     11  C   UNL     1      -7.185   8.815   5.250  1.00  0.00     0.000 C 
BRANCH  11  12
ATOM     12  C   UNL     1      -7.568   9.720   6.433  1.00  0.00    -0.000 C 
BRANCH  12  13
ATOM     13  C   UNL     1      -6.393   9.978   7.392  1.00  0.00    -0.000 C 
BRANCH  13  14
ATOM     14  C   UNL     1      -6.706   9.531   8.836  1.00  0.00    -0.000 C 
BRANCH  14  15
ATOM     15  C   UNL     1      -6.472   8.028   9.084  1.00  0.00    -0.000 C 
BRANCH  15  16
ATOM     16  C   UNL     1      -5.014   7.641   9.396  1.00  0.00    -0.000 C 
BRANCH  16  17
ATOM     17  C   UNL     1      -4.488   6.426   8.608  1.00  0.00    -0.003 C 
ATOM     18  C   UNL     1      -3.444   5.621   9.381  1.00  0.00     0.004 C 
ENDBRANCH  16  17
ENDBRANCH  15  16
ENDBRANCH  14  15
ENDBRANCH  13  14
ENDBRANCH  12  13
ENDBRANCH  11  12
ENDBRANCH   1  11
TORSDOF 14
ENDMDL
MODEL 7
REMARK VINA RESULT:    -0.465      4.787      8.843
REMARK INTER + INTRA:          -2.367
REMARK INTER:                  -2.868
REMARK INTRA:                   0.501
REMARK UNBOUND:                -1.522
REMARK SMILES CCCCCCCCCCCCCCCC(=O)[O-]
REMARK SMILES IDX 9 1 10 2 11 3 12 4 13 5 14 6 15 7 16 8 17 9 18 10 8 11 7 12
REMARK SMILES IDX 6 13 5 14 4 15 3 16 2 17 1 18
REMARK H PARENT
REMARK Flexibility Score: inf
ROOT
ATOM      1  C   UNL     1      -7.805   7.692   3.465  1.00  0.00     0.000 C 
ENDROOT
BRANCH   1   2
ATOM      2  C   UNL     1      -6.902   8.933   3.383  1.00  0.00     0.000 C 
BRANCH   2   3
ATOM      3  C   UNL     1      -7.499  10.046   2.507  1.00  0.00     0.000 C 
BRANCH   3   4
ATOM      4  C   UNL     1      -8.786   9.572   1.820  1.00  0.00     0.000 C 
BRANCH   4   5
ATOM      5  C   UNL     1      -8.881  10.123   0.390  1.00  0.00     0.000 C 
BRANCH   5   6
ATOM      6  C   UNL     1     -10.122   9.619  -0.370  1.00  0.00     0.006 C 
BRANCH   6   7
ATOM      7  C   UNL     1      -9.802   8.625  -1.501  1.00  0.00     0.053 C 
BRANCH   7   8
ATOM      8  C   UNL     1      -9.391   9.309  -2.769  1.00  0.00     0.041 C 
ATOM      9  O   UNL     1      -8.399  10.082  -2.778  1.00  0.00    -0.550 OA
ATOM     10  O   UNL     1     -10.125   9.120  -3.933  1.00  0.00    -0.550 OA
ENDBRANCH   7   8
ENDBRANCH   6   7
ENDBRANCH   5   6
ENDBRANCH   4   5
ENDBRANCH   3   4
ENDBRANCH   2   3
ENDBRANCH   1   2
BRANCH   1  11
ATOM     11  C   UNL     1      -9.263   8.044   3.809  1.00  0.00     0.000 C 
BRANCH  11  12
ATOM     12  C   UNL     1      -9.991   6.902   4.538  1.00  0.00    -0.000 C 
BRANCH  12  13
ATOM     13  C   UNL     1      -9.025   5.934   5.243  1.00  0.00    -0.000 C 
BRANCH  13  14
ATOM     14  C   UNL     1      -9.057   6.091   6.779  1.00  0.00    -0.000 C 
BRANCH  14  15
ATOM     15  C   UNL     1      -7.663   6.052   7.434  1.00  0.00    -0.000 C 
BRANCH  15  16
ATOM     16  C   UNL     1      -7.668   6.047   8.974  1.00  0.00    -0.000 C 
BRANCH  16  17
ATOM     17  C   UNL     1      -8.899   5.375   9.611  1.00  0.00    -0.003 C 
ATOM     18  C   UNL     1      -8.765   3.856   9.712  1.00  0.00     0.004 C 
ENDBRANCH  16  17
ENDBRANCH  15  16
ENDBRANCH  14  15
ENDBRANCH  13  14
ENDBRANCH  12  13
ENDBRANCH  11  12
ENDBRANCH   1  11
TORSDOF 14
ENDMDL
