MODEL 1
REMARK VINA RESULT:    -3.043      0.000      0.000
REMARK INTER + INTRA:          -7.901
REMARK INTER:                  -5.533
REMARK INTRA:                  -2.368
REMARK UNBOUND:                -2.368
REMARK SMILES CCCCCCCCCCCCCCCC(=O)[O-]
REMARK SMILES IDX 9 1 10 2 11 3 12 4 13 5 14 6 15 7 16 8 17 9 18 10 8 11 7 12
REMARK SMILES IDX 6 13 5 14 4 15 3 16 2 17 1 18
REMARK H PARENT
REMARK Flexibility Score: inf
ROOT
ATOM      1  C   UNL     1      40.749  35.484  46.327  1.00  0.00     0.000 C 
ENDROOT
BRANCH   1   2
ATOM      2  C   UNL     1      40.913  35.820  47.817  1.00  0.00     0.000 C 
BRANCH   2   3
ATOM      3  C   UNL     1      41.569  34.683  48.620  1.00  0.00     0.000 C 
BRANCH   3   4
ATOM      4  C   UNL     1      42.667  35.133  49.603  1.00  0.00     0.000 C 
BRANCH   4   5
ATOM      5  C   UNL     1      43.584  34.007  50.116  1.00  0.00     0.000 C 
BRANCH   5   6
ATOM      6  C   UNL     1      43.945  32.959  49.042  1.00  0.00     0.006 C 
BRANCH   6   7
ATOM      7  C   UNL     1      44.973  31.935  49.541  1.00  0.00     0.053 C 
BRANCH   7   8
ATOM      8  C   UNL     1      45.227  30.898  48.493  1.00  0.00     0.041 C 
ATOM      9  O   UNL     1      45.752  31.220  47.395  1.00  0.00    -0.550 OA
ATOM     10  O   UNL     1      44.842  29.581  48.712  1.00  0.00    -0.550 OA
ENDBRANCH   7   8
ENDBRANCH   6   7
ENDBRANCH   5   6
ENDBRANCH   4   5
ENDBRANCH   3   4
ENDBRANCH   2   3
ENDBRANCH   1   2
BRANCH   1  11
ATOM     11  C   UNL     1      41.227  34.055  46.031  1.00  0.00     0.000 C 
BRANCH  11  12
ATOM     12  C   UNL     1      42.418  34.011  45.055  1.00  0.00    -0.000 C 
BRANCH  12  13
ATOM     13  C   UNL     1      43.788  33.766  45.715  1.00  0.00    -0.000 C 
BRANCH  13  14
ATOM     14  C   UNL     1      44.825  34.884  45.496  1.00  0.00    -0.000 C 
BRANCH  14  15
ATOM     15  C   UNL     1      44.490  36.197  46.238  1.00  0.00    -0.000 C 
BRANCH  15  16
ATOM     16  C   UNL     1      45.218  36.308  47.589  1.00  0.00    -0.000 C 
BRANCH  16  17
ATOM     17  C   UNL     1      46.686  35.863  47.507  1.00  0.00    -0.003 C 
ATOM     18  C   UNL     1      47.057  34.843  48.583  1.00  0.00     0.004 C 
ENDBRANCH  16  17
ENDBRANCH  15  16
ENDBRANCH  14  15
ENDBRANCH  13  14
ENDBRANCH  12  13
ENDBRANCH  11  12
ENDBRANCH   1  11
TORSDOF 14
ENDMDL
MODEL 2
REMARK VINA RESULT:    -3.030      3.208      5.821
REMARK INTER + INTRA:          -7.878
REMARK INTER:                  -6.384
REMARK INTRA:                  -1.494
REMARK UNBOUND:                -2.368
REMARK SMILES CCCCCCCCCCCCCCCC(=O)[O-]
REMARK SMILES IDX 9 1 10 2 11 3 12 4 13 5 14 6 15 7 16 8 17 9 18 10 8 11 7 12
REMARK SMILES IDX 6 13 5 14 4 15 3 16 2 17 1 18
REMARK H PARENT
REMARK Flexibility Score: inf
ROOT
ATOM      1  C   UNL     1      45.848  31.111  47.374  1.00  0.00     0.000 C 
ENDROOT
BRANCH   1   2
ATOM      2  C   UNL     1      44.984  32.365  47.572  1.00  0.00     0.000 C 
BRANCH   2   3
ATOM      3  C   UNL     1      45.228  33.055  48.926  1.00  0.00     0.000 C 
BRANCH   3   4
ATOM      4  C   UNL     1      44.001  33.112  49.856  1.00  0.00     0.000 C 
BRANCH   4   5
ATOM      5  C   UNL     1      43.468  34.528  50.147  1.00  0.00     0.000 C 
BRANCH   5   6
ATOM      6  C   UNL     1      42.717  35.167  48.959  1.00  0.00     0.006 C 
BRANCH   6   7
ATOM      7  C   UNL     1      41.651  34.236  48.370  1.00  0.00     0.053 C 
BRANCH   7   8
ATOM      8  C   UNL     1      41.047  34.845  47.144  1.00  0.00     0.041 C 
ATOM      9  O   UNL     1      40.490  35.973  47.203  1.00  0.00    -0.550 OA
ATOM     10  O   UNL     1      41.057  34.145  45.944  1.00  0.00    -0.550 OA
ENDBRANCH   7   8
ENDBRANCH   6   7
ENDBRANCH   5   6
ENDBRANCH   4   5
ENDBRANCH   3   4
ENDBRANCH   2   3
ENDBRANCH   1   2
BRANCH   1  11
ATOM     11  C   UNL     1      45.035  29.837  47.648  1.00  0.00     0.000 C 
BRANCH  11  12
ATOM     12  C   UNL     1      45.655  28.955  48.748  1.00  0.00    -0.000 C 
BRANCH  12  13
ATOM     13  C   UNL     1      45.655  29.578  50.157  1.00  0.00    -0.000 C 
BRANCH  13  14
ATOM     14  C   UNL     1      46.927  29.315  50.985  1.00  0.00    -0.000 C 
BRANCH  14  15
ATOM     15  C   UNL     1      48.178  30.047  50.453  1.00  0.00    -0.000 C 
BRANCH  15  16
ATOM     16  C   UNL     1      48.053  31.577  50.563  1.00  0.00    -0.000 C 
BRANCH  16  17
ATOM     17  C   UNL     1      49.381  32.253  50.936  1.00  0.00    -0.003 C 
ATOM     18  C   UNL     1      49.718  32.120  52.420  1.00  0.00     0.004 C 
ENDBRANCH  16  17
ENDBRANCH  15  16
ENDBRANCH  14  15
ENDBRANCH  13  14
ENDBRANCH  12  13
ENDBRANCH  11  12
ENDBRANCH   1  11
TORSDOF 14
ENDMDL
MODEL 3
REMARK VINA RESULT:    -3.002      1.835      4.427
REMARK INTER + INTRA:          -7.826
REMARK INTER:                  -5.431
REMARK INTRA:                  -2.395
REMARK UNBOUND:                -2.368
REMARK SMILES CCCCCCCCCCCCCCCC(=O)[O-]
REMARK SMILES IDX 9 1 10 2 11 3 12 4 13 5 14 6 15 7 16 8 17 9 18 10 8 11 7 12
REMARK SMILES IDX 6 13 5 14 4 15 3 16 2 17 1 18
REMARK H PARENT
REMARK Flexibility Score: inf
ROOT
ATOM      1  C   UNL     1      40.877  35.601  48.094  1.00  0.00     0.000 C 
ENDROOT
BRANCH   1   2
ATOM      2  C   UNL     1      40.795  35.394  46.575  1.00  0.00     0.000 C 
BRANCH   2   3
ATOM      3  C   UNL     1      41.327  34.021  46.126  1.00  0.00     0.000 C 
BRANCH   3   4
ATOM      4  C   UNL     1      42.536  34.074  45.172  1.00  0.00     0.000 C 
BRANCH   4   5
ATOM      5  C   UNL     1      43.903  33.827  45.837  1.00  0.00     0.000 C 
BRANCH   5   6
ATOM      6  C   UNL     1      44.567  35.107  46.390  1.00  0.00     0.006 C 
BRANCH   6   7
ATOM      7  C   UNL     1      46.045  34.897  46.740  1.00  0.00     0.053 C 
BRANCH   7   8
ATOM      8  C   UNL     1      46.357  35.505  48.071  1.00  0.00     0.041 C 
ATOM      9  O   UNL     1      45.850  36.610  48.399  1.00  0.00    -0.550 OA
ATOM     10  O   UNL     1      47.247  34.874  48.931  1.00  0.00    -0.550 OA
ENDBRANCH   7   8
ENDBRANCH   6   7
ENDBRANCH   5   6
ENDBRANCH   4   5
ENDBRANCH   3   4
ENDBRANCH   2   3
ENDBRANCH   1   2
BRANCH   1  11
ATOM     11  C   UNL     1      41.727  34.504  48.752  1.00  0.00     0.000 C 
BRANCH  11  12
ATOM     12  C   UNL     1      42.736  35.059  49.775  1.00  0.00    -0.000 C 
BRANCH  12  13
ATOM     13  C   UNL     1      43.873  34.093  50.156  1.00  0.00    -0.000 C 
BRANCH  13  14
ATOM     14  C   UNL     1      43.909  32.781  49.348  1.00  0.00    -0.000 C 
BRANCH  14  15
ATOM     15  C   UNL     1      45.206  31.966  49.543  1.00  0.00    -0.000 C 
BRANCH  15  16
ATOM     16  C   UNL     1      45.870  31.593  48.206  1.00  0.00    -0.000 C 
BRANCH  16  17
ATOM     17  C   UNL     1      45.229  30.359  47.553  1.00  0.00    -0.003 C 
ATOM     18  C   UNL     1      45.311  30.387  46.027  1.00  0.00     0.004 C 
ENDBRANCH  16  17
ENDBRANCH  15  16
ENDBRANCH  14  15
ENDBRANCH  13  14
ENDBRANCH  12  13
ENDBRANCH  11  12
ENDBRANCH   1  11
TORSDOF 14
ENDMDL
MODEL 4
REMARK VINA RESULT:    -2.990      1.754      3.997
REMARK INTER + INTRA:          -7.806
REMARK INTER:                  -6.096
REMARK INTRA:                  -1.710
REMARK UNBOUND:                -2.368
REMARK SMILES CCCCCCCCCCCCCCCC(=O)[O-]
REMARK SMILES IDX 9 1 10 2 11 3 12 4 13 5 14 6 15 7 16 8 17 9 18 10 8 11 7 12
REMARK SMILES IDX 6 13 5 14 4 15 3 16 2 17 1 18
REMARK H PARENT
REMARK Flexibility Score: inf
ROOT
ATOM      1  C   UNL     1      43.486  34.165  50.225  1.00  0.00     0.000 C 
ENDROOT
BRANCH   1   2
ATOM      2  C   UNL     1      44.186  32.927  49.646  1.00  0.00     0.000 C 
BRANCH   2   3
ATOM      3  C   UNL     1      45.626  33.213  49.181  1.00  0.00     0.000 C 
BRANCH   3   4
ATOM      4  C   UNL     1      46.462  31.961  48.854  1.00  0.00     0.000 C 
BRANCH   4   5
ATOM      5  C   UNL     1      46.561  30.926  49.991  1.00  0.00     0.000 C 
BRANCH   5   6
ATOM      6  C   UNL     1      45.970  29.547  49.630  1.00  0.00     0.006 C 
BRANCH   6   7
ATOM      7  C   UNL     1      45.676  29.407  48.131  1.00  0.00     0.053 C 
BRANCH   7   8
ATOM      8  C   UNL     1      44.796  28.224  47.880  1.00  0.00     0.041 C 
ATOM      9  O   UNL     1      44.103  27.738  48.813  1.00  0.00    -0.550 OA
ATOM     10  O   UNL     1      44.777  27.626  46.626  1.00  0.00    -0.550 OA
ENDBRANCH   7   8
ENDBRANCH   6   7
ENDBRANCH   5   6
ENDBRANCH   4   5
ENDBRANCH   3   4
ENDBRANCH   2   3
ENDBRANCH   1   2
BRANCH   1  11
ATOM     11  C   UNL     1      42.926  35.053  49.104  1.00  0.00     0.000 C 
BRANCH  11  12
ATOM     12  C   UNL     1      41.608  34.515  48.514  1.00  0.00    -0.000 C 
BRANCH  12  13
ATOM     13  C   UNL     1      40.779  35.549  47.730  1.00  0.00    -0.000 C 
BRANCH  13  14
ATOM     14  C   UNL     1      40.702  35.305  46.211  1.00  0.00    -0.000 C 
BRANCH  14  15
ATOM     15  C   UNL     1      41.606  34.153  45.720  1.00  0.00    -0.000 C 
BRANCH  15  16
ATOM     16  C   UNL     1      42.868  34.663  45.002  1.00  0.00    -0.000 C 
BRANCH  16  17
ATOM     17  C   UNL     1      44.164  34.177  45.669  1.00  0.00    -0.003 C 
ATOM     18  C   UNL     1      44.193  32.663  45.874  1.00  0.00     0.004 C 
ENDBRANCH  16  17
ENDBRANCH  15  16
ENDBRANCH  14  15
ENDBRANCH  13  14
ENDBRANCH  12  13
ENDBRANCH  11  12
ENDBRANCH   1  11
TORSDOF 14
ENDMDL
MODEL 5
REMARK VINA RESULT:    -2.984      1.318      3.067
REMARK INTER + INTRA:          -7.795
REMARK INTER:                  -5.420
REMARK INTRA:                  -2.374
REMARK UNBOUND:                -2.368
REMARK SMILES CCCCCCCCCCCCCCCC(=O)[O-]
REMARK SMILES IDX 9 1 10 2 11 3 12 4 13 5 14 6 15 7 16 8 17 9 18 10 8 11 7 12
REMARK SMILES IDX 6 13 5 14 4 15 3 16 2 17 1 18
REMARK H PARENT
REMARK Flexibility Score: inf
ROOT
ATOM      1  C   UNL     1      41.285  34.134  46.385  1.00  0.00     0.000 C 
ENDROOT
BRANCH   1   2
ATOM      2  C   UNL     1      42.026  34.600  45.123  1.00  0.00     0.000 C 
BRANCH   2   3
ATOM      3  C   UNL     1      43.521  34.234  45.134  1.00  0.00     0.000 C 
BRANCH   3   4
ATOM      4  C   UNL     1      43.887  33.026  46.018  1.00  0.00     0.000 C 
BRANCH   4   5
ATOM      5  C   UNL     1      45.255  33.122  46.720  1.00  0.00     0.000 C 
BRANCH   5   6
ATOM      6  C   UNL     1      45.702  31.808  47.395  1.00  0.00     0.006 C 
BRANCH   6   7
ATOM      7  C   UNL     1      44.959  31.539  48.709  1.00  0.00     0.053 C 
BRANCH   7   8
ATOM      8  C   UNL     1      45.290  30.175  49.227  1.00  0.00     0.041 C 
ATOM      9  O   UNL     1      44.798  29.152  48.681  1.00  0.00    -0.550 OA
ATOM     10  O   UNL     1      46.105  30.035  50.343  1.00  0.00    -0.550 OA
ENDBRANCH   7   8
ENDBRANCH   6   7
ENDBRANCH   5   6
ENDBRANCH   4   5
ENDBRANCH   3   4
ENDBRANCH   2   3
ENDBRANCH   1   2
BRANCH   1  11
ATOM     11  C   UNL     1      40.775  35.335  47.196  1.00  0.00     0.000 C 
BRANCH  11  12
ATOM     12  C   UNL     1      41.157  35.258  48.687  1.00  0.00    -0.000 C 
BRANCH  12  13
ATOM     13  C   UNL     1      42.306  34.287  49.013  1.00  0.00    -0.000 C 
BRANCH  13  14
ATOM     14  C   UNL     1      43.309  34.796  50.066  1.00  0.00    -0.000 C 
BRANCH  14  15
ATOM     15  C   UNL     1      44.618  35.349  49.462  1.00  0.00    -0.000 C 
BRANCH  15  16
ATOM     16  C   UNL     1      44.493  36.825  49.046  1.00  0.00    -0.000 C 
BRANCH  16  17
ATOM     17  C   UNL     1      44.281  36.996  47.533  1.00  0.00    -0.003 C 
ATOM     18  C   UNL     1      45.577  36.860  46.735  1.00  0.00     0.004 C 
ENDBRANCH  16  17
ENDBRANCH  15  16
ENDBRANCH  14  15
ENDBRANCH  13  14
ENDBRANCH  12  13
ENDBRANCH  11  12
ENDBRANCH   1  11
TORSDOF 14
ENDMDL
MODEL 6
REMARK VINA RESULT:    -2.933      1.353      2.882
REMARK INTER + INTRA:          -7.702
REMARK INTER:                  -5.602
REMARK INTRA:                  -2.099
REMARK UNBOUND:                -2.368
REMARK SMILES CCCCCCCCCCCCCCCC(=O)[O-]
REMARK SMILES IDX 9 1 10 2 11 3 12 4 13 5 14 6 15 7 16 8 17 9 18 10 8 11 7 12
REMARK SMILES IDX 6 13 5 14 4 15 3 16 2 17 1 18
REMARK H PARENT
REMARK Flexibility Score: inf
ROOT
ATOM      1  C   UNL     1      42.185  34.171  48.768  1.00  0.00     0.000 C 
ENDROOT
BRANCH   1   2
ATOM      2  C   UNL     1      43.233  34.586  49.811  1.00  0.00     0.000 C 
BRANCH   2   3
ATOM      3  C   UNL     1      44.673  34.537  49.270  1.00  0.00     0.000 C 
BRANCH   3   4
ATOM      4  C   UNL     1      45.082  33.195  48.633  1.00  0.00     0.000 C 
BRANCH   4   5
ATOM      5  C   UNL     1      44.825  31.953  49.508  1.00  0.00     0.000 C 
BRANCH   5   6
ATOM      6  C   UNL     1      46.085  31.097  49.760  1.00  0.00     0.006 C 
BRANCH   6   7
ATOM      7  C   UNL     1      46.494  30.279  48.529  1.00  0.00     0.053 C 
BRANCH   7   8
ATOM      8  C   UNL     1      45.352  29.434  48.060  1.00  0.00     0.041 C 
ATOM      9  O   UNL     1      44.791  28.630  48.851  1.00  0.00    -0.550 OA
ATOM     10  O   UNL     1      44.937  29.499  46.736  1.00  0.00    -0.550 OA
ENDBRANCH   7   8
ENDBRANCH   6   7
ENDBRANCH   5   6
ENDBRANCH   4   5
ENDBRANCH   3   4
ENDBRANCH   2   3
ENDBRANCH   1   2
BRANCH   1  11
ATOM     11  C   UNL     1      41.143  35.280  48.566  1.00  0.00     0.000 C 
BRANCH  11  12
ATOM     12  C   UNL     1      40.488  35.242  47.172  1.00  0.00    -0.000 C 
BRANCH  12  13
ATOM     13  C   UNL     1      41.243  34.405  46.123  1.00  0.00    -0.000 C 
BRANCH  13  14
ATOM     14  C   UNL     1      42.230  35.199  45.246  1.00  0.00    -0.000 C 
BRANCH  14  15
ATOM     15  C   UNL     1      43.714  34.934  45.582  1.00  0.00    -0.000 C 
BRANCH  15  16
ATOM     16  C   UNL     1      44.453  36.212  46.016  1.00  0.00    -0.000 C 
BRANCH  16  17
ATOM     17  C   UNL     1      43.493  37.342  46.418  1.00  0.00    -0.003 C 
ATOM     18  C   UNL     1      43.715  37.827  47.850  1.00  0.00     0.004 C 
ENDBRANCH  16  17
ENDBRANCH  15  16
ENDBRANCH  14  15
ENDBRANCH  13  14
ENDBRANCH  12  13
ENDBRANCH  11  12
ENDBRANCH   1  11
TORSDOF 14
ENDMDL
MODEL 7
REMARK VINA RESULT:    -2.919      3.089      5.670
REMARK INTER + INTRA:          -7.677
REMARK INTER:                  -5.748
REMARK INTRA:                  -1.929
REMARK UNBOUND:                -2.368
REMARK SMILES CCCCCCCCCCCCCCCC(=O)[O-]
REMARK SMILES IDX 9 1 10 2 11 3 12 4 13 5 14 6 15 7 16 8 17 9 18 10 8 11 7 12
REMARK SMILES IDX 6 13 5 14 4 15 3 16 2 17 1 18
REMARK H PARENT
REMARK Flexibility Score: inf
ROOT
ATOM      1  C   UNL     1      44.999  31.414  46.184  1.00  0.00     0.000 C 
ENDROOT
BRANCH   1   2
ATOM      2  C   UNL     1      44.978  32.871  46.670  1.00  0.00     0.000 C 
BRANCH   2   3
ATOM      3  C   UNL     1      46.067  33.171  47.716  1.00  0.00     0.000 C 
BRANCH   3   4
ATOM      4  C   UNL     1      45.544  33.724  49.056  1.00  0.00     0.000 C 
BRANCH   4   5
ATOM      5  C   UNL     1      44.215  33.115  49.539  1.00  0.00     0.000 C 
BRANCH   5   6
ATOM      6  C   UNL     1      43.068  34.141  49.664  1.00  0.00     0.006 C 
BRANCH   6   7
ATOM      7  C   UNL     1      43.419  35.494  49.032  1.00  0.00     0.053 C 
BRANCH   7   8
ATOM      8  C   UNL     1      42.260  36.020  48.247  1.00  0.00     0.041 C 
ATOM      9  O   UNL     1      42.429  36.939  47.403  1.00  0.00    -0.550 OA
ATOM     10  O   UNL     1      40.982  35.527  48.480  1.00  0.00    -0.550 OA
ENDBRANCH   7   8
ENDBRANCH   6   7
ENDBRANCH   5   6
ENDBRANCH   4   5
ENDBRANCH   3   4
ENDBRANCH   2   3
ENDBRANCH   1   2
BRANCH   1  11
ATOM     11  C   UNL     1      45.864  30.541  47.105  1.00  0.00     0.000 C 
BRANCH  11  12
ATOM     12  C   UNL     1      45.241  29.160  47.383  1.00  0.00    -0.000 C 
BRANCH  12  13
ATOM     13  C   UNL     1      44.923  28.878  48.863  1.00  0.00    -0.000 C 
BRANCH  13  14
ATOM     14  C   UNL     1      45.617  29.816  49.868  1.00  0.00    -0.000 C 
BRANCH  14  15
ATOM     15  C   UNL     1      46.657  29.108  50.763  1.00  0.00    -0.000 C 
BRANCH  15  16
ATOM     16  C   UNL     1      48.038  29.785  50.706  1.00  0.00    -0.000 C 
BRANCH  16  17
ATOM     17  C   UNL     1      47.958  31.252  50.255  1.00  0.00    -0.003 C 
ATOM     18  C   UNL     1      48.966  32.148  50.973  1.00  0.00     0.004 C 
ENDBRANCH  16  17
ENDBRANCH  15  16
ENDBRANCH  14  15
ENDBRANCH  13  14
ENDBRANCH  12  13
ENDBRANCH  11  12
ENDBRANCH   1  11
TORSDOF 14
ENDMDL
MODEL 8
REMARK VINA RESULT:    -2.915      3.075      6.214
REMARK INTER + INTRA:          -7.669
REMARK INTER:                  -6.041
REMARK INTRA:                  -1.628
REMARK UNBOUND:                -2.368
REMARK SMILES CCCCCCCCCCCCCCCC(=O)[O-]
REMARK SMILES IDX 9 1 10 2 11 3 12 4 13 5 14 6 15 7 16 8 17 9 18 10 8 11 7 12
REMARK SMILES IDX 6 13 5 14 4 15 3 16 2 17 1 18
REMARK H PARENT
REMARK Flexibility Score: inf
ROOT
ATOM      1  C   UNL     1      46.439  31.863  49.401  1.00  0.00     0.000 C 
ENDROOT
BRANCH   1   2
ATOM      2  C   UNL     1      44.944  31.900  49.751  1.00  0.00     0.000 C 
BRANCH   2   3
ATOM      3  C   UNL     1      44.196  33.061  49.071  1.00  0.00     0.000 C 
BRANCH   3   4
ATOM      4  C   UNL     1      43.546  34.069  50.038  1.00  0.00     0.000 C 
BRANCH   4   5
ATOM      5  C   UNL     1      42.432  34.937  49.424  1.00  0.00     0.000 C 
BRANCH   5   6
ATOM      6  C   UNL     1      41.733  34.287  48.210  1.00  0.00     0.006 C 
BRANCH   6   7
ATOM      7  C   UNL     1      40.755  35.241  47.515  1.00  0.00     0.053 C 
BRANCH   7   8
ATOM      8  C   UNL     1      40.980  35.233  46.036  1.00  0.00     0.041 C 
ATOM      9  O   UNL     1      40.971  34.148  45.398  1.00  0.00    -0.550 OA
ATOM     10  O   UNL     1      41.247  36.422  45.368  1.00  0.00    -0.550 OA
ENDBRANCH   7   8
ENDBRANCH   6   7
ENDBRANCH   5   6
ENDBRANCH   4   5
ENDBRANCH   3   4
ENDBRANCH   2   3
ENDBRANCH   1   2
BRANCH   1  11
ATOM     11  C   UNL     1      47.118  30.635  50.024  1.00  0.00     0.000 C 
BRANCH  11  12
ATOM     12  C   UNL     1      46.112  29.569  50.497  1.00  0.00    -0.000 C 
BRANCH  12  13
ATOM     13  C   UNL     1      45.985  28.342  49.576  1.00  0.00    -0.000 C 
BRANCH  13  14
ATOM     14  C   UNL     1      44.748  28.344  48.657  1.00  0.00    -0.000 C 
BRANCH  14  15
ATOM     15  C   UNL     1      45.091  28.411  47.153  1.00  0.00    -0.000 C 
BRANCH  15  16
ATOM     16  C   UNL     1      45.287  29.856  46.660  1.00  0.00    -0.000 C 
BRANCH  16  17
ATOM     17  C   UNL     1      46.558  30.024  45.814  1.00  0.00    -0.003 C 
ATOM     18  C   UNL     1      47.823  29.587  46.552  1.00  0.00     0.004 C 
ENDBRANCH  16  17
ENDBRANCH  15  16
ENDBRANCH  14  15
ENDBRANCH  13  14
ENDBRANCH  12  13
ENDBRANCH  11  12
ENDBRANCH   1  11
TORSDOF 14
ENDMDL
MODEL 9
REMARK VINA RESULT:    -2.881      3.029      5.846
REMARK INTER + INTRA:          -7.607
REMARK INTER:                  -5.460
REMARK INTRA:                  -2.147
REMARK UNBOUND:                -2.368
REMARK SMILES CCCCCCCCCCCCCCCC(=O)[O-]
REMARK SMILES IDX 9 1 10 2 11 3 12 4 13 5 14 6 15 7 16 8 17 9 18 10 8 11 7 12
REMARK SMILES IDX 6 13 5 14 4 15 3 16 2 17 1 18
REMARK H PARENT
REMARK Flexibility Score: inf
ROOT
ATOM      1  C   UNL     1      44.986  29.255  47.556  1.00  0.00     0.000 C 
ENDROOT
BRANCH   1   2
ATOM      2  C   UNL     1      45.848  30.494  47.271  1.00  0.00     0.000 C 
BRANCH   2   3
ATOM      3  C   UNL     1      45.012  31.763  47.022  1.00  0.00     0.000 C 
BRANCH   3   4
ATOM      4  C   UNL     1      45.713  33.085  47.389  1.00  0.00     0.000 C 
BRANCH   4   5
ATOM      5  C   UNL     1      45.374  33.637  48.787  1.00  0.00     0.000 C 
BRANCH   5   6
ATOM      6  C   UNL     1      44.016  33.151  49.336  1.00  0.00     0.006 C 
BRANCH   6   7
ATOM      7  C   UNL     1      43.111  34.309  49.773  1.00  0.00     0.053 C 
BRANCH   7   8
ATOM      8  C   UNL     1      42.072  34.582  48.731  1.00  0.00     0.041 C 
ATOM      9  O   UNL     1      41.075  35.301  49.002  1.00  0.00    -0.550 OA
ATOM     10  O   UNL     1      42.182  34.003  47.473  1.00  0.00    -0.550 OA
ENDBRANCH   7   8
ENDBRANCH   6   7
ENDBRANCH   5   6
ENDBRANCH   4   5
ENDBRANCH   3   4
ENDBRANCH   2   3
ENDBRANCH   1   2
BRANCH   1  11
ATOM     11  C   UNL     1      45.354  28.631  48.910  1.00  0.00     0.000 C 
BRANCH  11  12
ATOM     12  C   UNL     1      45.679  29.683  49.987  1.00  0.00    -0.000 C 
BRANCH  12  13
ATOM     13  C   UNL     1      46.800  29.285  50.965  1.00  0.00    -0.000 C 
BRANCH  13  14
ATOM     14  C   UNL     1      47.994  30.256  51.017  1.00  0.00    -0.000 C 
BRANCH  14  15
ATOM     15  C   UNL     1      47.746  31.587  50.273  1.00  0.00    -0.000 C 
BRANCH  15  16
ATOM     16  C   UNL     1      49.046  32.207  49.732  1.00  0.00    -0.000 C 
BRANCH  16  17
ATOM     17  C   UNL     1      49.143  32.133  48.201  1.00  0.00    -0.003 C 
ATOM     18  C   UNL     1      49.472  30.728  47.696  1.00  0.00     0.004 C 
ENDBRANCH  16  17
ENDBRANCH  15  16
ENDBRANCH  14  15
ENDBRANCH  13  14
ENDBRANCH  12  13
ENDBRANCH  11  12
ENDBRANCH   1  11
TORSDOF 14
ENDMDL
