MODEL 1
REMARK VINA RESULT:    -5.546      0.000      0.000
REMARK INTER + INTRA:          -5.708
REMARK INTER:                  -5.708
REMARK INTRA:                   0.000
REMARK UNBOUND:                 0.000
REMARK SMILES Nc1ncnc2nc[nH]c12
REMARK SMILES IDX 8 1 7 2 6 3 5 4 4 5 3 6 2 7 10 8 9 9 1 11
REMARK H PARENT 9 10 1 12 1 13
REMARK Flexibility Score: inf
ROOT
ATOM      1  C   UNL     1      20.536  46.965   6.495  1.00  0.00     0.199 A 
ATOM      2  N   UNL     1      20.969  48.002   5.727  1.00  0.00    -0.217 NA
ATOM      3  C   UNL     1      21.053  47.440   4.510  1.00  0.00     0.182 A 
ATOM      4  N   UNL     1      21.444  48.048   3.364  1.00  0.00    -0.215 NA
ATOM      5  C   UNL     1      21.465  47.307   2.215  1.00  0.00     0.226 A 
ATOM      6  N   UNL     1      21.099  45.985   2.232  1.00  0.00    -0.217 NA
ATOM      7  C   UNL     1      20.705  45.370   3.387  1.00  0.00     0.152 A 
ATOM      8  C   UNL     1      20.689  46.137   4.548  1.00  0.00     0.127 A 
ATOM      9  N   UNL     1      20.354  45.812   5.804  1.00  0.00    -0.340 N 
ATOM     10  H   UNL     1      20.030  44.892   6.175  1.00  0.00     0.168 HD
ENDROOT
BRANCH   7  11
ATOM     11  N   UNL     1      20.329  43.992   3.382  1.00  0.00    -0.382 N 
ATOM     12  H   UNL     1      20.087  43.520   2.483  1.00  0.00     0.158 HD
ATOM     13  H   UNL     1      20.289  43.435   4.264  1.00  0.00     0.158 HD
ENDBRANCH   7  11
TORSDOF 1
ENDMDL
MODEL 2
REMARK VINA RESULT:    -5.290      1.198      3.136
REMARK INTER + INTRA:          -5.445
REMARK INTER:                  -5.445
REMARK INTRA:                   0.000
REMARK UNBOUND:                 0.000
REMARK SMILES Nc1ncnc2nc[nH]c12
REMARK SMILES IDX 8 1 7 2 6 3 5 4 4 5 3 6 2 7 10 8 9 9 1 11
REMARK H PARENT 9 10 1 12 1 13
REMARK Flexibility Score: inf
ROOT
ATOM      1  C   UNL     1      20.968  45.484   3.154  1.00  0.00     0.199 A 
ATOM      2  N   UNL     1      21.345  46.786   3.024  1.00  0.00    -0.217 NA
ATOM      3  C   UNL     1      21.164  47.260   4.268  1.00  0.00     0.182 A 
ATOM      4  N   UNL     1      21.393  48.526   4.691  1.00  0.00    -0.215 NA
ATOM      5  C   UNL     1      21.149  48.822   6.004  1.00  0.00     0.226 A 
ATOM      6  N   UNL     1      20.685  47.857   6.861  1.00  0.00    -0.217 NA
ATOM      7  C   UNL     1      20.452  46.579   6.436  1.00  0.00     0.152 A 
ATOM      8  C   UNL     1      20.705  46.294   5.097  1.00  0.00     0.127 A 
ATOM      9  N   UNL     1      20.573  45.152   4.409  1.00  0.00    -0.340 N 
ATOM     10  H   UNL     1      20.244  44.221   4.747  1.00  0.00     0.168 HD
ENDROOT
BRANCH   7  11
ATOM     11  N   UNL     1      19.967  45.591   7.345  1.00  0.00    -0.382 N 
ATOM     12  H   UNL     1      20.106  44.577   7.137  1.00  0.00     0.158 HD
ATOM     13  H   UNL     1      19.472  45.856   8.224  1.00  0.00     0.158 HD
ENDBRANCH   7  11
TORSDOF 1
ENDMDL
MODEL 3
REMARK VINA RESULT:    -5.036      0.908      2.931
REMARK INTER + INTRA:          -5.183
REMARK INTER:                  -5.183
REMARK INTRA:                   0.000
REMARK UNBOUND:                 0.000
REMARK SMILES Nc1ncnc2nc[nH]c12
REMARK SMILES IDX 8 1 7 2 6 3 5 4 4 5 3 6 2 7 10 8 9 9 1 11
REMARK H PARENT 9 10 1 12 1 13
REMARK Flexibility Score: inf
ROOT
ATOM      1  C   UNL     1      21.860  47.688   1.415  1.00  0.00     0.199 A 
ATOM      2  N   UNL     1      21.828  48.566   2.456  1.00  0.00    -0.217 NA
ATOM      3  C   UNL     1      21.343  47.808   3.453  1.00  0.00     0.182 A 
ATOM      4  N   UNL     1      21.110  48.202   4.727  1.00  0.00    -0.215 NA
ATOM      5  C   UNL     1      20.611  47.281   5.607  1.00  0.00     0.226 A 
ATOM      6  N   UNL     1      20.357  45.996   5.200  1.00  0.00    -0.217 NA
ATOM      7  C   UNL     1      20.591  45.596   3.915  1.00  0.00     0.152 A 
ATOM      8  C   UNL     1      21.099  46.545   3.031  1.00  0.00     0.127 A 
ATOM      9  N   UNL     1      21.421  46.445   1.735  1.00  0.00    -0.340 N 
ATOM     10  H   UNL     1      21.354  45.613   1.108  1.00  0.00     0.168 HD
ENDROOT
BRANCH   7  11
ATOM     11  N   UNL     1      20.319  44.253   3.513  1.00  0.00    -0.382 N 
ATOM     12  H   UNL     1      19.941  44.060   2.558  1.00  0.00     0.158 HD
ATOM     13  H   UNL     1      20.488  43.448   4.154  1.00  0.00     0.158 HD
ENDBRANCH   7  11
TORSDOF 1
ENDMDL
MODEL 4
REMARK VINA RESULT:    -4.988      1.663      2.745
REMARK INTER + INTRA:          -5.134
REMARK INTER:                  -5.134
REMARK INTRA:                   0.000
REMARK UNBOUND:                 0.000
REMARK SMILES Nc1ncnc2nc[nH]c12
REMARK SMILES IDX 8 1 7 2 6 3 5 4 4 5 3 6 2 7 10 8 9 9 1 11
REMARK H PARENT 9 10 1 12 1 13
REMARK Flexibility Score: inf
ROOT
ATOM      1  C   UNL     1      20.644  49.814   7.351  1.00  0.00     0.199 A 
ATOM      2  N   UNL     1      20.996  49.941   6.042  1.00  0.00    -0.217 NA
ATOM      3  C   UNL     1      20.920  48.674   5.602  1.00  0.00     0.182 A 
ATOM      4  N   UNL     1      21.175  48.237   4.346  1.00  0.00    -0.215 NA
ATOM      5  C   UNL     1      21.042  46.901   4.086  1.00  0.00     0.226 A 
ATOM      6  N   UNL     1      20.659  46.034   5.079  1.00  0.00    -0.217 NA
ATOM      7  C   UNL     1      20.401  46.472   6.347  1.00  0.00     0.152 A 
ATOM      8  C   UNL     1      20.542  47.835   6.595  1.00  0.00     0.127 A 
ATOM      9  N   UNL     1      20.359  48.539   7.719  1.00  0.00    -0.340 N 
ATOM     10  H   UNL     1      20.069  48.200   8.663  1.00  0.00     0.168 HD
ENDROOT
BRANCH   7  11
ATOM     11  N   UNL     1      20.005  45.552   7.364  1.00  0.00    -0.382 N 
ATOM     12  H   UNL     1      19.959  45.862   8.360  1.00  0.00     0.158 HD
ATOM     13  H   UNL     1      19.757  44.564   7.138  1.00  0.00     0.158 HD
ENDBRANCH   7  11
TORSDOF 1
ENDMDL
MODEL 5
REMARK VINA RESULT:    -4.909      1.170      2.469
REMARK INTER + INTRA:          -5.052
REMARK INTER:                  -5.052
REMARK INTRA:                   0.000
REMARK UNBOUND:                 0.000
REMARK SMILES Nc1ncnc2nc[nH]c12
REMARK SMILES IDX 8 1 7 2 6 3 5 4 4 5 3 6 2 7 10 8 9 9 1 11
REMARK H PARENT 9 10 1 12 1 13
REMARK Flexibility Score: inf
ROOT
ATOM      1  C   UNL     1      20.628  48.841   5.722  1.00  0.00     0.199 A 
ATOM      2  N   UNL     1      20.723  47.551   6.147  1.00  0.00    -0.217 NA
ATOM      3  C   UNL     1      20.867  46.880   4.993  1.00  0.00     0.182 A 
ATOM      4  N   UNL     1      21.005  45.541   4.849  1.00  0.00    -0.215 NA
ATOM      5  C   UNL     1      21.141  45.037   3.585  1.00  0.00     0.226 A 
ATOM      6  N   UNL     1      21.136  45.875   2.498  1.00  0.00    -0.217 NA
ATOM      7  C   UNL     1      20.995  47.226   2.641  1.00  0.00     0.152 A 
ATOM      8  C   UNL     1      20.858  47.723   3.934  1.00  0.00     0.127 A 
ATOM      9  N   UNL     1      20.708  48.979   4.374  1.00  0.00    -0.340 N 
ATOM     10  H   UNL     1      20.660  49.863   3.821  1.00  0.00     0.168 HD
ENDROOT
BRANCH   7  11
ATOM     11  N   UNL     1      20.992  48.079   1.496  1.00  0.00    -0.382 N 
ATOM     12  H   UNL     1      21.805  48.079   0.841  1.00  0.00     0.158 HD
ATOM     13  H   UNL     1      20.188  48.712   1.291  1.00  0.00     0.158 HD
ENDBRANCH   7  11
TORSDOF 1
ENDMDL
MODEL 6
REMARK VINA RESULT:    -4.893      1.981      3.041
REMARK INTER + INTRA:          -5.036
REMARK INTER:                  -5.036
REMARK INTRA:                   0.000
REMARK UNBOUND:                 0.000
REMARK SMILES Nc1ncnc2nc[nH]c12
REMARK SMILES IDX 8 1 7 2 6 3 5 4 4 5 3 6 2 7 10 8 9 9 1 11
REMARK H PARENT 9 10 1 12 1 13
REMARK Flexibility Score: inf
ROOT
ATOM      1  C   UNL     1      20.500  46.059   9.007  1.00  0.00     0.199 A 
ATOM      2  N   UNL     1      20.710  47.404   9.014  1.00  0.00    -0.217 NA
ATOM      3  C   UNL     1      20.718  47.698   7.704  1.00  0.00     0.182 A 
ATOM      4  N   UNL     1      20.894  48.922   7.151  1.00  0.00    -0.215 NA
ATOM      5  C   UNL     1      20.870  49.025   5.788  1.00  0.00     0.226 A 
ATOM      6  N   UNL     1      20.673  47.912   5.009  1.00  0.00    -0.217 NA
ATOM      7  C   UNL     1      20.496  46.677   5.564  1.00  0.00     0.152 A 
ATOM      8  C   UNL     1      20.523  46.588   6.953  1.00  0.00     0.127 A 
ATOM      9  N   UNL     1      20.380  45.531   7.762  1.00  0.00    -0.340 N 
ATOM     10  H   UNL     1      20.217  44.531   7.508  1.00  0.00     0.168 HD
ENDROOT
BRANCH   7  11
ATOM     11  N   UNL     1      20.293  45.532   4.734  1.00  0.00    -0.382 N 
ATOM     12  H   UNL     1      20.235  45.642   3.698  1.00  0.00     0.158 HD
ATOM     13  H   UNL     1      20.200  44.575   5.140  1.00  0.00     0.158 HD
ENDBRANCH   7  11
TORSDOF 1
ENDMDL
MODEL 7
REMARK VINA RESULT:    -4.882      2.662      4.563
REMARK INTER + INTRA:          -5.025
REMARK INTER:                  -5.025
REMARK INTRA:                   0.000
REMARK UNBOUND:                 0.000
REMARK SMILES Nc1ncnc2nc[nH]c12
REMARK SMILES IDX 8 1 7 2 6 3 5 4 4 5 3 6 2 7 10 8 9 9 1 11
REMARK H PARENT 9 10 1 12 1 13
REMARK Flexibility Score: inf
ROOT
ATOM      1  C   UNL     1      20.542  47.314   9.815  1.00  0.00     0.199 A 
ATOM      2  N   UNL     1      20.602  46.383   8.823  1.00  0.00    -0.217 NA
ATOM      3  C   UNL     1      20.613  47.145   7.717  1.00  0.00     0.182 A 
ATOM      4  N   UNL     1      20.666  46.709   6.436  1.00  0.00    -0.215 NA
ATOM      5  C   UNL     1      20.670  47.642   5.436  1.00  0.00     0.226 A 
ATOM      6  N   UNL     1      20.621  48.981   5.733  1.00  0.00    -0.217 NA
ATOM      7  C   UNL     1      20.568  49.422   7.024  1.00  0.00     0.152 A 
ATOM      8  C   UNL     1      20.564  48.461   8.031  1.00  0.00     0.127 A 
ATOM      9  N   UNL     1      20.519  48.593   9.363  1.00  0.00    -0.340 N 
ATOM     10  H   UNL     1      20.474  49.468   9.931  1.00  0.00     0.168 HD
ENDROOT
BRANCH   7  11
ATOM     11  N   UNL     1      20.517  50.821   7.310  1.00  0.00    -0.382 N 
ATOM     12  H   UNL     1      20.671  51.516   6.546  1.00  0.00     0.158 HD
ATOM     13  H   UNL     1      20.326  51.173   8.273  1.00  0.00     0.158 HD
ENDBRANCH   7  11
TORSDOF 1
ENDMDL
MODEL 8
REMARK VINA RESULT:    -4.749      3.077      5.382
REMARK INTER + INTRA:          -4.888
REMARK INTER:                  -4.888
REMARK INTRA:                   0.000
REMARK UNBOUND:                 0.000
REMARK SMILES Nc1ncnc2nc[nH]c12
REMARK SMILES IDX 8 1 7 2 6 3 5 4 4 5 3 6 2 7 10 8 9 9 1 11
REMARK H PARENT 9 10 1 12 1 13
REMARK Flexibility Score: inf
ROOT
ATOM      1  C   UNL     1      20.330  46.394   6.340  1.00  0.00     0.199 A 
ATOM      2  N   UNL     1      20.722  47.667   6.622  1.00  0.00    -0.217 NA
ATOM      3  C   UNL     1      20.798  47.651   7.963  1.00  0.00     0.182 A 
ATOM      4  N   UNL     1      21.150  48.685   8.765  1.00  0.00    -0.215 NA
ATOM      5  C   UNL     1      21.171  48.476  10.116  1.00  0.00     0.226 A 
ATOM      6  N   UNL     1      20.842  47.249  10.636  1.00  0.00    -0.217 NA
ATOM      7  C   UNL     1      20.486  46.206   9.829  1.00  0.00     0.152 A 
ATOM      8  C   UNL     1      20.470  46.434   8.456  1.00  0.00     0.127 A 
ATOM      9  N   UNL     1      20.169  45.616   7.439  1.00  0.00    -0.340 N 
ATOM     10  H   UNL     1      19.876  44.614   7.472  1.00  0.00     0.168 HD
ENDROOT
BRANCH   7  11
ATOM     11  N   UNL     1      20.147  44.938  10.392  1.00  0.00    -0.382 N 
ATOM     12  H   UNL     1      20.784  44.120  10.260  1.00  0.00     0.158 HD
ATOM     13  H   UNL     1      19.270  44.803  10.940  1.00  0.00     0.158 HD
ENDBRANCH   7  11
TORSDOF 1
ENDMDL
MODEL 9
REMARK VINA RESULT:    -4.555      1.206      3.817
REMARK INTER + INTRA:          -4.688
REMARK INTER:                  -4.688
REMARK INTRA:                   0.000
REMARK UNBOUND:                 0.000
REMARK SMILES Nc1ncnc2nc[nH]c12
REMARK SMILES IDX 8 1 7 2 6 3 5 4 4 5 3 6 2 7 10 8 9 9 1 11
REMARK H PARENT 9 10 1 12 1 13
REMARK Flexibility Score: inf
ROOT
ATOM      1  C   UNL     1      21.500  47.607   1.757  1.00  0.00     0.199 A 
ATOM      2  N   UNL     1      21.641  46.344   2.245  1.00  0.00    -0.217 NA
ATOM      3  C   UNL     1      21.296  46.496   3.534  1.00  0.00     0.182 A 
ATOM      4  N   UNL     1      21.264  45.530   4.482  1.00  0.00    -0.215 NA
ATOM      5  C   UNL     1      20.884  45.879   5.748  1.00  0.00     0.226 A 
ATOM      6  N   UNL     1      20.545  47.176   6.040  1.00  0.00    -0.217 NA
ATOM      7  C   UNL     1      20.577  48.153   5.086  1.00  0.00     0.152 A 
ATOM      8  C   UNL     1      20.966  47.782   3.802  1.00  0.00     0.127 A 
ATOM      9  N   UNL     1      21.088  48.508   2.684  1.00  0.00    -0.340 N 
ATOM     10  H   UNL     1      20.913  49.528   2.545  1.00  0.00     0.168 HD
ENDROOT
BRANCH   7  11
ATOM     11  N   UNL     1      20.221  49.497   5.413  1.00  0.00    -0.382 N 
ATOM     12  H   UNL     1      20.903  50.112   5.908  1.00  0.00     0.158 HD
ATOM     13  H   UNL     1      19.285  49.887   5.167  1.00  0.00     0.158 HD
ENDBRANCH   7  11
TORSDOF 1
ENDMDL
