MODEL 1
REMARK VINA RESULT:    -3.851      0.000      0.000
REMARK INTER + INTRA:          -6.288
REMARK INTER:                  -5.877
REMARK INTRA:                  -0.411
REMARK UNBOUND:                -0.411
REMARK SMILES CCCCCCCCCCC(=O)[O-]
REMARK SMILES IDX 7 1 8 2 9 3 10 4 11 5 12 6 13 7 6 8 5 9 4 10 3 11 2 12 1 13
REMARK H PARENT
REMARK Flexibility Score: inf
ROOT
ATOM      1  C   UNL     1     -96.019 148.779 239.482  1.00  0.00     0.000 C 
ENDROOT
BRANCH   1   2
ATOM      2  C   UNL     1     -95.620 149.213 240.900  1.00  0.00     0.000 C 
BRANCH   2   3
ATOM      3  C   UNL     1     -96.856 149.579 241.730  1.00  0.00     0.006 C 
BRANCH   3   4
ATOM      4  C   UNL     1     -97.402 148.357 242.474  1.00  0.00     0.053 C 
BRANCH   4   5
ATOM      5  C   UNL     1     -98.068 148.772 243.747  1.00  0.00     0.041 C 
ATOM      6  O   UNL     1     -98.436 147.905 244.583  1.00  0.00    -0.550 OA
ATOM      7  O   UNL     1     -98.327 150.116 243.990  1.00  0.00    -0.550 OA
ENDBRANCH   4   5
ENDBRANCH   3   4
ENDBRANCH   2   3
ENDBRANCH   1   2
BRANCH   1   8
ATOM      8  C   UNL     1     -94.820 148.711 238.522  1.00  0.00     0.000 C 
BRANCH   8   9
ATOM      9  C   UNL     1     -93.580 148.069 239.170  1.00  0.00    -0.000 C 
BRANCH   9  10
ATOM     10  C   UNL     1     -93.492 146.557 238.905  1.00  0.00    -0.000 C 
BRANCH  10  11
ATOM     11  C   UNL     1     -92.062 146.011 239.073  1.00  0.00    -0.000 C 
BRANCH  11  12
ATOM     12  C   UNL     1     -91.432 145.593 237.735  1.00  0.00    -0.003 C 
ATOM     13  C   UNL     1     -92.406 145.695 236.562  1.00  0.00     0.004 C 
ENDBRANCH  11  12
ENDBRANCH  10  11
ENDBRANCH   9  10
ENDBRANCH   8   9
ENDBRANCH   1   8
TORSDOF 9
ENDMDL
MODEL 2
REMARK VINA RESULT:    -3.808      1.889      3.490
REMARK INTER + INTRA:          -6.222
REMARK INTER:                  -5.379
REMARK INTRA:                  -0.843
REMARK UNBOUND:                -0.411
REMARK SMILES CCCCCCCCCCC(=O)[O-]
REMARK SMILES IDX 7 1 8 2 9 3 10 4 11 5 12 6 13 7 6 8 5 9 4 10 3 11 2 12 1 13
REMARK H PARENT
REMARK Flexibility Score: inf
ROOT
ATOM      1  C   UNL     1     -93.470 146.531 239.036  1.00  0.00     0.000 C 
ENDROOT
BRANCH   1   2
ATOM      2  C   UNL     1     -93.576 148.011 239.433  1.00  0.00     0.000 C 
BRANCH   2   3
ATOM      3  C   UNL     1     -94.800 148.667 238.784  1.00  0.00     0.006 C 
BRANCH   3   4
ATOM      4  C   UNL     1     -96.093 148.231 239.479  1.00  0.00     0.053 C 
BRANCH   4   5
ATOM      5  C   UNL     1     -96.033 148.543 240.941  1.00  0.00     0.041 C 
ATOM      6  O   UNL     1     -96.068 147.613 241.790  1.00  0.00    -0.550 OA
ATOM      7  O   UNL     1     -95.986 149.864 241.368  1.00  0.00    -0.550 OA
ENDBRANCH   4   5
ENDBRANCH   3   4
ENDBRANCH   2   3
ENDBRANCH   1   2
BRANCH   1   8
ATOM      8  C   UNL     1     -92.016 146.045 238.934  1.00  0.00     0.000 C 
BRANCH   8   9
ATOM      9  C   UNL     1     -91.613 145.685 237.492  1.00  0.00    -0.000 C 
BRANCH   9  10
ATOM     10  C   UNL     1     -92.793 145.777 236.510  1.00  0.00    -0.000 C 
BRANCH  10  11
ATOM     11  C   UNL     1     -92.342 146.101 235.075  1.00  0.00    -0.000 C 
BRANCH  11  12
ATOM     12  C   UNL     1     -93.214 147.181 234.414  1.00  0.00    -0.003 C 
ATOM     13  C   UNL     1     -94.418 147.576 235.269  1.00  0.00     0.004 C 
ENDBRANCH  11  12
ENDBRANCH  10  11
ENDBRANCH   9  10
ENDBRANCH   8   9
ENDBRANCH   1   8
TORSDOF 9
ENDMDL
MODEL 3
REMARK VINA RESULT:    -3.732      1.430      2.673
REMARK INTER + INTRA:          -6.107
REMARK INTER:                  -4.971
REMARK INTRA:                  -1.136
REMARK UNBOUND:                -0.411
REMARK SMILES CCCCCCCCCCC(=O)[O-]
REMARK SMILES IDX 7 1 8 2 9 3 10 4 11 5 12 6 13 7 6 8 5 9 4 10 3 11 2 12 1 13
REMARK H PARENT
REMARK Flexibility Score: inf
ROOT
ATOM      1  C   UNL     1     -94.623 147.095 241.141  1.00  0.00     0.000 C 
ENDROOT
BRANCH   1   2
ATOM      2  C   UNL     1     -94.432 148.555 240.705  1.00  0.00     0.000 C 
BRANCH   2   3
ATOM      3  C   UNL     1     -95.669 149.395 241.044  1.00  0.00     0.006 C 
BRANCH   3   4
ATOM      4  C   UNL     1     -96.868 148.502 241.373  1.00  0.00     0.053 C 
BRANCH   4   5
ATOM      5  C   UNL     1     -97.617 149.041 242.550  1.00  0.00     0.041 C 
ATOM      6  O   UNL     1     -98.173 150.169 242.486  1.00  0.00    -0.550 OA
ATOM      7  O   UNL     1     -97.660 148.319 243.736  1.00  0.00    -0.550 OA
ENDBRANCH   4   5
ENDBRANCH   3   4
ENDBRANCH   2   3
ENDBRANCH   1   2
BRANCH   1   8
ATOM      8  C   UNL     1     -93.976 146.095 240.169  1.00  0.00     0.000 C 
BRANCH   8   9
ATOM      9  C   UNL     1     -92.947 146.759 239.237  1.00  0.00    -0.000 C 
BRANCH   9  10
ATOM     10  C   UNL     1     -93.112 146.324 237.771  1.00  0.00    -0.000 C 
BRANCH  10  11
ATOM     11  C   UNL     1     -94.530 146.589 237.233  1.00  0.00    -0.000 C 
BRANCH  11  12
ATOM     12  C   UNL     1     -94.811 148.086 237.031  1.00  0.00    -0.003 C 
ATOM     13  C   UNL     1     -96.215 148.492 237.480  1.00  0.00     0.004 C 
ENDBRANCH  11  12
ENDBRANCH  10  11
ENDBRANCH   9  10
ENDBRANCH   8   9
ENDBRANCH   1   8
TORSDOF 9
ENDMDL
MODEL 4
REMARK VINA RESULT:    -3.725      1.452      2.256
REMARK INTER + INTRA:          -6.097
REMARK INTER:                  -5.554
REMARK INTRA:                  -0.543
REMARK UNBOUND:                -0.411
REMARK SMILES CCCCCCCCCCC(=O)[O-]
REMARK SMILES IDX 7 1 8 2 9 3 10 4 11 5 12 6 13 7 6 8 5 9 4 10 3 11 2 12 1 13
REMARK H PARENT
REMARK Flexibility Score: inf
ROOT
ATOM      1  C   UNL     1     -93.802 148.261 239.411  1.00  0.00     0.000 C 
ENDROOT
BRANCH   1   2
ATOM      2  C   UNL     1     -94.653 148.221 240.689  1.00  0.00     0.000 C 
BRANCH   2   3
ATOM      3  C   UNL     1     -96.062 148.768 240.427  1.00  0.00     0.006 C 
BRANCH   3   4
ATOM      4  C   UNL     1     -96.446 149.823 241.469  1.00  0.00     0.053 C 
BRANCH   4   5
ATOM      5  C   UNL     1     -97.435 149.263 242.442  1.00  0.00     0.041 C 
ATOM      6  O   UNL     1     -98.366 149.986 242.886  1.00  0.00    -0.550 OA
ATOM      7  O   UNL     1     -97.302 147.957 242.894  1.00  0.00    -0.550 OA
ENDBRANCH   4   5
ENDBRANCH   3   4
ENDBRANCH   2   3
ENDBRANCH   1   2
BRANCH   1   8
ATOM      8  C   UNL     1     -94.642 148.499 238.145  1.00  0.00     0.000 C 
BRANCH   8   9
ATOM      9  C   UNL     1     -94.445 147.395 237.091  1.00  0.00    -0.000 C 
BRANCH   9  10
ATOM     10  C   UNL     1     -93.339 146.399 237.478  1.00  0.00    -0.000 C 
BRANCH  10  11
ATOM     11  C   UNL     1     -92.586 145.848 236.253  1.00  0.00    -0.000 C 
BRANCH  11  12
ATOM     12  C   UNL     1     -93.055 146.491 234.938  1.00  0.00    -0.003 C 
ATOM     13  C   UNL     1     -91.896 146.895 234.028  1.00  0.00     0.004 C 
ENDBRANCH  11  12
ENDBRANCH  10  11
ENDBRANCH   9  10
ENDBRANCH   8   9
ENDBRANCH   1   8
TORSDOF 9
ENDMDL
MODEL 5
REMARK VINA RESULT:    -3.724      1.441      2.430
REMARK INTER + INTRA:          -6.095
REMARK INTER:                  -5.156
REMARK INTRA:                  -0.939
REMARK UNBOUND:                -0.411
REMARK SMILES CCCCCCCCCCC(=O)[O-]
REMARK SMILES IDX 7 1 8 2 9 3 10 4 11 5 12 6 13 7 6 8 5 9 4 10 3 11 2 12 1 13
REMARK H PARENT
REMARK Flexibility Score: inf
ROOT
ATOM      1  C   UNL     1     -96.969 147.746 241.104  1.00  0.00     0.000 C 
ENDROOT
BRANCH   1   2
ATOM      2  C   UNL     1     -96.437 149.147 241.440  1.00  0.00     0.000 C 
BRANCH   2   3
ATOM      3  C   UNL     1     -97.590 150.145 241.608  1.00  0.00     0.006 C 
BRANCH   3   4
ATOM      4  C   UNL     1     -98.740 149.529 242.408  1.00  0.00     0.053 C 
BRANCH   4   5
ATOM      5  C   UNL     1     -98.403 149.490 243.865  1.00  0.00     0.041 C 
ATOM      6  O   UNL     1     -98.414 150.549 244.547  1.00  0.00    -0.550 OA
ATOM      7  O   UNL     1     -98.030 148.292 244.460  1.00  0.00    -0.550 OA
ENDBRANCH   4   5
ENDBRANCH   3   4
ENDBRANCH   2   3
ENDBRANCH   1   2
BRANCH   1   8
ATOM      8  C   UNL     1     -96.020 146.625 241.559  1.00  0.00     0.000 C 
BRANCH   8   9
ATOM      9  C   UNL     1     -94.541 146.962 241.298  1.00  0.00    -0.000 C 
BRANCH   9  10
ATOM     10  C   UNL     1     -93.895 146.022 240.266  1.00  0.00    -0.000 C 
BRANCH  10  11
ATOM     11  C   UNL     1     -93.315 146.780 239.059  1.00  0.00    -0.000 C 
BRANCH  11  12
ATOM     12  C   UNL     1     -93.773 148.247 239.011  1.00  0.00    -0.003 C 
ATOM     13  C   UNL     1     -94.815 148.508 237.924  1.00  0.00     0.004 C 
ENDBRANCH  11  12
ENDBRANCH  10  11
ENDBRANCH   9  10
ENDBRANCH   8   9
ENDBRANCH   1   8
TORSDOF 9
ENDMDL
MODEL 6
REMARK VINA RESULT:    -3.708      3.235      6.694
REMARK INTER + INTRA:          -6.070
REMARK INTER:                  -5.410
REMARK INTRA:                  -0.660
REMARK UNBOUND:                -0.411
REMARK SMILES CCCCCCCCCCC(=O)[O-]
REMARK SMILES IDX 7 1 8 2 9 3 10 4 11 5 12 6 13 7 6 8 5 9 4 10 3 11 2 12 1 13
REMARK H PARENT
REMARK Flexibility Score: inf
ROOT
ATOM      1  C   UNL     1     -95.976 148.574 240.752  1.00  0.00     0.000 C 
ENDROOT
BRANCH   1   2
ATOM      2  C   UNL     1     -94.451 148.511 240.577  1.00  0.00     0.000 C 
BRANCH   2   3
ATOM      3  C   UNL     1     -94.075 148.329 239.101  1.00  0.00     0.006 C 
BRANCH   3   4
ATOM      4  C   UNL     1     -94.139 146.855 238.694  1.00  0.00     0.053 C 
BRANCH   4   5
ATOM      5  C   UNL     1     -93.156 146.050 239.485  1.00  0.00     0.041 C 
ATOM      6  O   UNL     1     -91.928 146.100 239.211  1.00  0.00    -0.550 OA
ATOM      7  O   UNL     1     -93.602 145.207 240.495  1.00  0.00    -0.550 OA
ENDBRANCH   4   5
ENDBRANCH   3   4
ENDBRANCH   2   3
ENDBRANCH   1   2
BRANCH   1   8
ATOM      8  C   UNL     1     -96.441 149.861 241.452  1.00  0.00     0.000 C 
BRANCH   8   9
ATOM      9  C   UNL     1     -97.904 150.213 241.128  1.00  0.00    -0.000 C 
BRANCH   9  10
ATOM     10  C   UNL     1     -98.890 149.648 242.165  1.00  0.00    -0.000 C 
BRANCH  10  11
ATOM     11  C   UNL     1     -98.450 149.930 243.612  1.00  0.00    -0.000 C 
BRANCH  11  12
ATOM     12  C   UNL     1     -98.273 148.642 244.433  1.00  0.00    -0.003 C 
ATOM     13  C   UNL     1     -98.245 147.384 243.566  1.00  0.00     0.004 C 
ENDBRANCH  11  12
ENDBRANCH  10  11
ENDBRANCH   9  10
ENDBRANCH   8   9
ENDBRANCH   1   8
TORSDOF 9
ENDMDL
MODEL 7
REMARK VINA RESULT:    -3.695      3.555      7.602
REMARK INTER + INTRA:          -6.050
REMARK INTER:                  -5.640
REMARK INTRA:                  -0.410
REMARK UNBOUND:                -0.411
REMARK SMILES CCCCCCCCCCC(=O)[O-]
REMARK SMILES IDX 7 1 8 2 9 3 10 4 11 5 12 6 13 7 6 8 5 9 4 10 3 11 2 12 1 13
REMARK H PARENT
REMARK Flexibility Score: inf
ROOT
ATOM      1  C   UNL     1     -96.451 149.723 241.248  1.00  0.00     0.000 C 
ENDROOT
BRANCH   1   2
ATOM      2  C   UNL     1     -96.057 148.300 240.827  1.00  0.00     0.000 C 
BRANCH   2   3
ATOM      3  C   UNL     1     -94.539 148.100 240.920  1.00  0.00     0.006 C 
BRANCH   3   4
ATOM      4  C   UNL     1     -93.906 148.042 239.527  1.00  0.00     0.053 C 
BRANCH   4   5
ATOM      5  C   UNL     1     -93.282 146.703 239.291  1.00  0.00     0.041 C 
ATOM      6  O   UNL     1     -92.698 146.458 238.202  1.00  0.00    -0.550 OA
ATOM      7  O   UNL     1     -93.387 145.707 240.254  1.00  0.00    -0.550 OA
ENDBRANCH   4   5
ENDBRANCH   3   4
ENDBRANCH   2   3
ENDBRANCH   1   2
BRANCH   1   8
ATOM      8  C   UNL     1     -97.656 149.749 242.201  1.00  0.00     0.000 C 
BRANCH   8   9
ATOM      9  C   UNL     1     -97.656 148.566 243.187  1.00  0.00    -0.000 C 
BRANCH   9  10
ATOM     10  C   UNL     1     -98.461 148.862 244.464  1.00  0.00    -0.000 C 
BRANCH  10  11
ATOM     11  C   UNL     1     -98.726 150.366 244.658  1.00  0.00    -0.000 C 
BRANCH  11  12
ATOM     12  C   UNL     1     -98.278 150.867 246.041  1.00  0.00    -0.003 C 
ATOM     13  C   UNL     1     -98.884 152.221 246.406  1.00  0.00     0.004 C 
ENDBRANCH  11  12
ENDBRANCH  10  11
ENDBRANCH   9  10
ENDBRANCH   8   9
ENDBRANCH   1   8
TORSDOF 9
ENDMDL
MODEL 8
REMARK VINA RESULT:    -3.680      2.159      3.449
REMARK INTER + INTRA:          -6.028
REMARK INTER:                  -4.692
REMARK INTRA:                  -1.336
REMARK UNBOUND:                -0.411
REMARK SMILES CCCCCCCCCCC(=O)[O-]
REMARK SMILES IDX 7 1 8 2 9 3 10 4 11 5 12 6 13 7 6 8 5 9 4 10 3 11 2 12 1 13
REMARK H PARENT
REMARK Flexibility Score: inf
ROOT
ATOM      1  C   UNL     1     -94.894 147.252 241.035  1.00  0.00     0.000 C 
ENDROOT
BRANCH   1   2
ATOM      2  C   UNL     1     -96.177 147.956 241.501  1.00  0.00     0.000 C 
BRANCH   2   3
ATOM      3  C   UNL     1     -96.155 149.442 241.125  1.00  0.00     0.006 C 
BRANCH   3   4
ATOM      4  C   UNL     1     -97.386 150.168 241.675  1.00  0.00     0.053 C 
BRANCH   4   5
ATOM      5  C   UNL     1     -98.583 149.892 240.820  1.00  0.00     0.041 C 
ATOM      6  O   UNL     1     -98.720 150.477 239.713  1.00  0.00    -0.550 OA
ATOM      7  O   UNL     1     -99.570 149.023 241.267  1.00  0.00    -0.550 OA
ENDBRANCH   4   5
ENDBRANCH   3   4
ENDBRANCH   2   3
ENDBRANCH   1   2
BRANCH   1   8
ATOM      8  C   UNL     1     -93.997 148.158 240.176  1.00  0.00     0.000 C 
BRANCH   8   9
ATOM      9  C   UNL     1     -93.426 147.430 238.946  1.00  0.00    -0.000 C 
BRANCH   9  10
ATOM     10  C   UNL     1     -94.338 147.550 237.713  1.00  0.00    -0.000 C 
BRANCH  10  11
ATOM     11  C   UNL     1     -94.974 148.945 237.584  1.00  0.00    -0.000 C 
BRANCH  11  12
ATOM     12  C   UNL     1     -96.497 148.881 237.390  1.00  0.00    -0.003 C 
ATOM     13  C   UNL     1     -97.113 147.599 237.950  1.00  0.00     0.004 C 
ENDBRANCH  11  12
ENDBRANCH  10  11
ENDBRANCH   9  10
ENDBRANCH   8   9
ENDBRANCH   1   8
TORSDOF 9
ENDMDL
MODEL 9
REMARK VINA RESULT:    -3.643      4.648      7.425
REMARK INTER + INTRA:          -5.971
REMARK INTER:                  -5.466
REMARK INTRA:                  -0.505
REMARK UNBOUND:                -0.411
REMARK SMILES CCCCCCCCCCC(=O)[O-]
REMARK SMILES IDX 7 1 8 2 9 3 10 4 11 5 12 6 13 7 6 8 5 9 4 10 3 11 2 12 1 13
REMARK H PARENT
REMARK Flexibility Score: inf
ROOT
ATOM      1  C   UNL     1     -93.390 146.397 238.914  1.00  0.00     0.000 C 
ENDROOT
BRANCH   1   2
ATOM      2  C   UNL     1     -91.976 145.996 238.471  1.00  0.00     0.000 C 
BRANCH   2   3
ATOM      3  C   UNL     1     -91.955 145.609 236.987  1.00  0.00     0.006 C 
BRANCH   3   4
ATOM      4  C   UNL     1     -93.283 145.958 236.308  1.00  0.00     0.053 C 
BRANCH   4   5
ATOM      5  C   UNL     1     -93.051 146.395 234.896  1.00  0.00     0.041 C 
ATOM      6  O   UNL     1     -91.887 146.663 234.498  1.00  0.00    -0.550 OA
ATOM      7  O   UNL     1     -94.127 146.553 234.033  1.00  0.00    -0.550 OA
ENDBRANCH   4   5
ENDBRANCH   3   4
ENDBRANCH   2   3
ENDBRANCH   1   2
BRANCH   1   8
ATOM      8  C   UNL     1     -93.487 147.875 239.326  1.00  0.00     0.000 C 
BRANCH   8   9
ATOM      9  C   UNL     1     -94.586 148.632 238.558  1.00  0.00    -0.000 C 
BRANCH   9  10
ATOM     10  C   UNL     1     -95.895 148.742 239.357  1.00  0.00    -0.000 C 
BRANCH  10  11
ATOM     11  C   UNL     1     -95.654 148.825 240.875  1.00  0.00    -0.000 C 
BRANCH  11  12
ATOM     12  C   UNL     1     -96.553 149.869 241.556  1.00  0.00    -0.003 C 
ATOM     13  C   UNL     1     -97.918 150.008 240.883  1.00  0.00     0.004 C 
ENDBRANCH  11  12
ENDBRANCH  10  11
ENDBRANCH   9  10
ENDBRANCH   8   9
ENDBRANCH   1   8
TORSDOF 9
ENDMDL
