MODEL 1
REMARK VINA RESULT:    -5.859      0.000      0.000
REMARK INTER + INTRA:          -6.373
REMARK INTER:                  -6.373
REMARK INTRA:                   0.000
REMARK UNBOUND:                 0.000
REMARK SMILES Cc1cc(O)c2c(c1)C(=O)c1cc(O)cc(O)c1C2=O
REMARK SMILES IDX 1 1 2 2 8 3 7 4 6 5 4 6 3 7 19 8 20 9 18 10 11 11 9 12 10 13
REMARK SMILES IDX 12 14 13 15 15 16 16 17 5 18 17 20 14 22
REMARK H PARENT 5 19 17 21 14 23
REMARK Flexibility Score: inf
ROOT
ATOM      1  C   UNL     1      36.499 -22.125  -2.562  1.00  0.00     0.044 C 
ATOM      2  C   UNL     1      36.869 -21.700  -1.171  1.00  0.00    -0.047 A 
ATOM      3  C   UNL     1      38.211 -21.681  -0.775  1.00  0.00     0.016 A 
ATOM      4  C   UNL     1      38.564 -21.326   0.538  1.00  0.00     0.038 A 
ATOM      5  C   UNL     1      37.558 -21.012   1.477  1.00  0.00     0.076 A 
ATOM      6  C   UNL     1      36.203 -20.988   1.058  1.00  0.00     0.127 A 
ATOM      7  C   UNL     1      35.873 -21.363  -0.249  1.00  0.00     0.050 A 
ATOM      8  C   UNL     1      37.961 -20.787   2.891  1.00  0.00     0.201 C 
ATOM      9  O   UNL     1      37.163 -21.070   3.823  1.00  0.00    -0.288 OA
ATOM     10  C   UNL     1      39.363 -20.411   3.206  1.00  0.00     0.076 A 
ATOM     11  C   UNL     1      40.368 -20.728   2.264  1.00  0.00     0.041 A 
ATOM     12  C   UNL     1      39.991 -21.279   0.940  1.00  0.00     0.194 C 
ATOM     13  O   UNL     1      40.885 -21.682   0.146  1.00  0.00    -0.289 OA
ATOM     14  C   UNL     1      41.720 -20.515   2.584  1.00  0.00     0.059 A 
ATOM     15  C   UNL     1      42.079 -19.977   3.823  1.00  0.00     0.120 A 
ATOM     16  C   UNL     1      41.088 -19.626   4.739  1.00  0.00     0.093 A 
ATOM     17  C   UNL     1      39.735 -19.809   4.437  1.00  0.00     0.131 A 
ENDROOT
BRANCH   6  18
ATOM     18  O   UNL     1      35.161 -20.569   1.889  1.00  0.00    -0.507 OA
ATOM     19  H   UNL     1      34.649 -19.709   1.754  1.00  0.00     0.293 HD
ENDBRANCH   6  18
BRANCH  17  20
ATOM     20  O   UNL     1      38.799 -19.350   5.366  1.00  0.00    -0.507 OA
ATOM     21  H   UNL     1      38.884 -19.495   6.363  1.00  0.00     0.293 HD
ENDBRANCH  17  20
BRANCH  15  22
ATOM     22  O   UNL     1      43.418 -19.776   4.149  1.00  0.00    -0.508 OA
ATOM     23  H   UNL     1      43.749 -19.856   5.103  1.00  0.00     0.293 HD
ENDBRANCH  15  22
TORSDOF 3
ENDMDL
MODEL 2
REMARK VINA RESULT:    -5.372      3.425      7.198
REMARK INTER + INTRA:          -5.843
REMARK INTER:                  -5.843
REMARK INTRA:                   0.000
REMARK UNBOUND:                 0.000
REMARK SMILES Cc1cc(O)c2c(c1)C(=O)c1cc(O)cc(O)c1C2=O
REMARK SMILES IDX 1 1 2 2 8 3 7 4 6 5 4 6 3 7 19 8 20 9 18 10 11 11 9 12 10 13
REMARK SMILES IDX 12 14 13 15 15 16 16 17 5 18 17 20 14 22
REMARK H PARENT 5 19 17 21 14 23
REMARK Flexibility Score: inf
ROOT
ATOM      1  C   UNL     1      39.471 -20.508   1.873  1.00  0.00     0.044 C 
ATOM      2  C   UNL     1      38.049 -20.715   1.440  1.00  0.00    -0.047 A 
ATOM      3  C   UNL     1      37.069 -21.049   2.382  1.00  0.00     0.016 A 
ATOM      4  C   UNL     1      35.744 -21.289   1.980  1.00  0.00     0.038 A 
ATOM      5  C   UNL     1      35.399 -21.219   0.613  1.00  0.00     0.076 A 
ATOM      6  C   UNL     1      36.386 -20.835  -0.331  1.00  0.00     0.127 A 
ATOM      7  C   UNL     1      37.703 -20.621   0.089  1.00  0.00     0.050 A 
ATOM      8  C   UNL     1      34.025 -21.623   0.213  1.00  0.00     0.201 C 
ATOM      9  O   UNL     1      33.824 -22.125  -0.925  1.00  0.00    -0.288 OA
ATOM     10  C   UNL     1      32.931 -21.610   1.218  1.00  0.00     0.076 A 
ATOM     11  C   UNL     1      33.280 -21.681   2.586  1.00  0.00     0.041 A 
ATOM     12  C   UNL     1      34.706 -21.612   2.989  1.00  0.00     0.194 C 
ATOM     13  O   UNL     1      35.031 -21.803   4.193  1.00  0.00    -0.289 OA
ATOM     14  C   UNL     1      32.274 -21.811   3.559  1.00  0.00     0.059 A 
ATOM     15  C   UNL     1      30.929 -21.855   3.186  1.00  0.00     0.120 A 
ATOM     16  C   UNL     1      30.578 -21.745   1.841  1.00  0.00     0.093 A 
ATOM     17  C   UNL     1      31.559 -21.595   0.855  1.00  0.00     0.131 A 
ENDROOT
BRANCH   6  18
ATOM     18  O   UNL     1      36.098 -20.624  -1.682  1.00  0.00    -0.507 OA
ATOM     19  H   UNL     1      36.625 -19.996  -2.274  1.00  0.00     0.293 HD
ENDBRANCH   6  18
BRANCH  17  20
ATOM     20  O   UNL     1      31.128 -21.400  -0.459  1.00  0.00    -0.507 OA
ATOM     21  H   UNL     1      30.187 -21.124  -0.703  1.00  0.00     0.293 HD
ENDBRANCH  17  20
BRANCH  15  22
ATOM     22  O   UNL     1      29.929 -21.996   4.146  1.00  0.00    -0.508 OA
ATOM     23  H   UNL     1      29.394 -22.852   4.233  1.00  0.00     0.293 HD
ENDBRANCH  15  22
TORSDOF 3
ENDMDL
MODEL 3
REMARK VINA RESULT:    -5.354      3.995      6.637
REMARK INTER + INTRA:          -5.823
REMARK INTER:                  -5.823
REMARK INTRA:                   0.000
REMARK UNBOUND:                 0.000
REMARK SMILES Cc1cc(O)c2c(c1)C(=O)c1cc(O)cc(O)c1C2=O
REMARK SMILES IDX 1 1 2 2 8 3 7 4 6 5 4 6 3 7 19 8 20 9 18 10 11 11 9 12 10 13
REMARK SMILES IDX 12 14 13 15 15 16 16 17 5 18 17 20 14 22
REMARK H PARENT 5 19 17 21 14 23
REMARK Flexibility Score: inf
ROOT
ATOM      1  C   UNL     1      28.946 -21.487   4.257  1.00  0.00     0.044 C 
ATOM      2  C   UNL     1      30.419 -21.372   3.994  1.00  0.00    -0.047 A 
ATOM      3  C   UNL     1      30.917 -21.541   2.697  1.00  0.00     0.016 A 
ATOM      4  C   UNL     1      32.298 -21.479   2.447  1.00  0.00     0.038 A 
ATOM      5  C   UNL     1      33.198 -21.270   3.514  1.00  0.00     0.076 A 
ATOM      6  C   UNL     1      32.685 -21.054   4.819  1.00  0.00     0.127 A 
ATOM      7  C   UNL     1      31.308 -21.140   5.048  1.00  0.00     0.050 A 
ATOM      8  C   UNL     1      34.655 -21.358   3.233  1.00  0.00     0.201 C 
ATOM      9  O   UNL     1      35.446 -21.750   4.132  1.00  0.00    -0.288 OA
ATOM     10  C   UNL     1      35.151 -21.168   1.845  1.00  0.00     0.076 A 
ATOM     11  C   UNL     1      34.247 -21.379   0.779  1.00  0.00     0.041 A 
ATOM     12  C   UNL     1      32.814 -21.629   1.064  1.00  0.00     0.194 C 
ATOM     13  O   UNL     1      32.029 -21.943   0.127  1.00  0.00    -0.289 OA
ATOM     14  C   UNL     1      34.710 -21.345  -0.548  1.00  0.00     0.059 A 
ATOM     15  C   UNL     1      36.056 -21.089  -0.823  1.00  0.00     0.120 A 
ATOM     16  C   UNL     1      36.942 -20.841   0.225  1.00  0.00     0.093 A 
ATOM     17  C   UNL     1      36.502 -20.850   1.553  1.00  0.00     0.131 A 
ENDROOT
BRANCH   6  18
ATOM     18  O   UNL     1      33.498 -20.720   5.905  1.00  0.00    -0.507 OA
ATOM     19  H   UNL     1      34.506 -20.663   5.852  1.00  0.00     0.293 HD
ENDBRANCH   6  18
BRANCH  17  20
ATOM     20  O   UNL     1      37.428 -20.504   2.541  1.00  0.00    -0.507 OA
ATOM     21  H   UNL     1      37.824 -19.579   2.636  1.00  0.00     0.293 HD
ENDBRANCH  17  20
BRANCH  15  22
ATOM     22  O   UNL     1      36.521 -21.066  -2.135  1.00  0.00    -0.508 OA
ATOM     23  H   UNL     1      35.900 -20.879  -2.915  1.00  0.00     0.293 HD
ENDBRANCH  15  22
TORSDOF 3
ENDMDL
MODEL 4
REMARK VINA RESULT:    -5.211      1.587      6.302
REMARK INTER + INTRA:          -5.668
REMARK INTER:                  -5.668
REMARK INTRA:                   0.000
REMARK UNBOUND:                 0.000
REMARK SMILES Cc1cc(O)c2c(c1)C(=O)c1cc(O)cc(O)c1C2=O
REMARK SMILES IDX 1 1 2 2 8 3 7 4 6 5 4 6 3 7 19 8 20 9 18 10 11 11 9 12 10 13
REMARK SMILES IDX 12 14 13 15 15 16 16 17 5 18 17 20 14 22
REMARK H PARENT 5 19 17 21 14 23
REMARK Flexibility Score: inf
ROOT
ATOM      1  C   UNL     1      41.516 -19.465   5.334  1.00  0.00     0.044 C 
ATOM      2  C   UNL     1      40.816 -19.911   4.084  1.00  0.00    -0.047 A 
ATOM      3  C   UNL     1      39.468 -20.286   4.128  1.00  0.00     0.016 A 
ATOM      4  C   UNL     1      38.816 -20.747   2.972  1.00  0.00     0.038 A 
ATOM      5  C   UNL     1      39.529 -20.861   1.759  1.00  0.00     0.076 A 
ATOM      6  C   UNL     1      40.882 -20.436   1.709  1.00  0.00     0.127 A 
ATOM      7  C   UNL     1      41.516 -19.999   2.877  1.00  0.00     0.050 A 
ATOM      8  C   UNL     1      38.846 -21.490   0.597  1.00  0.00     0.201 C 
ATOM      9  O   UNL     1      39.519 -22.124  -0.258  1.00  0.00    -0.288 OA
ATOM     10  C   UNL     1      37.362 -21.533   0.550  1.00  0.00     0.076 A 
ATOM     11  C   UNL     1      36.651 -21.420   1.767  1.00  0.00     0.041 A 
ATOM     12  C   UNL     1      37.379 -21.113   3.021  1.00  0.00     0.194 C 
ATOM     13  O   UNL     1      36.770 -21.137   4.126  1.00  0.00    -0.289 OA
ATOM     14  C   UNL     1      35.256 -21.593   1.781  1.00  0.00     0.059 A 
ATOM     15  C   UNL     1      34.563 -21.862   0.598  1.00  0.00     0.120 A 
ATOM     16  C   UNL     1      35.256 -21.935  -0.611  1.00  0.00     0.093 A 
ATOM     17  C   UNL     1      36.641 -21.746  -0.654  1.00  0.00     0.131 A 
ENDROOT
BRANCH   6  18
ATOM     18  O   UNL     1      41.620 -20.400   0.523  1.00  0.00    -0.507 OA
ATOM     19  H   UNL     1      41.206 -20.272  -0.389  1.00  0.00     0.293 HD
ENDBRANCH   6  18
BRANCH  17  20
ATOM     20  O   UNL     1      37.252 -21.743  -1.911  1.00  0.00    -0.507 OA
ATOM     21  H   UNL     1      37.366 -22.571  -2.478  1.00  0.00     0.293 HD
ENDBRANCH  17  20
BRANCH  15  22
ATOM     22  O   UNL     1      33.183 -22.047   0.609  1.00  0.00    -0.508 OA
ATOM     23  H   UNL     1      32.761 -22.916   0.301  1.00  0.00     0.293 HD
ENDBRANCH  15  22
TORSDOF 3
ENDMDL
MODEL 5
REMARK VINA RESULT:    -5.065      1.997      2.983
REMARK INTER + INTRA:          -5.509
REMARK INTER:                  -5.509
REMARK INTRA:                   0.000
REMARK UNBOUND:                 0.000
REMARK SMILES Cc1cc(O)c2c(c1)C(=O)c1cc(O)cc(O)c1C2=O
REMARK SMILES IDX 1 1 2 2 8 3 7 4 6 5 4 6 3 7 19 8 20 9 18 10 11 11 9 12 10 13
REMARK SMILES IDX 12 14 13 15 15 16 16 17 5 18 17 20 14 22
REMARK H PARENT 5 19 17 21 14 23
REMARK Flexibility Score: inf
ROOT
ATOM      1  C   UNL     1      32.022 -22.111  -0.397  1.00  0.00     0.044 C 
ATOM      2  C   UNL     1      33.198 -21.828   0.491  1.00  0.00    -0.047 A 
ATOM      3  C   UNL     1      34.487 -21.759  -0.051  1.00  0.00     0.016 A 
ATOM      4  C   UNL     1      35.600 -21.539   0.778  1.00  0.00     0.038 A 
ATOM      5  C   UNL     1      35.425 -21.411   2.173  1.00  0.00     0.076 A 
ATOM      6  C   UNL     1      34.112 -21.436   2.711  1.00  0.00     0.127 A 
ATOM      7  C   UNL     1      33.021 -21.676   1.869  1.00  0.00     0.050 A 
ATOM      8  C   UNL     1      36.638 -21.328   3.029  1.00  0.00     0.201 C 
ATOM      9  O   UNL     1      36.607 -21.776   4.206  1.00  0.00    -0.288 OA
ATOM     10  C   UNL     1      37.929 -20.892   2.438  1.00  0.00     0.076 A 
ATOM     11  C   UNL     1      38.101 -21.022   1.041  1.00  0.00     0.041 A 
ATOM     12  C   UNL     1      36.959 -21.437   0.192  1.00  0.00     0.194 C 
ATOM     13  O   UNL     1      37.138 -21.678  -1.034  1.00  0.00    -0.289 OA
ATOM     14  C   UNL     1      39.353 -20.751   0.462  1.00  0.00     0.059 A 
ATOM     15  C   UNL     1      40.427 -20.340   1.255  1.00  0.00     0.120 A 
ATOM     16  C   UNL     1      40.250 -20.172   2.629  1.00  0.00     0.093 A 
ATOM     17  C   UNL     1      39.009 -20.415   3.226  1.00  0.00     0.131 A 
ENDROOT
BRANCH   6  18
ATOM     18  O   UNL     1      33.844 -21.195   4.061  1.00  0.00    -0.507 OA
ATOM     19  H   UNL     1      33.312 -21.825   4.645  1.00  0.00     0.293 HD
ENDBRANCH   6  18
BRANCH  17  20
ATOM     20  O   UNL     1      38.884 -20.138   4.589  1.00  0.00    -0.507 OA
ATOM     21  H   UNL     1      38.366 -20.720   5.232  1.00  0.00     0.293 HD
ENDBRANCH  17  20
BRANCH  15  22
ATOM     22  O   UNL     1      41.672 -20.082   0.687  1.00  0.00    -0.508 OA
ATOM     23  H   UNL     1      41.798 -19.353  -0.006  1.00  0.00     0.293 HD
ENDBRANCH  15  22
TORSDOF 3
ENDMDL
MODEL 6
REMARK VINA RESULT:    -4.976      2.085      4.158
REMARK INTER + INTRA:          -5.413
REMARK INTER:                  -5.413
REMARK INTRA:                   0.000
REMARK UNBOUND:                 0.000
REMARK SMILES Cc1cc(O)c2c(c1)C(=O)c1cc(O)cc(O)c1C2=O
REMARK SMILES IDX 1 1 2 2 8 3 7 4 6 5 4 6 3 7 19 8 20 9 18 10 11 11 9 12 10 13
REMARK SMILES IDX 12 14 13 15 15 16 16 17 5 18 17 20 14 22
REMARK H PARENT 5 19 17 21 14 23
REMARK Flexibility Score: inf
ROOT
ATOM      1  C   UNL     1      36.209 -20.628   1.622  1.00  0.00     0.044 C 
ATOM      2  C   UNL     1      37.702 -20.748   1.720  1.00  0.00    -0.047 A 
ATOM      3  C   UNL     1      38.377 -20.230   2.831  1.00  0.00     0.016 A 
ATOM      4  C   UNL     1      39.778 -20.298   2.913  1.00  0.00     0.038 A 
ATOM      5  C   UNL     1      40.518 -20.869   1.854  1.00  0.00     0.076 A 
ATOM      6  C   UNL     1      39.826 -21.434   0.752  1.00  0.00     0.127 A 
ATOM      7  C   UNL     1      38.432 -21.337   0.684  1.00  0.00     0.050 A 
ATOM      8  C   UNL     1      42.002 -20.789   1.910  1.00  0.00     0.201 C 
ATOM      9  O   UNL     1      42.668 -20.732   0.842  1.00  0.00    -0.288 OA
ATOM     10  C   UNL     1      42.680 -20.586   3.216  1.00  0.00     0.076 A 
ATOM     11  C   UNL     1      41.937 -20.014   4.273  1.00  0.00     0.041 A 
ATOM     12  C   UNL     1      40.483 -19.774   4.108  1.00  0.00     0.194 C 
ATOM     13  O   UNL     1      39.841 -19.148   4.996  1.00  0.00    -0.289 OA
ATOM     14  C   UNL     1      42.578 -19.679   5.478  1.00  0.00     0.059 A 
ATOM     15  C   UNL     1      43.943 -19.921   5.646  1.00  0.00     0.120 A 
ATOM     16  C   UNL     1      44.672 -20.523   4.620  1.00  0.00     0.093 A 
ATOM     17  C   UNL     1      44.053 -20.884   3.419  1.00  0.00     0.131 A 
ENDROOT
BRANCH   6  18
ATOM     18  O   UNL     1      40.474 -22.125  -0.274  1.00  0.00    -0.507 OA
ATOM     19  H   UNL     1      41.054 -22.938  -0.122  1.00  0.00     0.293 HD
ENDBRANCH   6  18
BRANCH  17  20
ATOM     20  O   UNL     1      44.826 -21.564   2.474  1.00  0.00    -0.507 OA
ATOM     21  H   UNL     1      44.714 -22.546   2.263  1.00  0.00     0.293 HD
ENDBRANCH  17  20
BRANCH  15  22
ATOM     22  O   UNL     1      44.585 -19.580   6.834  1.00  0.00    -0.508 OA
ATOM     23  H   UNL     1      44.505 -20.156   7.665  1.00  0.00     0.293 HD
ENDBRANCH  15  22
TORSDOF 3
ENDMDL
MODEL 7
REMARK VINA RESULT:    -4.841      1.826      6.673
REMARK INTER + INTRA:          -5.265
REMARK INTER:                  -5.265
REMARK INTRA:                   0.000
REMARK UNBOUND:                 0.000
REMARK SMILES Cc1cc(O)c2c(c1)C(=O)c1cc(O)cc(O)c1C2=O
REMARK SMILES IDX 1 1 2 2 8 3 7 4 6 5 4 6 3 7 19 8 20 9 18 10 11 11 9 12 10 13
REMARK SMILES IDX 12 14 13 15 15 16 16 17 5 18 17 20 14 22
REMARK H PARENT 5 19 17 21 14 23
REMARK Flexibility Score: inf
ROOT
ATOM      1  C   UNL     1      40.625 -19.125   9.125  1.00  0.00     0.044 C 
ATOM      2  C   UNL     1      40.856 -19.365   7.662  1.00  0.00    -0.047 A 
ATOM      3  C   UNL     1      39.811 -19.820   6.850  1.00  0.00     0.016 A 
ATOM      4  C   UNL     1      40.029 -20.090   5.488  1.00  0.00     0.038 A 
ATOM      5  C   UNL     1      41.318 -19.928   4.936  1.00  0.00     0.076 A 
ATOM      6  C   UNL     1      42.363 -19.424   5.752  1.00  0.00     0.127 A 
ATOM      7  C   UNL     1      42.128 -19.181   7.110  1.00  0.00     0.050 A 
ATOM      8  C   UNL     1      41.541 -20.365   3.532  1.00  0.00     0.201 C 
ATOM      9  O   UNL     1      42.675 -20.784   3.178  1.00  0.00    -0.288 OA
ATOM     10  C   UNL     1      40.386 -20.484   2.605  1.00  0.00     0.076 A 
ATOM     11  C   UNL     1      39.097 -20.646   3.162  1.00  0.00     0.041 A 
ATOM     12  C   UNL     1      38.908 -20.541   4.628  1.00  0.00     0.194 C 
ATOM     13  O   UNL     1      37.786 -20.811   5.141  1.00  0.00    -0.289 OA
ATOM     14  C   UNL     1      37.999 -20.900   2.322  1.00  0.00     0.059 A 
ATOM     15  C   UNL     1      38.169 -20.979   0.937  1.00  0.00     0.120 A 
ATOM     16  C   UNL     1      39.432 -20.780   0.381  1.00  0.00     0.093 A 
ATOM     17  C   UNL     1      40.537 -20.506   1.194  1.00  0.00     0.131 A 
ENDROOT
BRANCH   6  18
ATOM     18  O   UNL     1      43.632 -19.120   5.254  1.00  0.00    -0.507 OA
ATOM     19  H   UNL     1      44.116 -19.688   4.573  1.00  0.00     0.293 HD
ENDBRANCH   6  18
BRANCH  17  20
ATOM     20  O   UNL     1      41.751 -20.229   0.560  1.00  0.00    -0.507 OA
ATOM     21  H   UNL     1      41.936 -20.444  -0.410  1.00  0.00     0.293 HD
ENDBRANCH  17  20
BRANCH  15  22
ATOM     22  O   UNL     1      37.085 -21.243   0.102  1.00  0.00    -0.508 OA
ATOM     23  H   UNL     1      36.292 -20.615   0.050  1.00  0.00     0.293 HD
ENDBRANCH  15  22
TORSDOF 3
ENDMDL
MODEL 8
REMARK VINA RESULT:    -4.774      3.001      5.617
REMARK INTER + INTRA:          -5.193
REMARK INTER:                  -5.193
REMARK INTRA:                   0.000
REMARK UNBOUND:                 0.000
REMARK SMILES Cc1cc(O)c2c(c1)C(=O)c1cc(O)cc(O)c1C2=O
REMARK SMILES IDX 1 1 2 2 8 3 7 4 6 5 4 6 3 7 19 8 20 9 18 10 11 11 9 12 10 13
REMARK SMILES IDX 12 14 13 15 15 16 16 17 5 18 17 20 14 22
REMARK H PARENT 5 19 17 21 14 23
REMARK Flexibility Score: inf
ROOT
ATOM      1  C   UNL     1      36.870 -21.795  -2.978  1.00  0.00     0.044 C 
ATOM      2  C   UNL     1      36.775 -21.796  -1.481  1.00  0.00    -0.047 A 
ATOM      3  C   UNL     1      35.534 -21.629  -0.855  1.00  0.00     0.016 A 
ATOM      4  C   UNL     1      35.441 -21.584   0.547  1.00  0.00     0.038 A 
ATOM      5  C   UNL     1      36.609 -21.681   1.334  1.00  0.00     0.076 A 
ATOM      6  C   UNL     1      37.857 -21.896   0.696  1.00  0.00     0.127 A 
ATOM      7  C   UNL     1      37.929 -21.918  -0.701  1.00  0.00     0.050 A 
ATOM      8  C   UNL     1      36.486 -21.482   2.802  1.00  0.00     0.201 C 
ATOM      9  O   UNL     1      37.449 -20.996   3.452  1.00  0.00    -0.288 OA
ATOM     10  C   UNL     1      35.170 -21.676   3.465  1.00  0.00     0.076 A 
ATOM     11  C   UNL     1      34.003 -21.577   2.673  1.00  0.00     0.041 A 
ATOM     12  C   UNL     1      34.118 -21.438   1.202  1.00  0.00     0.194 C 
ATOM     13  O   UNL     1      33.088 -21.222   0.506  1.00  0.00    -0.289 OA
ATOM     14  C   UNL     1      32.738 -21.617   3.285  1.00  0.00     0.059 A 
ATOM     15  C   UNL     1      32.624 -21.769   4.669  1.00  0.00     0.120 A 
ATOM     16  C   UNL     1      33.773 -21.907   5.448  1.00  0.00     0.093 A 
ATOM     17  C   UNL     1      35.042 -21.891   4.862  1.00  0.00     0.131 A 
ENDROOT
BRANCH   6  18
ATOM     18  O   UNL     1      39.039 -22.125   1.405  1.00  0.00    -0.507 OA
ATOM     19  H   UNL     1      39.589 -21.390   1.827  1.00  0.00     0.293 HD
ENDBRANCH   6  18
BRANCH  17  20
ATOM     20  O   UNL     1      36.140 -22.125   5.694  1.00  0.00    -0.507 OA
ATOM     21  H   UNL     1      37.098 -22.107   5.373  1.00  0.00     0.293 HD
ENDBRANCH  17  20
BRANCH  15  22
ATOM     22  O   UNL     1      31.373 -21.797   5.280  1.00  0.00    -0.508 OA
ATOM     23  H   UNL     1      30.667 -22.474   5.013  1.00  0.00     0.293 HD
ENDBRANCH  15  22
TORSDOF 3
ENDMDL
MODEL 9
REMARK VINA RESULT:    -4.649      1.904      5.610
REMARK INTER + INTRA:          -5.056
REMARK INTER:                  -5.056
REMARK INTRA:                   0.000
REMARK UNBOUND:                 0.000
REMARK SMILES Cc1cc(O)c2c(c1)C(=O)c1cc(O)cc(O)c1C2=O
REMARK SMILES IDX 1 1 2 2 8 3 7 4 6 5 4 6 3 7 19 8 20 9 18 10 11 11 9 12 10 13
REMARK SMILES IDX 12 14 13 15 15 16 16 17 5 18 17 20 14 22
REMARK H PARENT 5 19 17 21 14 23
REMARK Flexibility Score: inf
ROOT
ATOM      1  C   UNL     1      44.037 -20.455   4.274  1.00  0.00     0.044 C 
ATOM      2  C   UNL     1      42.556 -20.689   4.218  1.00  0.00    -0.047 A 
ATOM      3  C   UNL     1      41.826 -20.306   3.087  1.00  0.00     0.016 A 
ATOM      4  C   UNL     1      40.432 -20.481   3.042  1.00  0.00     0.038 A 
ATOM      5  C   UNL     1      39.754 -21.022   4.156  1.00  0.00     0.076 A 
ATOM      6  C   UNL     1      40.504 -21.451   5.281  1.00  0.00     0.127 A 
ATOM      7  C   UNL     1      41.888 -21.248   5.312  1.00  0.00     0.050 A 
ATOM      8  C   UNL     1      38.268 -21.054   4.127  1.00  0.00     0.201 C 
ATOM      9  O   UNL     1      37.618 -20.964   5.202  1.00  0.00    -0.288 OA
ATOM     10  C   UNL     1      37.555 -21.000   2.825  1.00  0.00     0.076 A 
ATOM     11  C   UNL     1      38.236 -20.457   1.712  1.00  0.00     0.041 A 
ATOM     12  C   UNL     1      39.671 -20.102   1.827  1.00  0.00     0.194 C 
ATOM     13  O   UNL     1      40.250 -19.500   0.880  1.00  0.00    -0.289 OA
ATOM     14  C   UNL     1      37.552 -20.261   0.500  1.00  0.00     0.059 A 
ATOM     15  C   UNL     1      36.206 -20.614   0.381  1.00  0.00     0.120 A 
ATOM     16  C   UNL     1      35.541 -21.187   1.465  1.00  0.00     0.093 A 
ATOM     17  C   UNL     1      36.204 -21.411   2.675  1.00  0.00     0.131 A 
ENDROOT
BRANCH   6  18
ATOM     18  O   UNL     1      39.926 -22.107   6.371  1.00  0.00    -0.507 OA
ATOM     19  H   UNL     1      39.644 -23.077   6.354  1.00  0.00     0.293 HD
ENDBRANCH   6  18
BRANCH  17  20
ATOM     20  O   UNL     1      35.499 -22.070   3.685  1.00  0.00    -0.507 OA
ATOM     21  H   UNL     1      35.126 -23.005   3.587  1.00  0.00     0.293 HD
ENDBRANCH  17  20
BRANCH  15  22
ATOM     22  O   UNL     1      35.521 -20.411  -0.815  1.00  0.00    -0.508 OA
ATOM     23  H   UNL     1      34.795 -21.047  -1.124  1.00  0.00     0.293 HD
ENDBRANCH  15  22
TORSDOF 3
ENDMDL
