MODEL 1
REMARK VINA RESULT:    -4.718      0.000      0.000
REMARK INTER + INTRA:          -7.384
REMARK INTER:                  -7.200
REMARK INTRA:                  -0.185
REMARK UNBOUND:                -0.185
REMARK SMILES CC1=CCC[C@@H](C)C(=O)C[C@H](C(C)C)C(=O)C1
REMARK SMILES IDX 8 1 9 2 6 3 7 4 5 5 4 6 3 7 2 8 1 9 10 11 11 12 15 13 16 14
REMARK SMILES IDX 17 15 12 17 13 18 14 19
REMARK H PARENT
REMARK Flexibility Score: 70.00
ROOT
ATOM      1  C   UNL     1     -12.146 -15.968  27.861  1.00  0.00     0.136 C 
ATOM      2  O   UNL     1     -13.094 -15.585  27.189  1.00  0.00    -0.299 OA
ENDROOT
BRANCH   1   3
ATOM      3  C   UNL     1     -11.313 -17.153  27.404  1.00  0.00     0.053 C 
ATOM      4  C   UNL     1     -10.645 -16.909  26.041  1.00  0.00     0.016 C 
BRANCH   3   5
ATOM      5  C   UNL     1     -12.139 -18.456  27.405  1.00  0.00     0.015 C 
BRANCH   5   6
ATOM      6  C   UNL     1     -12.554 -18.927  28.813  1.00  0.00     0.028 C 
BRANCH   6   7
ATOM      7  C   UNL     1     -11.343 -19.161  29.679  1.00  0.00    -0.028 C 
ATOM      8  C   UNL     1     -11.175 -18.651  30.922  1.00  0.00    -0.070 CG0
ATOM      9  C   UNL     1      -9.875 -18.932  31.632  1.00  0.00     0.039 C 
ATOM     10  G   UNL     1     -12.242 -17.831  31.633  1.00  0.00     0.000 G0
ENDBRANCH   6   7
ENDBRANCH   5   6
ENDBRANCH   3   5
ENDBRANCH   1   3
BRANCH   1  11
ATOM     11  C   UNL     1     -11.825 -15.247  29.148  1.00  0.00     0.087 C 
BRANCH  11  12
ATOM     12  C   UNL     1     -12.793 -15.639  30.296  1.00  0.00     0.066 C 
BRANCH  12  13
ATOM     13  C   UNL     1     -12.053 -16.344  31.423  1.00  0.00     0.140 C 
ATOM     14  O   UNL     1     -11.364 -15.694  32.199  1.00  0.00    -0.299 OA
BRANCH  13  15
ATOM     15  C   UNL     1     -12.224 -17.826  31.655  1.00  0.00     0.106 CG0
ATOM     16  G   UNL     1     -11.169 -18.653  30.933  1.00  0.00     0.000 G0
ENDBRANCH  13  15
ENDBRANCH  12  13
BRANCH  12  17
ATOM     17  C   UNL     1     -13.625 -14.436  30.846  1.00  0.00    -0.006 C 
ATOM     18  C   UNL     1     -14.478 -13.722  29.782  1.00  0.00     0.008 C 
ATOM     19  C   UNL     1     -14.515 -14.860  32.027  1.00  0.00     0.008 C 
ENDBRANCH  12  17
ENDBRANCH  11  12
ENDBRANCH   1  11
TORSDOF 1
ENDMDL
MODEL 2
REMARK VINA RESULT:    -4.687      1.355      2.059
REMARK INTER + INTRA:          -7.337
REMARK INTER:                  -7.533
REMARK INTRA:                   0.196
REMARK UNBOUND:                -0.185
REMARK SMILES CC1=CCC[C@@H](C)C(=O)C[C@H](C(C)C)C(=O)C1
REMARK SMILES IDX 8 1 9 2 6 3 7 4 5 5 4 6 3 7 2 8 1 9 10 11 11 12 15 13 16 14
REMARK SMILES IDX 17 15 12 17 13 18 14 19
REMARK H PARENT
REMARK Flexibility Score: 70.00
ROOT
ATOM      1  C   UNL     1     -12.656 -15.406  27.526  1.00  0.00     0.136 C 
ATOM      2  O   UNL     1     -13.523 -15.314  26.668  1.00  0.00    -0.299 OA
ENDROOT
BRANCH   1   3
ATOM      3  C   UNL     1     -11.609 -16.503  27.442  1.00  0.00     0.053 C 
ATOM      4  C   UNL     1     -11.252 -16.862  25.990  1.00  0.00     0.016 C 
BRANCH   3   5
ATOM      5  C   UNL     1     -12.033 -17.748  28.246  1.00  0.00     0.015 C 
BRANCH   5   6
ATOM      6  C   UNL     1     -11.176 -17.998  29.503  1.00  0.00     0.028 C 
BRANCH   6   7
ATOM      7  C   UNL     1     -12.047 -18.210  30.714  1.00  0.00    -0.028 C 
ATOM      8  C   UNL     1     -12.515 -17.220  31.510  1.00  0.00    -0.070 CG0
ATOM      9  C   UNL     1     -13.327 -17.609  32.720  1.00  0.00     0.039 C 
ATOM     10  G   UNL     1     -12.274 -15.744  31.228  1.00  0.00     0.000 G0
ENDBRANCH   6   7
ENDBRANCH   5   6
ENDBRANCH   3   5
ENDBRANCH   1   3
BRANCH   1  11
ATOM     11  C   UNL     1     -12.648 -14.415  28.665  1.00  0.00     0.087 C 
BRANCH  11  12
ATOM     12  C   UNL     1     -13.921 -14.526  29.546  1.00  0.00     0.066 C 
BRANCH  12  13
ATOM     13  C   UNL     1     -13.578 -14.998  30.951  1.00  0.00     0.140 C 
ATOM     14  O   UNL     1     -14.385 -14.846  31.859  1.00  0.00    -0.299 OA
BRANCH  13  15
ATOM     15  C   UNL     1     -12.288 -15.732  31.228  1.00  0.00     0.106 CG0
ATOM     16  G   UNL     1     -12.510 -17.213  31.502  1.00  0.00     0.000 G0
ENDBRANCH  13  15
ENDBRANCH  12  13
BRANCH  12  17
ATOM     17  C   UNL     1     -14.761 -13.209  29.594  1.00  0.00    -0.006 C 
ATOM     18  C   UNL     1     -14.299 -12.131  28.596  1.00  0.00     0.008 C 
ATOM     19  C   UNL     1     -16.261 -13.490  29.397  1.00  0.00     0.008 C 
ENDBRANCH  12  17
ENDBRANCH  11  12
ENDBRANCH   1  11
TORSDOF 1
ENDMDL
MODEL 3
REMARK VINA RESULT:    -4.585      2.095      5.073
REMARK INTER + INTRA:          -7.182
REMARK INTER:                  -7.060
REMARK INTRA:                  -0.121
REMARK UNBOUND:                -0.185
REMARK SMILES CC1=CCC[C@@H](C)C(=O)C[C@H](C(C)C)C(=O)C1
REMARK SMILES IDX 8 1 9 2 6 3 7 4 5 5 4 6 3 7 2 8 1 9 10 11 11 12 15 13 16 14
REMARK SMILES IDX 17 15 12 17 13 18 14 19
REMARK H PARENT
REMARK Flexibility Score: 70.00
ROOT
ATOM      1  C   UNL     1     -12.879 -16.774  32.069  1.00  0.00     0.136 C 
ATOM      2  O   UNL     1     -13.692 -17.460  32.674  1.00  0.00    -0.299 OA
ENDROOT
BRANCH   1   3
ATOM      3  C   UNL     1     -13.120 -15.285  31.889  1.00  0.00     0.053 C 
ATOM      4  C   UNL     1     -13.694 -14.626  33.154  1.00  0.00     0.016 C 
BRANCH   3   5
ATOM      5  C   UNL     1     -13.997 -15.001  30.653  1.00  0.00     0.015 C 
BRANCH   5   6
ATOM      6  C   UNL     1     -13.294 -14.158  29.571  1.00  0.00     0.028 C 
BRANCH   6   7
ATOM      7  C   UNL     1     -13.249 -14.897  28.260  1.00  0.00    -0.028 C 
ATOM      8  C   UNL     1     -12.198 -15.632  27.824  1.00  0.00    -0.070 CG0
ATOM      9  C   UNL     1     -12.291 -16.261  26.457  1.00  0.00     0.039 C 
ATOM     10  G   UNL     1     -10.946 -15.863  28.658  1.00  0.00     0.000 G0
ENDBRANCH   6   7
ENDBRANCH   5   6
ENDBRANCH   3   5
ENDBRANCH   1   3
BRANCH   1  11
ATOM     11  C   UNL     1     -11.644 -17.432  31.505  1.00  0.00     0.087 C 
BRANCH  11  12
ATOM     12  C   UNL     1     -11.856 -17.926  30.049  1.00  0.00     0.066 C 
BRANCH  12  13
ATOM     13  C   UNL     1     -10.830 -17.315  29.106  1.00  0.00     0.140 C 
ATOM     14  O   UNL     1      -9.938 -18.013  28.643  1.00  0.00    -0.299 OA
BRANCH  13  15
ATOM     15  C   UNL     1     -10.945 -15.876  28.663  1.00  0.00     0.106 CG0
ATOM     16  G   UNL     1     -12.180 -15.629  27.808  1.00  0.00     0.000 G0
ENDBRANCH  13  15
ENDBRANCH  12  13
BRANCH  12  17
ATOM     17  C   UNL     1     -11.873 -19.483  29.917  1.00  0.00    -0.006 C 
ATOM     18  C   UNL     1     -12.064 -20.225  31.252  1.00  0.00     0.008 C 
ATOM     19  C   UNL     1     -12.932 -19.951  28.904  1.00  0.00     0.008 C 
ENDBRANCH  12  17
ENDBRANCH  11  12
ENDBRANCH   1  11
TORSDOF 1
ENDMDL
MODEL 4
REMARK VINA RESULT:    -4.288      1.937      4.416
REMARK INTER + INTRA:          -6.729
REMARK INTER:                  -7.466
REMARK INTRA:                   0.737
REMARK UNBOUND:                -0.185
REMARK SMILES CC1=CCC[C@@H](C)C(=O)C[C@H](C(C)C)C(=O)C1
REMARK SMILES IDX 8 1 9 2 6 3 7 4 5 5 4 6 3 7 2 8 1 9 10 11 11 12 15 13 16 14
REMARK SMILES IDX 17 15 12 17 13 18 14 19
REMARK H PARENT
REMARK Flexibility Score: 70.00
ROOT
ATOM      1  C   UNL     1     -13.367 -14.991  30.767  1.00  0.00     0.136 C 
ATOM      2  O   UNL     1     -14.208 -15.250  31.617  1.00  0.00    -0.299 OA
ENDROOT
BRANCH   1   3
ATOM      3  C   UNL     1     -13.663 -13.966  29.686  1.00  0.00     0.053 C 
ATOM      4  C   UNL     1     -15.168 -13.832  29.402  1.00  0.00     0.016 C 
BRANCH   3   5
ATOM      5  C   UNL     1     -12.866 -14.259  28.399  1.00  0.00     0.015 C 
BRANCH   5   6
ATOM      6  C   UNL     1     -13.417 -15.446  27.583  1.00  0.00     0.028 C 
BRANCH   6   7
ATOM      7  C   UNL     1     -12.402 -15.924  26.579  1.00  0.00    -0.028 C 
ATOM      8  C   UNL     1     -11.652 -17.044  26.714  1.00  0.00    -0.070 CG0
ATOM      9  C   UNL     1     -10.635 -17.349  25.643  1.00  0.00     0.039 C 
ATOM     10  G   UNL     1     -11.804 -18.008  27.881  1.00  0.00     0.000 G0
ENDBRANCH   6   7
ENDBRANCH   5   6
ENDBRANCH   3   5
ENDBRANCH   1   3
BRANCH   1  11
ATOM     11  C   UNL     1     -12.039 -15.708  30.811  1.00  0.00     0.087 C 
BRANCH  11  12
ATOM     12  C   UNL     1     -12.155 -17.184  30.346  1.00  0.00     0.066 C 
BRANCH  12  13
ATOM     13  C   UNL     1     -11.237 -17.463  29.166  1.00  0.00     0.140 C 
ATOM     14  O   UNL     1     -10.029 -17.301  29.283  1.00  0.00    -0.299 OA
BRANCH  13  15
ATOM     15  C   UNL     1     -11.783 -18.022  27.874  1.00  0.00     0.106 CG0
ATOM     16  G   UNL     1     -11.655 -17.042  26.717  1.00  0.00     0.000 G0
ENDBRANCH  13  15
ENDBRANCH  12  13
BRANCH  12  17
ATOM     17  C   UNL     1     -11.914 -18.218  31.493  1.00  0.00    -0.006 C 
ATOM     18  C   UNL     1     -12.436 -19.633  31.184  1.00  0.00     0.008 C 
ATOM     19  C   UNL     1     -10.428 -18.287  31.887  1.00  0.00     0.008 C 
ENDBRANCH  12  17
ENDBRANCH  11  12
ENDBRANCH   1  11
TORSDOF 1
ENDMDL
MODEL 5
REMARK VINA RESULT:    -4.026      1.685      4.034
REMARK INTER + INTRA:          -6.328
REMARK INTER:                  -6.414
REMARK INTRA:                   0.086
REMARK UNBOUND:                -0.185
REMARK SMILES CC1=CCC[C@@H](C)C(=O)C[C@H](C(C)C)C(=O)C1
REMARK SMILES IDX 8 1 9 2 6 3 7 4 5 5 4 6 3 7 2 8 1 9 10 11 11 12 15 13 16 14
REMARK SMILES IDX 17 15 12 17 13 18 14 19
REMARK H PARENT
REMARK Flexibility Score: 70.00
ROOT
ATOM      1  C   UNL     1     -11.533 -17.631  28.005  1.00  0.00     0.136 C 
ATOM      2  O   UNL     1     -10.330 -17.813  28.125  1.00  0.00    -0.299 OA
ENDROOT
BRANCH   1   3
ATOM      3  C   UNL     1     -12.090 -17.019  26.731  1.00  0.00     0.053 C 
ATOM      4  C   UNL     1     -11.003 -16.784  25.670  1.00  0.00     0.016 C 
BRANCH   3   5
ATOM      5  C   UNL     1     -12.884 -15.730  27.025  1.00  0.00     0.015 C 
BRANCH   5   6
ATOM      6  C   UNL     1     -12.349 -14.933  28.232  1.00  0.00     0.028 C 
BRANCH   6   7
ATOM      7  C   UNL     1     -13.477 -14.507  29.136  1.00  0.00    -0.028 C 
ATOM      8  C   UNL     1     -13.518 -14.724  30.472  1.00  0.00    -0.070 CG0
ATOM      9  C   UNL     1     -14.750 -14.287  31.223  1.00  0.00     0.039 C 
ATOM     10  G   UNL     1     -12.374 -15.367  31.243  1.00  0.00     0.000 G0
ENDBRANCH   6   7
ENDBRANCH   5   6
ENDBRANCH   3   5
ENDBRANCH   1   3
BRANCH   1  11
ATOM     11  C   UNL     1     -12.448 -18.019  29.141  1.00  0.00     0.087 C 
BRANCH  11  12
ATOM     12  C   UNL     1     -11.771 -17.837  30.526  1.00  0.00     0.066 C 
BRANCH  12  13
ATOM     13  C   UNL     1     -12.552 -16.864  31.396  1.00  0.00     0.140 C 
ATOM     14  O   UNL     1     -13.276 -17.289  32.287  1.00  0.00    -0.299 OA
BRANCH  13  15
ATOM     15  C   UNL     1     -12.381 -15.373  31.236  1.00  0.00     0.106 CG0
ATOM     16  G   UNL     1     -13.533 -14.734  30.476  1.00  0.00     0.000 G0
ENDBRANCH  13  15
ENDBRANCH  12  13
BRANCH  12  17
ATOM     17  C   UNL     1     -11.528 -19.184  31.281  1.00  0.00    -0.006 C 
ATOM     18  C   UNL     1     -12.153 -20.412  30.593  1.00  0.00     0.008 C 
ATOM     19  C   UNL     1     -10.029 -19.431  31.524  1.00  0.00     0.008 C 
ENDBRANCH  12  17
ENDBRANCH  11  12
ENDBRANCH   1  11
TORSDOF 1
ENDMDL
MODEL 6
REMARK VINA RESULT:    -4.006      1.956      3.711
REMARK INTER + INTRA:          -6.299
REMARK INTER:                  -6.759
REMARK INTRA:                   0.460
REMARK UNBOUND:                -0.185
REMARK SMILES CC1=CCC[C@@H](C)C(=O)C[C@H](C(C)C)C(=O)C1
REMARK SMILES IDX 8 1 9 2 6 3 7 4 5 5 4 6 3 7 2 8 1 9 10 11 11 12 15 13 16 14
REMARK SMILES IDX 17 15 12 17 13 18 14 19
REMARK H PARENT
REMARK Flexibility Score: 70.00
ROOT
ATOM      1  C   UNL     1     -10.887 -18.275  30.672  1.00  0.00     0.136 C 
ATOM      2  O   UNL     1      -9.966 -18.450  29.885  1.00  0.00    -0.299 OA
ENDROOT
BRANCH   1   3
ATOM      3  C   UNL     1     -12.030 -19.272  30.747  1.00  0.00     0.053 C 
ATOM      4  C   UNL     1     -11.759 -20.400  31.755  1.00  0.00     0.016 C 
BRANCH   3   5
ATOM      5  C   UNL     1     -12.382 -19.830  29.353  1.00  0.00     0.015 C 
BRANCH   5   6
ATOM      6  C   UNL     1     -13.157 -18.837  28.464  1.00  0.00     0.028 C 
BRANCH   6   7
ATOM      7  C   UNL     1     -12.255 -18.236  27.418  1.00  0.00    -0.028 C 
ATOM      8  C   UNL     1     -11.922 -16.925  27.348  1.00  0.00    -0.070 CG0
ATOM      9  C   UNL     1     -11.054 -16.475  26.200  1.00  0.00     0.039 C 
ATOM     10  G   UNL     1     -12.366 -15.900  28.381  1.00  0.00     0.000 G0
ENDBRANCH   6   7
ENDBRANCH   5   6
ENDBRANCH   3   5
ENDBRANCH   1   3
BRANCH   1  11
ATOM     11  C   UNL     1     -10.865 -17.053  31.558  1.00  0.00     0.087 C 
BRANCH  11  12
ATOM     12  C   UNL     1     -11.668 -15.873  30.948  1.00  0.00     0.066 C 
BRANCH  12  13
ATOM     13  C   UNL     1     -11.330 -15.680  29.478  1.00  0.00     0.140 C 
ATOM     14  O   UNL     1     -10.185 -15.400  29.147  1.00  0.00    -0.299 OA
BRANCH  13  15
ATOM     15  C   UNL     1     -12.368 -15.913  28.407  1.00  0.00     0.106 CG0
ATOM     16  G   UNL     1     -11.906 -16.914  27.357  1.00  0.00     0.000 G0
ENDBRANCH  13  15
ENDBRANCH  12  13
BRANCH  12  17
ATOM     17  C   UNL     1     -13.212 -16.001  31.150  1.00  0.00    -0.006 C 
ATOM     18  C   UNL     1     -13.619 -16.775  32.417  1.00  0.00     0.008 C 
ATOM     19  C   UNL     1     -13.898 -14.623  31.140  1.00  0.00     0.008 C 
ENDBRANCH  12  17
ENDBRANCH  11  12
ENDBRANCH   1  11
TORSDOF 1
ENDMDL
MODEL 7
REMARK VINA RESULT:    -3.844      2.007      4.548
REMARK INTER + INTRA:          -6.051
REMARK INTER:                  -6.860
REMARK INTRA:                   0.809
REMARK UNBOUND:                -0.185
REMARK SMILES CC1=CCC[C@@H](C)C(=O)C[C@H](C(C)C)C(=O)C1
REMARK SMILES IDX 8 1 9 2 6 3 7 4 5 5 4 6 3 7 2 8 1 9 10 11 11 12 15 13 16 14
REMARK SMILES IDX 17 15 12 17 13 18 14 19
REMARK H PARENT
REMARK Flexibility Score: 70.00
ROOT
ATOM      1  C   UNL     1     -12.456 -19.287  29.386  1.00  0.00     0.136 C 
ATOM      2  O   UNL     1     -13.447 -19.951  29.114  1.00  0.00    -0.299 OA
ENDROOT
BRANCH   1   3
ATOM      3  C   UNL     1     -11.980 -19.179  30.825  1.00  0.00     0.053 C 
ATOM      4  C   UNL     1     -11.827 -20.553  31.497  1.00  0.00     0.016 C 
BRANCH   3   5
ATOM      5  C   UNL     1     -12.886 -18.242  31.649  1.00  0.00     0.015 C 
BRANCH   5   6
ATOM      6  C   UNL     1     -12.315 -16.821  31.824  1.00  0.00     0.028 C 
BRANCH   6   7
ATOM      7  C   UNL     1     -13.287 -15.786  31.319  1.00  0.00    -0.028 C 
ATOM      8  C   UNL     1     -13.021 -14.892  30.338  1.00  0.00    -0.070 CG0
ATOM      9  C   UNL     1     -14.085 -13.882  29.992  1.00  0.00     0.039 C 
ATOM     10  G   UNL     1     -11.711 -14.877  29.562  1.00  0.00     0.000 G0
ENDBRANCH   6   7
ENDBRANCH   5   6
ENDBRANCH   3   5
ENDBRANCH   1   3
BRANCH   1  11
ATOM     11  C   UNL     1     -11.723 -18.580  28.273  1.00  0.00     0.087 C 
BRANCH  11  12
ATOM     12  C   UNL     1     -12.106 -17.079  28.181  1.00  0.00     0.066 C 
BRANCH  12  13
ATOM     13  C   UNL     1     -11.255 -16.236  29.119  1.00  0.00     0.140 C 
ATOM     14  O   UNL     1     -10.159 -16.643  29.479  1.00  0.00    -0.299 OA
BRANCH  13  15
ATOM     15  C   UNL     1     -11.705 -14.859  29.547  1.00  0.00     0.106 CG0
ATOM     16  G   UNL     1     -13.008 -14.892  30.333  1.00  0.00     0.000 G0
ENDBRANCH  13  15
ENDBRANCH  12  13
BRANCH  12  17
ATOM     17  C   UNL     1     -12.053 -16.512  26.725  1.00  0.00    -0.006 C 
ATOM     18  C   UNL     1     -11.069 -17.248  25.798  1.00  0.00     0.008 C 
ATOM     19  C   UNL     1     -13.450 -16.481  26.081  1.00  0.00     0.008 C 
ENDBRANCH  12  17
ENDBRANCH  11  12
ENDBRANCH   1  11
TORSDOF 1
ENDMDL
MODEL 8
REMARK VINA RESULT:    -3.828      1.776      3.020
REMARK INTER + INTRA:          -6.026
REMARK INTER:                  -6.116
REMARK INTRA:                   0.090
REMARK UNBOUND:                -0.185
REMARK SMILES CC1=CCC[C@@H](C)C(=O)C[C@H](C(C)C)C(=O)C1
REMARK SMILES IDX 8 1 9 2 6 3 7 4 5 5 4 6 3 7 2 8 1 9 10 11 11 12 15 13 16 14
REMARK SMILES IDX 17 15 12 17 13 18 14 19
REMARK H PARENT
REMARK Flexibility Score: 70.00
ROOT
ATOM      1  C   UNL     1     -12.349 -18.600  28.251  1.00  0.00     0.136 C 
ATOM      2  O   UNL     1     -13.465 -18.744  27.771  1.00  0.00    -0.299 OA
ENDROOT
BRANCH   1   3
ATOM      3  C   UNL     1     -11.711 -19.722  29.053  1.00  0.00     0.053 C 
ATOM      4  C   UNL     1     -12.751 -20.704  29.617  1.00  0.00     0.016 C 
BRANCH   3   5
ATOM      5  C   UNL     1     -10.792 -19.170  30.162  1.00  0.00     0.015 C 
BRANCH   5   6
ATOM      6  C   UNL     1     -11.529 -18.851  31.478  1.00  0.00     0.028 C 
BRANCH   6   7
ATOM      7  C   UNL     1     -10.722 -17.904  32.327  1.00  0.00    -0.028 C 
ATOM      8  C   UNL     1     -10.823 -16.554  32.285  1.00  0.00    -0.070 CG0
ATOM      9  C   UNL     1      -9.899 -15.747  33.160  1.00  0.00     0.039 C 
ATOM     10  G   UNL     1     -11.836 -15.825  31.413  1.00  0.00     0.000 G0
ENDBRANCH   6   7
ENDBRANCH   5   6
ENDBRANCH   3   5
ENDBRANCH   1   3
BRANCH   1  11
ATOM     11  C   UNL     1     -11.624 -17.294  28.037  1.00  0.00     0.087 C 
BRANCH  11  12
ATOM     12  C   UNL     1     -12.266 -16.130  28.838  1.00  0.00     0.066 C 
BRANCH  12  13
ATOM     13  C   UNL     1     -11.368 -15.689  29.984  1.00  0.00     0.140 C 
ATOM     14  O   UNL     1     -10.286 -15.169  29.745  1.00  0.00    -0.299 OA
BRANCH  13  15
ATOM     15  C   UNL     1     -11.828 -15.804  31.418  1.00  0.00     0.106 CG0
ATOM     16  G   UNL     1     -10.835 -16.560  32.288  1.00  0.00     0.000 G0
ENDBRANCH  13  15
ENDBRANCH  12  13
BRANCH  12  17
ATOM     17  C   UNL     1     -12.668 -14.909  27.948  1.00  0.00    -0.006 C 
ATOM     18  C   UNL     1     -13.513 -15.281  26.716  1.00  0.00     0.008 C 
ATOM     19  C   UNL     1     -13.392 -13.828  28.768  1.00  0.00     0.008 C 
ENDBRANCH  12  17
ENDBRANCH  11  12
ENDBRANCH   1  11
TORSDOF 1
ENDMDL
MODEL 9
REMARK VINA RESULT:    -3.803      2.145      3.986
REMARK INTER + INTRA:          -5.988
REMARK INTER:                  -5.963
REMARK INTRA:                  -0.026
REMARK UNBOUND:                -0.185
REMARK SMILES CC1=CCC[C@@H](C)C(=O)C[C@H](C(C)C)C(=O)C1
REMARK SMILES IDX 8 1 9 2 6 3 7 4 5 5 4 6 3 7 2 8 1 9 10 11 11 12 15 13 16 14
REMARK SMILES IDX 17 15 12 17 13 18 14 19
REMARK H PARENT
REMARK Flexibility Score: 70.00
ROOT
ATOM      1  C   UNL     1     -12.497 -18.848  30.698  1.00  0.00     0.136 C 
ATOM      2  O   UNL     1     -12.242 -19.827  31.388  1.00  0.00    -0.299 OA
ENDROOT
BRANCH   1   3
ATOM      3  C   UNL     1     -12.429 -18.941  29.184  1.00  0.00     0.053 C 
ATOM      4  C   UNL     1     -13.224 -20.137  28.634  1.00  0.00     0.016 C 
BRANCH   3   5
ATOM      5  C   UNL     1     -10.970 -18.952  28.685  1.00  0.00     0.015 C 
BRANCH   5   6
ATOM      6  C   UNL     1     -10.576 -17.692  27.889  1.00  0.00     0.028 C 
BRANCH   6   7
ATOM      7  C   UNL     1     -11.779 -17.086  27.215  1.00  0.00    -0.028 C 
ATOM      8  C   UNL     1     -12.392 -15.945  27.612  1.00  0.00    -0.070 CG0
ATOM      9  C   UNL     1     -13.624 -15.505  26.863  1.00  0.00     0.039 C 
ATOM     10  G   UNL     1     -11.881 -15.086  28.760  1.00  0.00     0.000 G0
ENDBRANCH   6   7
ENDBRANCH   5   6
ENDBRANCH   3   5
ENDBRANCH   1   3
BRANCH   1  11
ATOM     11  C   UNL     1     -12.875 -17.555  31.379  1.00  0.00     0.087 C 
BRANCH  11  12
ATOM     12  C   UNL     1     -11.898 -16.402  31.028  1.00  0.00     0.066 C 
BRANCH  12  13
ATOM     13  C   UNL     1     -12.542 -15.404  30.078  1.00  0.00     0.140 C 
ATOM     14  O   UNL     1     -13.557 -14.810  30.415  1.00  0.00    -0.299 OA
BRANCH  13  15
ATOM     15  C   UNL     1     -11.898 -15.068  28.754  1.00  0.00     0.106 CG0
ATOM     16  G   UNL     1     -12.409 -15.945  27.620  1.00  0.00     0.000 G0
ENDBRANCH  13  15
ENDBRANCH  12  13
BRANCH  12  17
ATOM     17  C   UNL     1     -11.317 -15.675  32.284  1.00  0.00    -0.006 C 
ATOM     18  C   UNL     1     -12.342 -15.453  33.411  1.00  0.00     0.008 C 
ATOM     19  C   UNL     1     -10.084 -16.409  32.840  1.00  0.00     0.008 C 
ENDBRANCH  12  17
ENDBRANCH  11  12
ENDBRANCH   1  11
TORSDOF 1
ENDMDL
