MODEL 1
REMARK VINA RESULT:    -2.848      0.000      0.000
REMARK INTER + INTRA:          -7.855
REMARK INTER:                  -5.178
REMARK INTRA:                  -2.676
REMARK UNBOUND:                -2.676
REMARK SMILES CCCCCCCCCCCCCCCC(=O)[O-]
REMARK SMILES IDX 9 1 10 2 11 3 12 4 13 5 14 6 15 7 16 8 17 9 18 10 8 11 7 12
REMARK SMILES IDX 6 13 5 14 4 15 3 16 2 17 1 18
REMARK H PARENT
REMARK Flexibility Score: inf
ROOT
ATOM      1  C   UNL     1      31.460  30.822  52.536  1.00  0.00     0.000 C 
ENDROOT
BRANCH   1   2
ATOM      2  C   UNL     1      30.512  31.908  52.004  1.00  0.00     0.000 C 
BRANCH   2   3
ATOM      3  C   UNL     1      30.835  33.303  52.562  1.00  0.00     0.000 C 
BRANCH   3   4
ATOM      4  C   UNL     1      29.550  34.051  52.949  1.00  0.00     0.000 C 
BRANCH   4   5
ATOM      5  C   UNL     1      28.303  33.470  52.251  1.00  0.00     0.000 C 
BRANCH   5   6
ATOM      6  C   UNL     1      26.977  33.875  52.920  1.00  0.00     0.006 C 
BRANCH   6   7
ATOM      7  C   UNL     1      25.746  33.433  52.120  1.00  0.00     0.053 C 
BRANCH   7   8
ATOM      8  C   UNL     1      25.251  32.110  52.612  1.00  0.00     0.041 C 
ATOM      9  O   UNL     1      25.147  31.893  53.848  1.00  0.00    -0.550 OA
ATOM     10  O   UNL     1      24.861  31.133  51.706  1.00  0.00    -0.550 OA
ENDBRANCH   7   8
ENDBRANCH   6   7
ENDBRANCH   5   6
ENDBRANCH   4   5
ENDBRANCH   3   4
ENDBRANCH   2   3
ENDBRANCH   1   2
BRANCH   1  11
ATOM     11  C   UNL     1      32.439  31.359  53.594  1.00  0.00     0.000 C 
BRANCH  11  12
ATOM     12  C   UNL     1      32.248  30.704  54.974  1.00  0.00    -0.000 C 
BRANCH  12  13
ATOM     13  C   UNL     1      32.077  31.689  56.144  1.00  0.00    -0.000 C 
BRANCH  13  14
ATOM     14  C   UNL     1      30.772  32.500  56.059  1.00  0.00    -0.000 C 
BRANCH  14  15
ATOM     15  C   UNL     1      29.543  31.684  56.488  1.00  0.00    -0.000 C 
BRANCH  15  16
ATOM     16  C   UNL     1      28.579  31.413  55.320  1.00  0.00    -0.000 C 
BRANCH  16  17
ATOM     17  C   UNL     1      28.621  29.950  54.850  1.00  0.00    -0.003 C 
ATOM     18  C   UNL     1      27.966  29.749  53.484  1.00  0.00     0.004 C 
ENDBRANCH  16  17
ENDBRANCH  15  16
ENDBRANCH  14  15
ENDBRANCH  13  14
ENDBRANCH  12  13
ENDBRANCH  11  12
ENDBRANCH   1  11
TORSDOF 14
ENDMDL
MODEL 2
REMARK VINA RESULT:    -2.714      2.553      4.763
REMARK INTER + INTRA:          -7.611
REMARK INTER:                  -5.039
REMARK INTRA:                  -2.571
REMARK UNBOUND:                -2.676
REMARK SMILES CCCCCCCCCCCCCCCC(=O)[O-]
REMARK SMILES IDX 9 1 10 2 11 3 12 4 13 5 14 6 15 7 16 8 17 9 18 10 8 11 7 12
REMARK SMILES IDX 6 13 5 14 4 15 3 16 2 17 1 18
REMARK H PARENT
REMARK Flexibility Score: inf
ROOT
ATOM      1  C   UNL     1      31.547  31.537  52.849  1.00  0.00     0.000 C 
ENDROOT
BRANCH   1   2
ATOM      2  C   UNL     1      30.876  30.335  52.166  1.00  0.00     0.000 C 
BRANCH   2   3
ATOM      3  C   UNL     1      30.051  29.481  53.142  1.00  0.00     0.000 C 
BRANCH   3   4
ATOM      4  C   UNL     1      28.578  29.914  53.144  1.00  0.00     0.000 C 
BRANCH   4   5
ATOM      5  C   UNL     1      28.041  30.152  54.571  1.00  0.00     0.000 C 
BRANCH   5   6
ATOM      6  C   UNL     1      28.376  31.546  55.132  1.00  0.00     0.006 C 
BRANCH   6   7
ATOM      7  C   UNL     1      29.096  31.488  56.483  1.00  0.00     0.053 C 
BRANCH   7   8
ATOM      8  C   UNL     1      30.553  31.777  56.311  1.00  0.00     0.041 C 
ATOM      9  O   UNL     1      30.954  32.965  56.194  1.00  0.00    -0.550 OA
ATOM     10  O   UNL     1      31.475  30.738  56.327  1.00  0.00    -0.550 OA
ENDBRANCH   7   8
ENDBRANCH   6   7
ENDBRANCH   5   6
ENDBRANCH   4   5
ENDBRANCH   3   4
ENDBRANCH   2   3
ENDBRANCH   1   2
BRANCH   1  11
ATOM     11  C   UNL     1      30.857  32.869  52.513  1.00  0.00     0.000 C 
BRANCH  11  12
ATOM     12  C   UNL     1      29.925  32.770  51.292  1.00  0.00    -0.000 C 
BRANCH  12  13
ATOM     13  C   UNL     1      28.485  33.259  51.530  1.00  0.00    -0.000 C 
BRANCH  13  14
ATOM     14  C   UNL     1      28.326  34.037  52.848  1.00  0.00    -0.000 C 
BRANCH  14  15
ATOM     15  C   UNL     1      26.857  34.338  53.182  1.00  0.00    -0.000 C 
BRANCH  15  16
ATOM     16  C   UNL     1      25.879  33.480  52.359  1.00  0.00    -0.000 C 
BRANCH  16  17
ATOM     17  C   UNL     1      25.269  32.333  53.180  1.00  0.00    -0.003 C 
ATOM     18  C   UNL     1      25.077  31.057  52.361  1.00  0.00     0.004 C 
ENDBRANCH  16  17
ENDBRANCH  15  16
ENDBRANCH  14  15
ENDBRANCH  13  14
ENDBRANCH  12  13
ENDBRANCH  11  12
ENDBRANCH   1  11
TORSDOF 14
ENDMDL
MODEL 3
REMARK VINA RESULT:    -2.700     18.009     19.797
REMARK INTER + INTRA:          -7.585
REMARK INTER:                  -5.523
REMARK INTRA:                  -2.063
REMARK UNBOUND:                -2.676
REMARK SMILES CCCCCCCCCCCCCCCC(=O)[O-]
REMARK SMILES IDX 9 1 10 2 11 3 12 4 13 5 14 6 15 7 16 8 17 9 18 10 8 11 7 12
REMARK SMILES IDX 6 13 5 14 4 15 3 16 2 17 1 18
REMARK H PARENT
REMARK Flexibility Score: inf
ROOT
ATOM      1  C   UNL     1      15.520  19.906  48.809  1.00  0.00     0.000 C 
ENDROOT
BRANCH   1   2
ATOM      2  C   UNL     1      16.972  19.726  49.279  1.00  0.00     0.000 C 
BRANCH   2   3
ATOM      3  C   UNL     1      17.361  18.249  49.452  1.00  0.00     0.000 C 
BRANCH   3   4
ATOM      4  C   UNL     1      18.255  18.056  50.685  1.00  0.00     0.000 C 
BRANCH   4   5
ATOM      5  C   UNL     1      17.623  17.101  51.721  1.00  0.00     0.000 C 
BRANCH   5   6
ATOM      6  C   UNL     1      16.150  17.417  52.031  1.00  0.00     0.006 C 
BRANCH   6   7
ATOM      7  C   UNL     1      15.963  18.765  52.736  1.00  0.00     0.053 C 
BRANCH   7   8
ATOM      8  C   UNL     1      15.689  18.560  54.192  1.00  0.00     0.041 C 
ATOM      9  O   UNL     1      14.625  18.998  54.704  1.00  0.00    -0.550 OA
ATOM     10  O   UNL     1      16.585  17.845  54.975  1.00  0.00    -0.550 OA
ENDBRANCH   7   8
ENDBRANCH   6   7
ENDBRANCH   5   6
ENDBRANCH   4   5
ENDBRANCH   3   4
ENDBRANCH   2   3
ENDBRANCH   1   2
BRANCH   1  11
ATOM     11  C   UNL     1      14.824  18.567  48.514  1.00  0.00     0.000 C 
BRANCH  11  12
ATOM     12  C   UNL     1      14.081  18.562  47.166  1.00  0.00    -0.000 C 
BRANCH  12  13
ATOM     13  C   UNL     1      14.661  17.609  46.105  1.00  0.00    -0.000 C 
BRANCH  13  14
ATOM     14  C   UNL     1      16.188  17.450  46.215  1.00  0.00    -0.000 C 
BRANCH  14  15
ATOM     15  C   UNL     1      16.942  18.230  45.127  1.00  0.00    -0.000 C 
BRANCH  15  16
ATOM     16  C   UNL     1      17.289  19.663  45.565  1.00  0.00    -0.000 C 
BRANCH  16  17
ATOM     17  C   UNL     1      16.674  20.726  44.640  1.00  0.00    -0.003 C 
ATOM     18  C   UNL     1      15.517  21.480  45.295  1.00  0.00     0.004 C 
ENDBRANCH  16  17
ENDBRANCH  15  16
ENDBRANCH  14  15
ENDBRANCH  13  14
ENDBRANCH  12  13
ENDBRANCH  11  12
ENDBRANCH   1  11
TORSDOF 14
ENDMDL
MODEL 4
REMARK VINA RESULT:    -2.693      8.079     11.591
REMARK INTER + INTRA:          -7.574
REMARK INTER:                  -5.161
REMARK INTRA:                  -2.413
REMARK UNBOUND:                -2.676
REMARK SMILES CCCCCCCCCCCCCCCC(=O)[O-]
REMARK SMILES IDX 9 1 10 2 11 3 12 4 13 5 14 6 15 7 16 8 17 9 18 10 8 11 7 12
REMARK SMILES IDX 6 13 5 14 4 15 3 16 2 17 1 18
REMARK H PARENT
REMARK Flexibility Score: inf
ROOT
ATOM      1  C   UNL     1      19.940  26.579  55.155  1.00  0.00     0.000 C 
ENDROOT
BRANCH   1   2
ATOM      2  C   UNL     1      18.644  26.202  55.890  1.00  0.00     0.000 C 
BRANCH   2   3
ATOM      3  C   UNL     1      18.280  27.201  57.000  1.00  0.00     0.000 C 
BRANCH   3   4
ATOM      4  C   UNL     1      19.439  27.363  57.995  1.00  0.00     0.000 C 
BRANCH   4   5
ATOM      5  C   UNL     1      19.882  28.835  58.139  1.00  0.00     0.000 C 
BRANCH   5   6
ATOM      6  C   UNL     1      21.409  29.024  58.110  1.00  0.00     0.006 C 
BRANCH   6   7
ATOM      7  C   UNL     1      21.844  30.245  57.292  1.00  0.00     0.053 C 
BRANCH   7   8
ATOM      8  C   UNL     1      23.058  29.925  56.480  1.00  0.00     0.041 C 
ATOM      9  O   UNL     1      23.628  28.809  56.606  1.00  0.00    -0.550 OA
ATOM     10  O   UNL     1      23.535  30.840  55.551  1.00  0.00    -0.550 OA
ENDBRANCH   7   8
ENDBRANCH   6   7
ENDBRANCH   5   6
ENDBRANCH   4   5
ENDBRANCH   3   4
ENDBRANCH   2   3
ENDBRANCH   1   2
BRANCH   1  11
ATOM     11  C   UNL     1      19.686  27.466  53.925  1.00  0.00     0.000 C 
BRANCH  11  12
ATOM     12  C   UNL     1      20.259  28.886  54.082  1.00  0.00    -0.000 C 
BRANCH  12  13
ATOM     13  C   UNL     1      19.284  29.921  54.671  1.00  0.00    -0.000 C 
BRANCH  13  14
ATOM     14  C   UNL     1      17.979  30.041  53.864  1.00  0.00    -0.000 C 
BRANCH  14  15
ATOM     15  C   UNL     1      16.738  29.679  54.695  1.00  0.00    -0.000 C 
BRANCH  15  16
ATOM     16  C   UNL     1      15.645  28.998  53.853  1.00  0.00    -0.000 C 
BRANCH  16  17
ATOM     17  C   UNL     1      15.822  27.473  53.780  1.00  0.00    -0.003 C 
ATOM     18  C   UNL     1      15.071  26.738  54.890  1.00  0.00     0.004 C 
ENDBRANCH  16  17
ENDBRANCH  15  16
ENDBRANCH  14  15
ENDBRANCH  13  14
ENDBRANCH  12  13
ENDBRANCH  11  12
ENDBRANCH   1  11
TORSDOF 14
ENDMDL
MODEL 5
REMARK VINA RESULT:    -2.693     17.331     19.476
REMARK INTER + INTRA:          -7.573
REMARK INTER:                  -5.065
REMARK INTRA:                  -2.508
REMARK UNBOUND:                -2.676
REMARK SMILES CCCCCCCCCCCCCCCC(=O)[O-]
REMARK SMILES IDX 9 1 10 2 11 3 12 4 13 5 14 6 15 7 16 8 17 9 18 10 8 11 7 12
REMARK SMILES IDX 6 13 5 14 4 15 3 16 2 17 1 18
REMARK H PARENT
REMARK Flexibility Score: inf
ROOT
ATOM      1  C   UNL     1      18.059  19.989  48.148  1.00  0.00     0.000 C 
ENDROOT
BRANCH   1   2
ATOM      2  C   UNL     1      17.512  19.266  49.388  1.00  0.00     0.000 C 
BRANCH   2   3
ATOM      3  C   UNL     1      16.490  20.111  50.165  1.00  0.00     0.000 C 
BRANCH   3   4
ATOM      4  C   UNL     1      15.489  19.216  50.910  1.00  0.00     0.000 C 
BRANCH   4   5
ATOM      5  C   UNL     1      15.842  17.718  50.791  1.00  0.00     0.000 C 
BRANCH   5   6
ATOM      6  C   UNL     1      16.364  17.101  52.100  1.00  0.00     0.006 C 
BRANCH   6   7
ATOM      7  C   UNL     1      16.343  18.087  53.274  1.00  0.00     0.053 C 
BRANCH   7   8
ATOM      8  C   UNL     1      17.735  18.389  53.728  1.00  0.00     0.041 C 
ATOM      9  O   UNL     1      18.624  18.691  52.888  1.00  0.00    -0.550 OA
ATOM     10  O   UNL     1      18.042  18.383  55.082  1.00  0.00    -0.550 OA
ENDBRANCH   7   8
ENDBRANCH   6   7
ENDBRANCH   5   6
ENDBRANCH   4   5
ENDBRANCH   3   4
ENDBRANCH   2   3
ENDBRANCH   1   2
BRANCH   1  11
ATOM     11  C   UNL     1      18.103  19.083  46.906  1.00  0.00     0.000 C 
BRANCH  11  12
ATOM     12  C   UNL     1      17.122  17.900  46.993  1.00  0.00    -0.000 C 
BRANCH  12  13
ATOM     13  C   UNL     1      16.179  17.745  45.786  1.00  0.00    -0.000 C 
BRANCH  13  14
ATOM     14  C   UNL     1      14.711  17.537  46.197  1.00  0.00    -0.000 C 
BRANCH  14  15
ATOM     15  C   UNL     1      14.343  18.302  47.477  1.00  0.00    -0.000 C 
BRANCH  15  16
ATOM     16  C   UNL     1      13.418  19.501  47.201  1.00  0.00    -0.000 C 
BRANCH  16  17
ATOM     17  C   UNL     1      14.113  20.849  47.450  1.00  0.00    -0.003 C 
ATOM     18  C   UNL     1      15.045  21.252  46.308  1.00  0.00     0.004 C 
ENDBRANCH  16  17
ENDBRANCH  15  16
ENDBRANCH  14  15
ENDBRANCH  13  14
ENDBRANCH  12  13
ENDBRANCH  11  12
ENDBRANCH   1  11
TORSDOF 14
ENDMDL
MODEL 6
REMARK VINA RESULT:    -2.688     17.744     19.142
REMARK INTER + INTRA:          -7.564
REMARK INTER:                  -5.549
REMARK INTRA:                  -2.014
REMARK UNBOUND:                -2.676
REMARK SMILES CCCCCCCCCCCCCCCC(=O)[O-]
REMARK SMILES IDX 9 1 10 2 11 3 12 4 13 5 14 6 15 7 16 8 17 9 18 10 8 11 7 12
REMARK SMILES IDX 6 13 5 14 4 15 3 16 2 17 1 18
REMARK H PARENT
REMARK Flexibility Score: inf
ROOT
ATOM      1  C   UNL     1      16.065  19.759  49.064  1.00  0.00     0.000 C 
ENDROOT
BRANCH   1   2
ATOM      2  C   UNL     1      15.215  18.499  48.839  1.00  0.00     0.000 C 
BRANCH   2   3
ATOM      3  C   UNL     1      14.137  18.695  47.761  1.00  0.00     0.000 C 
BRANCH   3   4
ATOM      4  C   UNL     1      14.760  18.731  46.358  1.00  0.00     0.000 C 
BRANCH   4   5
ATOM      5  C   UNL     1      15.869  17.672  46.185  1.00  0.00     0.000 C 
BRANCH   5   6
ATOM      6  C   UNL     1      17.017  18.125  45.265  1.00  0.00     0.006 C 
BRANCH   6   7
ATOM      7  C   UNL     1      17.896  19.210  45.899  1.00  0.00     0.053 C 
BRANCH   7   8
ATOM      8  C   UNL     1      19.128  19.428  45.080  1.00  0.00     0.041 C 
ATOM      9  O   UNL     1      20.232  19.650  45.643  1.00  0.00    -0.550 OA
ATOM     10  O   UNL     1      19.067  19.340  43.695  1.00  0.00    -0.550 OA
ENDBRANCH   7   8
ENDBRANCH   6   7
ENDBRANCH   5   6
ENDBRANCH   4   5
ENDBRANCH   3   4
ENDBRANCH   2   3
ENDBRANCH   1   2
BRANCH   1  11
ATOM     11  C   UNL     1      17.445  19.442  49.665  1.00  0.00     0.000 C 
BRANCH  11  12
ATOM     12  C   UNL     1      17.755  17.934  49.693  1.00  0.00    -0.000 C 
BRANCH  12  13
ATOM     13  C   UNL     1      18.082  17.361  51.084  1.00  0.00    -0.000 C 
BRANCH  13  14
ATOM     14  C   UNL     1      16.827  17.114  51.939  1.00  0.00    -0.000 C 
BRANCH  14  15
ATOM     15  C   UNL     1      16.992  17.609  53.384  1.00  0.00    -0.000 C 
BRANCH  15  16
ATOM     16  C   UNL     1      16.052  18.781  53.716  1.00  0.00    -0.000 C 
BRANCH  16  17
ATOM     17  C   UNL     1      15.121  19.138  52.546  1.00  0.00    -0.003 C 
ATOM     18  C   UNL     1      14.761  20.623  52.509  1.00  0.00     0.004 C 
ENDBRANCH  16  17
ENDBRANCH  15  16
ENDBRANCH  14  15
ENDBRANCH  13  14
ENDBRANCH  12  13
ENDBRANCH  11  12
ENDBRANCH   1  11
TORSDOF 14
ENDMDL
MODEL 7
REMARK VINA RESULT:    -2.670      8.241     11.859
REMARK INTER + INTRA:          -7.531
REMARK INTER:                  -5.032
REMARK INTRA:                  -2.499
REMARK UNBOUND:                -2.676
REMARK SMILES CCCCCCCCCCCCCCCC(=O)[O-]
REMARK SMILES IDX 9 1 10 2 11 3 12 4 13 5 14 6 15 7 16 8 17 9 18 10 8 11 7 12
REMARK SMILES IDX 6 13 5 14 4 15 3 16 2 17 1 18
REMARK H PARENT
REMARK Flexibility Score: inf
ROOT
ATOM      1  C   UNL     1      19.438  28.438  54.277  1.00  0.00     0.000 C 
ENDROOT
BRANCH   1   2
ATOM      2  C   UNL     1      19.433  27.595  55.562  1.00  0.00     0.000 C 
BRANCH   2   3
ATOM      3  C   UNL     1      18.773  28.320  56.746  1.00  0.00     0.000 C 
BRANCH   3   4
ATOM      4  C   UNL     1      19.655  28.242  58.001  1.00  0.00     0.000 C 
BRANCH   4   5
ATOM      5  C   UNL     1      20.508  29.513  58.195  1.00  0.00     0.000 C 
BRANCH   5   6
ATOM      6  C   UNL     1      21.953  29.370  57.685  1.00  0.00     0.006 C 
BRANCH   6   7
ATOM      7  C   UNL     1      22.240  30.235  56.453  1.00  0.00     0.053 C 
BRANCH   7   8
ATOM      8  C   UNL     1      22.738  29.388  55.325  1.00  0.00     0.041 C 
ATOM      9  O   UNL     1      22.960  29.902  54.197  1.00  0.00    -0.550 OA
ATOM     10  O   UNL     1      23.002  28.040  55.531  1.00  0.00    -0.550 OA
ENDBRANCH   7   8
ENDBRANCH   6   7
ENDBRANCH   5   6
ENDBRANCH   4   5
ENDBRANCH   3   4
ENDBRANCH   2   3
ENDBRANCH   1   2
BRANCH   1  11
ATOM     11  C   UNL     1      18.998  29.891  54.522  1.00  0.00     0.000 C 
BRANCH  11  12
ATOM     12  C   UNL     1      17.980  30.392  53.482  1.00  0.00    -0.000 C 
BRANCH  12  13
ATOM     13  C   UNL     1      16.778  29.461  53.244  1.00  0.00    -0.000 C 
BRANCH  13  14
ATOM     14  C   UNL     1      15.935  29.235  54.512  1.00  0.00    -0.000 C 
BRANCH  14  15
ATOM     15  C   UNL     1      15.312  27.832  54.563  1.00  0.00    -0.000 C 
BRANCH  15  16
ATOM     16  C   UNL     1      16.162  26.784  53.824  1.00  0.00    -0.000 C 
BRANCH  16  17
ATOM     17  C   UNL     1      16.372  25.506  54.653  1.00  0.00    -0.003 C 
ATOM     18  C   UNL     1      16.221  25.746  56.155  1.00  0.00     0.004 C 
ENDBRANCH  16  17
ENDBRANCH  15  16
ENDBRANCH  14  15
ENDBRANCH  13  14
ENDBRANCH  12  13
ENDBRANCH  11  12
ENDBRANCH   1  11
TORSDOF 14
ENDMDL
MODEL 8
REMARK VINA RESULT:    -2.627      2.302      4.477
REMARK INTER + INTRA:          -7.453
REMARK INTER:                  -4.656
REMARK INTRA:                  -2.797
REMARK UNBOUND:                -2.676
REMARK SMILES CCCCCCCCCCCCCCCC(=O)[O-]
REMARK SMILES IDX 9 1 10 2 11 3 12 4 13 5 14 6 15 7 16 8 17 9 18 10 8 11 7 12
REMARK SMILES IDX 6 13 5 14 4 15 3 16 2 17 1 18
REMARK H PARENT
REMARK Flexibility Score: inf
ROOT
ATOM      1  C   UNL     1      32.045  31.769  54.584  1.00  0.00     0.000 C 
ENDROOT
BRANCH   1   2
ATOM      2  C   UNL     1      31.384  32.057  55.941  1.00  0.00     0.000 C 
BRANCH   2   3
ATOM      3  C   UNL     1      30.456  30.922  56.402  1.00  0.00     0.000 C 
BRANCH   3   4
ATOM      4  C   UNL     1      28.996  31.396  56.467  1.00  0.00     0.000 C 
BRANCH   4   5
ATOM      5  C   UNL     1      28.318  31.390  55.080  1.00  0.00     0.000 C 
BRANCH   5   6
ATOM      6  C   UNL     1      28.240  29.994  54.438  1.00  0.00     0.006 C 
BRANCH   6   7
ATOM      7  C   UNL     1      28.762  29.969  52.997  1.00  0.00     0.053 C 
BRANCH   7   8
ATOM      8  C   UNL     1      30.036  29.192  52.916  1.00  0.00     0.041 C 
ATOM      9  O   UNL     1      30.386  28.448  53.870  1.00  0.00    -0.550 OA
ATOM     10  O   UNL     1      30.816  29.252  51.768  1.00  0.00    -0.550 OA
ENDBRANCH   7   8
ENDBRANCH   6   7
ENDBRANCH   5   6
ENDBRANCH   4   5
ENDBRANCH   3   4
ENDBRANCH   2   3
ENDBRANCH   1   2
BRANCH   1  11
ATOM     11  C   UNL     1      31.468  32.632  53.450  1.00  0.00     0.000 C 
BRANCH  11  12
ATOM     12  C   UNL     1      30.830  33.939  53.956  1.00  0.00    -0.000 C 
BRANCH  12  13
ATOM     13  C   UNL     1      29.483  34.302  53.306  1.00  0.00    -0.000 C 
BRANCH  13  14
ATOM     14  C   UNL     1      29.240  33.561  51.979  1.00  0.00    -0.000 C 
BRANCH  14  15
ATOM     15  C   UNL     1      27.757  33.234  51.750  1.00  0.00    -0.000 C 
BRANCH  15  16
ATOM     16  C   UNL     1      26.842  33.883  52.804  1.00  0.00    -0.000 C 
BRANCH  16  17
ATOM     17  C   UNL     1      25.562  33.069  53.052  1.00  0.00    -0.003 C 
ATOM     18  C   UNL     1      25.483  31.813  52.186  1.00  0.00     0.004 C 
ENDBRANCH  16  17
ENDBRANCH  15  16
ENDBRANCH  14  15
ENDBRANCH  13  14
ENDBRANCH  12  13
ENDBRANCH  11  12
ENDBRANCH   1  11
TORSDOF 14
ENDMDL
MODEL 9
REMARK VINA RESULT:    -2.617     16.789     19.243
REMARK INTER + INTRA:          -7.436
REMARK INTER:                  -4.998
REMARK INTRA:                  -2.438
REMARK UNBOUND:                -2.676
REMARK SMILES CCCCCCCCCCCCCCCC(=O)[O-]
REMARK SMILES IDX 9 1 10 2 11 3 12 4 13 5 14 6 15 7 16 8 17 9 18 10 8 11 7 12
REMARK SMILES IDX 6 13 5 14 4 15 3 16 2 17 1 18
REMARK H PARENT
REMARK Flexibility Score: inf
ROOT
ATOM      1  C   UNL     1      17.857  21.552  47.555  1.00  0.00     0.000 C 
ENDROOT
BRANCH   1   2
ATOM      2  C   UNL     1      17.031  20.643  48.479  1.00  0.00     0.000 C 
BRANCH   2   3
ATOM      3  C   UNL     1      17.905  19.703  49.324  1.00  0.00     0.000 C 
BRANCH   3   4
ATOM      4  C   UNL     1      17.328  18.279  49.337  1.00  0.00     0.000 C 
BRANCH   4   5
ATOM      5  C   UNL     1      15.856  18.250  49.800  1.00  0.00     0.000 C 
BRANCH   5   6
ATOM      6  C   UNL     1      15.685  17.927  51.295  1.00  0.00     0.006 C 
BRANCH   6   7
ATOM      7  C   UNL     1      16.855  17.119  51.868  1.00  0.00     0.053 C 
BRANCH   7   8
ATOM      8  C   UNL     1      17.445  17.820  53.049  1.00  0.00     0.041 C 
ATOM      9  O   UNL     1      16.917  17.699  54.186  1.00  0.00    -0.550 OA
ATOM     10  O   UNL     1      18.606  18.569  52.906  1.00  0.00    -0.550 OA
ENDBRANCH   7   8
ENDBRANCH   6   7
ENDBRANCH   5   6
ENDBRANCH   4   5
ENDBRANCH   3   4
ENDBRANCH   2   3
ENDBRANCH   1   2
BRANCH   1  11
ATOM     11  C   UNL     1      17.842  21.079  46.092  1.00  0.00     0.000 C 
BRANCH  11  12
ATOM     12  C   UNL     1      18.896  19.996  45.801  1.00  0.00    -0.000 C 
BRANCH  12  13
ATOM     13  C   UNL     1      18.328  18.598  45.497  1.00  0.00    -0.000 C 
BRANCH  13  14
ATOM     14  C   UNL     1      16.814  18.613  45.223  1.00  0.00    -0.000 C 
BRANCH  14  15
ATOM     15  C   UNL     1      16.082  17.440  45.892  1.00  0.00    -0.000 C 
BRANCH  15  16
ATOM     16  C   UNL     1      14.670  17.822  46.369  1.00  0.00    -0.000 C 
BRANCH  16  17
ATOM     17  C   UNL     1      14.370  19.317  46.179  1.00  0.00    -0.003 C 
ATOM     18  C   UNL     1      13.561  19.909  47.334  1.00  0.00     0.004 C 
ENDBRANCH  16  17
ENDBRANCH  15  16
ENDBRANCH  14  15
ENDBRANCH  13  14
ENDBRANCH  12  13
ENDBRANCH  11  12
ENDBRANCH   1  11
TORSDOF 14
ENDMDL
