MODEL 1
REMARK VINA RESULT:    -4.099      0.000      0.000
REMARK INTER + INTRA:          -4.472
REMARK INTER:                  -4.458
REMARK INTRA:                  -0.014
REMARK UNBOUND:                -0.014
REMARK SMILES OCc1ccco1
REMARK SMILES IDX 2 1 3 2 5 3 6 4 4 5 7 6 1 7
REMARK H PARENT 1 8
REMARK Flexibility Score: inf
ROOT
ATOM      1  C   UNL     1      23.589 -15.359 -39.585  1.00  0.00     0.231 C 
ENDROOT
BRANCH   1   2
ATOM      2  C   UNL     1      24.240 -16.274 -40.573  1.00  0.00     0.129 A 
ATOM      3  C   UNL     1      24.914 -17.207 -42.443  1.00  0.00     0.042 A 
ATOM      4  C   UNL     1      25.314 -17.945 -41.347  1.00  0.00     0.195 A 
ATOM      5  C   UNL     1      24.217 -16.127 -41.945  1.00  0.00     0.048 A 
ATOM      6  O   UNL     1      24.895 -17.365 -40.246  1.00  0.00    -0.467 OA
ENDBRANCH   1   2
BRANCH   1   7
ATOM      7  O   UNL     1      22.214 -15.619 -39.526  1.00  0.00    -0.388 OA
ATOM      8  H   UNL     1      22.109 -16.493 -39.067  1.00  0.00     0.211 HD
ENDBRANCH   1   7
TORSDOF 2
ENDMDL
MODEL 2
REMARK VINA RESULT:    -3.801      1.378      2.999
REMARK INTER + INTRA:          -4.148
REMARK INTER:                  -4.136
REMARK INTRA:                  -0.012
REMARK UNBOUND:                -0.014
REMARK SMILES OCc1ccco1
REMARK SMILES IDX 2 1 3 2 5 3 6 4 4 5 7 6 1 7
REMARK H PARENT 1 8
REMARK Flexibility Score: inf
ROOT
ATOM      1  C   UNL     1      25.326 -18.683 -42.017  1.00  0.00     0.231 C 
ENDROOT
BRANCH   1   2
ATOM      2  C   UNL     1      24.816 -17.401 -41.438  1.00  0.00     0.129 A 
ATOM      3  C   UNL     1      24.016 -15.368 -41.219  1.00  0.00     0.042 A 
ATOM      4  C   UNL     1      24.312 -15.922 -39.989  1.00  0.00     0.195 A 
ATOM      5  C   UNL     1      24.345 -16.323 -42.158  1.00  0.00     0.048 A 
ATOM      6  O   UNL     1      24.790 -17.134 -40.153  1.00  0.00    -0.467 OA
ENDBRANCH   1   2
BRANCH   1   7
ATOM      7  O   UNL     1      24.263 -19.424 -42.550  1.00  0.00    -0.388 OA
ATOM      8  H   UNL     1      23.580 -18.768 -42.848  1.00  0.00     0.211 HD
ENDBRANCH   1   7
TORSDOF 2
ENDMDL
MODEL 3
REMARK VINA RESULT:    -3.794      7.594      9.269
REMARK INTER + INTRA:          -4.140
REMARK INTER:                  -4.127
REMARK INTRA:                  -0.014
REMARK UNBOUND:                -0.014
REMARK SMILES OCc1ccco1
REMARK SMILES IDX 2 1 3 2 5 3 6 4 4 5 7 6 1 7
REMARK H PARENT 1 8
REMARK Flexibility Score: inf
ROOT
ATOM      1  C   UNL     1      24.409  -9.305 -39.849  1.00  0.00     0.231 C 
ENDROOT
BRANCH   1   2
ATOM      2  C   UNL     1      23.701  -8.266 -39.037  1.00  0.00     0.129 A 
ATOM      3  C   UNL     1      22.395  -7.272 -37.579  1.00  0.00     0.042 A 
ATOM      4  C   UNL     1      23.048  -6.350 -38.372  1.00  0.00     0.195 A 
ATOM      5  C   UNL     1      22.814  -8.513 -38.010  1.00  0.00     0.048 A 
ATOM      6  O   UNL     1      23.818  -6.973 -39.234  1.00  0.00    -0.467 OA
ENDBRANCH   1   2
BRANCH   1   7
ATOM      7  O   UNL     1      23.489  -9.994 -40.651  1.00  0.00    -0.388 OA
ATOM      8  H   UNL     1      23.647  -9.696 -41.585  1.00  0.00     0.211 HD
ENDBRANCH   1   7
TORSDOF 2
ENDMDL
MODEL 4
REMARK VINA RESULT:    -3.736      9.404     11.135
REMARK INTER + INTRA:          -4.077
REMARK INTER:                  -4.062
REMARK INTRA:                  -0.015
REMARK UNBOUND:                -0.014
REMARK SMILES OCc1ccco1
REMARK SMILES IDX 2 1 3 2 5 3 6 4 4 5 7 6 1 7
REMARK H PARENT 1 8
REMARK Flexibility Score: inf
ROOT
ATOM      1  C   UNL     1      22.315  -7.874 -38.441  1.00  0.00     0.231 C 
ENDROOT
BRANCH   1   2
ATOM      2  C   UNL     1      22.468  -6.679 -37.553  1.00  0.00     0.129 A 
ATOM      3  C   UNL     1      22.131  -4.763 -36.534  1.00  0.00     0.042 A 
ATOM      4  C   UNL     1      23.343  -5.315 -36.169  1.00  0.00     0.195 A 
ATOM      5  C   UNL     1      21.564  -5.644 -37.432  1.00  0.00     0.048 A 
ATOM      6  O   UNL     1      23.517  -6.456 -36.795  1.00  0.00    -0.467 OA
ENDBRANCH   1   2
BRANCH   1   7
ATOM      7  O   UNL     1      22.219  -9.037 -37.666  1.00  0.00    -0.388 OA
ATOM      8  H   UNL     1      21.277  -9.096 -37.358  1.00  0.00     0.211 HD
ENDBRANCH   1   7
TORSDOF 2
ENDMDL
MODEL 5
REMARK VINA RESULT:    -3.733      8.656     10.081
REMARK INTER + INTRA:          -4.074
REMARK INTER:                  -4.060
REMARK INTRA:                  -0.014
REMARK UNBOUND:                -0.014
REMARK SMILES OCc1ccco1
REMARK SMILES IDX 2 1 3 2 5 3 6 4 4 5 7 6 1 7
REMARK H PARENT 1 8
REMARK Flexibility Score: inf
ROOT
ATOM      1  C   UNL     1      23.423  -8.553 -38.411  1.00  0.00     0.231 C 
ENDROOT
BRANCH   1   2
ATOM      2  C   UNL     1      23.158  -7.249 -39.093  1.00  0.00     0.129 A 
ATOM      3  C   UNL     1      22.197  -5.620 -40.209  1.00  0.00     0.042 A 
ATOM      4  C   UNL     1      23.506  -5.308 -39.902  1.00  0.00     0.195 A 
ATOM      5  C   UNL     1      21.971  -6.877 -39.688  1.00  0.00     0.048 A 
ATOM      6  O   UNL     1      24.055  -6.300 -39.239  1.00  0.00    -0.467 OA
ENDBRANCH   1   2
BRANCH   1   7
ATOM      7  O   UNL     1      22.277  -8.976 -37.725  1.00  0.00    -0.388 OA
ATOM      8  H   UNL     1      21.945  -8.191 -37.215  1.00  0.00     0.211 HD
ENDBRANCH   1   7
TORSDOF 2
ENDMDL
MODEL 6
REMARK VINA RESULT:    -3.636      9.156     10.640
REMARK INTER + INTRA:          -3.969
REMARK INTER:                  -3.953
REMARK INTRA:                  -0.016
REMARK UNBOUND:                -0.014
REMARK SMILES OCc1ccco1
REMARK SMILES IDX 2 1 3 2 5 3 6 4 4 5 7 6 1 7
REMARK H PARENT 1 8
REMARK Flexibility Score: inf
ROOT
ATOM      1  C   UNL     1      22.243  -5.211 -40.118  1.00  0.00     0.231 C 
ENDROOT
BRANCH   1   2
ATOM      2  C   UNL     1      22.349  -6.304 -39.101  1.00  0.00     0.129 A 
ATOM      3  C   UNL     1      22.338  -7.422 -37.211  1.00  0.00     0.042 A 
ATOM      4  C   UNL     1      22.756  -8.219 -38.258  1.00  0.00     0.195 A 
ATOM      5  C   UNL     1      22.076  -6.182 -37.755  1.00  0.00     0.048 A 
ATOM      6  O   UNL     1      22.756  -7.523 -39.372  1.00  0.00    -0.467 OA
ENDBRANCH   1   2
BRANCH   1   7
ATOM      7  O   UNL     1      23.519  -4.860 -40.578  1.00  0.00    -0.388 OA
ATOM      8  H   UNL     1      23.579  -5.174 -41.518  1.00  0.00     0.211 HD
ENDBRANCH   1   7
TORSDOF 2
ENDMDL
MODEL 7
REMARK VINA RESULT:    -3.631      9.090      9.460
REMARK INTER + INTRA:          -3.964
REMARK INTER:                  -3.949
REMARK INTRA:                  -0.014
REMARK UNBOUND:                -0.014
REMARK SMILES OCc1ccco1
REMARK SMILES IDX 2 1 3 2 5 3 6 4 4 5 7 6 1 7
REMARK H PARENT 1 8
REMARK Flexibility Score: inf
ROOT
ATOM      1  C   UNL     1      22.484  -7.736 -37.614  1.00  0.00     0.231 C 
ENDROOT
BRANCH   1   2
ATOM      2  C   UNL     1      23.895  -7.545 -38.074  1.00  0.00     0.129 A 
ATOM      3  C   UNL     1      26.043  -7.094 -38.127  1.00  0.00     0.042 A 
ATOM      4  C   UNL     1      25.571  -7.417 -39.384  1.00  0.00     0.195 A 
ATOM      5  C   UNL     1      24.959  -7.174 -37.279  1.00  0.00     0.048 A 
ATOM      6  O   UNL     1      24.286  -7.679 -39.321  1.00  0.00    -0.467 OA
ENDBRANCH   1   2
BRANCH   1   7
ATOM      7  O   UNL     1      22.161  -9.099 -37.614  1.00  0.00    -0.388 OA
ATOM      8  H   UNL     1      22.282  -9.421 -36.682  1.00  0.00     0.211 HD
ENDBRANCH   1   7
TORSDOF 2
ENDMDL
MODEL 8
REMARK VINA RESULT:    -3.605      8.664      9.839
REMARK INTER + INTRA:          -3.935
REMARK INTER:                  -3.918
REMARK INTRA:                  -0.017
REMARK UNBOUND:                -0.014
REMARK SMILES OCc1ccco1
REMARK SMILES IDX 2 1 3 2 5 3 6 4 4 5 7 6 1 7
REMARK H PARENT 1 8
REMARK Flexibility Score: inf
ROOT
ATOM      1  C   UNL     1      24.299  -5.183 -39.432  1.00  0.00     0.231 C 
ENDROOT
BRANCH   1   2
ATOM      2  C   UNL     1      24.392  -6.672 -39.318  1.00  0.00     0.129 A 
ATOM      3  C   UNL     1      25.158  -8.729 -39.247  1.00  0.00     0.042 A 
ATOM      4  C   UNL     1      23.781  -8.707 -39.151  1.00  0.00     0.195 A 
ATOM      5  C   UNL     1      25.555  -7.413 -39.358  1.00  0.00     0.048 A 
ATOM      6  O   UNL     1      23.353  -7.466 -39.199  1.00  0.00    -0.467 OA
ENDBRANCH   1   2
BRANCH   1   7
ATOM      7  O   UNL     1      23.570  -4.835 -40.576  1.00  0.00    -0.388 OA
ATOM      8  H   UNL     1      23.728  -5.553 -41.244  1.00  0.00     0.211 HD
ENDBRANCH   1   7
TORSDOF 2
ENDMDL
MODEL 9
REMARK VINA RESULT:    -3.598      8.997     10.197
REMARK INTER + INTRA:          -3.927
REMARK INTER:                  -3.913
REMARK INTRA:                  -0.015
REMARK UNBOUND:                -0.014
REMARK SMILES OCc1ccco1
REMARK SMILES IDX 2 1 3 2 5 3 6 4 4 5 7 6 1 7
REMARK H PARENT 1 8
REMARK Flexibility Score: inf
ROOT
ATOM      1  C   UNL     1      26.089  -7.043 -37.485  1.00  0.00     0.231 C 
ENDROOT
BRANCH   1   2
ATOM      2  C   UNL     1      24.617  -7.306 -37.531  1.00  0.00     0.129 A 
ATOM      3  C   UNL     1      22.450  -7.180 -37.199  1.00  0.00     0.042 A 
ATOM      4  C   UNL     1      22.772  -8.277 -37.974  1.00  0.00     0.195 A 
ATOM      5  C   UNL     1      23.643  -6.552 -36.909  1.00  0.00     0.048 A 
ATOM      6  O   UNL     1      24.072  -8.327 -38.152  1.00  0.00    -0.467 OA
ENDBRANCH   1   2
BRANCH   1   7
ATOM      7  O   UNL     1      26.476  -6.713 -36.179  1.00  0.00    -0.388 OA
ATOM      8  H   UNL     1      25.659  -6.767 -35.618  1.00  0.00     0.211 HD
ENDBRANCH   1   7
TORSDOF 2
ENDMDL
