MODEL 1
REMARK VINA RESULT:    -3.354      0.000      0.000
REMARK INTER + INTRA:          -4.861
REMARK INTER:                  -4.334
REMARK INTRA:                  -0.527
REMARK UNBOUND:                -0.527
REMARK SMILES C=CC(=O)CCCCC
REMARK SMILES IDX 6 1 7 2 8 3 9 4 5 5 3 6 4 7 2 8 1 9
REMARK H PARENT
REMARK Flexibility Score: inf
ROOT
ATOM      1  C   UNL     1     -17.393  -1.837   9.897  1.00  0.00     0.008 C 
ENDROOT
BRANCH   1   2
ATOM      2  C   UNL     1     -18.073  -3.206   9.735  1.00  0.00     0.000 C 
BRANCH   2   3
ATOM      3  C   UNL     1     -19.552  -3.087   9.340  1.00  0.00    -0.003 C 
ATOM      4  C   UNL     1     -20.428  -2.833  10.564  1.00  0.00     0.004 C 
ENDBRANCH   2   3
ENDBRANCH   1   2
BRANCH   1   5
ATOM      5  C   UNL     1     -16.966  -1.557  11.344  1.00  0.00     0.080 C 
BRANCH   5   6
ATOM      6  C   UNL     1     -17.502  -0.233  11.802  1.00  0.00     0.155 C 
ATOM      7  O   UNL     1     -16.978   0.336  12.797  1.00  0.00    -0.295 OA
BRANCH   6   8
ATOM      8  C   UNL     1     -18.605   0.412  11.063  1.00  0.00     0.039 C 
ATOM      9  C   UNL     1     -19.766   0.722  11.639  1.00  0.00     0.012 C 
ENDBRANCH   6   8
ENDBRANCH   5   6
ENDBRANCH   1   5
TORSDOF 5
ENDMDL
MODEL 2
REMARK VINA RESULT:    -3.319     16.568     18.037
REMARK INTER + INTRA:          -4.817
REMARK INTER:                  -4.424
REMARK INTRA:                  -0.393
REMARK UNBOUND:                -0.527
REMARK SMILES C=CC(=O)CCCCC
REMARK SMILES IDX 6 1 7 2 8 3 9 4 5 5 3 6 4 7 2 8 1 9
REMARK H PARENT
REMARK Flexibility Score: inf
ROOT
ATOM      1  C   UNL     1      -5.079 -10.350  17.668  1.00  0.00     0.008 C 
ENDROOT
BRANCH   1   2
ATOM      2  C   UNL     1      -4.317  -9.793  16.455  1.00  0.00     0.000 C 
BRANCH   2   3
ATOM      3  C   UNL     1      -5.064 -10.023  15.133  1.00  0.00    -0.003 C 
ATOM      4  C   UNL     1      -5.760  -8.747  14.666  1.00  0.00     0.004 C 
ENDBRANCH   2   3
ENDBRANCH   1   2
BRANCH   1   5
ATOM      5  C   UNL     1      -4.543 -11.713  18.127  1.00  0.00     0.080 C 
BRANCH   5   6
ATOM      6  C   UNL     1      -5.637 -12.740  18.107  1.00  0.00     0.155 C 
ATOM      7  O   UNL     1      -6.474 -12.771  19.049  1.00  0.00    -0.295 OA
BRANCH   6   8
ATOM      8  C   UNL     1      -5.751 -13.674  16.969  1.00  0.00     0.039 C 
ATOM      9  C   UNL     1      -4.890 -13.668  15.952  1.00  0.00     0.012 C 
ENDBRANCH   6   8
ENDBRANCH   5   6
ENDBRANCH   1   5
TORSDOF 5
ENDMDL
MODEL 3
REMARK VINA RESULT:    -3.295      1.551      2.908
REMARK INTER + INTRA:          -4.786
REMARK INTER:                  -4.194
REMARK INTRA:                  -0.591
REMARK UNBOUND:                -0.527
REMARK SMILES C=CC(=O)CCCCC
REMARK SMILES IDX 6 1 7 2 8 3 9 4 5 5 3 6 4 7 2 8 1 9
REMARK H PARENT
REMARK Flexibility Score: inf
ROOT
ATOM      1  C   UNL     1     -17.757  -0.103  11.861  1.00  0.00     0.008 C 
ENDROOT
BRANCH   1   2
ATOM      2  C   UNL     1     -17.016  -1.366  11.396  1.00  0.00     0.000 C 
BRANCH   2   3
ATOM      3  C   UNL     1     -17.353  -1.748   9.947  1.00  0.00    -0.003 C 
ATOM      4  C   UNL     1     -17.835  -3.194   9.859  1.00  0.00     0.004 C 
ENDBRANCH   2   3
ENDBRANCH   1   2
BRANCH   1   5
ATOM      5  C   UNL     1     -18.851   0.336  10.878  1.00  0.00     0.080 C 
BRANCH   5   6
ATOM      6  C   UNL     1     -20.210   0.125  11.477  1.00  0.00     0.155 C 
ATOM      7  O   UNL     1     -20.721   1.032  12.188  1.00  0.00    -0.295 OA
BRANCH   6   8
ATOM      8  C   UNL     1     -20.956  -1.118  11.195  1.00  0.00     0.039 C 
ATOM      9  C   UNL     1     -20.780  -2.233  11.903  1.00  0.00     0.012 C 
ENDBRANCH   6   8
ENDBRANCH   5   6
ENDBRANCH   1   5
TORSDOF 5
ENDMDL
MODEL 4
REMARK VINA RESULT:    -3.294      2.226      3.828
REMARK INTER + INTRA:          -4.784
REMARK INTER:                  -4.318
REMARK INTRA:                  -0.466
REMARK UNBOUND:                -0.527
REMARK SMILES C=CC(=O)CCCCC
REMARK SMILES IDX 6 1 7 2 8 3 9 4 5 5 3 6 4 7 2 8 1 9
REMARK H PARENT
REMARK Flexibility Score: inf
ROOT
ATOM      1  C   UNL     1     -17.515  -1.435  10.238  1.00  0.00     0.008 C 
ENDROOT
BRANCH   1   2
ATOM      2  C   UNL     1     -16.775  -1.338  11.581  1.00  0.00     0.000 C 
BRANCH   2   3
ATOM      3  C   UNL     1     -17.153  -0.078  12.373  1.00  0.00    -0.003 C 
ATOM      4  C   UNL     1     -18.323   0.652  11.718  1.00  0.00     0.004 C 
ENDBRANCH   2   3
ENDBRANCH   1   2
BRANCH   1   5
ATOM      5  C   UNL     1     -17.759  -2.886   9.801  1.00  0.00     0.080 C 
BRANCH   5   6
ATOM      6  C   UNL     1     -19.218  -3.223   9.895  1.00  0.00     0.155 C 
ATOM      7  O   UNL     1     -19.630  -4.323   9.437  1.00  0.00    -0.295 OA
BRANCH   6   8
ATOM      8  C   UNL     1     -20.150  -2.289  10.558  1.00  0.00     0.039 C 
ATOM      9  C   UNL     1     -20.561  -2.463  11.814  1.00  0.00     0.012 C 
ENDBRANCH   6   8
ENDBRANCH   5   6
ENDBRANCH   1   5
TORSDOF 5
ENDMDL
MODEL 5
REMARK VINA RESULT:    -3.268      2.411      3.716
REMARK INTER + INTRA:          -4.750
REMARK INTER:                  -4.187
REMARK INTRA:                  -0.563
REMARK UNBOUND:                -0.527
REMARK SMILES C=CC(=O)CCCCC
REMARK SMILES IDX 6 1 7 2 8 3 9 4 5 5 3 6 4 7 2 8 1 9
REMARK H PARENT
REMARK Flexibility Score: inf
ROOT
ATOM      1  C   UNL     1     -17.581  -2.982   9.359  1.00  0.00     0.008 C 
ENDROOT
BRANCH   1   2
ATOM      2  C   UNL     1     -17.289  -1.563   9.870  1.00  0.00     0.000 C 
BRANCH   2   3
ATOM      3  C   UNL     1     -16.852  -1.544  11.343  1.00  0.00    -0.003 C 
ATOM      4  C   UNL     1     -17.407  -0.319  12.065  1.00  0.00     0.004 C 
ENDBRANCH   2   3
ENDBRANCH   1   2
BRANCH   1   5
ATOM      5  C   UNL     1     -18.864  -3.574   9.959  1.00  0.00     0.080 C 
BRANCH   5   6
ATOM      6  C   UNL     1     -20.048  -2.723   9.609  1.00  0.00     0.155 C 
ATOM      7  O   UNL     1     -20.467  -2.704   8.420  1.00  0.00    -0.295 OA
BRANCH   6   8
ATOM      8  C   UNL     1     -20.738  -1.951  10.662  1.00  0.00     0.039 C 
ATOM      9  C   UNL     1     -20.679  -2.288  11.949  1.00  0.00     0.012 C 
ENDBRANCH   6   8
ENDBRANCH   5   6
ENDBRANCH   1   5
TORSDOF 5
ENDMDL
MODEL 6
REMARK VINA RESULT:    -3.265     16.813     18.244
REMARK INTER + INTRA:          -4.747
REMARK INTER:                  -4.561
REMARK INTRA:                  -0.186
REMARK UNBOUND:                -0.527
REMARK SMILES C=CC(=O)CCCCC
REMARK SMILES IDX 6 1 7 2 8 3 9 4 5 5 3 6 4 7 2 8 1 9
REMARK H PARENT
REMARK Flexibility Score: inf
ROOT
ATOM      1  C   UNL     1      -5.094 -10.334  17.633  1.00  0.00     0.008 C 
ENDROOT
BRANCH   1   2
ATOM      2  C   UNL     1      -4.480  -9.446  16.539  1.00  0.00     0.000 C 
BRANCH   2   3
ATOM      3  C   UNL     1      -5.374  -9.339  15.295  1.00  0.00    -0.003 C 
ATOM      4  C   UNL     1      -5.067 -10.456  14.301  1.00  0.00     0.004 C 
ENDBRANCH   2   3
ENDBRANCH   1   2
BRANCH   1   5
ATOM      5  C   UNL     1      -4.506 -11.751  17.643  1.00  0.00     0.080 C 
BRANCH   5   6
ATOM      6  C   UNL     1      -5.560 -12.754  18.009  1.00  0.00     0.155 C 
ATOM      7  O   UNL     1      -6.044 -13.497  17.113  1.00  0.00    -0.295 OA
BRANCH   6   8
ATOM      8  C   UNL     1      -5.988 -12.895  19.415  1.00  0.00     0.039 C 
ATOM      9  C   UNL     1      -5.161 -13.303  20.376  1.00  0.00     0.012 C 
ENDBRANCH   6   8
ENDBRANCH   5   6
ENDBRANCH   1   5
TORSDOF 5
ENDMDL
MODEL 7
REMARK VINA RESULT:    -3.261     16.462     17.680
REMARK INTER + INTRA:          -4.741
REMARK INTER:                  -4.357
REMARK INTRA:                  -0.385
REMARK UNBOUND:                -0.527
REMARK SMILES C=CC(=O)CCCCC
REMARK SMILES IDX 6 1 7 2 8 3 9 4 5 5 3 6 4 7 2 8 1 9
REMARK H PARENT
REMARK Flexibility Score: inf
ROOT
ATOM      1  C   UNL     1      -4.357 -11.127  17.375  1.00  0.00     0.008 C 
ENDROOT
BRANCH   1   2
ATOM      2  C   UNL     1      -4.900 -11.572  18.742  1.00  0.00     0.000 C 
BRANCH   2   3
ATOM      3  C   UNL     1      -6.020 -12.616  18.620  1.00  0.00    -0.003 C 
ATOM      4  C   UNL     1      -5.838 -13.473  17.370  1.00  0.00     0.004 C 
ENDBRANCH   2   3
ENDBRANCH   1   2
BRANCH   1   5
ATOM      5  C   UNL     1      -5.040  -9.855  16.853  1.00  0.00     0.080 C 
BRANCH   5   6
ATOM      6  C   UNL     1      -5.090  -9.864  15.354  1.00  0.00     0.155 C 
ATOM      7  O   UNL     1      -5.769  -8.990  14.752  1.00  0.00    -0.295 OA
BRANCH   6   8
ATOM      8  C   UNL     1      -4.311 -10.864  14.596  1.00  0.00     0.039 C 
ATOM      9  C   UNL     1      -4.889 -11.793  13.836  1.00  0.00     0.012 C 
ENDBRANCH   6   8
ENDBRANCH   5   6
ENDBRANCH   1   5
TORSDOF 5
ENDMDL
MODEL 8
REMARK VINA RESULT:    -3.244      1.808      2.575
REMARK INTER + INTRA:          -4.719
REMARK INTER:                  -4.466
REMARK INTRA:                  -0.254
REMARK UNBOUND:                -0.527
REMARK SMILES C=CC(=O)CCCCC
REMARK SMILES IDX 6 1 7 2 8 3 9 4 5 5 3 6 4 7 2 8 1 9
REMARK H PARENT
REMARK Flexibility Score: inf
ROOT
ATOM      1  C   UNL     1     -18.434  -3.423   9.947  1.00  0.00     0.008 C 
ENDROOT
BRANCH   1   2
ATOM      2  C   UNL     1     -17.998  -3.940   8.567  1.00  0.00     0.000 C 
BRANCH   2   3
ATOM      3  C   UNL     1     -19.049  -4.857   7.922  1.00  0.00    -0.003 C 
ATOM      4  C   UNL     1     -19.611  -5.847   8.939  1.00  0.00     0.004 C 
ENDBRANCH   2   3
ENDBRANCH   1   2
BRANCH   1   5
ATOM      5  C   UNL     1     -19.169  -2.078   9.869  1.00  0.00     0.080 C 
BRANCH   5   6
ATOM      6  C   UNL     1     -18.289  -0.969  10.365  1.00  0.00     0.155 C 
ATOM      7  O   UNL     1     -18.587   0.225  10.096  1.00  0.00    -0.295 OA
BRANCH   6   8
ATOM      8  C   UNL     1     -17.110  -1.280  11.198  1.00  0.00     0.039 C 
ATOM      9  C   UNL     1     -16.863  -0.654  12.347  1.00  0.00     0.012 C 
ENDBRANCH   6   8
ENDBRANCH   5   6
ENDBRANCH   1   5
TORSDOF 5
ENDMDL
MODEL 9
REMARK VINA RESULT:    -3.172      1.591      1.967
REMARK INTER + INTRA:          -4.626
REMARK INTER:                  -4.113
REMARK INTRA:                  -0.513
REMARK UNBOUND:                -0.527
REMARK SMILES C=CC(=O)CCCCC
REMARK SMILES IDX 6 1 7 2 8 3 9 4 5 5 3 6 4 7 2 8 1 9
REMARK H PARENT
REMARK Flexibility Score: inf
ROOT
ATOM      1  C   UNL     1     -17.337  -1.624  10.686  1.00  0.00     0.008 C 
ENDROOT
BRANCH   1   2
ATOM      2  C   UNL     1     -17.390  -2.708   9.599  1.00  0.00     0.000 C 
BRANCH   2   3
ATOM      3  C   UNL     1     -18.607  -3.633   9.747  1.00  0.00    -0.003 C 
ATOM      4  C   UNL     1     -19.032  -4.200   8.395  1.00  0.00     0.004 C 
ENDBRANCH   2   3
ENDBRANCH   1   2
BRANCH   1   5
ATOM      5  C   UNL     1     -18.720  -1.307  11.273  1.00  0.00     0.080 C 
BRANCH   5   6
ATOM      6  C   UNL     1     -19.122   0.099  10.938  1.00  0.00     0.155 C 
ATOM      7  O   UNL     1     -18.684   1.051  11.638  1.00  0.00    -0.295 OA
BRANCH   6   8
ATOM      8  C   UNL     1     -19.988   0.360   9.771  1.00  0.00     0.039 C 
ATOM      9  C   UNL     1     -20.737  -0.588   9.211  1.00  0.00     0.012 C 
ENDBRANCH   6   8
ENDBRANCH   5   6
ENDBRANCH   1   5
TORSDOF 5
ENDMDL
