MODEL 1
REMARK VINA RESULT:    -4.821      0.000      0.000
REMARK INTER + INTRA:          -8.027
REMARK INTER:                  -7.639
REMARK INTRA:                  -0.388
REMARK UNBOUND:                -0.388
REMARK SMILES CCCCCCCCCCCC(=O)[O-]
REMARK SMILES IDX 7 1 8 2 9 3 10 4 11 5 12 6 13 7 14 8 6 9 5 10 4 11 3 12 2 13
REMARK SMILES IDX 1 14
REMARK H PARENT
REMARK Flexibility Score: inf
ROOT
ATOM      1  C   UNL     1      40.116  55.978  18.264  1.00  0.00     0.000 C 
ENDROOT
BRANCH   1   2
ATOM      2  C   UNL     1      39.042  57.057  18.047  1.00  0.00     0.000 C 
BRANCH   2   3
ATOM      3  C   UNL     1      38.005  56.653  16.984  1.00  0.00     0.000 C 
BRANCH   3   4
ATOM      4  C   UNL     1      36.660  57.384  17.156  1.00  0.00     0.006 C 
BRANCH   4   5
ATOM      5  C   UNL     1      35.990  57.800  15.837  1.00  0.00     0.053 C 
BRANCH   5   6
ATOM      6  C   UNL     1      34.842  56.907  15.484  1.00  0.00     0.041 C 
ATOM      7  O   UNL     1      34.221  56.287  16.387  1.00  0.00    -0.550 OA
ATOM      8  O   UNL     1      34.478  56.733  14.155  1.00  0.00    -0.550 OA
ENDBRANCH   5   6
ENDBRANCH   4   5
ENDBRANCH   3   4
ENDBRANCH   2   3
ENDBRANCH   1   2
BRANCH   1   9
ATOM      9  C   UNL     1      41.122  55.904  17.102  1.00  0.00     0.000 C 
BRANCH   9  10
ATOM     10  C   UNL     1      42.539  55.530  17.571  1.00  0.00    -0.000 C 
BRANCH  10  11
ATOM     11  C   UNL     1      42.913  54.080  17.217  1.00  0.00    -0.000 C 
BRANCH  11  12
ATOM     12  C   UNL     1      42.693  53.753  15.728  1.00  0.00    -0.000 C 
BRANCH  12  13
ATOM     13  C   UNL     1      43.916  53.164  15.004  1.00  0.00    -0.003 C 
ATOM     14  C   UNL     1      45.104  54.124  14.955  1.00  0.00     0.004 C 
ENDBRANCH  12  13
ENDBRANCH  11  12
ENDBRANCH  10  11
ENDBRANCH   9  10
ENDBRANCH   1   9
TORSDOF 10
ENDMDL
MODEL 2
REMARK VINA RESULT:    -4.735      1.442      2.722
REMARK INTER + INTRA:          -7.891
REMARK INTER:                  -7.548
REMARK INTRA:                  -0.343
REMARK UNBOUND:                -0.388
REMARK SMILES CCCCCCCCCCCC(=O)[O-]
REMARK SMILES IDX 7 1 8 2 9 3 10 4 11 5 12 6 13 7 14 8 6 9 5 10 4 11 3 12 2 13
REMARK SMILES IDX 1 14
REMARK H PARENT
REMARK Flexibility Score: inf
ROOT
ATOM      1  C   UNL     1      37.888  56.703  16.870  1.00  0.00     0.000 C 
ENDROOT
BRANCH   1   2
ATOM      2  C   UNL     1      36.443  57.199  17.052  1.00  0.00     0.000 C 
BRANCH   2   3
ATOM      3  C   UNL     1      35.862  57.812  15.766  1.00  0.00     0.000 C 
BRANCH   3   4
ATOM      4  C   UNL     1      34.693  56.990  15.191  1.00  0.00     0.006 C 
BRANCH   4   5
ATOM      5  C   UNL     1      33.995  56.079  16.213  1.00  0.00     0.053 C 
BRANCH   5   6
ATOM      6  C   UNL     1      32.504  56.177  16.125  1.00  0.00     0.041 C 
ATOM      7  O   UNL     1      31.865  56.880  16.951  1.00  0.00    -0.550 OA
ATOM      8  O   UNL     1      31.816  55.465  15.150  1.00  0.00    -0.550 OA
ENDBRANCH   5   6
ENDBRANCH   4   5
ENDBRANCH   3   4
ENDBRANCH   2   3
ENDBRANCH   1   2
BRANCH   1   9
ATOM      9  C   UNL     1      38.823  57.181  17.996  1.00  0.00     0.000 C 
BRANCH   9  10
ATOM     10  C   UNL     1      39.910  56.147  18.338  1.00  0.00    -0.000 C 
BRANCH  10  11
ATOM     11  C   UNL     1      40.916  55.950  17.190  1.00  0.00    -0.000 C 
BRANCH  11  12
ATOM     12  C   UNL     1      42.302  55.494  17.684  1.00  0.00    -0.000 C 
BRANCH  12  13
ATOM     13  C   UNL     1      43.010  54.470  16.781  1.00  0.00    -0.003 C 
ATOM     14  C   UNL     1      42.307  54.267  15.439  1.00  0.00     0.004 C 
ENDBRANCH  12  13
ENDBRANCH  11  12
ENDBRANCH  10  11
ENDBRANCH   9  10
ENDBRANCH   1   9
TORSDOF 10
ENDMDL
MODEL 3
REMARK VINA RESULT:    -4.716      1.765      3.660
REMARK INTER + INTRA:          -7.862
REMARK INTER:                  -7.524
REMARK INTRA:                  -0.337
REMARK UNBOUND:                -0.388
REMARK SMILES CCCCCCCCCCCC(=O)[O-]
REMARK SMILES IDX 7 1 8 2 9 3 10 4 11 5 12 6 13 7 14 8 6 9 5 10 4 11 3 12 2 13
REMARK SMILES IDX 1 14
REMARK H PARENT
REMARK Flexibility Score: inf
ROOT
ATOM      1  C   UNL     1      36.510  57.385  16.793  1.00  0.00     0.000 C 
ENDROOT
BRANCH   1   2
ATOM      2  C   UNL     1      36.176  57.904  15.384  1.00  0.00     0.000 C 
BRANCH   2   3
ATOM      3  C   UNL     1      34.977  57.174  14.754  1.00  0.00     0.000 C 
BRANCH   3   4
ATOM      4  C   UNL     1      34.176  56.350  15.781  1.00  0.00     0.006 C 
BRANCH   4   5
ATOM      5  C   UNL     1      32.658  56.339  15.540  1.00  0.00     0.053 C 
BRANCH   5   6
ATOM      6  C   UNL     1      31.895  55.986  16.779  1.00  0.00     0.041 C 
ATOM      7  O   UNL     1      32.089  54.880  17.349  1.00  0.00    -0.550 OA
ATOM      8  O   UNL     1      30.948  56.865  17.287  1.00  0.00    -0.550 OA
ENDBRANCH   5   6
ENDBRANCH   4   5
ENDBRANCH   3   4
ENDBRANCH   2   3
ENDBRANCH   1   2
BRANCH   1   9
ATOM      9  C   UNL     1      37.866  56.658  16.848  1.00  0.00     0.000 C 
BRANCH   9  10
ATOM     10  C   UNL     1      38.743  57.135  18.019  1.00  0.00    -0.000 C 
BRANCH  10  11
ATOM     11  C   UNL     1      39.863  56.136  18.360  1.00  0.00    -0.000 C 
BRANCH  11  12
ATOM     12  C   UNL     1      40.880  55.967  17.216  1.00  0.00    -0.000 C 
BRANCH  12  13
ATOM     13  C   UNL     1      42.277  55.494  17.653  1.00  0.00    -0.003 C 
ATOM     14  C   UNL     1      42.926  54.537  16.652  1.00  0.00     0.004 C 
ENDBRANCH  12  13
ENDBRANCH  11  12
ENDBRANCH  10  11
ENDBRANCH   9  10
ENDBRANCH   1   9
TORSDOF 10
ENDMDL
MODEL 4
REMARK VINA RESULT:    -4.697      4.110      7.674
REMARK INTER + INTRA:          -7.831
REMARK INTER:                  -7.412
REMARK INTRA:                  -0.419
REMARK UNBOUND:                -0.388
REMARK SMILES CCCCCCCCCCCC(=O)[O-]
REMARK SMILES IDX 7 1 8 2 9 3 10 4 11 5 12 6 13 7 14 8 6 9 5 10 4 11 3 12 2 13
REMARK SMILES IDX 1 14
REMARK H PARENT
REMARK Flexibility Score: inf
ROOT
ATOM      1  C   UNL     1      38.718  57.153  18.040  1.00  0.00     0.000 C 
ENDROOT
BRANCH   1   2
ATOM      2  C   UNL     1      39.868  56.192  18.386  1.00  0.00     0.000 C 
BRANCH   2   3
ATOM      3  C   UNL     1      40.859  56.014  17.223  1.00  0.00     0.000 C 
BRANCH   3   4
ATOM      4  C   UNL     1      42.218  55.449  17.680  1.00  0.00     0.006 C 
BRANCH   4   5
ATOM      5  C   UNL     1      42.850  54.446  16.702  1.00  0.00     0.053 C 
BRANCH   5   6
ATOM      6  C   UNL     1      44.174  54.919  16.190  1.00  0.00     0.041 C 
ATOM      7  O   UNL     1      44.846  54.197  15.407  1.00  0.00    -0.550 OA
ATOM      8  O   UNL     1      44.682  56.145  16.601  1.00  0.00    -0.550 OA
ENDBRANCH   5   6
ENDBRANCH   4   5
ENDBRANCH   3   4
ENDBRANCH   2   3
ENDBRANCH   1   2
BRANCH   1   9
ATOM      9  C   UNL     1      37.911  56.691  16.814  1.00  0.00     0.000 C 
BRANCH   9  10
ATOM     10  C   UNL     1      36.422  57.064  16.913  1.00  0.00    -0.000 C 
BRANCH  10  11
ATOM     11  C   UNL     1      36.003  58.098  15.852  1.00  0.00    -0.000 C 
BRANCH  11  12
ATOM     12  C   UNL     1      36.187  57.584  14.412  1.00  0.00    -0.000 C 
BRANCH  12  13
ATOM     13  C   UNL     1      35.274  56.410  14.018  1.00  0.00    -0.003 C 
ATOM     14  C   UNL     1      33.794  56.688  14.281  1.00  0.00     0.004 C 
ENDBRANCH  12  13
ENDBRANCH  11  12
ENDBRANCH  10  11
ENDBRANCH   9  10
ENDBRANCH   1   9
TORSDOF 10
ENDMDL
MODEL 5
REMARK VINA RESULT:    -4.687      4.535      7.938
REMARK INTER + INTRA:          -7.815
REMARK INTER:                  -7.344
REMARK INTRA:                  -0.471
REMARK UNBOUND:                -0.388
REMARK SMILES CCCCCCCCCCCC(=O)[O-]
REMARK SMILES IDX 7 1 8 2 9 3 10 4 11 5 12 6 13 7 14 8 6 9 5 10 4 11 3 12 2 13
REMARK SMILES IDX 1 14
REMARK H PARENT
REMARK Flexibility Score: inf
ROOT
ATOM      1  C   UNL     1      42.238  55.704  17.613  1.00  0.00     0.000 C 
ENDROOT
BRANCH   1   2
ATOM      2  C   UNL     1      42.773  54.375  17.053  1.00  0.00     0.000 C 
BRANCH   2   3
ATOM      3  C   UNL     1      43.185  54.480  15.574  1.00  0.00     0.000 C 
BRANCH   3   4
ATOM      4  C   UNL     1      44.671  54.142  15.345  1.00  0.00     0.006 C 
BRANCH   4   5
ATOM      5  C   UNL     1      45.549  55.352  14.989  1.00  0.00     0.053 C 
BRANCH   5   6
ATOM      6  C   UNL     1      45.876  56.182  16.191  1.00  0.00     0.041 C 
ATOM      7  O   UNL     1      46.609  55.715  17.103  1.00  0.00    -0.550 OA
ATOM      8  O   UNL     1      45.346  57.459  16.321  1.00  0.00    -0.550 OA
ENDBRANCH   5   6
ENDBRANCH   4   5
ENDBRANCH   3   4
ENDBRANCH   2   3
ENDBRANCH   1   2
BRANCH   1   9
ATOM      9  C   UNL     1      40.787  55.985  17.184  1.00  0.00     0.000 C 
BRANCH   9  10
ATOM     10  C   UNL     1      39.861  56.260  18.381  1.00  0.00    -0.000 C 
BRANCH  10  11
ATOM     11  C   UNL     1      38.696  57.199  18.020  1.00  0.00    -0.000 C 
BRANCH  11  12
ATOM     12  C   UNL     1      37.845  56.671  16.848  1.00  0.00    -0.000 C 
BRANCH  12  13
ATOM     13  C   UNL     1      36.366  57.091  16.879  1.00  0.00    -0.003 C 
ATOM     14  C   UNL     1      36.001  58.082  15.774  1.00  0.00     0.004 C 
ENDBRANCH  12  13
ENDBRANCH  11  12
ENDBRANCH  10  11
ENDBRANCH   9  10
ENDBRANCH   1   9
TORSDOF 10
ENDMDL
MODEL 6
REMARK VINA RESULT:    -4.662      3.784      8.038
REMARK INTER + INTRA:          -7.775
REMARK INTER:                  -7.440
REMARK INTRA:                  -0.335
REMARK UNBOUND:                -0.388
REMARK SMILES CCCCCCCCCCCC(=O)[O-]
REMARK SMILES IDX 7 1 8 2 9 3 10 4 11 5 12 6 13 7 14 8 6 9 5 10 4 11 3 12 2 13
REMARK SMILES IDX 1 14
REMARK H PARENT
REMARK Flexibility Score: inf
ROOT
ATOM      1  C   UNL     1      37.841  56.723  16.943  1.00  0.00     0.000 C 
ENDROOT
BRANCH   1   2
ATOM      2  C   UNL     1      38.872  57.172  17.993  1.00  0.00     0.000 C 
BRANCH   2   3
ATOM      3  C   UNL     1      39.916  56.083  18.299  1.00  0.00     0.000 C 
BRANCH   3   4
ATOM      4  C   UNL     1      40.956  55.924  17.173  1.00  0.00     0.006 C 
BRANCH   4   5
ATOM      5  C   UNL     1      42.352  55.497  17.656  1.00  0.00     0.053 C 
BRANCH   5   6
ATOM      6  C   UNL     1      43.113  54.765  16.594  1.00  0.00     0.041 C 
ATOM      7  O   UNL     1      44.368  54.851  16.541  1.00  0.00    -0.550 OA
ATOM      8  O   UNL     1      42.434  54.014  15.644  1.00  0.00    -0.550 OA
ENDBRANCH   5   6
ENDBRANCH   4   5
ENDBRANCH   3   4
ENDBRANCH   2   3
ENDBRANCH   1   2
BRANCH   1   9
ATOM      9  C   UNL     1      36.504  57.474  17.070  1.00  0.00     0.000 C 
BRANCH   9  10
ATOM     10  C   UNL     1      35.892  57.825  15.703  1.00  0.00    -0.000 C 
BRANCH  10  11
ATOM     11  C   UNL     1      34.991  56.703  15.157  1.00  0.00    -0.000 C 
BRANCH  11  12
ATOM     12  C   UNL     1      33.946  56.224  16.182  1.00  0.00    -0.000 C 
BRANCH  12  13
ATOM     13  C   UNL     1      32.481  56.468  15.782  1.00  0.00    -0.003 C 
ATOM     14  C   UNL     1      31.517  56.403  16.966  1.00  0.00     0.004 C 
ENDBRANCH  12  13
ENDBRANCH  11  12
ENDBRANCH  10  11
ENDBRANCH   9  10
ENDBRANCH   1   9
TORSDOF 10
ENDMDL
MODEL 7
REMARK VINA RESULT:    -4.561      1.665      2.353
REMARK INTER + INTRA:          -7.615
REMARK INTER:                  -7.344
REMARK INTRA:                  -0.271
REMARK UNBOUND:                -0.388
REMARK SMILES CCCCCCCCCCCC(=O)[O-]
REMARK SMILES IDX 7 1 8 2 9 3 10 4 11 5 12 6 13 7 14 8 6 9 5 10 4 11 3 12 2 13
REMARK SMILES IDX 1 14
REMARK H PARENT
REMARK Flexibility Score: inf
ROOT
ATOM      1  C   UNL     1      41.214  55.772  17.085  1.00  0.00     0.000 C 
ENDROOT
BRANCH   1   2
ATOM      2  C   UNL     1      40.241  55.949  18.263  1.00  0.00     0.000 C 
BRANCH   2   3
ATOM      3  C   UNL     1      39.238  57.093  18.033  1.00  0.00     0.000 C 
BRANCH   3   4
ATOM      4  C   UNL     1      38.004  56.649  17.225  1.00  0.00     0.006 C 
BRANCH   4   5
ATOM      5  C   UNL     1      36.841  57.654  17.240  1.00  0.00     0.053 C 
BRANCH   5   6
ATOM      6  C   UNL     1      35.776  57.295  16.250  1.00  0.00     0.041 C 
ATOM      7  O   UNL     1      34.943  56.389  16.516  1.00  0.00    -0.550 OA
ATOM      8  O   UNL     1      35.724  57.937  15.020  1.00  0.00    -0.550 OA
ENDBRANCH   5   6
ENDBRANCH   4   5
ENDBRANCH   3   4
ENDBRANCH   2   3
ENDBRANCH   1   2
BRANCH   1   9
ATOM      9  C   UNL     1      42.585  55.229  17.528  1.00  0.00     0.000 C 
BRANCH   9  10
ATOM     10  C   UNL     1      43.223  54.308  16.474  1.00  0.00    -0.000 C 
BRANCH  10  11
ATOM     11  C   UNL     1      44.478  54.927  15.834  1.00  0.00    -0.000 C 
BRANCH  11  12
ATOM     12  C   UNL     1      45.431  55.550  16.872  1.00  0.00    -0.000 C 
BRANCH  12  13
ATOM     13  C   UNL     1      46.730  56.137  16.293  1.00  0.00    -0.003 C 
ATOM     14  C   UNL     1      47.911  56.045  17.258  1.00  0.00     0.004 C 
ENDBRANCH  12  13
ENDBRANCH  11  12
ENDBRANCH  10  11
ENDBRANCH   9  10
ENDBRANCH   1   9
TORSDOF 10
ENDMDL
MODEL 8
REMARK VINA RESULT:    -4.508      1.264      2.002
REMARK INTER + INTRA:          -7.532
REMARK INTER:                  -7.282
REMARK INTRA:                  -0.250
REMARK UNBOUND:                -0.388
REMARK SMILES CCCCCCCCCCCC(=O)[O-]
REMARK SMILES IDX 7 1 8 2 9 3 10 4 11 5 12 6 13 7 14 8 6 9 5 10 4 11 3 12 2 13
REMARK SMILES IDX 1 14
REMARK H PARENT
REMARK Flexibility Score: inf
ROOT
ATOM      1  C   UNL     1      41.808  55.675  18.180  1.00  0.00     0.000 C 
ENDROOT
BRANCH   1   2
ATOM      2  C   UNL     1      40.704  56.026  17.168  1.00  0.00     0.000 C 
BRANCH   2   3
ATOM      3  C   UNL     1      39.430  56.562  17.845  1.00  0.00     0.000 C 
BRANCH   3   4
ATOM      4  C   UNL     1      38.200  56.516  16.918  1.00  0.00     0.006 C 
BRANCH   4   5
ATOM      5  C   UNL     1      37.069  57.476  17.317  1.00  0.00     0.053 C 
BRANCH   5   6
ATOM      6  C   UNL     1      35.979  57.517  16.291  1.00  0.00     0.041 C 
ATOM      7  O   UNL     1      34.791  57.255  16.618  1.00  0.00    -0.550 OA
ATOM      8  O   UNL     1      36.279  57.812  14.968  1.00  0.00    -0.550 OA
ENDBRANCH   5   6
ENDBRANCH   4   5
ENDBRANCH   3   4
ENDBRANCH   2   3
ENDBRANCH   1   2
BRANCH   1   9
ATOM      9  C   UNL     1      43.149  55.346  17.501  1.00  0.00     0.000 C 
BRANCH   9  10
ATOM     10  C   UNL     1      43.012  54.262  16.419  1.00  0.00    -0.000 C 
BRANCH  10  11
ATOM     11  C   UNL     1      44.152  54.314  15.386  1.00  0.00    -0.000 C 
BRANCH  11  12
ATOM     12  C   UNL     1      44.524  52.923  14.838  1.00  0.00    -0.000 C 
BRANCH  12  13
ATOM     13  C   UNL     1      45.790  52.887  13.963  1.00  0.00    -0.003 C 
ATOM     14  C   UNL     1      46.835  51.891  14.464  1.00  0.00     0.004 C 
ENDBRANCH  12  13
ENDBRANCH  11  12
ENDBRANCH  10  11
ENDBRANCH   9  10
ENDBRANCH   1   9
TORSDOF 10
ENDMDL
MODEL 9
REMARK VINA RESULT:    -4.489      5.477      8.605
REMARK INTER + INTRA:          -7.502
REMARK INTER:                  -6.971
REMARK INTRA:                  -0.531
REMARK UNBOUND:                -0.388
REMARK SMILES CCCCCCCCCCCC(=O)[O-]
REMARK SMILES IDX 7 1 8 2 9 3 10 4 11 5 12 6 13 7 14 8 6 9 5 10 4 11 3 12 2 13
REMARK SMILES IDX 1 14
REMARK H PARENT
REMARK Flexibility Score: inf
ROOT
ATOM      1  C   UNL     1      42.750  53.560  16.089  1.00  0.00     0.000 C 
ENDROOT
BRANCH   1   2
ATOM      2  C   UNL     1      44.097  53.442  15.356  1.00  0.00     0.000 C 
BRANCH   2   3
ATOM      3  C   UNL     1      44.661  54.810  14.933  1.00  0.00     0.000 C 
BRANCH   3   4
ATOM      4  C   UNL     1      46.101  55.038  15.430  1.00  0.00     0.006 C 
BRANCH   4   5
ATOM      5  C   UNL     1      46.261  56.233  16.385  1.00  0.00     0.053 C 
BRANCH   5   6
ATOM      6  C   UNL     1      47.542  56.166  17.157  1.00  0.00     0.041 C 
ATOM      7  O   UNL     1      47.978  57.188  17.750  1.00  0.00    -0.550 OA
ATOM      8  O   UNL     1      48.271  54.985  17.196  1.00  0.00    -0.550 OA
ENDBRANCH   5   6
ENDBRANCH   4   5
ENDBRANCH   3   4
ENDBRANCH   2   3
ENDBRANCH   1   2
BRANCH   1   9
ATOM      9  C   UNL     1      42.762  54.649  17.177  1.00  0.00     0.000 C 
BRANCH   9  10
ATOM     10  C   UNL     1      41.612  55.657  17.015  1.00  0.00    -0.000 C 
BRANCH  10  11
ATOM     11  C   UNL     1      40.783  55.816  18.303  1.00  0.00    -0.000 C 
BRANCH  11  12
ATOM     12  C   UNL     1      39.588  56.773  18.129  1.00  0.00    -0.000 C 
BRANCH  12  13
ATOM     13  C   UNL     1      38.610  56.394  17.004  1.00  0.00    -0.003 C 
ATOM     14  C   UNL     1      37.267  57.116  17.110  1.00  0.00     0.004 C 
ENDBRANCH  12  13
ENDBRANCH  11  12
ENDBRANCH  10  11
ENDBRANCH   9  10
ENDBRANCH   1   9
TORSDOF 10
ENDMDL
