MODEL 1
REMARK VINA RESULT:    -4.590      0.000      0.000
REMARK INTER + INTRA:          -6.966
REMARK INTER:                  -6.469
REMARK INTRA:                  -0.498
REMARK UNBOUND:                -0.498
REMARK SMILES C=CCCCCCCC(=O)[O-]
REMARK SMILES IDX 6 1 7 2 8 3 9 4 10 5 11 6 5 7 4 8 3 9 2 10 1 11
REMARK H PARENT
REMARK Flexibility Score: inf
ROOT
ATOM      1  C   UNL     1     -42.997  11.881   0.722  1.00  0.00     0.000 C 
ENDROOT
BRANCH   1   2
ATOM      2  C   UNL     1     -41.953  12.607   1.583  1.00  0.00     0.006 C 
BRANCH   2   3
ATOM      3  C   UNL     1     -40.905  13.297   0.705  1.00  0.00     0.053 C 
BRANCH   3   4
ATOM      4  C   UNL     1     -39.695  13.651   1.511  1.00  0.00     0.041 C 
ATOM      5  O   UNL     1     -39.541  14.825   1.939  1.00  0.00    -0.550 OA
ATOM      6  O   UNL     1     -38.713  12.698   1.747  1.00  0.00    -0.550 OA
ENDBRANCH   3   4
ENDBRANCH   2   3
ENDBRANCH   1   2
BRANCH   1   7
ATOM      7  C   UNL     1     -44.436  12.318   1.041  1.00  0.00     0.000 C 
BRANCH   7   8
ATOM      8  C   UNL     1     -44.992  13.318   0.015  1.00  0.00     0.004 C 
BRANCH   8   9
ATOM      9  C   UNL     1     -44.290  13.160  -1.339  1.00  0.00     0.027 C 
BRANCH   9  10
ATOM     10  C   UNL     1     -43.955  14.499  -1.938  1.00  0.00    -0.035 C 
ATOM     11  C   UNL     1     -44.827  15.512  -1.930  1.00  0.00     0.004 C 
ENDBRANCH   9  10
ENDBRANCH   8   9
ENDBRANCH   7   8
ENDBRANCH   1   7
TORSDOF 7
ENDMDL
MODEL 2
REMARK VINA RESULT:    -4.508      1.454      2.069
REMARK INTER + INTRA:          -6.850
REMARK INTER:                  -6.151
REMARK INTRA:                  -0.700
REMARK UNBOUND:                -0.498
REMARK SMILES C=CCCCCCCC(=O)[O-]
REMARK SMILES IDX 6 1 7 2 8 3 9 4 10 5 11 6 5 7 4 8 3 9 2 10 1 11
REMARK H PARENT
REMARK Flexibility Score: inf
ROOT
ATOM      1  C   UNL     1     -41.857  11.671   1.372  1.00  0.00     0.000 C 
ENDROOT
BRANCH   1   2
ATOM      2  C   UNL     1     -40.549  12.139   0.716  1.00  0.00     0.006 C 
BRANCH   2   3
ATOM      3  C   UNL     1     -40.624  13.622   0.342  1.00  0.00     0.053 C 
BRANCH   3   4
ATOM      4  C   UNL     1     -39.538  14.391   1.026  1.00  0.00     0.041 C 
ATOM      5  O   UNL     1     -39.611  14.627   2.260  1.00  0.00    -0.550 OA
ATOM      6  O   UNL     1     -38.471  14.891   0.291  1.00  0.00    -0.550 OA
ENDBRANCH   3   4
ENDBRANCH   2   3
ENDBRANCH   1   2
BRANCH   1   7
ATOM      7  C   UNL     1     -42.911  12.786   1.452  1.00  0.00     0.000 C 
BRANCH   7   8
ATOM      8  C   UNL     1     -44.276  12.353   0.895  1.00  0.00     0.004 C 
BRANCH   8   9
ATOM      9  C   UNL     1     -44.521  12.964  -0.490  1.00  0.00     0.027 C 
BRANCH   9  10
ATOM     10  C   UNL     1     -43.835  12.168  -1.566  1.00  0.00    -0.035 C 
ATOM     11  C   UNL     1     -43.921  10.835  -1.619  1.00  0.00     0.004 C 
ENDBRANCH   9  10
ENDBRANCH   8   9
ENDBRANCH   7   8
ENDBRANCH   1   7
TORSDOF 7
ENDMDL
MODEL 3
REMARK VINA RESULT:    -4.486      1.124      2.742
REMARK INTER + INTRA:          -6.819
REMARK INTER:                  -6.075
REMARK INTRA:                  -0.744
REMARK UNBOUND:                -0.498
REMARK SMILES C=CCCCCCCC(=O)[O-]
REMARK SMILES IDX 6 1 7 2 8 3 9 4 10 5 11 6 5 7 4 8 3 9 2 10 1 11
REMARK H PARENT
REMARK Flexibility Score: inf
ROOT
ATOM      1  C   UNL     1     -41.485  14.142  -0.880  1.00  0.00     0.000 C 
ENDROOT
BRANCH   1   2
ATOM      2  C   UNL     1     -40.969  12.825  -0.283  1.00  0.00     0.006 C 
BRANCH   2   3
ATOM      3  C   UNL     1     -40.841  12.927   1.239  1.00  0.00     0.053 C 
BRANCH   3   4
ATOM      4  C   UNL     1     -39.532  13.546   1.616  1.00  0.00     0.041 C 
ATOM      5  O   UNL     1     -38.499  12.833   1.712  1.00  0.00    -0.550 OA
ATOM      6  O   UNL     1     -39.462  14.901   1.911  1.00  0.00    -0.550 OA
ENDBRANCH   3   4
ENDBRANCH   2   3
ENDBRANCH   1   2
BRANCH   1   7
ATOM      7  C   UNL     1     -42.606  13.928  -1.910  1.00  0.00     0.000 C 
BRANCH   7   8
ATOM      8  C   UNL     1     -43.575  12.806  -1.505  1.00  0.00     0.004 C 
BRANCH   8   9
ATOM      9  C   UNL     1     -44.642  13.328  -0.535  1.00  0.00     0.027 C 
BRANCH   9  10
ATOM     10  C   UNL     1     -44.619  12.565   0.761  1.00  0.00    -0.035 C 
ATOM     11  C   UNL     1     -44.172  11.308   0.831  1.00  0.00     0.004 C 
ENDBRANCH   9  10
ENDBRANCH   8   9
ENDBRANCH   7   8
ENDBRANCH   1   7
TORSDOF 7
ENDMDL
MODEL 4
REMARK VINA RESULT:    -4.480      1.164      1.611
REMARK INTER + INTRA:          -6.811
REMARK INTER:                  -6.223
REMARK INTRA:                  -0.589
REMARK UNBOUND:                -0.498
REMARK SMILES C=CCCCCCCC(=O)[O-]
REMARK SMILES IDX 6 1 7 2 8 3 9 4 10 5 11 6 5 7 4 8 3 9 2 10 1 11
REMARK H PARENT
REMARK Flexibility Score: inf
ROOT
ATOM      1  C   UNL     1     -44.366  12.289   1.044  1.00  0.00     0.000 C 
ENDROOT
BRANCH   1   2
ATOM      2  C   UNL     1     -42.951  11.749   1.303  1.00  0.00     0.006 C 
BRANCH   2   3
ATOM      3  C   UNL     1     -41.894  12.805   0.971  1.00  0.00     0.053 C 
BRANCH   3   4
ATOM      4  C   UNL     1     -40.851  12.858   2.043  1.00  0.00     0.041 C 
ATOM      5  O   UNL     1     -41.109  13.396   3.152  1.00  0.00    -0.550 OA
ATOM      6  O   UNL     1     -39.577  12.360   1.800  1.00  0.00    -0.550 OA
ENDBRANCH   3   4
ENDBRANCH   2   3
ENDBRANCH   1   2
BRANCH   1   7
ATOM      7  C   UNL     1     -44.578  12.719  -0.416  1.00  0.00     0.000 C 
BRANCH   7   8
ATOM      8  C   UNL     1     -45.294  14.073  -0.537  1.00  0.00     0.004 C 
BRANCH   8   9
ATOM      9  C   UNL     1     -44.635  14.949  -1.609  1.00  0.00     0.027 C 
BRANCH   9  10
ATOM     10  C   UNL     1     -43.393  14.299  -2.155  1.00  0.00    -0.035 C 
ATOM     11  C   UNL     1     -42.230  14.953  -2.230  1.00  0.00     0.004 C 
ENDBRANCH   9  10
ENDBRANCH   8   9
ENDBRANCH   7   8
ENDBRANCH   1   7
TORSDOF 7
ENDMDL
MODEL 5
REMARK VINA RESULT:    -4.479      3.289      4.732
REMARK INTER + INTRA:          -6.810
REMARK INTER:                  -6.066
REMARK INTRA:                  -0.745
REMARK UNBOUND:                -0.498
REMARK SMILES C=CCCCCCCC(=O)[O-]
REMARK SMILES IDX 6 1 7 2 8 3 9 4 10 5 11 6 5 7 4 8 3 9 2 10 1 11
REMARK H PARENT
REMARK Flexibility Score: inf
ROOT
ATOM      1  C   UNL     1     -44.096  12.793  -1.524  1.00  0.00     0.000 C 
ENDROOT
BRANCH   1   2
ATOM      2  C   UNL     1     -42.729  13.320  -1.985  1.00  0.00     0.006 C 
BRANCH   2   3
ATOM      3  C   UNL     1     -42.650  14.842  -1.837  1.00  0.00     0.053 C 
BRANCH   3   4
ATOM      4  C   UNL     1     -43.346  15.517  -2.977  1.00  0.00     0.041 C 
ATOM      5  O   UNL     1     -44.433  16.122  -2.787  1.00  0.00    -0.550 OA
ATOM      6  O   UNL     1     -42.820  15.434  -4.260  1.00  0.00    -0.550 OA
ENDBRANCH   3   4
ENDBRANCH   2   3
ENDBRANCH   1   2
BRANCH   1   7
ATOM      7  C   UNL     1     -44.521  13.362  -0.161  1.00  0.00     0.000 C 
BRANCH   7   8
ATOM      8  C   UNL     1     -44.693  12.273   0.909  1.00  0.00     0.004 C 
BRANCH   8   9
ATOM      9  C   UNL     1     -43.360  11.574   1.198  1.00  0.00     0.027 C 
BRANCH   9  10
ATOM     10  C   UNL     1     -42.331  12.549   1.700  1.00  0.00    -0.035 C 
ATOM     11  C   UNL     1     -41.047  12.470   1.335  1.00  0.00     0.004 C 
ENDBRANCH   9  10
ENDBRANCH   8   9
ENDBRANCH   7   8
ENDBRANCH   1   7
TORSDOF 7
ENDMDL
MODEL 6
REMARK VINA RESULT:    -4.468      2.716      4.459
REMARK INTER + INTRA:          -6.794
REMARK INTER:                  -6.062
REMARK INTRA:                  -0.732
REMARK UNBOUND:                -0.498
REMARK SMILES C=CCCCCCCC(=O)[O-]
REMARK SMILES IDX 6 1 7 2 8 3 9 4 10 5 11 6 5 7 4 8 3 9 2 10 1 11
REMARK H PARENT
REMARK Flexibility Score: inf
ROOT
ATOM      1  C   UNL     1     -44.621  12.533   0.979  1.00  0.00     0.000 C 
ENDROOT
BRANCH   1   2
ATOM      2  C   UNL     1     -45.093  13.501  -0.116  1.00  0.00     0.006 C 
BRANCH   2   3
ATOM      3  C   UNL     1     -44.294  13.299  -1.406  1.00  0.00     0.053 C 
BRANCH   3   4
ATOM      4  C   UNL     1     -43.641  14.579  -1.825  1.00  0.00     0.041 C 
ATOM      5  O   UNL     1     -42.441  14.807  -1.518  1.00  0.00    -0.550 OA
ATOM      6  O   UNL     1     -44.371  15.542  -2.509  1.00  0.00    -0.550 OA
ENDBRANCH   3   4
ENDBRANCH   2   3
ENDBRANCH   1   2
BRANCH   1   7
ATOM      7  C   UNL     1     -43.382  11.726   0.562  1.00  0.00     0.000 C 
BRANCH   7   8
ATOM      8  C   UNL     1     -42.149  12.047   1.421  1.00  0.00     0.004 C 
BRANCH   8   9
ATOM      9  C   UNL     1     -40.863  11.952   0.590  1.00  0.00     0.027 C 
BRANCH   9  10
ATOM     10  C   UNL     1     -41.143  11.421  -0.789  1.00  0.00    -0.035 C 
ATOM     11  C   UNL     1     -40.561  11.938  -1.875  1.00  0.00     0.004 C 
ENDBRANCH   9  10
ENDBRANCH   8   9
ENDBRANCH   7   8
ENDBRANCH   1   7
TORSDOF 7
ENDMDL
MODEL 7
REMARK VINA RESULT:    -4.464      2.082      3.686
REMARK INTER + INTRA:          -6.788
REMARK INTER:                  -6.065
REMARK INTRA:                  -0.723
REMARK UNBOUND:                -0.498
REMARK SMILES C=CCCCCCCC(=O)[O-]
REMARK SMILES IDX 6 1 7 2 8 3 9 4 10 5 11 6 5 7 4 8 3 9 2 10 1 11
REMARK H PARENT
REMARK Flexibility Score: inf
ROOT
ATOM      1  C   UNL     1     -43.975  14.451  -2.098  1.00  0.00     0.000 C 
ENDROOT
BRANCH   1   2
ATOM      2  C   UNL     1     -42.518  14.536  -2.575  1.00  0.00     0.006 C 
BRANCH   2   3
ATOM      3  C   UNL     1     -41.547  14.321  -1.411  1.00  0.00     0.053 C 
BRANCH   3   4
ATOM      4  C   UNL     1     -40.537  13.271  -1.757  1.00  0.00     0.041 C 
ATOM      5  O   UNL     1     -40.853  12.053  -1.723  1.00  0.00    -0.550 OA
ATOM      6  O   UNL     1     -39.234  13.635  -2.069  1.00  0.00    -0.550 OA
ENDBRANCH   3   4
ENDBRANCH   2   3
ENDBRANCH   1   2
BRANCH   1   7
ATOM      7  C   UNL     1     -44.278  13.142  -1.351  1.00  0.00     0.000 C 
BRANCH   7   8
ATOM      8  C   UNL     1     -45.028  13.374  -0.031  1.00  0.00     0.004 C 
BRANCH   8   9
ATOM      9  C   UNL     1     -44.684  12.286   0.994  1.00  0.00     0.027 C 
BRANCH   9  10
ATOM     10  C   UNL     1     -43.228  11.916   0.927  1.00  0.00    -0.035 C 
ATOM     11  C   UNL     1     -42.311  12.520   1.691  1.00  0.00     0.004 C 
ENDBRANCH   9  10
ENDBRANCH   8   9
ENDBRANCH   7   8
ENDBRANCH   1   7
TORSDOF 7
ENDMDL
MODEL 8
REMARK VINA RESULT:    -4.458      2.329      4.506
REMARK INTER + INTRA:          -6.780
REMARK INTER:                  -6.319
REMARK INTRA:                  -0.462
REMARK UNBOUND:                -0.498
REMARK SMILES C=CCCCCCCC(=O)[O-]
REMARK SMILES IDX 6 1 7 2 8 3 9 4 10 5 11 6 5 7 4 8 3 9 2 10 1 11
REMARK H PARENT
REMARK Flexibility Score: inf
ROOT
ATOM      1  C   UNL     1     -44.741  12.286   0.840  1.00  0.00     0.000 C 
ENDROOT
BRANCH   1   2
ATOM      2  C   UNL     1     -44.864  13.403  -0.207  1.00  0.00     0.006 C 
BRANCH   2   3
ATOM      3  C   UNL     1     -44.083  13.052  -1.476  1.00  0.00     0.053 C 
BRANCH   3   4
ATOM      4  C   UNL     1     -43.232  14.206  -1.904  1.00  0.00     0.041 C 
ATOM      5  O   UNL     1     -43.596  14.942  -2.859  1.00  0.00    -0.550 OA
ATOM      6  O   UNL     1     -42.012  14.439  -1.283  1.00  0.00    -0.550 OA
ENDBRANCH   3   4
ENDBRANCH   2   3
ENDBRANCH   1   2
BRANCH   1   7
ATOM      7  C   UNL     1     -43.314  11.726   0.944  1.00  0.00     0.000 C 
BRANCH   7   8
ATOM      8  C   UNL     1     -42.378  12.635   1.755  1.00  0.00     0.004 C 
BRANCH   8   9
ATOM      9  C   UNL     1     -40.909  12.333   1.438  1.00  0.00     0.027 C 
BRANCH   9  10
ATOM     10  C   UNL     1     -39.993  13.329   2.094  1.00  0.00    -0.035 C 
ATOM     11  C   UNL     1     -39.513  14.387   1.433  1.00  0.00     0.004 C 
ENDBRANCH   9  10
ENDBRANCH   8   9
ENDBRANCH   7   8
ENDBRANCH   1   7
TORSDOF 7
ENDMDL
MODEL 9
REMARK VINA RESULT:    -4.385     11.312     13.000
REMARK INTER + INTRA:          -6.677
REMARK INTER:                  -6.132
REMARK INTRA:                  -0.545
REMARK UNBOUND:                -0.498
REMARK SMILES C=CCCCCCCC(=O)[O-]
REMARK SMILES IDX 6 1 7 2 8 3 9 4 10 5 11 6 5 7 4 8 3 9 2 10 1 11
REMARK H PARENT
REMARK Flexibility Score: inf
ROOT
ATOM      1  C   UNL     1     -41.814  26.339  -0.160  1.00  0.00     0.000 C 
ENDROOT
BRANCH   1   2
ATOM      2  C   UNL     1     -41.555  24.896   0.300  1.00  0.00     0.006 C 
BRANCH   2   3
ATOM      3  C   UNL     1     -42.677  24.405   1.217  1.00  0.00     0.053 C 
BRANCH   3   4
ATOM      4  C   UNL     1     -42.147  24.112   2.585  1.00  0.00     0.041 C 
ATOM      5  O   UNL     1     -42.609  23.149   3.251  1.00  0.00    -0.550 OA
ATOM      6  O   UNL     1     -41.178  24.934   3.147  1.00  0.00    -0.550 OA
ENDBRANCH   3   4
ENDBRANCH   2   3
ENDBRANCH   1   2
BRANCH   1   7
ATOM      7  C   UNL     1     -40.867  26.780  -1.288  1.00  0.00     0.000 C 
BRANCH   7   8
ATOM      8  C   UNL     1     -39.495  26.093  -1.213  1.00  0.00     0.004 C 
BRANCH   8   9
ATOM      9  C   UNL     1     -38.400  27.096  -0.831  1.00  0.00     0.027 C 
BRANCH   9  10
ATOM     10  C   UNL     1     -38.029  26.971   0.621  1.00  0.00    -0.035 C 
ATOM     11  C   UNL     1     -37.788  25.784   1.187  1.00  0.00     0.004 C 
ENDBRANCH   9  10
ENDBRANCH   8   9
ENDBRANCH   7   8
ENDBRANCH   1   7
TORSDOF 7
ENDMDL
