MODEL 1
REMARK VINA RESULT:     4.987      0.000      0.000
REMARK INTER + INTRA:           5.974
REMARK INTER:                   5.862
REMARK INTRA:                   0.112
REMARK UNBOUND:                 0.112
REMARK SMILES O=C([O-])C=Cc1ccc(O)c(O)c1
REMARK SMILES IDX 6 1 13 2 7 3 11 4 8 5 9 6 5 7 4 8 2 9 1 10 3 11 12 12 10 14
REMARK H PARENT 12 13 10 15
REMARK Flexibility Score: inf
ROOT
ATOM      1  C   UNL     1      47.811  44.519  -7.735  1.00  0.00    -0.022 A 
ATOM      2  C   UNL     1      47.480  44.493  -9.098  1.00  0.00     0.058 A 
ATOM      3  C   UNL     1      47.786  43.323  -6.999  1.00  0.00     0.012 A 
ATOM      4  C   UNL     1      47.180  43.284  -9.735  1.00  0.00     0.157 A 
ATOM      5  C   UNL     1      47.488  42.113  -7.631  1.00  0.00     0.051 A 
ATOM      6  C   UNL     1      47.188  42.085  -9.000  1.00  0.00     0.157 A 
ENDROOT
BRANCH   1   7
ATOM      7  C   UNL     1      48.070  45.816  -7.078  1.00  0.00     0.010 C 
ATOM      8  C   UNL     1      49.219  46.507  -7.149  1.00  0.00     0.025 C 
BRANCH   8   9
ATOM      9  C   UNL     1      50.351  46.193  -8.041  1.00  0.00     0.064 C 
ATOM     10  O   UNL     1      50.778  45.010  -8.101  1.00  0.00    -0.545 OA
ATOM     11  O   UNL     1      51.005  47.185  -8.762  1.00  0.00    -0.545 OA
ENDBRANCH   8   9
ENDBRANCH   1   7
BRANCH   4  12
ATOM     12  O   UNL     1      46.876  43.292 -11.096  1.00  0.00    -0.504 OA
ATOM     13  H   UNL     1      46.027  42.876 -11.460  1.00  0.00     0.293 HD
ENDBRANCH   4  12
BRANCH   6  14
ATOM     14  O   UNL     1      46.894  40.877  -9.629  1.00  0.00    -0.504 OA
ATOM     15  H   UNL     1      45.941  40.543  -9.719  1.00  0.00     0.293 HD
ENDBRANCH   6  14
TORSDOF 4
ENDMDL
MODEL 2
REMARK VINA RESULT:     5.528      0.789      1.902
REMARK INTER + INTRA:           6.609
REMARK INTER:                   6.558
REMARK INTRA:                   0.051
REMARK UNBOUND:                 0.112
REMARK SMILES O=C([O-])C=Cc1ccc(O)c(O)c1
REMARK SMILES IDX 6 1 13 2 7 3 11 4 8 5 9 6 5 7 4 8 2 9 1 10 3 11 12 12 10 14
REMARK H PARENT 12 13 10 15
REMARK Flexibility Score: inf
ROOT
ATOM      1  C   UNL     1      47.652  44.563  -7.782  1.00  0.00    -0.022 A 
ATOM      2  C   UNL     1      47.745  43.368  -7.054  1.00  0.00     0.058 A 
ATOM      3  C   UNL     1      47.343  44.512  -9.152  1.00  0.00     0.012 A 
ATOM      4  C   UNL     1      47.481  42.138  -7.669  1.00  0.00     0.157 A 
ATOM      5  C   UNL     1      47.079  43.287  -9.769  1.00  0.00     0.051 A 
ATOM      6  C   UNL     1      47.142  42.096  -9.032  1.00  0.00     0.157 A 
ENDROOT
BRANCH   1   7
ATOM      7  C   UNL     1      47.987  45.841  -7.120  1.00  0.00     0.010 C 
ATOM      8  C   UNL     1      49.175  46.460  -7.183  1.00  0.00     0.025 C 
BRANCH   8   9
ATOM      9  C   UNL     1      50.291  46.081  -8.071  1.00  0.00     0.064 C 
ATOM     10  O   UNL     1      50.692  44.887  -8.080  1.00  0.00    -0.545 OA
ATOM     11  O   UNL     1      50.957  47.023  -8.845  1.00  0.00    -0.545 OA
ENDBRANCH   8   9
ENDBRANCH   1   7
BRANCH   4  12
ATOM     12  O   UNL     1      47.563  40.971  -6.910  1.00  0.00    -0.504 OA
ATOM     13  H   UNL     1      47.879  40.977  -5.947  1.00  0.00     0.293 HD
ENDBRANCH   4  12
BRANCH   6  14
ATOM     14  O   UNL     1      46.876  40.875  -9.649  1.00  0.00    -0.504 OA
ATOM     15  H   UNL     1      47.399  40.038  -9.420  1.00  0.00     0.293 HD
ENDBRANCH   6  14
TORSDOF 4
ENDMDL
MODEL 3
REMARK VINA RESULT:     5.797      0.638      1.089
REMARK INTER + INTRA:           6.925
REMARK INTER:                   6.920
REMARK INTRA:                   0.005
REMARK UNBOUND:                 0.112
REMARK SMILES O=C([O-])C=Cc1ccc(O)c(O)c1
REMARK SMILES IDX 6 1 13 2 7 3 11 4 8 5 9 6 5 7 4 8 2 9 1 10 3 11 12 12 10 14
REMARK H PARENT 12 13 10 15
REMARK Flexibility Score: inf
ROOT
ATOM      1  C   UNL     1      48.119  44.787  -7.723  1.00  0.00    -0.022 A 
ATOM      2  C   UNL     1      47.685  44.476  -9.020  1.00  0.00     0.058 A 
ATOM      3  C   UNL     1      48.091  43.792  -6.732  1.00  0.00     0.012 A 
ATOM      4  C   UNL     1      47.280  43.176  -9.342  1.00  0.00     0.157 A 
ATOM      5  C   UNL     1      47.687  42.493  -7.048  1.00  0.00     0.051 A 
ATOM      6  C   UNL     1      47.284  42.177  -8.353  1.00  0.00     0.157 A 
ENDROOT
BRANCH   1   7
ATOM      7  C   UNL     1      48.490  46.180  -7.399  1.00  0.00     0.010 C 
ATOM      8  C   UNL     1      49.731  46.687  -7.460  1.00  0.00     0.025 C 
BRANCH   8   9
ATOM      9  C   UNL     1      50.905  46.006  -8.038  1.00  0.00     0.064 C 
ATOM     10  O   UNL     1      51.623  46.618  -8.872  1.00  0.00    -0.545 OA
ATOM     11  O   UNL     1      51.197  44.680  -7.739  1.00  0.00    -0.545 OA
ENDBRANCH   8   9
ENDBRANCH   1   7
BRANCH   4  12
ATOM     12  O   UNL     1      46.875  42.896 -10.647  1.00  0.00    -0.504 OA
ATOM     13  H   UNL     1      46.878  43.602 -11.374  1.00  0.00     0.293 HD
ENDBRANCH   4  12
BRANCH   6  14
ATOM     14  O   UNL     1      46.885  40.879  -8.668  1.00  0.00    -0.504 OA
ATOM     15  H   UNL     1      47.131  40.447  -9.551  1.00  0.00     0.293 HD
ENDBRANCH   6  14
TORSDOF 4
ENDMDL
MODEL 4
REMARK VINA RESULT:     7.080      1.002      4.843
REMARK INTER + INTRA:           8.433
REMARK INTER:                   8.232
REMARK INTRA:                   0.201
REMARK UNBOUND:                 0.112
REMARK SMILES O=C([O-])C=Cc1ccc(O)c(O)c1
REMARK SMILES IDX 6 1 13 2 7 3 11 4 8 5 9 6 5 7 4 8 2 9 1 10 3 11 12 12 10 14
REMARK H PARENT 12 13 10 15
REMARK Flexibility Score: inf
ROOT
ATOM      1  C   UNL     1      48.465  43.807  -7.326  1.00  0.00    -0.022 A 
ATOM      2  C   UNL     1      49.855  43.799  -7.511  1.00  0.00     0.058 A 
ATOM      3  C   UNL     1      47.764  45.020  -7.427  1.00  0.00     0.012 A 
ATOM      4  C   UNL     1      50.534  44.976  -7.846  1.00  0.00     0.157 A 
ATOM      5  C   UNL     1      48.438  46.197  -7.761  1.00  0.00     0.051 A 
ATOM      6  C   UNL     1      49.823  46.182  -7.977  1.00  0.00     0.157 A 
ENDROOT
BRANCH   1   7
ATOM      7  C   UNL     1      47.783  42.560  -6.921  1.00  0.00     0.010 C 
ATOM      8  C   UNL     1      47.057  41.774  -7.730  1.00  0.00     0.025 C 
BRANCH   8   9
ATOM      9  C   UNL     1      46.968  41.907  -9.197  1.00  0.00     0.064 C 
ATOM     10  O   UNL     1      47.043  40.875  -9.915  1.00  0.00    -0.545 OA
ATOM     11  O   UNL     1      46.875  43.151  -9.810  1.00  0.00    -0.545 OA
ENDBRANCH   8   9
ENDBRANCH   1   7
BRANCH   4  12
ATOM     12  O   UNL     1      51.914  44.929  -8.044  1.00  0.00    -0.504 OA
ATOM     13  H   UNL     1      52.346  44.255  -8.666  1.00  0.00     0.293 HD
ENDBRANCH   4  12
BRANCH   6  14
ATOM     14  O   UNL     1      50.493  47.357  -8.314  1.00  0.00    -0.504 OA
ATOM     15  H   UNL     1      49.998  48.167  -8.669  1.00  0.00     0.293 HD
ENDBRANCH   6  14
TORSDOF 4
ENDMDL
