MODEL 1
REMARK VINA RESULT:    -3.784      0.000      0.000
REMARK INTER + INTRA:          -3.922
REMARK INTER:                  -4.669
REMARK INTRA:                   0.747
REMARK UNBOUND:                 0.747
REMARK SMILES CC1=CC=CC(C)(C)CC1=O
REMARK SMILES IDX 1 1 2 2 3 3 10 4 11 5 9 6 4 8 5 9 6 10 7 11 8 12
REMARK H PARENT
REMARK Flexibility Score: 80.00
ROOT
ATOM      1  C   UNL     1       3.154  20.723  -8.387  1.00  0.00     0.048 C 
ATOM      2  C   UNL     1       3.449  19.342  -7.850  1.00  0.00    -0.008 C 
ATOM      3  C   UNL     1       3.747  18.373  -8.742  1.00  0.00     0.007 C 
ENDROOT
BRANCH   2   4
ATOM      4  C   UNL     1       3.311  19.144  -6.385  1.00  0.00     0.159 C 
ATOM      5  O   UNL     1       2.792  20.062  -5.693  1.00  0.00    -0.295 OA
BRANCH   4   6
ATOM      6  C   UNL     1       3.771  17.909  -5.671  1.00  0.00     0.091 CG0
ATOM      7  G   UNL     1       3.112  16.617  -6.203  1.00  0.00     0.000 G0
ENDBRANCH   4   6
ENDBRANCH   2   4
BRANCH   3   8
ATOM      8  C   UNL     1       4.051  16.940  -8.524  1.00  0.00    -0.003 C 
ATOM      9  C   UNL     1       3.783  16.171  -7.460  1.00  0.00    -0.020 C 
BRANCH   9  10
ATOM     10  C   UNL     1       3.111  16.614  -6.181  1.00  0.00    -0.010 CG0
ATOM     11  C   UNL     1       1.587  16.745  -6.403  1.00  0.00     0.016 C 
ATOM     12  C   UNL     1       3.344  15.525  -5.109  1.00  0.00     0.016 C 
ATOM     13  G   UNL     1       3.755  17.926  -5.680  1.00  0.00     0.000 G0
ENDBRANCH   9  10
ENDBRANCH   3   8
TORSDOF 0
ENDMDL
MODEL 2
REMARK VINA RESULT:    -3.665      2.613      3.522
REMARK INTER + INTRA:          -3.775
REMARK INTER:                  -4.529
REMARK INTRA:                   0.754
REMARK UNBOUND:                 0.747
REMARK SMILES CC1=CC=CC(C)(C)CC1=O
REMARK SMILES IDX 1 1 2 2 3 3 10 4 11 5 9 6 4 8 5 9 6 10 7 11 8 12
REMARK H PARENT
REMARK Flexibility Score: 80.00
ROOT
ATOM      1  C   UNL     1       2.635  17.637  -5.877  1.00  0.00     0.048 C 
ATOM      2  C   UNL     1       3.523  16.703  -6.664  1.00  0.00    -0.008 C 
ATOM      3  C   UNL     1       3.725  16.984  -7.970  1.00  0.00     0.007 C 
ENDROOT
BRANCH   2   4
ATOM      4  C   UNL     1       4.040  15.505  -5.956  1.00  0.00     0.159 C 
ATOM      5  O   UNL     1       3.561  15.213  -4.826  1.00  0.00    -0.295 OA
BRANCH   4   6
ATOM      6  C   UNL     1       5.119  14.622  -6.504  1.00  0.00     0.091 CG0
ATOM      7  G   UNL     1       4.749  13.978  -7.859  1.00  0.00     0.000 G0
ENDBRANCH   4   6
ENDBRANCH   2   4
BRANCH   3   8
ATOM      8  C   UNL     1       4.512  16.250  -8.989  1.00  0.00    -0.003 C 
ATOM      9  C   UNL     1       4.942  14.982  -8.974  1.00  0.00    -0.020 C 
BRANCH   9  10
ATOM     10  C   UNL     1       4.742  13.981  -7.860  1.00  0.00    -0.010 CG0
ATOM     11  C   UNL     1       3.293  13.442  -7.889  1.00  0.00     0.016 C 
ATOM     12  C   UNL     1       5.698  12.791  -8.101  1.00  0.00     0.016 C 
ATOM     13  G   UNL     1       5.111  14.627  -6.506  1.00  0.00     0.000 G0
ENDBRANCH   9  10
ENDBRANCH   3   8
TORSDOF 0
ENDMDL
MODEL 3
REMARK VINA RESULT:    -3.631      1.688      2.031
REMARK INTER + INTRA:          -3.733
REMARK INTER:                  -4.482
REMARK INTRA:                   0.749
REMARK UNBOUND:                 0.747
REMARK SMILES CC1=CC=CC(C)(C)CC1=O
REMARK SMILES IDX 1 1 2 2 3 3 10 4 11 5 9 6 4 8 5 9 6 10 7 11 8 12
REMARK H PARENT
REMARK Flexibility Score: 80.00
ROOT
ATOM      1  C   UNL     1       1.700  21.495  -6.965  1.00  0.00     0.048 C 
ATOM      2  C   UNL     1       1.940  20.098  -7.486  1.00  0.00    -0.008 C 
ATOM      3  C   UNL     1       1.072  19.612  -8.399  1.00  0.00     0.007 C 
ENDROOT
BRANCH   2   4
ATOM      4  C   UNL     1       3.072  19.341  -6.893  1.00  0.00     0.159 C 
ATOM      5  O   UNL     1       3.634  19.798  -5.860  1.00  0.00    -0.295 OA
BRANCH   4   6
ATOM      6  C   UNL     1       3.598  18.060  -7.464  1.00  0.00     0.091 CG0
ATOM      7  G   UNL     1       2.542  16.932  -7.506  1.00  0.00     0.000 G0
ENDBRANCH   4   6
ENDBRANCH   2   4
BRANCH   3   8
ATOM      8  C   UNL     1       1.032  18.288  -9.064  1.00  0.00    -0.003 C 
ATOM      9  C   UNL     1       1.630  17.144  -8.705  1.00  0.00    -0.020 C 
BRANCH   9  10
ATOM     10  C   UNL     1       2.536  16.941  -7.514  1.00  0.00    -0.010 CG0
ATOM     11  C   UNL     1       1.696  16.852  -6.220  1.00  0.00     0.016 C 
ATOM     12  C   UNL     1       3.279  15.598  -7.694  1.00  0.00     0.016 C 
ATOM     13  G   UNL     1       3.591  18.069  -7.464  1.00  0.00     0.000 G0
ENDBRANCH   9  10
ENDBRANCH   3   8
TORSDOF 0
ENDMDL
MODEL 4
REMARK VINA RESULT:    -3.584      1.527      2.340
REMARK INTER + INTRA:          -3.674
REMARK INTER:                  -4.429
REMARK INTRA:                   0.755
REMARK UNBOUND:                 0.747
REMARK SMILES CC1=CC=CC(C)(C)CC1=O
REMARK SMILES IDX 1 1 2 2 3 3 10 4 11 5 9 6 4 8 5 9 6 10 7 11 8 12
REMARK H PARENT
REMARK Flexibility Score: 80.00
ROOT
ATOM      1  C   UNL     1       1.961  20.500  -8.359  1.00  0.00     0.048 C 
ATOM      2  C   UNL     1       2.335  19.377  -7.421  1.00  0.00    -0.008 C 
ATOM      3  C   UNL     1       3.283  19.626  -6.492  1.00  0.00     0.007 C 
ENDROOT
BRANCH   2   4
ATOM      4  C   UNL     1       1.681  18.063  -7.646  1.00  0.00     0.159 C 
ATOM      5  O   UNL     1       1.003  17.893  -8.696  1.00  0.00    -0.295 OA
BRANCH   4   6
ATOM      6  C   UNL     1       1.770  16.919  -6.682  1.00  0.00     0.091 CG0
ATOM      7  G   UNL     1       3.221  16.470  -6.401  1.00  0.00     0.000 G0
ENDBRANCH   4   6
ENDBRANCH   2   4
BRANCH   3   8
ATOM      8  C   UNL     1       3.869  18.730  -5.467  1.00  0.00    -0.003 C 
ATOM      9  C   UNL     1       3.865  17.392  -5.412  1.00  0.00    -0.020 C 
BRANCH   9  10
ATOM     10  C   UNL     1       3.214  16.456  -6.403  1.00  0.00    -0.010 CG0
ATOM     11  C   UNL     1       4.075  16.359  -7.683  1.00  0.00     0.016 C 
ATOM     12  C   UNL     1       3.144  15.049  -5.767  1.00  0.00     0.016 C 
ATOM     13  G   UNL     1       1.769  16.924  -6.691  1.00  0.00     0.000 G0
ENDBRANCH   9  10
ENDBRANCH   3   8
TORSDOF 0
ENDMDL
MODEL 5
REMARK VINA RESULT:    -3.487      1.734      3.803
REMARK INTER + INTRA:          -3.556
REMARK INTER:                  -4.315
REMARK INTRA:                   0.760
REMARK UNBOUND:                 0.747
REMARK SMILES CC1=CC=CC(C)(C)CC1=O
REMARK SMILES IDX 1 1 2 2 3 3 10 4 11 5 9 6 4 8 5 9 6 10 7 11 8 12
REMARK H PARENT
REMARK Flexibility Score: 80.00
ROOT
ATOM      1  C   UNL     1       2.540  15.919  -5.537  1.00  0.00     0.048 C 
ATOM      2  C   UNL     1       2.179  17.179  -6.288  1.00  0.00    -0.008 C 
ATOM      3  C   UNL     1       1.187  17.101  -7.201  1.00  0.00     0.007 C 
ENDROOT
BRANCH   2   4
ATOM      4  C   UNL     1       3.000  18.386  -6.016  1.00  0.00     0.159 C 
ATOM      5  O   UNL     1       4.066  18.260  -5.353  1.00  0.00    -0.295 OA
BRANCH   4   6
ATOM      6  C   UNL     1       2.625  19.761  -6.476  1.00  0.00     0.091 CG0
ATOM      7  G   UNL     1       2.501  19.877  -8.012  1.00  0.00     0.000 G0
ENDBRANCH   4   6
ENDBRANCH   2   4
BRANCH   3   8
ATOM      8  C   UNL     1       0.636  18.144  -8.098  1.00  0.00    -0.003 C 
ATOM      9  C   UNL     1       1.176  19.313  -8.467  1.00  0.00    -0.020 C 
BRANCH   9  10
ATOM     10  C   UNL     1       2.506  19.869  -8.014  1.00  0.00    -0.010 CG0
ATOM     11  C   UNL     1       3.658  19.148  -8.750  1.00  0.00     0.016 C 
ATOM     12  C   UNL     1       2.560  21.366  -8.394  1.00  0.00     0.016 C 
ATOM     13  G   UNL     1       2.620  19.760  -6.476  1.00  0.00     0.000 G0
ENDBRANCH   9  10
ENDBRANCH   3   8
TORSDOF 0
ENDMDL
MODEL 6
REMARK VINA RESULT:    -3.453      2.406      3.997
REMARK INTER + INTRA:          -3.513
REMARK INTER:                  -4.263
REMARK INTRA:                   0.750
REMARK UNBOUND:                 0.747
REMARK SMILES CC1=CC=CC(C)(C)CC1=O
REMARK SMILES IDX 1 1 2 2 3 3 10 4 11 5 9 6 4 8 5 9 6 10 7 11 8 12
REMARK H PARENT
REMARK Flexibility Score: 80.00
ROOT
ATOM      1  C   UNL     1       5.988  13.326  -6.168  1.00  0.00     0.048 C 
ATOM      2  C   UNL     1       4.952  14.290  -6.697  1.00  0.00    -0.008 C 
ATOM      3  C   UNL     1       5.215  14.912  -7.867  1.00  0.00     0.007 C 
ENDROOT
BRANCH   2   4
ATOM      4  C   UNL     1       3.760  14.534  -5.846  1.00  0.00     0.159 C 
ATOM      5  O   UNL     1       3.753  14.087  -4.666  1.00  0.00    -0.295 OA
BRANCH   4   6
ATOM      6  C   UNL     1       2.547  15.276  -6.317  1.00  0.00     0.091 CG0
ATOM      7  G   UNL     1       2.853  16.724  -6.762  1.00  0.00     0.000 G0
ENDBRANCH   4   6
ENDBRANCH   2   4
BRANCH   3   8
ATOM      8  C   UNL     1       4.416  15.913  -8.611  1.00  0.00    -0.003 C 
ATOM      9  C   UNL     1       3.425  16.700  -8.172  1.00  0.00    -0.020 C 
BRANCH   9  10
ATOM     10  C   UNL     1       2.854  16.726  -6.774  1.00  0.00    -0.010 CG0
ATOM     11  C   UNL     1       3.816  17.477  -5.825  1.00  0.00     0.016 C 
ATOM     12  C   UNL     1       1.518  17.503  -6.811  1.00  0.00     0.016 C 
ATOM     13  G   UNL     1       2.558  15.284  -6.305  1.00  0.00     0.000 G0
ENDBRANCH   9  10
ENDBRANCH   3   8
TORSDOF 0
ENDMDL
MODEL 7
REMARK VINA RESULT:    -3.447      1.989      3.153
REMARK INTER + INTRA:          -3.506
REMARK INTER:                  -4.253
REMARK INTRA:                   0.747
REMARK UNBOUND:                 0.747
REMARK SMILES CC1=CC=CC(C)(C)CC1=O
REMARK SMILES IDX 1 1 2 2 3 3 10 4 11 5 9 6 4 8 5 9 6 10 7 11 8 12
REMARK H PARENT
REMARK Flexibility Score: 80.00
ROOT
ATOM      1  C   UNL     1       3.938  19.199  -5.928  1.00  0.00     0.048 C 
ATOM      2  C   UNL     1       3.555  17.799  -6.347  1.00  0.00    -0.008 C 
ATOM      3  C   UNL     1       3.274  16.909  -5.372  1.00  0.00     0.007 C 
ENDROOT
BRANCH   2   4
ATOM      4  C   UNL     1       3.594  17.494  -7.800  1.00  0.00     0.159 C 
ATOM      5  O   UNL     1       4.120  18.333  -8.583  1.00  0.00    -0.295 OA
BRANCH   4   6
ATOM      6  C   UNL     1       3.028  16.243  -8.397  1.00  0.00     0.091 CG0
ATOM      7  G   UNL     1       3.661  14.954  -7.824  1.00  0.00     0.000 G0
ENDBRANCH   4   6
ENDBRANCH   2   4
BRANCH   3   8
ATOM      8  C   UNL     1       2.899  15.479  -5.469  1.00  0.00    -0.003 C 
ATOM      9  C   UNL     1       3.066  14.629  -6.491  1.00  0.00    -0.020 C 
BRANCH   9  10
ATOM     10  C   UNL     1       3.669  14.953  -7.837  1.00  0.00    -0.010 CG0
ATOM     11  C   UNL     1       5.208  15.035  -7.721  1.00  0.00     0.016 C 
ATOM     12  C   UNL     1       3.325  13.804  -8.812  1.00  0.00     0.016 C 
ATOM     13  G   UNL     1       3.043  16.254  -8.389  1.00  0.00     0.000 G0
ENDBRANCH   9  10
ENDBRANCH   3   8
TORSDOF 0
ENDMDL
MODEL 8
REMARK VINA RESULT:    -3.257      2.102      3.928
REMARK INTER + INTRA:          -3.272
REMARK INTER:                  -4.026
REMARK INTRA:                   0.755
REMARK UNBOUND:                 0.747
REMARK SMILES CC1=CC=CC(C)(C)CC1=O
REMARK SMILES IDX 1 1 2 2 3 3 10 4 11 5 9 6 4 8 5 9 6 10 7 11 8 12
REMARK H PARENT
REMARK Flexibility Score: 80.00
ROOT
ATOM      1  C   UNL     1       4.098  14.168  -6.614  1.00  0.00     0.048 C 
ATOM      2  C   UNL     1       4.000  15.671  -6.724  1.00  0.00    -0.008 C 
ATOM      3  C   UNL     1       3.958  16.381  -5.575  1.00  0.00     0.007 C 
ENDROOT
BRANCH   2   4
ATOM      4  C   UNL     1       3.880  16.242  -8.089  1.00  0.00     0.159 C 
ATOM      5  O   UNL     1       3.670  15.463  -9.058  1.00  0.00    -0.295 OA
BRANCH   4   6
ATOM      6  C   UNL     1       4.009  17.705  -8.387  1.00  0.00     0.091 CG0
ATOM      7  G   UNL     1       2.966  18.572  -7.646  1.00  0.00     0.000 G0
ENDBRANCH   4   6
ENDBRANCH   2   4
BRANCH   3   8
ATOM      8  C   UNL     1       3.837  17.843  -5.365  1.00  0.00    -0.003 C 
ATOM      9  C   UNL     1       3.413  18.787  -6.216  1.00  0.00    -0.020 C 
BRANCH   9  10
ATOM     10  C   UNL     1       2.973  18.574  -7.645  1.00  0.00    -0.010 CG0
ATOM     11  C   UNL     1       1.550  17.970  -7.674  1.00  0.00     0.016 C 
ATOM     12  C   UNL     1       2.921  19.950  -8.346  1.00  0.00     0.016 C 
ATOM     13  G   UNL     1       4.008  17.697  -8.384  1.00  0.00     0.000 G0
ENDBRANCH   9  10
ENDBRANCH   3   8
TORSDOF 0
ENDMDL
MODEL 9
REMARK VINA RESULT:    -3.252      1.663      3.585
REMARK INTER + INTRA:          -3.265
REMARK INTER:                  -4.025
REMARK INTRA:                   0.760
REMARK UNBOUND:                 0.747
REMARK SMILES CC1=CC=CC(C)(C)CC1=O
REMARK SMILES IDX 1 1 2 2 3 3 10 4 11 5 9 6 4 8 5 9 6 10 7 11 8 12
REMARK H PARENT
REMARK Flexibility Score: 80.00
ROOT
ATOM      1  C   UNL     1       3.285  14.846  -5.332  1.00  0.00     0.048 C 
ATOM      2  C   UNL     1       3.057  15.975  -6.309  1.00  0.00    -0.008 C 
ATOM      3  C   UNL     1       4.025  16.222  -7.217  1.00  0.00     0.007 C 
ENDROOT
BRANCH   2   4
ATOM      4  C   UNL     1       1.816  16.772  -6.142  1.00  0.00     0.159 C 
ATOM      5  O   UNL     1       1.132  16.621  -5.092  1.00  0.00    -0.295 OA
BRANCH   4   6
ATOM      6  C   UNL     1       1.316  17.747  -7.164  1.00  0.00     0.091 CG0
ATOM      7  G   UNL     1       2.315  18.888  -7.457  1.00  0.00     0.000 G0
ENDBRANCH   4   6
ENDBRANCH   2   4
BRANCH   3   8
ATOM      8  C   UNL     1       4.098  17.262  -8.271  1.00  0.00    -0.003 C 
ATOM      9  C   UNL     1       3.400  18.399  -8.385  1.00  0.00    -0.020 C 
BRANCH   9  10
ATOM     10  C   UNL     1       2.320  18.886  -7.449  1.00  0.00    -0.010 CG0
ATOM     11  C   UNL     1       2.955  19.455  -6.159  1.00  0.00     0.016 C 
ATOM     12  C   UNL     1       1.553  20.032  -8.147  1.00  0.00     0.016 C 
ATOM     13  G   UNL     1       1.320  17.742  -7.166  1.00  0.00     0.000 G0
ENDBRANCH   9  10
ENDBRANCH   3   8
TORSDOF 0
ENDMDL
