MODEL 1
REMARK VINA RESULT:    -2.830      0.000      0.000
REMARK INTER + INTRA:         -11.242
REMARK INTER:                  -6.470
REMARK INTRA:                  -4.771
REMARK UNBOUND:                -4.771
REMARK SMILES CCCCCCCCCCCCCCCCCCCCCCCC(=O)[O-]
REMARK SMILES IDX 13 1 14 2 15 3 16 4 17 5 18 6 19 7 20 8 21 9 22 10 23 11
REMARK SMILES IDX 24 12 25 13 26 14 12 15 11 16 10 17 9 18 8 19 7 20 6 21 5 22
REMARK SMILES IDX 4 23 3 24 2 25 1 26
REMARK H PARENT
REMARK Flexibility Score: inf
ROOT
ATOM      1  C   UNL     1      56.812  27.775  51.463  1.00  0.00     0.000 C 
ENDROOT
BRANCH   1   2
ATOM      2  C   UNL     1      56.041  26.464  51.217  1.00  0.00     0.000 C 
BRANCH   2   3
ATOM      3  C   UNL     1      55.551  26.243  49.774  1.00  0.00     0.000 C 
BRANCH   3   4
ATOM      4  C   UNL     1      54.062  25.865  49.693  1.00  0.00     0.000 C 
BRANCH   4   5
ATOM      5  C   UNL     1      53.141  26.901  50.364  1.00  0.00     0.000 C 
BRANCH   5   6
ATOM      6  C   UNL     1      53.130  28.293  49.706  1.00  0.00     0.000 C 
BRANCH   6   7
ATOM      7  C   UNL     1      53.280  29.437  50.719  1.00  0.00     0.000 C 
BRANCH   7   8
ATOM      8  C   UNL     1      53.146  28.923  52.161  1.00  0.00     0.000 C 
BRANCH   8   9
ATOM      9  C   UNL     1      54.109  29.642  53.129  1.00  0.00     0.000 C 
BRANCH   9  10
ATOM     10  C   UNL     1      54.862  30.820  52.489  1.00  0.00     0.006 C 
BRANCH  10  11
ATOM     11  C   UNL     1      54.372  32.186  52.987  1.00  0.00     0.053 C 
BRANCH  11  12
ATOM     12  C   UNL     1      55.415  32.844  53.836  1.00  0.00     0.041 C 
ATOM     13  O   UNL     1      55.803  32.299  54.901  1.00  0.00    -0.550 OA
ATOM     14  O   UNL     1      55.942  34.074  53.460  1.00  0.00    -0.550 OA
ENDBRANCH  11  12
ENDBRANCH  10  11
ENDBRANCH   9  10
ENDBRANCH   8   9
ENDBRANCH   7   8
ENDBRANCH   6   7
ENDBRANCH   5   6
ENDBRANCH   4   5
ENDBRANCH   3   4
ENDBRANCH   2   3
ENDBRANCH   1   2
BRANCH   1  15
ATOM     15  C   UNL     1      56.797  28.720  50.250  1.00  0.00     0.000 C 
BRANCH  15  16
ATOM     16  C   UNL     1      58.116  29.496  50.078  1.00  0.00     0.000 C 
BRANCH  16  17
ATOM     17  C   UNL     1      59.061  28.954  48.991  1.00  0.00     0.000 C 
BRANCH  17  18
ATOM     18  C   UNL     1      60.131  28.003  49.545  1.00  0.00    -0.000 C 
BRANCH  18  19
ATOM     19  C   UNL     1      59.618  26.558  49.572  1.00  0.00    -0.000 C 
BRANCH  19  20
ATOM     20  C   UNL     1      60.070  25.835  50.846  1.00  0.00    -0.000 C 
BRANCH  20  21
ATOM     21  C   UNL     1      60.533  26.840  51.912  1.00  0.00    -0.000 C 
BRANCH  21  22
ATOM     22  C   UNL     1      59.795  26.672  53.253  1.00  0.00    -0.000 C 
BRANCH  22  23
ATOM     23  C   UNL     1      59.637  27.968  54.072  1.00  0.00    -0.000 C 
BRANCH  23  24
ATOM     24  C   UNL     1      59.694  29.269  53.250  1.00  0.00    -0.000 C 
BRANCH  24  25
ATOM     25  C   UNL     1      58.581  30.277  53.605  1.00  0.00    -0.003 C 
ATOM     26  C   UNL     1      58.809  31.650  52.972  1.00  0.00     0.004 C 
ENDBRANCH  24  25
ENDBRANCH  23  24
ENDBRANCH  22  23
ENDBRANCH  21  22
ENDBRANCH  20  21
ENDBRANCH  19  20
ENDBRANCH  18  19
ENDBRANCH  17  18
ENDBRANCH  16  17
ENDBRANCH  15  16
ENDBRANCH   1  15
TORSDOF 22
ENDMDL
MODEL 2
REMARK VINA RESULT:    -2.821      9.770     12.213
REMARK INTER + INTRA:         -11.220
REMARK INTER:                  -7.500
REMARK INTRA:                  -3.720
REMARK UNBOUND:                -4.771
REMARK SMILES CCCCCCCCCCCCCCCCCCCCCCCC(=O)[O-]
REMARK SMILES IDX 13 1 14 2 15 3 16 4 17 5 18 6 19 7 20 8 21 9 22 10 23 11
REMARK SMILES IDX 24 12 25 13 26 14 12 15 11 16 10 17 9 18 8 19 7 20 6 21 5 22
REMARK SMILES IDX 4 23 3 24 2 25 1 26
REMARK H PARENT
REMARK Flexibility Score: inf
ROOT
ATOM      1  C   UNL     1      61.112  35.879  60.696  1.00  0.00     0.000 C 
ENDROOT
BRANCH   1   2
ATOM      2  C   UNL     1      60.974  35.802  59.164  1.00  0.00     0.000 C 
BRANCH   2   3
ATOM      3  C   UNL     1      60.807  34.385  58.583  1.00  0.00     0.000 C 
BRANCH   3   4
ATOM      4  C   UNL     1      60.859  33.283  59.656  1.00  0.00     0.000 C 
BRANCH   4   5
ATOM      5  C   UNL     1      60.464  31.897  59.114  1.00  0.00     0.000 C 
BRANCH   5   6
ATOM      6  C   UNL     1      60.472  30.760  60.152  1.00  0.00     0.000 C 
BRANCH   6   7
ATOM      7  C   UNL     1      61.306  31.088  61.398  1.00  0.00     0.000 C 
BRANCH   7   8
ATOM      8  C   UNL     1      62.104  29.863  61.871  1.00  0.00     0.000 C 
BRANCH   8   9
ATOM      9  C   UNL     1      62.607  29.005  60.691  1.00  0.00     0.000 C 
BRANCH   9  10
ATOM     10  C   UNL     1      62.748  27.512  61.028  1.00  0.00     0.006 C 
BRANCH  10  11
ATOM     11  C   UNL     1      61.737  27.037  62.079  1.00  0.00     0.053 C 
BRANCH  11  12
ATOM     12  C   UNL     1      60.484  26.546  61.423  1.00  0.00     0.041 C 
ATOM     13  O   UNL     1      59.544  27.344  61.173  1.00  0.00    -0.550 OA
ATOM     14  O   UNL     1      60.346  25.200  61.107  1.00  0.00    -0.550 OA
ENDBRANCH  11  12
ENDBRANCH  10  11
ENDBRANCH   9  10
ENDBRANCH   8   9
ENDBRANCH   7   8
ENDBRANCH   6   7
ENDBRANCH   5   6
ENDBRANCH   4   5
ENDBRANCH   3   4
ENDBRANCH   2   3
ENDBRANCH   1   2
BRANCH   1  15
ATOM     15  C   UNL     1      62.297  36.749  61.151  1.00  0.00     0.000 C 
BRANCH  15  16
ATOM     16  C   UNL     1      63.661  36.163  60.743  1.00  0.00     0.000 C 
BRANCH  16  17
ATOM     17  C   UNL     1      64.099  34.910  61.523  1.00  0.00     0.000 C 
BRANCH  17  18
ATOM     18  C   UNL     1      64.161  33.649  60.649  1.00  0.00    -0.000 C 
BRANCH  18  19
ATOM     19  C   UNL     1      64.481  34.008  59.193  1.00  0.00    -0.000 C 
BRANCH  19  20
ATOM     20  C   UNL     1      64.329  32.787  58.278  1.00  0.00    -0.000 C 
BRANCH  20  21
ATOM     21  C   UNL     1      64.233  31.493  59.101  1.00  0.00    -0.000 C 
BRANCH  21  22
ATOM     22  C   UNL     1      65.604  30.833  59.339  1.00  0.00    -0.000 C 
BRANCH  22  23
ATOM     23  C   UNL     1      65.792  29.466  58.651  1.00  0.00    -0.000 C 
BRANCH  23  24
ATOM     24  C   UNL     1      66.117  28.299  59.602  1.00  0.00    -0.000 C 
BRANCH  24  25
ATOM     25  C   UNL     1      66.267  28.723  61.079  1.00  0.00    -0.003 C 
ATOM     26  C   UNL     1      67.698  28.569  61.591  1.00  0.00     0.004 C 
ENDBRANCH  24  25
ENDBRANCH  23  24
ENDBRANCH  22  23
ENDBRANCH  21  22
ENDBRANCH  20  21
ENDBRANCH  19  20
ENDBRANCH  18  19
ENDBRANCH  17  18
ENDBRANCH  16  17
ENDBRANCH  15  16
ENDBRANCH   1  15
TORSDOF 22
ENDMDL
MODEL 3
REMARK VINA RESULT:    -2.813      3.962      7.687
REMARK INTER + INTRA:         -11.202
REMARK INTER:                  -6.975
REMARK INTRA:                  -4.227
REMARK UNBOUND:                -4.771
REMARK SMILES CCCCCCCCCCCCCCCCCCCCCCCC(=O)[O-]
REMARK SMILES IDX 13 1 14 2 15 3 16 4 17 5 18 6 19 7 20 8 21 9 22 10 23 11
REMARK SMILES IDX 24 12 25 13 26 14 12 15 11 16 10 17 9 18 8 19 7 20 6 21 5 22
REMARK SMILES IDX 4 23 3 24 2 25 1 26
REMARK H PARENT
REMARK Flexibility Score: inf
ROOT
ATOM      1  C   UNL     1      58.489  29.626  49.647  1.00  0.00     0.000 C 
ENDROOT
BRANCH   1   2
ATOM      2  C   UNL     1      59.465  28.548  49.137  1.00  0.00     0.000 C 
BRANCH   2   3
ATOM      3  C   UNL     1      59.023  27.091  49.365  1.00  0.00     0.000 C 
BRANCH   3   4
ATOM      4  C   UNL     1      60.150  26.197  49.910  1.00  0.00     0.000 C 
BRANCH   4   5
ATOM      5  C   UNL     1      61.369  26.998  50.402  1.00  0.00     0.000 C 
BRANCH   5   6
ATOM      6  C   UNL     1      61.668  26.881  51.908  1.00  0.00     0.000 C 
BRANCH   6   7
ATOM      7  C   UNL     1      60.401  26.906  52.776  1.00  0.00     0.000 C 
BRANCH   7   8
ATOM      8  C   UNL     1      60.351  25.694  53.718  1.00  0.00     0.000 C 
BRANCH   8   9
ATOM      9  C   UNL     1      61.149  24.493  53.166  1.00  0.00     0.000 C 
BRANCH   9  10
ATOM     10  C   UNL     1      60.285  23.474  52.406  1.00  0.00     0.006 C 
BRANCH  10  11
ATOM     11  C   UNL     1      61.074  22.239  51.954  1.00  0.00     0.053 C 
BRANCH  11  12
ATOM     12  C   UNL     1      60.729  21.879  50.542  1.00  0.00     0.041 C 
ATOM     13  O   UNL     1      60.353  22.768  49.735  1.00  0.00    -0.550 OA
ATOM     14  O   UNL     1      60.802  20.556  50.124  1.00  0.00    -0.550 OA
ENDBRANCH  11  12
ENDBRANCH  10  11
ENDBRANCH   9  10
ENDBRANCH   8   9
ENDBRANCH   7   8
ENDBRANCH   6   7
ENDBRANCH   5   6
ENDBRANCH   4   5
ENDBRANCH   3   4
ENDBRANCH   2   3
ENDBRANCH   1   2
BRANCH   1  15
ATOM     15  C   UNL     1      58.134  29.462  51.134  1.00  0.00     0.000 C 
BRANCH  15  16
ATOM     16  C   UNL     1      56.616  29.436  51.389  1.00  0.00     0.000 C 
BRANCH  16  17
ATOM     17  C   UNL     1      55.800  28.564  50.418  1.00  0.00     0.000 C 
BRANCH  17  18
ATOM     18  C   UNL     1      54.304  28.908  50.413  1.00  0.00    -0.000 C 
BRANCH  18  19
ATOM     19  C   UNL     1      53.485  27.778  49.776  1.00  0.00    -0.000 C 
BRANCH  19  20
ATOM     20  C   UNL     1      54.360  26.550  49.500  1.00  0.00    -0.000 C 
BRANCH  20  21
ATOM     21  C   UNL     1      53.716  25.277  50.072  1.00  0.00    -0.000 C 
BRANCH  21  22
ATOM     22  C   UNL     1      53.226  25.455  51.520  1.00  0.00    -0.000 C 
BRANCH  22  23
ATOM     23  C   UNL     1      54.263  25.099  52.603  1.00  0.00    -0.000 C 
BRANCH  23  24
ATOM     24  C   UNL     1      54.944  26.306  53.274  1.00  0.00    -0.000 C 
BRANCH  24  25
ATOM     25  C   UNL     1      56.486  26.252  53.233  1.00  0.00    -0.003 C 
ATOM     26  C   UNL     1      57.014  25.445  52.047  1.00  0.00     0.004 C 
ENDBRANCH  24  25
ENDBRANCH  23  24
ENDBRANCH  22  23
ENDBRANCH  21  22
ENDBRANCH  20  21
ENDBRANCH  19  20
ENDBRANCH  18  19
ENDBRANCH  17  18
ENDBRANCH  16  17
ENDBRANCH  15  16
ENDBRANCH   1  15
TORSDOF 22
ENDMDL
MODEL 4
REMARK VINA RESULT:    -2.791      3.155      6.747
REMARK INTER + INTRA:         -11.152
REMARK INTER:                  -7.719
REMARK INTRA:                  -3.433
REMARK UNBOUND:                -4.771
REMARK SMILES CCCCCCCCCCCCCCCCCCCCCCCC(=O)[O-]
REMARK SMILES IDX 13 1 14 2 15 3 16 4 17 5 18 6 19 7 20 8 21 9 22 10 23 11
REMARK SMILES IDX 24 12 25 13 26 14 12 15 11 16 10 17 9 18 8 19 7 20 6 21 5 22
REMARK SMILES IDX 4 23 3 24 2 25 1 26
REMARK H PARENT
REMARK Flexibility Score: inf
ROOT
ATOM      1  C   UNL     1      58.335  29.601  49.566  1.00  0.00     0.000 C 
ENDROOT
BRANCH   1   2
ATOM      2  C   UNL     1      59.342  28.595  48.976  1.00  0.00     0.000 C 
BRANCH   2   3
ATOM      3  C   UNL     1      59.264  27.166  49.545  1.00  0.00     0.000 C 
BRANCH   3   4
ATOM      4  C   UNL     1      60.625  26.631  50.021  1.00  0.00     0.000 C 
BRANCH   4   5
ATOM      5  C   UNL     1      61.799  27.553  49.643  1.00  0.00     0.000 C 
BRANCH   5   6
ATOM      6  C   UNL     1      62.612  28.101  50.830  1.00  0.00     0.000 C 
BRANCH   6   7
ATOM      7  C   UNL     1      61.762  28.915  51.816  1.00  0.00     0.000 C 
BRANCH   7   8
ATOM      8  C   UNL     1      62.157  30.400  51.795  1.00  0.00     0.000 C 
BRANCH   8   9
ATOM      9  C   UNL     1      61.412  31.185  50.695  1.00  0.00     0.000 C 
BRANCH   9  10
ATOM     10  C   UNL     1      62.345  31.950  49.742  1.00  0.00     0.006 C 
BRANCH  10  11
ATOM     11  C   UNL     1      62.750  33.329  50.279  1.00  0.00     0.053 C 
BRANCH  11  12
ATOM     12  C   UNL     1      62.053  34.417  49.522  1.00  0.00     0.041 C 
ATOM     13  O   UNL     1      61.261  35.194  50.115  1.00  0.00    -0.550 OA
ATOM     14  O   UNL     1      62.263  34.557  48.156  1.00  0.00    -0.550 OA
ENDBRANCH  11  12
ENDBRANCH  10  11
ENDBRANCH   9  10
ENDBRANCH   8   9
ENDBRANCH   7   8
ENDBRANCH   6   7
ENDBRANCH   5   6
ENDBRANCH   4   5
ENDBRANCH   3   4
ENDBRANCH   2   3
ENDBRANCH   1   2
BRANCH   1  15
ATOM     15  C   UNL     1      58.101  29.404  51.073  1.00  0.00     0.000 C 
BRANCH  15  16
ATOM     16  C   UNL     1      56.609  29.296  51.438  1.00  0.00     0.000 C 
BRANCH  16  17
ATOM     17  C   UNL     1      55.781  28.349  50.551  1.00  0.00     0.000 C 
BRANCH  17  18
ATOM     18  C   UNL     1      54.387  28.901  50.219  1.00  0.00    -0.000 C 
BRANCH  18  19
ATOM     19  C   UNL     1      53.414  27.764  49.883  1.00  0.00    -0.000 C 
BRANCH  19  20
ATOM     20  C   UNL     1      54.167  26.520  49.396  1.00  0.00    -0.000 C 
BRANCH  20  21
ATOM     21  C   UNL     1      53.693  25.264  50.145  1.00  0.00    -0.000 C 
BRANCH  21  22
ATOM     22  C   UNL     1      53.215  25.566  51.577  1.00  0.00    -0.000 C 
BRANCH  22  23
ATOM     23  C   UNL     1      54.018  24.865  52.689  1.00  0.00    -0.000 C 
BRANCH  23  24
ATOM     24  C   UNL     1      55.238  25.650  53.205  1.00  0.00    -0.000 C 
BRANCH  24  25
ATOM     25  C   UNL     1      56.591  25.090  52.714  1.00  0.00    -0.003 C 
ATOM     26  C   UNL     1      57.721  26.113  52.817  1.00  0.00     0.004 C 
ENDBRANCH  24  25
ENDBRANCH  23  24
ENDBRANCH  22  23
ENDBRANCH  21  22
ENDBRANCH  20  21
ENDBRANCH  19  20
ENDBRANCH  18  19
ENDBRANCH  17  18
ENDBRANCH  16  17
ENDBRANCH  15  16
ENDBRANCH   1  15
TORSDOF 22
ENDMDL
MODEL 5
REMARK VINA RESULT:    -2.757      4.459      7.255
REMARK INTER + INTRA:         -11.075
REMARK INTER:                  -7.329
REMARK INTRA:                  -3.746
REMARK UNBOUND:                -4.771
REMARK SMILES CCCCCCCCCCCCCCCCCCCCCCCC(=O)[O-]
REMARK SMILES IDX 13 1 14 2 15 3 16 4 17 5 18 6 19 7 20 8 21 9 22 10 23 11
REMARK SMILES IDX 24 12 25 13 26 14 12 15 11 16 10 17 9 18 8 19 7 20 6 21 5 22
REMARK SMILES IDX 4 23 3 24 2 25 1 26
REMARK H PARENT
REMARK Flexibility Score: inf
ROOT
ATOM      1  C   UNL     1      59.639  28.446  49.106  1.00  0.00     0.000 C 
ENDROOT
BRANCH   1   2
ATOM      2  C   UNL     1      58.659  29.604  49.373  1.00  0.00     0.000 C 
BRANCH   2   3
ATOM      3  C   UNL     1      57.498  29.283  50.333  1.00  0.00     0.000 C 
BRANCH   3   4
ATOM      4  C   UNL     1      57.731  29.810  51.759  1.00  0.00     0.000 C 
BRANCH   4   5
ATOM      5  C   UNL     1      58.231  28.723  52.728  1.00  0.00     0.000 C 
BRANCH   5   6
ATOM      6  C   UNL     1      59.718  28.822  53.115  1.00  0.00     0.000 C 
BRANCH   6   7
ATOM      7  C   UNL     1      60.320  30.209  52.842  1.00  0.00     0.000 C 
BRANCH   7   8
ATOM      8  C   UNL     1      61.620  30.099  52.031  1.00  0.00     0.000 C 
BRANCH   8   9
ATOM      9  C   UNL     1      61.598  30.992  50.772  1.00  0.00     0.000 C 
BRANCH   9  10
ATOM     10  C   UNL     1      62.835  31.895  50.634  1.00  0.00     0.006 C 
BRANCH  10  11
ATOM     11  C   UNL     1      62.940  32.560  49.256  1.00  0.00     0.053 C 
BRANCH  11  12
ATOM     12  C   UNL     1      62.322  33.923  49.278  1.00  0.00     0.041 C 
ATOM     13  O   UNL     1      62.167  34.567  48.208  1.00  0.00    -0.550 OA
ATOM     14  O   UNL     1      61.935  34.492  50.486  1.00  0.00    -0.550 OA
ENDBRANCH  11  12
ENDBRANCH  10  11
ENDBRANCH   9  10
ENDBRANCH   8   9
ENDBRANCH   7   8
ENDBRANCH   6   7
ENDBRANCH   5   6
ENDBRANCH   4   5
ENDBRANCH   3   4
ENDBRANCH   2   3
ENDBRANCH   1   2
BRANCH   1  15
ATOM     15  C   UNL     1      59.052  27.068  49.453  1.00  0.00     0.000 C 
BRANCH  15  16
ATOM     16  C   UNL     1      60.126  26.046  49.871  1.00  0.00     0.000 C 
BRANCH  16  17
ATOM     17  C   UNL     1      61.244  26.600  50.773  1.00  0.00     0.000 C 
BRANCH  17  18
ATOM     18  C   UNL     1      62.650  26.217  50.290  1.00  0.00    -0.000 C 
BRANCH  18  19
ATOM     19  C   UNL     1      63.562  27.448  50.231  1.00  0.00    -0.000 C 
BRANCH  19  20
ATOM     20  C   UNL     1      63.313  28.259  48.954  1.00  0.00    -0.000 C 
BRANCH  20  21
ATOM     21  C   UNL     1      64.433  29.287  48.728  1.00  0.00    -0.000 C 
BRANCH  21  22
ATOM     22  C   UNL     1      64.878  29.372  47.257  1.00  0.00    -0.000 C 
BRANCH  22  23
ATOM     23  C   UNL     1      66.389  29.599  47.050  1.00  0.00    -0.000 C 
BRANCH  23  24
ATOM     24  C   UNL     1      67.085  28.562  46.150  1.00  0.00    -0.000 C 
BRANCH  24  25
ATOM     25  C   UNL     1      66.258  27.279  45.925  1.00  0.00    -0.003 C 
ATOM     26  C   UNL     1      66.695  26.131  46.835  1.00  0.00     0.004 C 
ENDBRANCH  24  25
ENDBRANCH  23  24
ENDBRANCH  22  23
ENDBRANCH  21  22
ENDBRANCH  20  21
ENDBRANCH  19  20
ENDBRANCH  18  19
ENDBRANCH  17  18
ENDBRANCH  16  17
ENDBRANCH  15  16
ENDBRANCH   1  15
TORSDOF 22
ENDMDL
MODEL 6
REMARK VINA RESULT:    -2.746      9.155     11.726
REMARK INTER + INTRA:         -11.050
REMARK INTER:                  -6.230
REMARK INTRA:                  -4.820
REMARK UNBOUND:                -4.771
REMARK SMILES CCCCCCCCCCCCCCCCCCCCCCCC(=O)[O-]
REMARK SMILES IDX 13 1 14 2 15 3 16 4 17 5 18 6 19 7 20 8 21 9 22 10 23 11
REMARK SMILES IDX 24 12 25 13 26 14 12 15 11 16 10 17 9 18 8 19 7 20 6 21 5 22
REMARK SMILES IDX 4 23 3 24 2 25 1 26
REMARK H PARENT
REMARK Flexibility Score: inf
ROOT
ATOM      1  C   UNL     1      60.361  32.243  59.483  1.00  0.00     0.000 C 
ENDROOT
BRANCH   1   2
ATOM      2  C   UNL     1      61.009  32.345  60.877  1.00  0.00     0.000 C 
BRANCH   2   3
ATOM      3  C   UNL     1      60.855  31.102  61.773  1.00  0.00     0.000 C 
BRANCH   3   4
ATOM      4  C   UNL     1      62.120  30.227  61.814  1.00  0.00     0.000 C 
BRANCH   4   5
ATOM      5  C   UNL     1      61.849  28.759  61.436  1.00  0.00     0.000 C 
BRANCH   5   6
ATOM      6  C   UNL     1      60.547  28.512  60.652  1.00  0.00     0.000 C 
BRANCH   6   7
ATOM      7  C   UNL     1      60.787  27.882  59.273  1.00  0.00     0.000 C 
BRANCH   7   8
ATOM      8  C   UNL     1      62.170  28.261  58.723  1.00  0.00     0.000 C 
BRANCH   8   9
ATOM      9  C   UNL     1      62.140  29.585  57.931  1.00  0.00     0.000 C 
BRANCH   9  10
ATOM     10  C   UNL     1      63.360  30.485  58.185  1.00  0.00     0.006 C 
BRANCH  10  11
ATOM     11  C   UNL     1      64.666  29.695  58.338  1.00  0.00     0.053 C 
BRANCH  11  12
ATOM     12  C   UNL     1      65.626  30.427  59.223  1.00  0.00     0.041 C 
ATOM     13  O   UNL     1      66.663  30.949  58.740  1.00  0.00    -0.550 OA
ATOM     14  O   UNL     1      65.385  30.513  60.589  1.00  0.00    -0.550 OA
ENDBRANCH  11  12
ENDBRANCH  10  11
ENDBRANCH   9  10
ENDBRANCH   8   9
ENDBRANCH   7   8
ENDBRANCH   6   7
ENDBRANCH   5   6
ENDBRANCH   4   5
ENDBRANCH   3   4
ENDBRANCH   2   3
ENDBRANCH   1   2
BRANCH   1  15
ATOM     15  C   UNL     1      60.690  33.442  58.577  1.00  0.00     0.000 C 
BRANCH  15  16
ATOM     16  C   UNL     1      60.399  34.797  59.247  1.00  0.00     0.000 C 
BRANCH  16  17
ATOM     17  C   UNL     1      61.167  35.998  58.665  1.00  0.00     0.000 C 
BRANCH  17  18
ATOM     18  C   UNL     1      61.972  36.766  59.722  1.00  0.00    -0.000 C 
BRANCH  18  19
ATOM     19  C   UNL     1      62.206  35.902  60.967  1.00  0.00    -0.000 C 
BRANCH  19  20
ATOM     20  C   UNL     1      63.700  35.802  61.296  1.00  0.00    -0.000 C 
BRANCH  20  21
ATOM     21  C   UNL     1      64.174  34.341  61.258  1.00  0.00    -0.000 C 
BRANCH  21  22
ATOM     22  C   UNL     1      64.099  33.724  59.849  1.00  0.00    -0.000 C 
BRANCH  22  23
ATOM     23  C   UNL     1      65.049  34.356  58.814  1.00  0.00    -0.000 C 
BRANCH  23  24
ATOM     24  C   UNL     1      64.918  33.798  57.384  1.00  0.00    -0.000 C 
BRANCH  24  25
ATOM     25  C   UNL     1      63.613  34.215  56.672  1.00  0.00    -0.003 C 
ATOM     26  C   UNL     1      63.140  33.174  55.658  1.00  0.00     0.004 C 
ENDBRANCH  24  25
ENDBRANCH  23  24
ENDBRANCH  22  23
ENDBRANCH  21  22
ENDBRANCH  20  21
ENDBRANCH  19  20
ENDBRANCH  18  19
ENDBRANCH  17  18
ENDBRANCH  16  17
ENDBRANCH  15  16
ENDBRANCH   1  15
TORSDOF 22
ENDMDL
MODEL 7
REMARK VINA RESULT:    -2.728      9.017     12.860
REMARK INTER + INTRA:         -11.007
REMARK INTER:                  -6.719
REMARK INTRA:                  -4.288
REMARK UNBOUND:                -4.771
REMARK SMILES CCCCCCCCCCCCCCCCCCCCCCCC(=O)[O-]
REMARK SMILES IDX 13 1 14 2 15 3 16 4 17 5 18 6 19 7 20 8 21 9 22 10 23 11
REMARK SMILES IDX 24 12 25 13 26 14 12 15 11 16 10 17 9 18 8 19 7 20 6 21 5 22
REMARK SMILES IDX 4 23 3 24 2 25 1 26
REMARK H PARENT
REMARK Flexibility Score: inf
ROOT
ATOM      1  C   UNL     1      60.976  32.979  59.620  1.00  0.00     0.000 C 
ENDROOT
BRANCH   1   2
ATOM      2  C   UNL     1      60.499  31.608  60.137  1.00  0.00     0.000 C 
BRANCH   2   3
ATOM      3  C   UNL     1      60.716  31.354  61.640  1.00  0.00     0.000 C 
BRANCH   3   4
ATOM      4  C   UNL     1      61.430  30.022  61.929  1.00  0.00     0.000 C 
BRANCH   4   5
ATOM      5  C   UNL     1      62.682  29.809  61.058  1.00  0.00     0.000 C 
BRANCH   5   6
ATOM      6  C   UNL     1      63.928  30.603  61.492  1.00  0.00     0.000 C 
BRANCH   6   7
ATOM      7  C   UNL     1      64.514  31.466  60.365  1.00  0.00     0.000 C 
BRANCH   7   8
ATOM      8  C   UNL     1      63.986  31.019  58.993  1.00  0.00     0.000 C 
BRANCH   8   9
ATOM      9  C   UNL     1      65.127  30.670  58.015  1.00  0.00     0.000 C 
BRANCH   9  10
ATOM     10  C   UNL     1      66.497  31.224  58.440  1.00  0.00     0.006 C 
BRANCH  10  11
ATOM     11  C   UNL     1      67.525  30.124  58.730  1.00  0.00     0.053 C 
BRANCH  11  12
ATOM     12  C   UNL     1      68.918  30.667  58.647  1.00  0.00     0.041 C 
ATOM     13  O   UNL     1      69.161  31.688  57.953  1.00  0.00    -0.550 OA
ATOM     14  O   UNL     1      69.954  30.031  59.321  1.00  0.00    -0.550 OA
ENDBRANCH  11  12
ENDBRANCH  10  11
ENDBRANCH   9  10
ENDBRANCH   8   9
ENDBRANCH   7   8
ENDBRANCH   6   7
ENDBRANCH   5   6
ENDBRANCH   4   5
ENDBRANCH   3   4
ENDBRANCH   2   3
ENDBRANCH   1   2
BRANCH   1  15
ATOM     15  C   UNL     1      61.797  33.762  60.659  1.00  0.00     0.000 C 
BRANCH  15  16
ATOM     16  C   UNL     1      61.496  35.272  60.645  1.00  0.00     0.000 C 
BRANCH  16  17
ATOM     17  C   UNL     1      62.650  36.177  61.115  1.00  0.00     0.000 C 
BRANCH  17  18
ATOM     18  C   UNL     1      63.929  35.395  61.447  1.00  0.00    -0.000 C 
BRANCH  18  19
ATOM     19  C   UNL     1      65.166  36.105  60.882  1.00  0.00    -0.000 C 
BRANCH  19  20
ATOM     20  C   UNL     1      65.152  36.103  59.349  1.00  0.00    -0.000 C 
BRANCH  20  21
ATOM     21  C   UNL     1      65.011  34.674  58.803  1.00  0.00    -0.000 C 
BRANCH  21  22
ATOM     22  C   UNL     1      64.102  34.595  57.563  1.00  0.00    -0.000 C 
BRANCH  22  23
ATOM     23  C   UNL     1      63.165  35.803  57.369  1.00  0.00    -0.000 C 
BRANCH  23  24
ATOM     24  C   UNL     1      61.728  35.450  56.940  1.00  0.00    -0.000 C 
BRANCH  24  25
ATOM     25  C   UNL     1      61.656  34.559  55.682  1.00  0.00    -0.003 C 
ATOM     26  C   UNL     1      60.923  33.242  55.937  1.00  0.00     0.004 C 
ENDBRANCH  24  25
ENDBRANCH  23  24
ENDBRANCH  22  23
ENDBRANCH  21  22
ENDBRANCH  20  21
ENDBRANCH  19  20
ENDBRANCH  18  19
ENDBRANCH  17  18
ENDBRANCH  16  17
ENDBRANCH  15  16
ENDBRANCH   1  15
TORSDOF 22
ENDMDL
MODEL 8
REMARK VINA RESULT:    -2.713      8.070     10.838
REMARK INTER + INTRA:         -10.975
REMARK INTER:                  -6.095
REMARK INTRA:                  -4.879
REMARK UNBOUND:                -4.771
REMARK SMILES CCCCCCCCCCCCCCCCCCCCCCCC(=O)[O-]
REMARK SMILES IDX 13 1 14 2 15 3 16 4 17 5 18 6 19 7 20 8 21 9 22 10 23 11
REMARK SMILES IDX 24 12 25 13 26 14 12 15 11 16 10 17 9 18 8 19 7 20 6 21 5 22
REMARK SMILES IDX 4 23 3 24 2 25 1 26
REMARK H PARENT
REMARK Flexibility Score: inf
ROOT
ATOM      1  C   UNL     1      61.383  30.846  61.793  1.00  0.00     0.000 C 
ENDROOT
BRANCH   1   2
ATOM      2  C   UNL     1      62.289  29.981  60.896  1.00  0.00     0.000 C 
BRANCH   2   3
ATOM      3  C   UNL     1      62.568  28.557  61.412  1.00  0.00     0.000 C 
BRANCH   3   4
ATOM      4  C   UNL     1      63.503  27.754  60.491  1.00  0.00     0.000 C 
BRANCH   4   5
ATOM      5  C   UNL     1      63.766  28.452  59.144  1.00  0.00     0.000 C 
BRANCH   5   6
ATOM      6  C   UNL     1      63.073  27.815  57.926  1.00  0.00     0.000 C 
BRANCH   6   7
ATOM      7  C   UNL     1      61.748  28.500  57.561  1.00  0.00     0.000 C 
BRANCH   7   8
ATOM      8  C   UNL     1      60.579  27.505  57.607  1.00  0.00     0.000 C 
BRANCH   8   9
ATOM      9  C   UNL     1      60.039  27.305  59.039  1.00  0.00     0.000 C 
BRANCH   9  10
ATOM     10  C   UNL     1      59.056  28.399  59.487  1.00  0.00     0.006 C 
BRANCH  10  11
ATOM     11  C   UNL     1      58.800  28.391  60.999  1.00  0.00     0.053 C 
BRANCH  11  12
ATOM     12  C   UNL     1      57.763  27.371  61.354  1.00  0.00     0.041 C 
ATOM     13  O   UNL     1      58.080  26.347  62.015  1.00  0.00    -0.550 OA
ATOM     14  O   UNL     1      56.449  27.540  60.935  1.00  0.00    -0.550 OA
ENDBRANCH  11  12
ENDBRANCH  10  11
ENDBRANCH   9  10
ENDBRANCH   8   9
ENDBRANCH   7   8
ENDBRANCH   6   7
ENDBRANCH   5   6
ENDBRANCH   4   5
ENDBRANCH   3   4
ENDBRANCH   2   3
ENDBRANCH   1   2
BRANCH   1  15
ATOM     15  C   UNL     1      60.772  32.047  61.051  1.00  0.00     0.000 C 
BRANCH  15  16
ATOM     16  C   UNL     1      60.443  31.737  59.579  1.00  0.00     0.000 C 
BRANCH  16  17
ATOM     17  C   UNL     1      60.980  32.755  58.557  1.00  0.00     0.000 C 
BRANCH  17  18
ATOM     18  C   UNL     1      61.792  32.103  57.429  1.00  0.00    -0.000 C 
BRANCH  18  19
ATOM     19  C   UNL     1      63.255  31.911  57.849  1.00  0.00    -0.000 C 
BRANCH  19  20
ATOM     20  C   UNL     1      63.787  33.150  58.578  1.00  0.00    -0.000 C 
BRANCH  20  21
ATOM     21  C   UNL     1      64.381  32.771  59.944  1.00  0.00    -0.000 C 
BRANCH  21  22
ATOM     22  C   UNL     1      64.020  33.777  61.052  1.00  0.00    -0.000 C 
BRANCH  22  23
ATOM     23  C   UNL     1      63.580  35.166  60.549  1.00  0.00    -0.000 C 
BRANCH  23  24
ATOM     24  C   UNL     1      62.223  35.653  61.089  1.00  0.00    -0.000 C 
BRANCH  24  25
ATOM     25  C   UNL     1      61.196  35.984  59.985  1.00  0.00    -0.003 C 
ATOM     26  C   UNL     1      61.860  36.376  58.665  1.00  0.00     0.004 C 
ENDBRANCH  24  25
ENDBRANCH  23  24
ENDBRANCH  22  23
ENDBRANCH  21  22
ENDBRANCH  20  21
ENDBRANCH  19  20
ENDBRANCH  18  19
ENDBRANCH  17  18
ENDBRANCH  16  17
ENDBRANCH  15  16
ENDBRANCH   1  15
TORSDOF 22
ENDMDL
MODEL 9
REMARK VINA RESULT:    -2.692      3.656      5.735
REMARK INTER + INTRA:         -10.926
REMARK INTER:                  -6.749
REMARK INTRA:                  -4.178
REMARK UNBOUND:                -4.771
REMARK SMILES CCCCCCCCCCCCCCCCCCCCCCCC(=O)[O-]
REMARK SMILES IDX 13 1 14 2 15 3 16 4 17 5 18 6 19 7 20 8 21 9 22 10 23 11
REMARK SMILES IDX 24 12 25 13 26 14 12 15 11 16 10 17 9 18 8 19 7 20 6 21 5 22
REMARK SMILES IDX 4 23 3 24 2 25 1 26
REMARK H PARENT
REMARK Flexibility Score: inf
ROOT
ATOM      1  C   UNL     1      61.065  26.902  52.877  1.00  0.00     0.000 C 
ENDROOT
BRANCH   1   2
ATOM      2  C   UNL     1      59.788  26.553  52.089  1.00  0.00     0.000 C 
BRANCH   2   3
ATOM      3  C   UNL     1      60.014  26.035  50.656  1.00  0.00     0.000 C 
BRANCH   3   4
ATOM      4  C   UNL     1      59.327  26.902  49.586  1.00  0.00     0.000 C 
BRANCH   4   5
ATOM      5  C   UNL     1      60.178  28.110  49.154  1.00  0.00     0.000 C 
BRANCH   5   6
ATOM      6  C   UNL     1      59.736  29.466  49.734  1.00  0.00     0.000 C 
BRANCH   6   7
ATOM      7  C   UNL     1      58.212  29.591  49.877  1.00  0.00     0.000 C 
BRANCH   7   8
ATOM      8  C   UNL     1      57.794  29.623  51.355  1.00  0.00     0.000 C 
BRANCH   8   9
ATOM      9  C   UNL     1      56.664  28.617  51.663  1.00  0.00     0.000 C 
BRANCH   9  10
ATOM     10  C   UNL     1      55.944  28.094  50.410  1.00  0.00     0.006 C 
BRANCH  10  11
ATOM     11  C   UNL     1      55.190  26.781  50.657  1.00  0.00     0.053 C 
BRANCH  11  12
ATOM     12  C   UNL     1      54.080  26.615  49.665  1.00  0.00     0.041 C 
ATOM     13  O   UNL     1      53.992  25.562  48.983  1.00  0.00    -0.550 OA
ATOM     14  O   UNL     1      53.155  27.635  49.479  1.00  0.00    -0.550 OA
ENDBRANCH  11  12
ENDBRANCH  10  11
ENDBRANCH   9  10
ENDBRANCH   8   9
ENDBRANCH   7   8
ENDBRANCH   6   7
ENDBRANCH   5   6
ENDBRANCH   4   5
ENDBRANCH   3   4
ENDBRANCH   2   3
ENDBRANCH   1   2
BRANCH   1  15
ATOM     15  C   UNL     1      61.472  28.379  52.741  1.00  0.00     0.000 C 
BRANCH  15  16
ATOM     16  C   UNL     1      62.712  28.580  51.850  1.00  0.00     0.000 C 
BRANCH  16  17
ATOM     17  C   UNL     1      63.534  27.309  51.572  1.00  0.00     0.000 C 
BRANCH  17  18
ATOM     18  C   UNL     1      63.589  26.942  50.082  1.00  0.00    -0.000 C 
BRANCH  18  19
ATOM     19  C   UNL     1      64.757  27.652  49.386  1.00  0.00    -0.000 C 
BRANCH  19  20
ATOM     20  C   UNL     1      64.368  28.099  47.972  1.00  0.00    -0.000 C 
BRANCH  20  21
ATOM     21  C   UNL     1      64.463  29.626  47.833  1.00  0.00    -0.000 C 
BRANCH  21  22
ATOM     22  C   UNL     1      64.691  30.336  49.181  1.00  0.00    -0.000 C 
BRANCH  22  23
ATOM     23  C   UNL     1      63.977  31.694  49.327  1.00  0.00    -0.000 C 
BRANCH  23  24
ATOM     24  C   UNL     1      62.554  31.622  49.910  1.00  0.00    -0.000 C 
BRANCH  24  25
ATOM     25  C   UNL     1      62.403  32.340  51.268  1.00  0.00    -0.003 C 
ATOM     26  C   UNL     1      61.065  32.041  51.944  1.00  0.00     0.004 C 
ENDBRANCH  24  25
ENDBRANCH  23  24
ENDBRANCH  22  23
ENDBRANCH  21  22
ENDBRANCH  20  21
ENDBRANCH  19  20
ENDBRANCH  18  19
ENDBRANCH  17  18
ENDBRANCH  16  17
ENDBRANCH  15  16
ENDBRANCH   1  15
TORSDOF 22
ENDMDL
