MODEL 1
REMARK VINA RESULT:    -3.678      0.000      0.000
REMARK INTER + INTRA:          -4.249
REMARK INTER:                  -4.000
REMARK INTRA:                  -0.249
REMARK UNBOUND:                -0.249
REMARK SMILES O=C([O-])c1ccccc1O
REMARK SMILES IDX 4 1 9 2 5 3 8 4 6 5 7 6 2 7 1 8 3 9 10 10
REMARK H PARENT 10 11
REMARK Flexibility Score: inf
ROOT
ATOM      1  C   UNL     1      -4.139  -1.129   1.823  1.00  0.00     0.039 A 
ATOM      2  C   UNL     1      -4.867  -2.248   2.302  1.00  0.00     0.124 A 
ATOM      3  C   UNL     1      -4.092  -0.890   0.437  1.00  0.00     0.014 A 
ATOM      4  C   UNL     1      -5.469  -3.125   1.390  1.00  0.00     0.047 A 
ATOM      5  C   UNL     1      -4.716  -1.763  -0.458  1.00  0.00     0.001 A 
ATOM      6  C   UNL     1      -5.395  -2.883   0.018  1.00  0.00     0.004 A 
ENDROOT
BRANCH   1   7
ATOM      7  C   UNL     1      -3.394  -0.222   2.725  1.00  0.00     0.075 C 
ATOM      8  O   UNL     1      -3.938   0.215   3.773  1.00  0.00    -0.545 OA
ATOM      9  O   UNL     1      -2.116   0.214   2.397  1.00  0.00    -0.545 OA
ENDBRANCH   1   7
BRANCH   2  10
ATOM     10  O   UNL     1      -5.046  -2.502   3.663  1.00  0.00    -0.507 OA
ATOM     11  H   UNL     1      -5.037  -1.779   4.370  1.00  0.00     0.293 HD
ENDBRANCH   2  10
TORSDOF 2
ENDMDL
MODEL 2
REMARK VINA RESULT:    -3.305      0.659      0.659
REMARK INTER + INTRA:          -3.844
REMARK INTER:                  -3.628
REMARK INTRA:                  -0.217
REMARK UNBOUND:                -0.249
REMARK SMILES O=C([O-])c1ccccc1O
REMARK SMILES IDX 4 1 9 2 5 3 8 4 6 5 7 6 2 7 1 8 3 9 10 10
REMARK H PARENT 10 11
REMARK Flexibility Score: inf
ROOT
ATOM      1  C   UNL     1      -3.762  -0.869   2.112  1.00  0.00     0.039 A 
ATOM      2  C   UNL     1      -4.670  -1.792   2.690  1.00  0.00     0.124 A 
ATOM      3  C   UNL     1      -3.752  -0.709   0.713  1.00  0.00     0.014 A 
ATOM      4  C   UNL     1      -5.490  -2.569   1.861  1.00  0.00     0.047 A 
ATOM      5  C   UNL     1      -4.591  -1.477  -0.098  1.00  0.00     0.001 A 
ATOM      6  C   UNL     1      -5.452  -2.412   0.475  1.00  0.00     0.004 A 
ENDROOT
BRANCH   1   7
ATOM      7  C   UNL     1      -2.797  -0.092   2.921  1.00  0.00     0.075 C 
ATOM      8  O   UNL     1      -3.006   0.092   4.150  1.00  0.00    -0.545 OA
ATOM      9  O   UNL     1      -1.689   0.501   2.330  1.00  0.00    -0.545 OA
ENDBRANCH   1   7
BRANCH   2  10
ATOM     10  O   UNL     1      -4.814  -1.941   4.071  1.00  0.00    -0.507 OA
ATOM     11  H   UNL     1      -4.230  -2.549   4.628  1.00  0.00     0.293 HD
ENDBRANCH   2  10
TORSDOF 2
ENDMDL
MODEL 3
REMARK VINA RESULT:    -2.807      2.349      3.431
REMARK INTER + INTRA:          -3.303
REMARK INTER:                  -3.100
REMARK INTRA:                  -0.203
REMARK UNBOUND:                -0.249
REMARK SMILES O=C([O-])c1ccccc1O
REMARK SMILES IDX 4 1 9 2 5 3 8 4 6 5 7 6 2 7 1 8 3 9 10 10
REMARK H PARENT 10 11
REMARK Flexibility Score: inf
ROOT
ATOM      1  C   UNL     1      -4.470  -1.417   0.953  1.00  0.00     0.039 A 
ATOM      2  C   UNL     1      -5.009  -2.044   2.104  1.00  0.00     0.124 A 
ATOM      3  C   UNL     1      -3.510  -0.401   1.117  1.00  0.00     0.014 A 
ATOM      4  C   UNL     1      -4.628  -1.600   3.377  1.00  0.00     0.047 A 
ATOM      5  C   UNL     1      -3.125   0.015   2.393  1.00  0.00     0.001 A 
ATOM      6  C   UNL     1      -3.690  -0.577   3.522  1.00  0.00     0.004 A 
ENDROOT
BRANCH   1   7
ATOM      7  C   UNL     1      -4.905  -1.766  -0.418  1.00  0.00     0.075 C 
ATOM      8  O   UNL     1      -5.531  -0.925  -1.116  1.00  0.00    -0.545 OA
ATOM      9  O   UNL     1      -4.693  -3.040  -0.929  1.00  0.00    -0.545 OA
ENDBRANCH   1   7
BRANCH   2  10
ATOM     10  O   UNL     1      -5.891  -3.125   2.029  1.00  0.00    -0.507 OA
ATOM     11  H   UNL     1      -6.050  -3.655   1.184  1.00  0.00     0.293 HD
ENDBRANCH   2  10
TORSDOF 2
ENDMDL
MODEL 4
REMARK VINA RESULT:    -2.165      1.093      2.535
REMARK INTER + INTRA:          -2.604
REMARK INTER:                  -2.399
REMARK INTRA:                  -0.206
REMARK UNBOUND:                -0.249
REMARK SMILES O=C([O-])c1ccccc1O
REMARK SMILES IDX 4 1 9 2 5 3 8 4 6 5 7 6 2 7 1 8 3 9 10 10
REMARK H PARENT 10 11
REMARK Flexibility Score: inf
ROOT
ATOM      1  C   UNL     1      -4.717  -1.949   1.676  1.00  0.00     0.039 A 
ATOM      2  C   UNL     1      -4.287  -0.851   0.889  1.00  0.00     0.124 A 
ATOM      3  C   UNL     1      -5.231  -3.089   1.031  1.00  0.00     0.014 A 
ATOM      4  C   UNL     1      -4.439  -0.895  -0.503  1.00  0.00     0.047 A 
ATOM      5  C   UNL     1      -5.357  -3.125  -0.360  1.00  0.00     0.001 A 
ATOM      6  C   UNL     1      -4.970  -2.026  -1.125  1.00  0.00     0.004 A 
ENDROOT
BRANCH   1   7
ATOM      7  C   UNL     1      -4.680  -1.928   3.156  1.00  0.00     0.075 C 
ATOM      8  O   UNL     1      -5.043  -2.940   3.812  1.00  0.00    -0.545 OA
ATOM      9  O   UNL     1      -4.313  -0.777   3.841  1.00  0.00    -0.545 OA
ENDBRANCH   1   7
BRANCH   2  10
ATOM     10  O   UNL     1      -3.675   0.276   1.441  1.00  0.00    -0.507 OA
ATOM     11  H   UNL     1      -3.851   0.599   2.382  1.00  0.00     0.293 HD
ENDBRANCH   2  10
TORSDOF 2
ENDMDL
MODEL 5
REMARK VINA RESULT:    -2.051      1.001      2.151
REMARK INTER + INTRA:          -2.480
REMARK INTER:                  -2.236
REMARK INTRA:                  -0.244
REMARK UNBOUND:                -0.249
REMARK SMILES O=C([O-])c1ccccc1O
REMARK SMILES IDX 4 1 9 2 5 3 8 4 6 5 7 6 2 7 1 8 3 9 10 10
REMARK H PARENT 10 11
REMARK Flexibility Score: inf
ROOT
ATOM      1  C   UNL     1      -4.148  -1.253   1.995  1.00  0.00     0.039 A 
ATOM      2  C   UNL     1      -4.008  -1.308   0.586  1.00  0.00     0.124 A 
ATOM      3  C   UNL     1      -5.001  -2.174   2.632  1.00  0.00     0.014 A 
ATOM      4  C   UNL     1      -4.763  -2.232  -0.150  1.00  0.00     0.047 A 
ATOM      5  C   UNL     1      -5.731  -3.102   1.886  1.00  0.00     0.001 A 
ATOM      6  C   UNL     1      -5.619  -3.125   0.496  1.00  0.00     0.004 A 
ENDROOT
BRANCH   1   7
ATOM      7  C   UNL     1      -3.460  -0.236   2.822  1.00  0.00     0.075 C 
ATOM      8  O   UNL     1      -4.030   0.248   3.835  1.00  0.00    -0.545 OA
ATOM      9  O   UNL     1      -2.210   0.249   2.457  1.00  0.00    -0.545 OA
ENDBRANCH   1   7
BRANCH   2  10
ATOM     10  O   UNL     1      -3.111  -0.498  -0.114  1.00  0.00    -0.507 OA
ATOM     11  H   UNL     1      -2.199  -0.244   0.240  1.00  0.00     0.293 HD
ENDBRANCH   2  10
TORSDOF 2
ENDMDL
MODEL 6
REMARK VINA RESULT:    -1.858      1.712      2.659
REMARK INTER + INTRA:          -2.270
REMARK INTER:                  -2.074
REMARK INTRA:                  -0.196
REMARK UNBOUND:                -0.249
REMARK SMILES O=C([O-])c1ccccc1O
REMARK SMILES IDX 4 1 9 2 5 3 8 4 6 5 7 6 2 7 1 8 3 9 10 10
REMARK H PARENT 10 11
REMARK Flexibility Score: inf
ROOT
ATOM      1  C   UNL     1      -3.351  -0.721   2.490  1.00  0.00     0.039 A 
ATOM      2  C   UNL     1      -3.636  -0.933   1.117  1.00  0.00     0.124 A 
ATOM      3  C   UNL     1      -4.149  -1.358   3.458  1.00  0.00     0.014 A 
ATOM      4  C   UNL     1      -4.739  -1.716   0.752  1.00  0.00     0.047 A 
ATOM      5  C   UNL     1      -5.232  -2.154   3.077  1.00  0.00     0.001 A 
ATOM      6  C   UNL     1      -5.532  -2.325   1.726  1.00  0.00     0.004 A 
ENDROOT
BRANCH   1   7
ATOM      7  C   UNL     1      -2.265   0.177   2.945  1.00  0.00     0.075 C 
ATOM      8  O   UNL     1      -1.395   0.581   2.129  1.00  0.00    -0.545 OA
ATOM      9  O   UNL     1      -2.150   0.530   4.283  1.00  0.00    -0.545 OA
ENDBRANCH   1   7
BRANCH   2  10
ATOM     10  O   UNL     1      -2.837  -0.419   0.094  1.00  0.00    -0.507 OA
ATOM     11  H   UNL     1      -2.318  -0.999  -0.550  1.00  0.00     0.293 HD
ENDBRANCH   2  10
TORSDOF 2
ENDMDL
MODEL 7
REMARK VINA RESULT:    -1.612      2.083      3.996
REMARK INTER + INTRA:          -2.002
REMARK INTER:                  -1.771
REMARK INTRA:                  -0.231
REMARK UNBOUND:                -0.249
REMARK SMILES O=C([O-])c1ccccc1O
REMARK SMILES IDX 4 1 9 2 5 3 8 4 6 5 7 6 2 7 1 8 3 9 10 10
REMARK H PARENT 10 11
REMARK Flexibility Score: inf
ROOT
ATOM      1  C   UNL     1      -4.628  -1.692   1.546  1.00  0.00     0.039 A 
ATOM      2  C   UNL     1      -3.573  -0.892   1.038  1.00  0.00     0.124 A 
ATOM      3  C   UNL     1      -4.960  -1.595   2.910  1.00  0.00     0.014 A 
ATOM      4  C   UNL     1      -2.844  -0.072   1.910  1.00  0.00     0.047 A 
ATOM      5  C   UNL     1      -4.237  -0.756   3.761  1.00  0.00     0.001 A 
ATOM      6  C   UNL     1      -3.174  -0.003   3.263  1.00  0.00     0.004 A 
ENDROOT
BRANCH   1   7
ATOM      7  C   UNL     1      -5.371  -2.655   0.702  1.00  0.00     0.075 C 
ATOM      8  O   UNL     1      -6.470  -3.125   1.098  1.00  0.00    -0.545 OA
ATOM      9  O   UNL     1      -4.838  -3.106  -0.499  1.00  0.00    -0.545 OA
ENDBRANCH   1   7
BRANCH   2  10
ATOM     10  O   UNL     1      -3.244  -0.854  -0.318  1.00  0.00    -0.507 OA
ATOM     11  H   UNL     1      -3.398  -0.046  -0.906  1.00  0.00     0.293 HD
ENDBRANCH   2  10
TORSDOF 2
ENDMDL
