MODEL 1
REMARK VINA RESULT:    -4.056      0.000      0.000
REMARK INTER + INTRA:          -6.843
REMARK INTER:                  -6.191
REMARK INTRA:                  -0.653
REMARK UNBOUND:                -0.653
REMARK SMILES O=C([O-])CCCCCCCCC(=O)[O-]
REMARK SMILES IDX 7 1 6 2 5 3 4 4 2 5 1 6 3 7 8 8 9 9 10 10 11 11 12 12 13 13
REMARK SMILES IDX 14 14
REMARK H PARENT
REMARK Flexibility Score: inf
ROOT
ATOM      1  C   UNL     1     -20.753   3.776 -24.989  1.00  0.00     0.000 C 
ENDROOT
BRANCH   1   2
ATOM      2  C   UNL     1     -19.800   3.606 -23.796  1.00  0.00     0.000 C 
BRANCH   2   3
ATOM      3  C   UNL     1     -20.547   3.072 -22.568  1.00  0.00     0.006 C 
BRANCH   3   4
ATOM      4  C   UNL     1     -20.843   4.197 -21.572  1.00  0.00     0.053 C 
BRANCH   4   5
ATOM      5  C   UNL     1     -20.643   3.720 -20.168  1.00  0.00     0.041 C 
ATOM      6  O   UNL     1     -19.710   2.920 -19.898  1.00  0.00    -0.550 OA
ATOM      7  O   UNL     1     -21.459   4.197 -19.149  1.00  0.00    -0.550 OA
ENDBRANCH   4   5
ENDBRANCH   3   4
ENDBRANCH   2   3
ENDBRANCH   1   2
BRANCH   1   8
ATOM      8  C   UNL     1     -21.999   2.881 -24.886  1.00  0.00     0.000 C 
BRANCH   8   9
ATOM      9  C   UNL     1     -22.155   1.946 -26.097  1.00  0.00     0.000 C 
BRANCH   9  10
ATOM     10  C   UNL     1     -20.821   1.678 -26.819  1.00  0.00     0.006 C 
BRANCH  10  11
ATOM     11  C   UNL     1     -20.506   0.189 -27.038  1.00  0.00     0.053 C 
BRANCH  11  12
ATOM     12  C   UNL     1     -19.461  -0.311 -26.087  1.00  0.00     0.041 C 
ATOM     13  O   UNL     1     -18.538  -1.062 -26.497  1.00  0.00    -0.550 OA
ATOM     14  O   UNL     1     -19.490   0.081 -24.755  1.00  0.00    -0.550 OA
ENDBRANCH  11  12
ENDBRANCH  10  11
ENDBRANCH   9  10
ENDBRANCH   8   9
ENDBRANCH   1   8
TORSDOF 9
ENDMDL
MODEL 2
REMARK VINA RESULT:    -3.810      0.755      6.080
REMARK INTER + INTRA:          -6.468
REMARK INTER:                  -5.938
REMARK INTRA:                  -0.530
REMARK UNBOUND:                -0.653
REMARK SMILES O=C([O-])CCCCCCCCC(=O)[O-]
REMARK SMILES IDX 7 1 6 2 5 3 4 4 2 5 1 6 3 7 8 8 9 9 10 10 11 11 12 12 13 13
REMARK SMILES IDX 14 14
REMARK H PARENT
REMARK Flexibility Score: inf
ROOT
ATOM      1  C   UNL     1     -22.175   2.961 -24.660  1.00  0.00     0.000 C 
ENDROOT
BRANCH   1   2
ATOM      2  C   UNL     1     -22.436   2.261 -26.002  1.00  0.00     0.000 C 
BRANCH   2   3
ATOM      3  C   UNL     1     -21.123   1.793 -26.641  1.00  0.00     0.006 C 
BRANCH   3   4
ATOM      4  C   UNL     1     -20.948   0.278 -26.490  1.00  0.00     0.053 C 
BRANCH   4   5
ATOM      5  C   UNL     1     -19.747  -0.029 -25.652  1.00  0.00     0.041 C 
ATOM      6  O   UNL     1     -19.815   0.043 -24.397  1.00  0.00    -0.550 OA
ATOM      7  O   UNL     1     -18.566  -0.444 -26.256  1.00  0.00    -0.550 OA
ENDBRANCH   4   5
ENDBRANCH   3   4
ENDBRANCH   2   3
ENDBRANCH   1   2
BRANCH   1   8
ATOM      8  C   UNL     1     -20.762   3.558 -24.565  1.00  0.00     0.000 C 
BRANCH   8   9
ATOM      9  C   UNL     1     -20.709   4.816 -23.682  1.00  0.00     0.000 C 
BRANCH   9  10
ATOM     10  C   UNL     1     -21.361   4.603 -22.302  1.00  0.00     0.006 C 
BRANCH  10  11
ATOM     11  C   UNL     1     -20.436   4.902 -21.111  1.00  0.00     0.053 C 
BRANCH  11  12
ATOM     12  C   UNL     1     -20.731   4.023 -19.935  1.00  0.00     0.041 C 
ATOM     13  O   UNL     1     -21.645   4.331 -19.126  1.00  0.00    -0.550 OA
ATOM     14  O   UNL     1     -20.019   2.844 -19.752  1.00  0.00    -0.550 OA
ENDBRANCH  11  12
ENDBRANCH  10  11
ENDBRANCH   9  10
ENDBRANCH   8   9
ENDBRANCH   1   8
TORSDOF 9
ENDMDL
MODEL 3
REMARK VINA RESULT:    -3.745     14.045     15.235
REMARK INTER + INTRA:          -6.368
REMARK INTER:                  -6.137
REMARK INTRA:                  -0.231
REMARK UNBOUND:                -0.653
REMARK SMILES O=C([O-])CCCCCCCCC(=O)[O-]
REMARK SMILES IDX 7 1 6 2 5 3 4 4 2 5 1 6 3 7 8 8 9 9 10 10 11 11 12 12 13 13
REMARK SMILES IDX 14 14
REMARK H PARENT
REMARK Flexibility Score: inf
ROOT
ATOM      1  C   UNL     1      -7.419  -5.086 -25.852  1.00  0.00     0.000 C 
ENDROOT
BRANCH   1   2
ATOM      2  C   UNL     1      -8.111  -3.872 -25.214  1.00  0.00     0.000 C 
BRANCH   2   3
ATOM      3  C   UNL     1      -7.131  -2.703 -25.054  1.00  0.00     0.006 C 
BRANCH   3   4
ATOM      4  C   UNL     1      -7.592  -1.746 -23.950  1.00  0.00     0.053 C 
BRANCH   4   5
ATOM      5  C   UNL     1      -6.510  -1.561 -22.933  1.00  0.00     0.041 C 
ATOM      6  O   UNL     1      -6.386  -0.460 -22.335  1.00  0.00    -0.550 OA
ATOM      7  O   UNL     1      -5.670  -2.619 -22.611  1.00  0.00    -0.550 OA
ENDBRANCH   4   5
ENDBRANCH   3   4
ENDBRANCH   2   3
ENDBRANCH   1   2
BRANCH   1   8
ATOM      8  C   UNL     1      -8.344  -6.307 -25.963  1.00  0.00     0.000 C 
BRANCH   8   9
ATOM      9  C   UNL     1      -7.577  -7.638 -25.886  1.00  0.00     0.000 C 
BRANCH   9  10
ATOM     10  C   UNL     1      -8.284  -8.778 -26.645  1.00  0.00     0.006 C 
BRANCH  10  11
ATOM     11  C   UNL     1      -9.737  -9.027 -26.206  1.00  0.00     0.053 C 
BRANCH  11  12
ATOM     12  C   UNL     1      -9.995 -10.473 -25.911  1.00  0.00     0.041 C 
ATOM     13  O   UNL     1      -9.084 -11.192 -25.422  1.00  0.00    -0.550 OA
ATOM     14  O   UNL     1     -11.251 -11.017 -26.145  1.00  0.00    -0.550 OA
ENDBRANCH  11  12
ENDBRANCH  10  11
ENDBRANCH   9  10
ENDBRANCH   8   9
ENDBRANCH   1   8
TORSDOF 9
ENDMDL
MODEL 4
REMARK VINA RESULT:    -3.683     14.161     16.239
REMARK INTER + INTRA:          -6.273
REMARK INTER:                  -5.892
REMARK INTRA:                  -0.382
REMARK UNBOUND:                -0.653
REMARK SMILES O=C([O-])CCCCCCCCC(=O)[O-]
REMARK SMILES IDX 7 1 6 2 5 3 4 4 2 5 1 6 3 7 8 8 9 9 10 10 11 11 12 12 13 13
REMARK SMILES IDX 14 14
REMARK H PARENT
REMARK Flexibility Score: inf
ROOT
ATOM      1  C   UNL     1      -6.791  -6.119 -26.009  1.00  0.00     0.000 C 
ENDROOT
BRANCH   1   2
ATOM      2  C   UNL     1      -8.211  -6.667 -25.807  1.00  0.00     0.000 C 
BRANCH   2   3
ATOM      3  C   UNL     1      -8.273  -8.164 -26.136  1.00  0.00     0.006 C 
BRANCH   3   4
ATOM      4  C   UNL     1      -9.724  -8.652 -26.204  1.00  0.00     0.053 C 
BRANCH   4   5
ATOM      5  C   UNL     1      -9.792 -10.126 -25.957  1.00  0.00     0.041 C 
ATOM      6  O   UNL     1     -10.906 -10.692 -25.802  1.00  0.00    -0.550 OA
ATOM      7  O   UNL     1      -8.627 -10.884 -25.947  1.00  0.00    -0.550 OA
ENDBRANCH   4   5
ENDBRANCH   3   4
ENDBRANCH   2   3
ENDBRANCH   1   2
BRANCH   1   8
ATOM      8  C   UNL     1      -6.640  -4.668 -25.527  1.00  0.00     0.000 C 
BRANCH   8   9
ATOM      9  C   UNL     1      -7.989  -3.936 -25.424  1.00  0.00     0.000 C 
BRANCH   9  10
ATOM     10  C   UNL     1      -8.046  -2.956 -24.236  1.00  0.00     0.006 C 
BRANCH  10  11
ATOM     11  C   UNL     1      -7.003  -1.828 -24.293  1.00  0.00     0.053 C 
BRANCH  11  12
ATOM     12  C   UNL     1      -6.178  -1.762 -23.043  1.00  0.00     0.041 C 
ATOM     13  O   UNL     1      -5.651  -2.804 -22.576  1.00  0.00    -0.550 OA
ATOM     14  O   UNL     1      -5.966  -0.541 -22.415  1.00  0.00    -0.550 OA
ENDBRANCH  11  12
ENDBRANCH  10  11
ENDBRANCH   9  10
ENDBRANCH   8   9
ENDBRANCH   1   8
TORSDOF 9
ENDMDL
MODEL 5
REMARK VINA RESULT:    -3.634     12.207     14.213
REMARK INTER + INTRA:          -6.200
REMARK INTER:                  -5.454
REMARK INTRA:                  -0.745
REMARK UNBOUND:                -0.653
REMARK SMILES O=C([O-])CCCCCCCCC(=O)[O-]
REMARK SMILES IDX 7 1 6 2 5 3 4 4 2 5 1 6 3 7 8 8 9 9 10 10 11 11 12 12 13 13
REMARK SMILES IDX 14 14
REMARK H PARENT
REMARK Flexibility Score: inf
ROOT
ATOM      1  C   UNL     1      -7.271  -2.810 -24.178  1.00  0.00     0.000 C 
ENDROOT
BRANCH   1   2
ATOM      2  C   UNL     1      -6.938  -2.305 -25.590  1.00  0.00     0.000 C 
BRANCH   2   3
ATOM      3  C   UNL     1      -8.193  -1.774 -26.293  1.00  0.00     0.006 C 
BRANCH   3   4
ATOM      4  C   UNL     1      -8.406  -0.288 -25.990  1.00  0.00     0.053 C 
BRANCH   4   5
ATOM      5  C   UNL     1      -9.781  -0.055 -25.449  1.00  0.00     0.041 C 
ATOM      6  O   UNL     1     -10.005  -0.179 -24.216  1.00  0.00    -0.550 OA
ATOM      7  O   UNL     1     -10.804   0.347 -26.298  1.00  0.00    -0.550 OA
ENDBRANCH   4   5
ENDBRANCH   3   4
ENDBRANCH   2   3
ENDBRANCH   1   2
BRANCH   1   8
ATOM      8  C   UNL     1      -6.389  -2.171 -23.094  1.00  0.00     0.000 C 
BRANCH   8   9
ATOM      9  C   UNL     1      -6.869  -0.765 -22.696  1.00  0.00     0.000 C 
BRANCH   9  10
ATOM     10  C   UNL     1      -5.818   0.325 -22.979  1.00  0.00     0.006 C 
BRANCH  10  11
ATOM     11  C   UNL     1      -6.013   1.620 -22.172  1.00  0.00     0.053 C 
BRANCH  11  12
ATOM     12  C   UNL     1      -6.353   2.785 -23.051  1.00  0.00     0.041 C 
ATOM     13  O   UNL     1      -7.447   2.812 -23.672  1.00  0.00    -0.550 OA
ATOM     14  O   UNL     1      -5.473   3.855 -23.157  1.00  0.00    -0.550 OA
ENDBRANCH  11  12
ENDBRANCH  10  11
ENDBRANCH   9  10
ENDBRANCH   8   9
ENDBRANCH   1   8
TORSDOF 9
ENDMDL
MODEL 6
REMARK VINA RESULT:    -3.624     11.504     12.916
REMARK INTER + INTRA:          -6.184
REMARK INTER:                  -5.347
REMARK INTRA:                  -0.837
REMARK UNBOUND:                -0.653
REMARK SMILES O=C([O-])CCCCCCCCC(=O)[O-]
REMARK SMILES IDX 7 1 6 2 5 3 4 4 2 5 1 6 3 7 8 8 9 9 10 10 11 11 12 12 13 13
REMARK SMILES IDX 14 14
REMARK H PARENT
REMARK Flexibility Score: inf
ROOT
ATOM      1  C   UNL     1      -9.567  -0.190 -24.625  1.00  0.00     0.000 C 
ENDROOT
BRANCH   1   2
ATOM      2  C   UNL     1      -8.368   0.720 -24.930  1.00  0.00     0.000 C 
BRANCH   2   3
ATOM      3  C   UNL     1      -7.058  -0.077 -24.918  1.00  0.00     0.006 C 
BRANCH   3   4
ATOM      4  C   UNL     1      -7.244  -1.431 -24.226  1.00  0.00     0.053 C 
BRANCH   4   5
ATOM      5  C   UNL     1      -6.437  -1.491 -22.968  1.00  0.00     0.041 C 
ATOM      6  O   UNL     1      -5.767  -2.521 -22.694  1.00  0.00    -0.550 OA
ATOM      7  O   UNL     1      -6.384  -0.390 -22.122  1.00  0.00    -0.550 OA
ENDBRANCH   4   5
ENDBRANCH   3   4
ENDBRANCH   2   3
ENDBRANCH   1   2
BRANCH   1   8
ATOM      8  C   UNL     1     -10.688  -0.066 -25.668  1.00  0.00     0.000 C 
BRANCH   8   9
ATOM      9  C   UNL     1     -10.186   0.493 -27.011  1.00  0.00     0.000 C 
BRANCH   9  10
ATOM     10  C   UNL     1      -9.566  -0.592 -27.912  1.00  0.00     0.006 C 
BRANCH  10  11
ATOM     11  C   UNL     1      -9.977  -2.029 -27.551  1.00  0.00     0.053 C 
BRANCH  11  12
ATOM     12  C   UNL     1      -8.792  -2.891 -27.237  1.00  0.00     0.041 C 
ATOM     13  O   UNL     1      -7.650  -2.577 -27.662  1.00  0.00    -0.550 OA
ATOM     14  O   UNL     1      -8.946  -4.022 -26.445  1.00  0.00    -0.550 OA
ENDBRANCH  11  12
ENDBRANCH  10  11
ENDBRANCH   9  10
ENDBRANCH   8   9
ENDBRANCH   1   8
TORSDOF 9
ENDMDL
MODEL 7
REMARK VINA RESULT:    -3.573     12.092     13.534
REMARK INTER + INTRA:          -6.105
REMARK INTER:                  -5.370
REMARK INTRA:                  -0.735
REMARK UNBOUND:                -0.653
REMARK SMILES O=C([O-])CCCCCCCCC(=O)[O-]
REMARK SMILES IDX 7 1 6 2 5 3 4 4 2 5 1 6 3 7 8 8 9 9 10 10 11 11 12 12 13 13
REMARK SMILES IDX 14 14
REMARK H PARENT
REMARK Flexibility Score: inf
ROOT
ATOM      1  C   UNL     1      -6.461  -2.180 -23.350  1.00  0.00     0.000 C 
ENDROOT
BRANCH   1   2
ATOM      2  C   UNL     1      -6.834  -0.855 -22.667  1.00  0.00     0.000 C 
BRANCH   2   3
ATOM      3  C   UNL     1      -5.908   0.278 -23.126  1.00  0.00     0.006 C 
BRANCH   3   4
ATOM      4  C   UNL     1      -6.069   1.514 -22.235  1.00  0.00     0.053 C 
BRANCH   4   5
ATOM      5  C   UNL     1      -6.381   2.719 -23.064  1.00  0.00     0.041 C 
ATOM      6  O   UNL     1      -5.575   3.685 -23.107  1.00  0.00    -0.550 OA
ATOM      7  O   UNL     1      -7.540   2.756 -23.830  1.00  0.00    -0.550 OA
ENDBRANCH   4   5
ENDBRANCH   3   4
ENDBRANCH   2   3
ENDBRANCH   1   2
BRANCH   1   8
ATOM      8  C   UNL     1      -7.615  -2.768 -24.176  1.00  0.00     0.000 C 
BRANCH   8   9
ATOM      9  C   UNL     1      -7.341  -2.722 -25.689  1.00  0.00     0.000 C 
BRANCH   9  10
ATOM     10  C   UNL     1      -8.356  -1.849 -26.452  1.00  0.00     0.006 C 
BRANCH  10  11
ATOM     11  C   UNL     1      -8.468  -0.405 -25.935  1.00  0.00     0.053 C 
BRANCH  11  12
ATOM     12  C   UNL     1      -9.840  -0.098 -25.419  1.00  0.00     0.041 C 
ATOM     13  O   UNL     1     -10.089  -0.183 -24.188  1.00  0.00    -0.550 OA
ATOM     14  O   UNL     1     -10.836   0.315 -26.296  1.00  0.00    -0.550 OA
ENDBRANCH  11  12
ENDBRANCH  10  11
ENDBRANCH   9  10
ENDBRANCH   8   9
ENDBRANCH   1   8
TORSDOF 9
ENDMDL
MODEL 8
REMARK VINA RESULT:    -3.559     11.968     14.021
REMARK INTER + INTRA:          -6.085
REMARK INTER:                  -5.271
REMARK INTRA:                  -0.814
REMARK UNBOUND:                -0.653
REMARK SMILES O=C([O-])CCCCCCCCC(=O)[O-]
REMARK SMILES IDX 7 1 6 2 5 3 4 4 2 5 1 6 3 7 8 8 9 9 10 10 11 11 12 12 13 13
REMARK SMILES IDX 14 14
REMARK H PARENT
REMARK Flexibility Score: inf
ROOT
ATOM      1  C   UNL     1     -10.082  -1.193 -27.041  1.00  0.00     0.000 C 
ENDROOT
BRANCH   1   2
ATOM      2  C   UNL     1      -8.832  -1.393 -27.912  1.00  0.00     0.000 C 
BRANCH   2   3
ATOM      3  C   UNL     1      -7.920  -2.476 -27.321  1.00  0.00     0.006 C 
BRANCH   3   4
ATOM      4  C   UNL     1      -8.680  -3.792 -27.134  1.00  0.00     0.053 C 
BRANCH   4   5
ATOM      5  C   UNL     1      -8.092  -4.581 -26.007  1.00  0.00     0.041 C 
ATOM      6  O   UNL     1      -6.973  -4.260 -25.526  1.00  0.00    -0.550 OA
ATOM      7  O   UNL     1      -8.802  -5.640 -25.455  1.00  0.00    -0.550 OA
ENDBRANCH   4   5
ENDBRANCH   3   4
ENDBRANCH   2   3
ENDBRANCH   1   2
BRANCH   1   8
ATOM      8  C   UNL     1     -10.050   0.123 -26.249  1.00  0.00     0.000 C 
BRANCH   8   9
ATOM      9  C   UNL     1      -9.773  -0.096 -24.751  1.00  0.00     0.000 C 
BRANCH   9  10
ATOM     10  C   UNL     1      -8.270  -0.214 -24.434  1.00  0.00     0.006 C 
BRANCH  10  11
ATOM     11  C   UNL     1      -7.874  -1.514 -23.713  1.00  0.00     0.053 C 
BRANCH  11  12
ATOM     12  C   UNL     1      -6.678  -1.325 -22.831  1.00  0.00     0.041 C 
ATOM     13  O   UNL     1      -6.498  -0.233 -22.232  1.00  0.00    -0.550 OA
ATOM     14  O   UNL     1      -5.779  -2.368 -22.646  1.00  0.00    -0.550 OA
ENDBRANCH  11  12
ENDBRANCH  10  11
ENDBRANCH   9  10
ENDBRANCH   8   9
ENDBRANCH   1   8
TORSDOF 9
ENDMDL
MODEL 9
REMARK VINA RESULT:    -3.503     12.947     14.730
REMARK INTER + INTRA:          -5.998
REMARK INTER:                  -5.121
REMARK INTRA:                  -0.877
REMARK UNBOUND:                -0.653
REMARK SMILES O=C([O-])CCCCCCCCC(=O)[O-]
REMARK SMILES IDX 7 1 6 2 5 3 4 4 2 5 1 6 3 7 8 8 9 9 10 10 11 11 12 12 13 13
REMARK SMILES IDX 14 14
REMARK H PARENT
REMARK Flexibility Score: inf
ROOT
ATOM      1  C   UNL     1      -8.860  -0.248 -24.828  1.00  0.00     0.000 C 
ENDROOT
BRANCH   1   2
ATOM      2  C   UNL     1      -8.747  -1.336 -25.907  1.00  0.00     0.000 C 
BRANCH   2   3
ATOM      3  C   UNL     1      -7.947  -2.539 -25.391  1.00  0.00     0.006 C 
BRANCH   3   4
ATOM      4  C   UNL     1      -7.589  -2.366 -23.912  1.00  0.00     0.053 C 
BRANCH   4   5
ATOM      5  C   UNL     1      -6.184  -2.815 -23.658  1.00  0.00     0.041 C 
ATOM      6  O   UNL     1      -5.670  -2.673 -22.518  1.00  0.00    -0.550 OA
ATOM      7  O   UNL     1      -5.459  -3.435 -24.668  1.00  0.00    -0.550 OA
ENDBRANCH   4   5
ENDBRANCH   3   4
ENDBRANCH   2   3
ENDBRANCH   1   2
BRANCH   1   8
ATOM      8  C   UNL     1      -8.260   1.095 -25.274  1.00  0.00     0.000 C 
BRANCH   8   9
ATOM      9  C   UNL     1      -6.852   0.942 -25.873  1.00  0.00     0.000 C 
BRANCH   9  10
ATOM     10  C   UNL     1      -5.766   0.733 -24.800  1.00  0.00     0.006 C 
BRANCH  10  11
ATOM     11  C   UNL     1      -5.507   1.962 -23.912  1.00  0.00     0.053 C 
BRANCH  11  12
ATOM     12  C   UNL     1      -6.000   1.758 -22.512  1.00  0.00     0.041 C 
ATOM     13  O   UNL     1      -5.978   0.611 -21.993  1.00  0.00    -0.550 OA
ATOM     14  O   UNL     1      -6.452   2.841 -21.769  1.00  0.00    -0.550 OA
ENDBRANCH  11  12
ENDBRANCH  10  11
ENDBRANCH   9  10
ENDBRANCH   8   9
ENDBRANCH   1   8
TORSDOF 9
ENDMDL
