MODEL 1
REMARK VINA RESULT:    -4.585      0.000      0.000
REMARK INTER + INTRA:         -10.264
REMARK INTER:                  -8.338
REMARK INTRA:                  -1.926
REMARK UNBOUND:                -1.926
REMARK SMILES CCCCCCCCCCCCCC[C@H](C)C(=O)[O-]
REMARK SMILES IDX 9 1 10 2 11 3 12 4 13 5 14 6 15 7 16 8 17 9 18 10 19 11 8 12
REMARK SMILES IDX 7 13 6 14 5 15 4 16 3 17 2 18 1 19
REMARK H PARENT
REMARK Flexibility Score: inf
ROOT
ATOM      1  C   UNL     1      32.501   9.786  48.169  1.00  0.00     0.000 C 
ENDROOT
BRANCH   1   2
ATOM      2  C   UNL     1      31.104   9.235  48.504  1.00  0.00     0.000 C 
BRANCH   2   3
ATOM      3  C   UNL     1      31.147   7.801  49.064  1.00  0.00     0.000 C 
BRANCH   3   4
ATOM      4  C   UNL     1      30.477   6.728  48.183  1.00  0.00     0.000 C 
BRANCH   4   5
ATOM      5  C   UNL     1      31.426   5.954  47.249  1.00  0.00     0.001 C 
BRANCH   5   6
ATOM      6  C   UNL     1      32.766   5.599  47.917  1.00  0.00     0.009 C 
BRANCH   6   7
ATOM      7  C   UNL     1      33.983   6.009  47.061  1.00  0.00     0.032 C 
ATOM      8  C   UNL     1      33.581   6.451  45.647  1.00  0.00     0.014 C 
BRANCH   7   9
ATOM      9  C   UNL     1      34.948   4.858  46.969  1.00  0.00     0.044 C 
ATOM     10  O   UNL     1      35.567   4.468  47.994  1.00  0.00    -0.550 OA
ATOM     11  O   UNL     1      35.163   4.218  45.754  1.00  0.00    -0.550 OA
ENDBRANCH   7   9
ENDBRANCH   6   7
ENDBRANCH   5   6
ENDBRANCH   4   5
ENDBRANCH   3   4
ENDBRANCH   2   3
ENDBRANCH   1   2
BRANCH   1  12
ATOM     12  C   UNL     1      33.617   9.087  48.962  1.00  0.00     0.000 C 
BRANCH  12  13
ATOM     13  C   UNL     1      34.921   9.904  48.997  1.00  0.00    -0.000 C 
BRANCH  13  14
ATOM     14  C   UNL     1      34.825  11.196  48.168  1.00  0.00    -0.000 C 
BRANCH  14  15
ATOM     15  C   UNL     1      35.991  11.348  47.176  1.00  0.00    -0.000 C 
BRANCH  15  16
ATOM     16  C   UNL     1      35.559  11.160  45.710  1.00  0.00    -0.000 C 
BRANCH  16  17
ATOM     17  C   UNL     1      34.776   9.866  45.421  1.00  0.00    -0.000 C 
BRANCH  17  18
ATOM     18  C   UNL     1      34.847   9.439  43.948  1.00  0.00    -0.003 C 
ATOM     19  C   UNL     1      33.677  10.013  43.152  1.00  0.00     0.004 C 
ENDBRANCH  17  18
ENDBRANCH  16  17
ENDBRANCH  15  16
ENDBRANCH  14  15
ENDBRANCH  13  14
ENDBRANCH  12  13
ENDBRANCH   1  12
TORSDOF 14
ENDMDL
MODEL 2
REMARK VINA RESULT:    -4.175     17.360     19.377
REMARK INTER + INTRA:          -9.517
REMARK INTER:                  -6.788
REMARK INTRA:                  -2.729
REMARK UNBOUND:                -1.926
REMARK SMILES CCCCCCCCCCCCCC[C@H](C)C(=O)[O-]
REMARK SMILES IDX 9 1 10 2 11 3 12 4 13 5 14 6 15 7 16 8 17 9 18 10 19 11 8 12
REMARK SMILES IDX 7 13 6 14 5 15 4 16 3 17 2 18 1 19
REMARK H PARENT
REMARK Flexibility Score: inf
ROOT
ATOM      1  C   UNL     1      21.605  12.628  35.453  1.00  0.00     0.000 C 
ENDROOT
BRANCH   1   2
ATOM      2  C   UNL     1      21.994  11.837  34.192  1.00  0.00     0.000 C 
BRANCH   2   3
ATOM      3  C   UNL     1      21.504  10.378  34.230  1.00  0.00     0.000 C 
BRANCH   3   4
ATOM      4  C   UNL     1      21.435   9.741  35.633  1.00  0.00     0.000 C 
BRANCH   4   5
ATOM      5  C   UNL     1      20.044   9.238  36.062  1.00  0.00     0.001 C 
BRANCH   5   6
ATOM      6  C   UNL     1      19.228   8.664  34.891  1.00  0.00     0.009 C 
BRANCH   6   7
ATOM      7  C   UNL     1      18.799   7.200  35.125  1.00  0.00     0.032 C 
ATOM      8  C   UNL     1      19.398   6.615  36.412  1.00  0.00     0.014 C 
BRANCH   7   9
ATOM      9  C   UNL     1      19.216   6.356  33.952  1.00  0.00     0.044 C 
ATOM     10  O   UNL     1      18.410   5.530  33.449  1.00  0.00    -0.550 OA
ATOM     11  O   UNL     1      20.492   6.480  33.416  1.00  0.00    -0.550 OA
ENDBRANCH   7   9
ENDBRANCH   6   7
ENDBRANCH   5   6
ENDBRANCH   4   5
ENDBRANCH   3   4
ENDBRANCH   2   3
ENDBRANCH   1   2
BRANCH   1  12
ATOM     12  C   UNL     1      20.286  13.401  35.281  1.00  0.00     0.000 C 
BRANCH  12  13
ATOM     13  C   UNL     1      19.116  12.753  36.042  1.00  0.00    -0.000 C 
BRANCH  13  14
ATOM     14  C   UNL     1      18.008  12.253  35.100  1.00  0.00    -0.000 C 
BRANCH  14  15
ATOM     15  C   UNL     1      18.178  12.772  33.662  1.00  0.00    -0.000 C 
BRANCH  15  16
ATOM     16  C   UNL     1      18.381  11.641  32.636  1.00  0.00    -0.000 C 
BRANCH  16  17
ATOM     17  C   UNL     1      19.432  11.927  31.549  1.00  0.00    -0.000 C 
BRANCH  17  18
ATOM     18  C   UNL     1      19.504  13.412  31.161  1.00  0.00    -0.003 C 
ATOM     19  C   UNL     1      20.884  13.992  31.461  1.00  0.00     0.004 C 
ENDBRANCH  17  18
ENDBRANCH  16  17
ENDBRANCH  15  16
ENDBRANCH  14  15
ENDBRANCH  13  14
ENDBRANCH  12  13
ENDBRANCH   1  12
TORSDOF 14
ENDMDL
MODEL 3
REMARK VINA RESULT:    -4.173      1.156      2.030
REMARK INTER + INTRA:          -9.514
REMARK INTER:                  -7.771
REMARK INTRA:                  -1.742
REMARK UNBOUND:                -1.926
REMARK SMILES CCCCCCCCCCCCCC[C@H](C)C(=O)[O-]
REMARK SMILES IDX 9 1 10 2 11 3 12 4 13 5 14 6 15 7 16 8 17 9 18 10 19 11 8 12
REMARK SMILES IDX 7 13 6 14 5 15 4 16 3 17 2 18 1 19
REMARK H PARENT
REMARK Flexibility Score: inf
ROOT
ATOM      1  C   UNL     1      31.034   9.126  48.424  1.00  0.00     0.000 C 
ENDROOT
BRANCH   1   2
ATOM      2  C   UNL     1      30.191   8.047  49.125  1.00  0.00     0.000 C 
BRANCH   2   3
ATOM      3  C   UNL     1      29.771   6.910  48.175  1.00  0.00     0.000 C 
BRANCH   3   4
ATOM      4  C   UNL     1      30.401   5.535  48.473  1.00  0.00     0.000 C 
BRANCH   4   5
ATOM      5  C   UNL     1      31.680   5.208  47.679  1.00  0.00     0.001 C 
BRANCH   5   6
ATOM      6  C   UNL     1      32.938   5.860  48.278  1.00  0.00     0.009 C 
BRANCH   6   7
ATOM      7  C   UNL     1      34.029   6.130  47.219  1.00  0.00     0.032 C 
ATOM      8  C   UNL     1      33.439   6.408  45.830  1.00  0.00     0.014 C 
BRANCH   7   9
ATOM      9  C   UNL     1      34.960   4.951  47.139  1.00  0.00     0.044 C 
ATOM     10  O   UNL     1      35.531   4.524  48.177  1.00  0.00    -0.550 OA
ATOM     11  O   UNL     1      35.198   4.326  45.921  1.00  0.00    -0.550 OA
ENDBRANCH   7   9
ENDBRANCH   6   7
ENDBRANCH   5   6
ENDBRANCH   4   5
ENDBRANCH   3   4
ENDBRANCH   2   3
ENDBRANCH   1   2
BRANCH   1  12
ATOM     12  C   UNL     1      32.383   9.369  49.124  1.00  0.00     0.000 C 
BRANCH  12  13
ATOM     13  C   UNL     1      33.264  10.384  48.375  1.00  0.00    -0.000 C 
BRANCH  13  14
ATOM     14  C   UNL     1      34.368   9.705  47.547  1.00  0.00    -0.000 C 
BRANCH  14  15
ATOM     15  C   UNL     1      34.262  10.028  46.047  1.00  0.00    -0.000 C 
BRANCH  15  16
ATOM     16  C   UNL     1      35.506  10.756  45.501  1.00  0.00    -0.000 C 
BRANCH  16  17
ATOM     17  C   UNL     1      36.388  11.429  46.568  1.00  0.00    -0.000 C 
BRANCH  17  18
ATOM     18  C   UNL     1      36.890  12.817  46.141  1.00  0.00    -0.003 C 
ATOM     19  C   UNL     1      35.725  13.778  45.918  1.00  0.00     0.004 C 
ENDBRANCH  17  18
ENDBRANCH  16  17
ENDBRANCH  15  16
ENDBRANCH  14  15
ENDBRANCH  13  14
ENDBRANCH  12  13
ENDBRANCH   1  12
TORSDOF 14
ENDMDL
MODEL 4
REMARK VINA RESULT:    -4.014      1.668      2.752
REMARK INTER + INTRA:          -9.226
REMARK INTER:                  -7.895
REMARK INTRA:                  -1.331
REMARK UNBOUND:                -1.926
REMARK SMILES CCCCCCCCCCCCCC[C@H](C)C(=O)[O-]
REMARK SMILES IDX 9 1 10 2 11 3 12 4 13 5 14 6 15 7 16 8 17 9 18 10 19 11 8 12
REMARK SMILES IDX 7 13 6 14 5 15 4 16 3 17 2 18 1 19
REMARK H PARENT
REMARK Flexibility Score: inf
ROOT
ATOM      1  C   UNL     1      33.217   9.296  48.501  1.00  0.00     0.000 C 
ENDROOT
BRANCH   1   2
ATOM      2  C   UNL     1      31.733   9.691  48.395  1.00  0.00     0.000 C 
BRANCH   2   3
ATOM      3  C   UNL     1      30.782   8.532  48.748  1.00  0.00     0.000 C 
BRANCH   3   4
ATOM      4  C   UNL     1      31.458   7.159  48.937  1.00  0.00     0.000 C 
BRANCH   4   5
ATOM      5  C   UNL     1      31.371   6.208  47.728  1.00  0.00     0.001 C 
BRANCH   5   6
ATOM      6  C   UNL     1      32.548   5.219  47.659  1.00  0.00     0.009 C 
BRANCH   6   7
ATOM      7  C   UNL     1      33.838   5.869  47.114  1.00  0.00     0.032 C 
ATOM      8  C   UNL     1      33.633   6.504  45.731  1.00  0.00     0.014 C 
BRANCH   7   9
ATOM      9  C   UNL     1      34.930   4.836  47.031  1.00  0.00     0.044 C 
ATOM     10  O   UNL     1      35.083   4.160  45.980  1.00  0.00    -0.550 OA
ATOM     11  O   UNL     1      35.774   4.621  48.114  1.00  0.00    -0.550 OA
ENDBRANCH   7   9
ENDBRANCH   6   7
ENDBRANCH   5   6
ENDBRANCH   4   5
ENDBRANCH   3   4
ENDBRANCH   2   3
ENDBRANCH   1   2
BRANCH   1  12
ATOM     12  C   UNL     1      34.148  10.307  47.811  1.00  0.00     0.000 C 
BRANCH  12  13
ATOM     13  C   UNL     1      34.380   9.980  46.325  1.00  0.00    -0.000 C 
BRANCH  13  14
ATOM     14  C   UNL     1      35.439  10.891  45.681  1.00  0.00    -0.000 C 
BRANCH  14  15
ATOM     15  C   UNL     1      36.467  11.411  46.701  1.00  0.00    -0.000 C 
BRANCH  15  16
ATOM     16  C   UNL     1      36.372  12.932  46.925  1.00  0.00    -0.000 C 
BRANCH  16  17
ATOM     17  C   UNL     1      35.650  13.712  45.811  1.00  0.00    -0.000 C 
BRANCH  17  18
ATOM     18  C   UNL     1      35.935  15.220  45.854  1.00  0.00    -0.003 C 
ATOM     19  C   UNL     1      35.245  15.876  47.048  1.00  0.00     0.004 C 
ENDBRANCH  17  18
ENDBRANCH  16  17
ENDBRANCH  15  16
ENDBRANCH  14  15
ENDBRANCH  13  14
ENDBRANCH  12  13
ENDBRANCH   1  12
TORSDOF 14
ENDMDL
MODEL 5
REMARK VINA RESULT:    -4.008     17.300     19.399
REMARK INTER + INTRA:          -9.213
REMARK INTER:                  -6.668
REMARK INTRA:                  -2.545
REMARK UNBOUND:                -1.926
REMARK SMILES CCCCCCCCCCCCCC[C@H](C)C(=O)[O-]
REMARK SMILES IDX 9 1 10 2 11 3 12 4 13 5 14 6 15 7 16 8 17 9 18 10 19 11 8 12
REMARK SMILES IDX 7 13 6 14 5 15 4 16 3 17 2 18 1 19
REMARK H PARENT
REMARK Flexibility Score: inf
ROOT
ATOM      1  C   UNL     1      20.632  13.321  35.190  1.00  0.00     0.000 C 
ENDROOT
BRANCH   1   2
ATOM      2  C   UNL     1      21.754  12.385  35.673  1.00  0.00     0.000 C 
BRANCH   2   3
ATOM      3  C   UNL     1      21.911  11.137  34.785  1.00  0.00     0.000 C 
BRANCH   3   4
ATOM      4  C   UNL     1      21.591   9.794  35.473  1.00  0.00     0.000 C 
BRANCH   4   5
ATOM      5  C   UNL     1      20.127   9.612  35.917  1.00  0.00     0.001 C 
BRANCH   5   6
ATOM      6  C   UNL     1      19.368   8.578  35.067  1.00  0.00     0.009 C 
BRANCH   6   7
ATOM      7  C   UNL     1      20.200   8.066  33.872  1.00  0.00     0.032 C 
ATOM      8  C   UNL     1      19.836   8.775  32.560  1.00  0.00     0.014 C 
BRANCH   7   9
ATOM      9  C   UNL     1      19.996   6.584  33.711  1.00  0.00     0.044 C 
ATOM     10  O   UNL     1      18.999   6.022  34.235  1.00  0.00    -0.550 OA
ATOM     11  O   UNL     1      20.907   5.825  32.985  1.00  0.00    -0.550 OA
ENDBRANCH   7   9
ENDBRANCH   6   7
ENDBRANCH   5   6
ENDBRANCH   4   5
ENDBRANCH   3   4
ENDBRANCH   2   3
ENDBRANCH   1   2
BRANCH   1  12
ATOM     12  C   UNL     1      19.285  13.030  35.872  1.00  0.00     0.000 C 
BRANCH  12  13
ATOM     13  C   UNL     1      18.104  13.056  34.886  1.00  0.00    -0.000 C 
BRANCH  13  14
ATOM     14  C   UNL     1      18.209  11.960  33.813  1.00  0.00    -0.000 C 
BRANCH  14  15
ATOM     15  C   UNL     1      17.923  12.490  32.398  1.00  0.00    -0.000 C 
BRANCH  15  16
ATOM     16  C   UNL     1      19.157  13.135  31.739  1.00  0.00    -0.000 C 
BRANCH  16  17
ATOM     17  C   UNL     1      20.391  12.220  31.631  1.00  0.00    -0.000 C 
BRANCH  17  18
ATOM     18  C   UNL     1      21.713  13.002  31.581  1.00  0.00    -0.003 C 
ATOM     19  C   UNL     1      21.468  14.504  31.705  1.00  0.00     0.004 C 
ENDBRANCH  17  18
ENDBRANCH  16  17
ENDBRANCH  15  16
ENDBRANCH  14  15
ENDBRANCH  13  14
ENDBRANCH  12  13
ENDBRANCH   1  12
TORSDOF 14
ENDMDL
MODEL 6
REMARK VINA RESULT:    -4.006     17.385     20.329
REMARK INTER + INTRA:          -9.210
REMARK INTER:                  -8.009
REMARK INTRA:                  -1.201
REMARK UNBOUND:                -1.926
REMARK SMILES CCCCCCCCCCCCCC[C@H](C)C(=O)[O-]
REMARK SMILES IDX 9 1 10 2 11 3 12 4 13 5 14 6 15 7 16 8 17 9 18 10 19 11 8 12
REMARK SMILES IDX 7 13 6 14 5 15 4 16 3 17 2 18 1 19
REMARK H PARENT
REMARK Flexibility Score: inf
ROOT
ATOM      1  C   UNL     1      20.425  13.465  34.509  1.00  0.00     0.000 C 
ENDROOT
BRANCH   1   2
ATOM      2  C   UNL     1      20.081  12.625  33.266  1.00  0.00     0.000 C 
BRANCH   2   3
ATOM      3  C   UNL     1      20.326  13.384  31.948  1.00  0.00     0.000 C 
BRANCH   3   4
ATOM      4  C   UNL     1      21.606  14.244  31.911  1.00  0.00     0.000 C 
BRANCH   4   5
ATOM      5  C   UNL     1      22.247  14.414  30.520  1.00  0.00     0.001 C 
BRANCH   5   6
ATOM      6  C   UNL     1      21.927  15.775  29.877  1.00  0.00     0.009 C 
BRANCH   6   7
ATOM      7  C   UNL     1      23.173  16.675  29.741  1.00  0.00     0.032 C 
ATOM      8  C   UNL     1      24.480  15.870  29.749  1.00  0.00     0.014 C 
BRANCH   7   9
ATOM      9  C   UNL     1      23.198  17.678  30.863  1.00  0.00     0.044 C 
ATOM     10  O   UNL     1      22.131  17.994  31.453  1.00  0.00    -0.550 OA
ATOM     11  O   UNL     1      24.396  18.263  31.254  1.00  0.00    -0.550 OA
ENDBRANCH   7   9
ENDBRANCH   6   7
ENDBRANCH   5   6
ENDBRANCH   4   5
ENDBRANCH   3   4
ENDBRANCH   2   3
ENDBRANCH   1   2
BRANCH   1  12
ATOM     12  C   UNL     1      21.049  12.624  35.635  1.00  0.00     0.000 C 
BRANCH  12  13
ATOM     13  C   UNL     1      22.242  11.780  35.152  1.00  0.00    -0.000 C 
BRANCH  13  14
ATOM     14  C   UNL     1      22.192  10.337  35.681  1.00  0.00    -0.000 C 
BRANCH  14  15
ATOM     15  C   UNL     1      20.766   9.760  35.687  1.00  0.00    -0.000 C 
BRANCH  15  16
ATOM     16  C   UNL     1      20.435   8.966  34.409  1.00  0.00    -0.000 C 
BRANCH  16  17
ATOM     17  C   UNL     1      19.633   7.671  34.635  1.00  0.00    -0.000 C 
BRANCH  17  18
ATOM     18  C   UNL     1      20.274   6.744  35.678  1.00  0.00    -0.003 C 
ATOM     19  C   UNL     1      19.393   6.619  36.919  1.00  0.00     0.004 C 
ENDBRANCH  17  18
ENDBRANCH  16  17
ENDBRANCH  15  16
ENDBRANCH  14  15
ENDBRANCH  13  14
ENDBRANCH  12  13
ENDBRANCH   1  12
TORSDOF 14
ENDMDL
MODEL 7
REMARK VINA RESULT:    -3.983     17.479     19.827
REMARK INTER + INTRA:          -9.169
REMARK INTER:                  -7.317
REMARK INTRA:                  -1.852
REMARK UNBOUND:                -1.926
REMARK SMILES CCCCCCCCCCCCCC[C@H](C)C(=O)[O-]
REMARK SMILES IDX 9 1 10 2 11 3 12 4 13 5 14 6 15 7 16 8 17 9 18 10 19 11 8 12
REMARK SMILES IDX 7 13 6 14 5 15 4 16 3 17 2 18 1 19
REMARK H PARENT
REMARK Flexibility Score: inf
ROOT
ATOM      1  C   UNL     1      21.443  10.108  35.600  1.00  0.00     0.000 C 
ENDROOT
BRANCH   1   2
ATOM      2  C   UNL     1      22.108  11.493  35.521  1.00  0.00     0.000 C 
BRANCH   2   3
ATOM      3  C   UNL     1      21.094  12.647  35.626  1.00  0.00     0.000 C 
BRANCH   3   4
ATOM      4  C   UNL     1      20.910  13.482  34.343  1.00  0.00     0.000 C 
BRANCH   4   5
ATOM      5  C   UNL     1      19.802  12.993  33.390  1.00  0.00     0.001 C 
BRANCH   5   6
ATOM      6  C   UNL     1      20.083  13.341  31.918  1.00  0.00     0.009 C 
BRANCH   6   7
ATOM      7  C   UNL     1      21.592  13.421  31.603  1.00  0.00     0.032 C 
ATOM      8  C   UNL     1      22.000  14.790  31.040  1.00  0.00     0.014 C 
BRANCH   7   9
ATOM      9  C   UNL     1      21.963  12.345  30.619  1.00  0.00     0.044 C 
ATOM     10  O   UNL     1      22.757  12.598  29.675  1.00  0.00    -0.550 OA
ATOM     11  O   UNL     1      21.432  11.067  30.744  1.00  0.00    -0.550 OA
ENDBRANCH   7   9
ENDBRANCH   6   7
ENDBRANCH   5   6
ENDBRANCH   4   5
ENDBRANCH   3   4
ENDBRANCH   2   3
ENDBRANCH   1   2
BRANCH   1  12
ATOM     12  C   UNL     1      19.910  10.192  35.691  1.00  0.00     0.000 C 
BRANCH  12  13
ATOM     13  C   UNL     1      19.209   9.582  34.465  1.00  0.00    -0.000 C 
BRANCH  13  14
ATOM     14  C   UNL     1      20.207   9.064  33.415  1.00  0.00    -0.000 C 
BRANCH  14  15
ATOM     15  C   UNL     1      19.868   7.643  32.931  1.00  0.00    -0.000 C 
BRANCH  15  16
ATOM     16  C   UNL     1      19.414   6.713  34.072  1.00  0.00    -0.000 C 
BRANCH  16  17
ATOM     17  C   UNL     1      20.399   6.594  35.248  1.00  0.00    -0.000 C 
BRANCH  17  18
ATOM     18  C   UNL     1      19.696   6.457  36.607  1.00  0.00    -0.003 C 
ATOM     19  C   UNL     1      18.184   6.340  36.434  1.00  0.00     0.004 C 
ENDBRANCH  17  18
ENDBRANCH  16  17
ENDBRANCH  15  16
ENDBRANCH  14  15
ENDBRANCH  13  14
ENDBRANCH  12  13
ENDBRANCH   1  12
TORSDOF 14
ENDMDL
MODEL 8
REMARK VINA RESULT:    -3.939     17.480     19.861
REMARK INTER + INTRA:          -9.088
REMARK INTER:                  -6.805
REMARK INTRA:                  -2.283
REMARK UNBOUND:                -1.926
REMARK SMILES CCCCCCCCCCCCCC[C@H](C)C(=O)[O-]
REMARK SMILES IDX 9 1 10 2 11 3 12 4 13 5 14 6 15 7 16 8 17 9 18 10 19 11 8 12
REMARK SMILES IDX 7 13 6 14 5 15 4 16 3 17 2 18 1 19
REMARK H PARENT
REMARK Flexibility Score: inf
ROOT
ATOM      1  C   UNL     1      21.882  10.047  35.624  1.00  0.00     0.000 C 
ENDROOT
BRANCH   1   2
ATOM      2  C   UNL     1      21.602  11.271  34.733  1.00  0.00     0.000 C 
BRANCH   2   3
ATOM      3  C   UNL     1      21.626  12.595  35.518  1.00  0.00     0.000 C 
BRANCH   3   4
ATOM      4  C   UNL     1      20.290  13.365  35.555  1.00  0.00     0.000 C 
BRANCH   4   5
ATOM      5  C   UNL     1      19.024  12.492  35.467  1.00  0.00     0.001 C 
BRANCH   5   6
ATOM      6  C   UNL     1      18.050  12.961  34.371  1.00  0.00     0.009 C 
BRANCH   6   7
ATOM      7  C   UNL     1      17.931  11.950  33.210  1.00  0.00     0.032 C 
ATOM      8  C   UNL     1      17.876  10.497  33.704  1.00  0.00     0.014 C 
BRANCH   7   9
ATOM      9  C   UNL     1      19.095  12.115  32.272  1.00  0.00     0.044 C 
ATOM     10  O   UNL     1      19.575  11.114  31.677  1.00  0.00    -0.550 OA
ATOM     11  O   UNL     1      19.651  13.370  32.058  1.00  0.00    -0.550 OA
ENDBRANCH   7   9
ENDBRANCH   6   7
ENDBRANCH   5   6
ENDBRANCH   4   5
ENDBRANCH   3   4
ENDBRANCH   2   3
ENDBRANCH   1   2
BRANCH   1  12
ATOM     12  C   UNL     1      20.837   8.933  35.442  1.00  0.00     0.000 C 
BRANCH  12  13
ATOM     13  C   UNL     1      19.667   9.052  36.435  1.00  0.00    -0.000 C 
BRANCH  13  14
ATOM     14  C   UNL     1      19.373   7.727  37.159  1.00  0.00    -0.000 C 
BRANCH  14  15
ATOM     15  C   UNL     1      19.419   6.515  36.212  1.00  0.00    -0.000 C 
BRANCH  15  16
ATOM     16  C   UNL     1      18.078   6.264  35.495  1.00  0.00    -0.000 C 
BRANCH  16  17
ATOM     17  C   UNL     1      18.106   6.464  33.969  1.00  0.00    -0.000 C 
BRANCH  17  18
ATOM     18  C   UNL     1      19.509   6.290  33.368  1.00  0.00    -0.003 C 
ATOM     19  C   UNL     1      19.775   7.331  32.284  1.00  0.00     0.004 C 
ENDBRANCH  17  18
ENDBRANCH  16  17
ENDBRANCH  15  16
ENDBRANCH  14  15
ENDBRANCH  13  14
ENDBRANCH  12  13
ENDBRANCH   1  12
TORSDOF 14
ENDMDL
