MODEL 1
REMARK VINA RESULT:    -3.131      0.000      0.000
REMARK INTER + INTRA:          -8.040
REMARK INTER:                  -5.694
REMARK INTRA:                  -2.346
REMARK UNBOUND:                -2.346
REMARK SMILES CCCCCCCCCCCCCCCC(=O)[O-]
REMARK SMILES IDX 9 1 10 2 11 3 12 4 13 5 14 6 15 7 16 8 17 9 18 10 8 11 7 12
REMARK SMILES IDX 6 13 5 14 4 15 3 16 2 17 1 18
REMARK H PARENT
REMARK Flexibility Score: inf
ROOT
ATOM      1  C   UNL     1       8.532   7.994  31.111  1.00  0.00     0.000 C 
ENDROOT
BRANCH   1   2
ATOM      2  C   UNL     1       8.072   6.617  30.598  1.00  0.00     0.000 C 
BRANCH   2   3
ATOM      3  C   UNL     1       8.297   5.450  31.577  1.00  0.00     0.000 C 
BRANCH   3   4
ATOM      4  C   UNL     1       9.092   4.262  31.003  1.00  0.00     0.000 C 
BRANCH   4   5
ATOM      5  C   UNL     1       9.833   4.588  29.688  1.00  0.00     0.000 C 
BRANCH   5   6
ATOM      6  C   UNL     1      11.362   4.578  29.857  1.00  0.00     0.006 C 
BRANCH   6   7
ATOM      7  C   UNL     1      12.017   5.844  29.290  1.00  0.00     0.053 C 
BRANCH   7   8
ATOM      8  C   UNL     1      12.975   5.525  28.184  1.00  0.00     0.041 C 
ATOM      9  O   UNL     1      14.109   6.072  28.152  1.00  0.00    -0.550 OA
ATOM     10  O   UNL     1      12.627   4.603  27.205  1.00  0.00    -0.550 OA
ENDBRANCH   7   8
ENDBRANCH   6   7
ENDBRANCH   5   6
ENDBRANCH   4   5
ENDBRANCH   3   4
ENDBRANCH   2   3
ENDBRANCH   1   2
BRANCH   1  11
ATOM     11  C   UNL     1      10.005   8.008  31.546  1.00  0.00     0.000 C 
BRANCH  11  12
ATOM     12  C   UNL     1      10.131   8.310  33.045  1.00  0.00    -0.000 C 
BRANCH  12  13
ATOM     13  C   UNL     1      11.395   7.661  33.631  1.00  0.00    -0.000 C 
BRANCH  13  14
ATOM     14  C   UNL     1      11.793   6.368  32.901  1.00  0.00    -0.000 C 
BRANCH  14  15
ATOM     15  C   UNL     1      12.691   5.457  33.756  1.00  0.00    -0.000 C 
BRANCH  15  16
ATOM     16  C   UNL     1      11.902   4.694  34.832  1.00  0.00    -0.000 C 
BRANCH  16  17
ATOM     17  C   UNL     1      10.587   4.107  34.299  1.00  0.00    -0.003 C 
ATOM     18  C   UNL     1       9.396   4.595  35.118  1.00  0.00     0.004 C 
ENDBRANCH  16  17
ENDBRANCH  15  16
ENDBRANCH  14  15
ENDBRANCH  13  14
ENDBRANCH  12  13
ENDBRANCH  11  12
ENDBRANCH   1  11
TORSDOF 14
ENDMDL
MODEL 2
REMARK VINA RESULT:    -3.124      2.448      4.873
REMARK INTER + INTRA:          -8.028
REMARK INTER:                  -5.458
REMARK INTRA:                  -2.569
REMARK UNBOUND:                -2.346
REMARK SMILES CCCCCCCCCCCCCCCC(=O)[O-]
REMARK SMILES IDX 9 1 10 2 11 3 12 4 13 5 14 6 15 7 16 8 17 9 18 10 8 11 7 12
REMARK SMILES IDX 6 13 5 14 4 15 3 16 2 17 1 18
REMARK H PARENT
REMARK Flexibility Score: inf
ROOT
ATOM      1  C   UNL     1      11.945   6.326  33.215  1.00  0.00     0.000 C 
ENDROOT
BRANCH   1   2
ATOM      2  C   UNL     1      11.365   5.038  33.829  1.00  0.00     0.000 C 
BRANCH   2   3
ATOM      3  C   UNL     1      10.117   5.241  34.708  1.00  0.00     0.000 C 
BRANCH   3   4
ATOM      4  C   UNL     1       8.981   4.228  34.471  1.00  0.00     0.000 C 
BRANCH   4   5
ATOM      5  C   UNL     1       9.336   3.126  33.449  1.00  0.00     0.000 C 
BRANCH   5   6
ATOM      6  C   UNL     1       8.092   2.382  32.931  1.00  0.00     0.006 C 
BRANCH   6   7
ATOM      7  C   UNL     1       8.446   1.027  32.306  1.00  0.00     0.053 C 
BRANCH   7   8
ATOM      8  C   UNL     1       9.151   1.188  30.995  1.00  0.00     0.041 C 
ATOM      9  O   UNL     1       8.511   1.550  29.972  1.00  0.00    -0.550 OA
ATOM     10  O   UNL     1      10.520   0.969  30.908  1.00  0.00    -0.550 OA
ENDBRANCH   7   8
ENDBRANCH   6   7
ENDBRANCH   5   6
ENDBRANCH   4   5
ENDBRANCH   3   4
ENDBRANCH   2   3
ENDBRANCH   1   2
BRANCH   1  11
ATOM     11  C   UNL     1      11.019   7.540  33.387  1.00  0.00     0.000 C 
BRANCH  11  12
ATOM     12  C   UNL     1      10.546   8.065  32.026  1.00  0.00    -0.000 C 
BRANCH  12  13
ATOM     13  C   UNL     1       9.020   8.254  32.012  1.00  0.00    -0.000 C 
BRANCH  13  14
ATOM     14  C   UNL     1       8.332   7.452  30.895  1.00  0.00    -0.000 C 
BRANCH  14  15
ATOM     15  C   UNL     1       8.201   5.957  31.235  1.00  0.00    -0.000 C 
BRANCH  15  16
ATOM     16  C   UNL     1       8.757   5.050  30.126  1.00  0.00    -0.000 C 
BRANCH  16  17
ATOM     17  C   UNL     1      10.239   4.702  30.331  1.00  0.00    -0.003 C 
ATOM     18  C   UNL     1      11.094   5.254  29.194  1.00  0.00     0.004 C 
ENDBRANCH  16  17
ENDBRANCH  15  16
ENDBRANCH  14  15
ENDBRANCH  13  14
ENDBRANCH  12  13
ENDBRANCH  11  12
ENDBRANCH   1  11
TORSDOF 14
ENDMDL
MODEL 3
REMARK VINA RESULT:    -3.048      3.488      5.579
REMARK INTER + INTRA:          -7.890
REMARK INTER:                  -5.967
REMARK INTRA:                  -1.923
REMARK UNBOUND:                -2.346
REMARK SMILES CCCCCCCCCCCCCCCC(=O)[O-]
REMARK SMILES IDX 9 1 10 2 11 3 12 4 13 5 14 6 15 7 16 8 17 9 18 10 8 11 7 12
REMARK SMILES IDX 6 13 5 14 4 15 3 16 2 17 1 18
REMARK H PARENT
REMARK Flexibility Score: inf
ROOT
ATOM      1  C   UNL     1      10.500   7.758  31.081  1.00  0.00     0.000 C 
ENDROOT
BRANCH   1   2
ATOM      2  C   UNL     1      10.519   8.290  32.526  1.00  0.00     0.000 C 
BRANCH   2   3
ATOM      3  C   UNL     1      10.888   7.248  33.598  1.00  0.00     0.000 C 
BRANCH   3   4
ATOM      4  C   UNL     1      11.959   6.226  33.172  1.00  0.00     0.000 C 
BRANCH   4   5
ATOM      5  C   UNL     1      12.450   5.323  34.324  1.00  0.00     0.000 C 
BRANCH   5   6
ATOM      6  C   UNL     1      11.452   4.200  34.656  1.00  0.00     0.006 C 
BRANCH   6   7
ATOM      7  C   UNL     1      10.889   4.327  36.078  1.00  0.00     0.053 C 
BRANCH   7   8
ATOM      8  C   UNL     1       9.441   4.708  36.069  1.00  0.00     0.041 C 
ATOM      9  O   UNL     1       8.612   4.030  35.407  1.00  0.00    -0.550 OA
ATOM     10  O   UNL     1       9.002   5.793  36.818  1.00  0.00    -0.550 OA
ENDBRANCH   7   8
ENDBRANCH   6   7
ENDBRANCH   5   6
ENDBRANCH   4   5
ENDBRANCH   3   4
ENDBRANCH   2   3
ENDBRANCH   1   2
BRANCH   1  11
ATOM     11  C   UNL     1       9.143   7.958  30.389  1.00  0.00     0.000 C 
BRANCH  11  12
ATOM     12  C   UNL     1       8.052   7.123  31.071  1.00  0.00    -0.000 C 
BRANCH  12  13
ATOM     13  C   UNL     1       8.220   5.630  30.746  1.00  0.00    -0.000 C 
BRANCH  13  14
ATOM     14  C   UNL     1       8.584   4.790  31.981  1.00  0.00    -0.000 C 
BRANCH  14  15
ATOM     15  C   UNL     1       9.504   3.605  31.640  1.00  0.00    -0.000 C 
BRANCH  15  16
ATOM     16  C   UNL     1       9.106   2.318  32.380  1.00  0.00    -0.000 C 
BRANCH  16  17
ATOM     17  C   UNL     1       8.403   1.302  31.468  1.00  0.00    -0.003 C 
ATOM     18  C   UNL     1       8.743   1.553  30.002  1.00  0.00     0.004 C 
ENDBRANCH  16  17
ENDBRANCH  15  16
ENDBRANCH  14  15
ENDBRANCH  13  14
ENDBRANCH  12  13
ENDBRANCH  11  12
ENDBRANCH   1  11
TORSDOF 14
ENDMDL
MODEL 4
REMARK VINA RESULT:    -3.037      9.565     11.417
REMARK INTER + INTRA:          -7.869
REMARK INTER:                  -5.799
REMARK INTRA:                  -2.070
REMARK UNBOUND:                -2.346
REMARK SMILES CCCCCCCCCCCCCCCC(=O)[O-]
REMARK SMILES IDX 9 1 10 2 11 3 12 4 13 5 14 6 15 7 16 8 17 9 18 10 8 11 7 12
REMARK SMILES IDX 6 13 5 14 4 15 3 16 2 17 1 18
REMARK H PARENT
REMARK Flexibility Score: inf
ROOT
ATOM      1  C   UNL     1      21.326  10.125  36.868  1.00  0.00     0.000 C 
ENDROOT
BRANCH   1   2
ATOM      2  C   UNL     1      20.987   9.292  35.618  1.00  0.00     0.000 C 
BRANCH   2   3
ATOM      3  C   UNL     1      19.597   8.630  35.634  1.00  0.00     0.000 C 
BRANCH   3   4
ATOM      4  C   UNL     1      19.605   7.103  35.840  1.00  0.00     0.000 C 
BRANCH   4   5
ATOM      5  C   UNL     1      21.005   6.466  35.705  1.00  0.00     0.000 C 
BRANCH   5   6
ATOM      6  C   UNL     1      20.991   5.198  34.833  1.00  0.00     0.006 C 
BRANCH   6   7
ATOM      7  C   UNL     1      20.485   5.477  33.412  1.00  0.00     0.053 C 
BRANCH   7   8
ATOM      8  C   UNL     1      21.606   5.831  32.483  1.00  0.00     0.041 C 
ATOM      9  O   UNL     1      22.798   5.591  32.811  1.00  0.00    -0.550 OA
ATOM     10  O   UNL     1      21.332   6.395  31.244  1.00  0.00    -0.550 OA
ENDBRANCH   7   8
ENDBRANCH   6   7
ENDBRANCH   5   6
ENDBRANCH   4   5
ENDBRANCH   3   4
ENDBRANCH   2   3
ENDBRANCH   1   2
BRANCH   1  11
ATOM     11  C   UNL     1      22.553   9.594  37.625  1.00  0.00     0.000 C 
BRANCH  11  12
ATOM     12  C   UNL     1      22.181   9.189  39.057  1.00  0.00    -0.000 C 
BRANCH  12  13
ATOM     13  C   UNL     1      21.631   7.754  39.095  1.00  0.00    -0.000 C 
BRANCH  13  14
ATOM     14  C   UNL     1      20.137   7.700  39.450  1.00  0.00    -0.000 C 
BRANCH  14  15
ATOM     15  C   UNL     1      19.618   9.026  40.035  1.00  0.00    -0.000 C 
BRANCH  15  16
ATOM     16  C   UNL     1      18.636   9.741  39.093  1.00  0.00    -0.000 C 
BRANCH  16  17
ATOM     17  C   UNL     1      17.363   8.923  38.832  1.00  0.00    -0.003 C 
ATOM     18  C   UNL     1      16.144   9.832  38.705  1.00  0.00     0.004 C 
ENDBRANCH  16  17
ENDBRANCH  15  16
ENDBRANCH  14  15
ENDBRANCH  13  14
ENDBRANCH  12  13
ENDBRANCH  11  12
ENDBRANCH   1  11
TORSDOF 14
ENDMDL
MODEL 5
REMARK VINA RESULT:    -3.009      1.479      2.661
REMARK INTER + INTRA:          -7.817
REMARK INTER:                  -5.295
REMARK INTRA:                  -2.523
REMARK UNBOUND:                -2.346
REMARK SMILES CCCCCCCCCCCCCCCC(=O)[O-]
REMARK SMILES IDX 9 1 10 2 11 3 12 4 13 5 14 6 15 7 16 8 17 9 18 10 8 11 7 12
REMARK SMILES IDX 6 13 5 14 4 15 3 16 2 17 1 18
REMARK H PARENT
REMARK Flexibility Score: inf
ROOT
ATOM      1  C   UNL     1       9.890   8.248  32.497  1.00  0.00     0.000 C 
ENDROOT
BRANCH   1   2
ATOM      2  C   UNL     1       9.301   7.879  31.123  1.00  0.00     0.000 C 
BRANCH   2   3
ATOM      3  C   UNL     1       8.203   6.800  31.154  1.00  0.00     0.000 C 
BRANCH   3   4
ATOM      4  C   UNL     1       8.469   5.574  30.259  1.00  0.00     0.000 C 
BRANCH   4   5
ATOM      5  C   UNL     1       9.561   5.808  29.194  1.00  0.00     0.000 C 
BRANCH   5   6
ATOM      6  C   UNL     1      10.735   4.823  29.330  1.00  0.00     0.006 C 
BRANCH   6   7
ATOM      7  C   UNL     1      11.988   5.491  29.912  1.00  0.00     0.053 C 
BRANCH   7   8
ATOM      8  C   UNL     1      13.155   5.390  28.979  1.00  0.00     0.041 C 
ATOM      9  O   UNL     1      13.251   6.174  27.998  1.00  0.00    -0.550 OA
ATOM     10  O   UNL     1      14.152   4.451  29.210  1.00  0.00    -0.550 OA
ENDBRANCH   7   8
ENDBRANCH   6   7
ENDBRANCH   5   6
ENDBRANCH   4   5
ENDBRANCH   3   4
ENDBRANCH   2   3
ENDBRANCH   1   2
BRANCH   1  11
ATOM     11  C   UNL     1      11.021   7.305  32.935  1.00  0.00     0.000 C 
BRANCH  11  12
ATOM     12  C   UNL     1      10.567   6.405  34.092  1.00  0.00    -0.000 C 
BRANCH  12  13
ATOM     13  C   UNL     1      11.182   5.002  33.970  1.00  0.00    -0.000 C 
BRANCH  13  14
ATOM     14  C   UNL     1      10.455   4.122  32.941  1.00  0.00    -0.000 C 
BRANCH  14  15
ATOM     15  C   UNL     1       9.015   3.781  33.366  1.00  0.00    -0.000 C 
BRANCH  15  16
ATOM     16  C   UNL     1       8.469   2.536  32.649  1.00  0.00    -0.000 C 
BRANCH  16  17
ATOM     17  C   UNL     1       9.469   1.941  31.647  1.00  0.00    -0.003 C 
ATOM     18  C   UNL     1       8.846   1.811  30.261  1.00  0.00     0.004 C 
ENDBRANCH  16  17
ENDBRANCH  15  16
ENDBRANCH  14  15
ENDBRANCH  13  14
ENDBRANCH  12  13
ENDBRANCH  11  12
ENDBRANCH   1  11
TORSDOF 14
ENDMDL
MODEL 6
REMARK VINA RESULT:    -2.949      3.015      5.428
REMARK INTER + INTRA:          -7.709
REMARK INTER:                  -5.277
REMARK INTRA:                  -2.432
REMARK UNBOUND:                -2.346
REMARK SMILES CCCCCCCCCCCCCCCC(=O)[O-]
REMARK SMILES IDX 9 1 10 2 11 3 12 4 13 5 14 6 15 7 16 8 17 9 18 10 8 11 7 12
REMARK SMILES IDX 6 13 5 14 4 15 3 16 2 17 1 18
REMARK H PARENT
REMARK Flexibility Score: inf
ROOT
ATOM      1  C   UNL     1       9.251   7.375  30.182  1.00  0.00     0.000 C 
ENDROOT
BRANCH   1   2
ATOM      2  C   UNL     1      10.494   7.910  30.917  1.00  0.00     0.000 C 
BRANCH   2   3
ATOM      3  C   UNL     1      10.251   8.346  32.374  1.00  0.00     0.000 C 
BRANCH   3   4
ATOM      4  C   UNL     1      11.241   7.767  33.401  1.00  0.00     0.000 C 
BRANCH   4   5
ATOM      5  C   UNL     1      11.861   6.419  32.975  1.00  0.00     0.000 C 
BRANCH   5   6
ATOM      6  C   UNL     1      11.579   5.295  33.987  1.00  0.00     0.006 C 
BRANCH   6   7
ATOM      7  C   UNL     1      10.209   5.452  34.659  1.00  0.00     0.053 C 
BRANCH   7   8
ATOM      8  C   UNL     1       9.609   4.126  35.012  1.00  0.00     0.041 C 
ATOM      9  O   UNL     1       9.170   3.919  36.175  1.00  0.00    -0.550 OA
ATOM     10  O   UNL     1       9.505   3.130  34.050  1.00  0.00    -0.550 OA
ENDBRANCH   7   8
ENDBRANCH   6   7
ENDBRANCH   5   6
ENDBRANCH   4   5
ENDBRANCH   3   4
ENDBRANCH   2   3
ENDBRANCH   1   2
BRANCH   1  11
ATOM     11  C   UNL     1       8.180   6.828  31.138  1.00  0.00     0.000 C 
BRANCH  11  12
ATOM     12  C   UNL     1       8.412   5.339  31.425  1.00  0.00    -0.000 C 
BRANCH  12  13
ATOM     13  C   UNL     1       8.995   4.627  30.193  1.00  0.00    -0.000 C 
BRANCH  13  14
ATOM     14  C   UNL     1       9.740   3.332  30.553  1.00  0.00    -0.000 C 
BRANCH  14  15
ATOM     15  C   UNL     1      11.265   3.528  30.629  1.00  0.00    -0.000 C 
BRANCH  15  16
ATOM     16  C   UNL     1      11.860   4.040  29.308  1.00  0.00    -0.000 C 
BRANCH  16  17
ATOM     17  C   UNL     1      12.606   5.372  29.470  1.00  0.00    -0.003 C 
ATOM     18  C   UNL     1      13.249   5.805  28.156  1.00  0.00     0.004 C 
ENDBRANCH  16  17
ENDBRANCH  15  16
ENDBRANCH  14  15
ENDBRANCH  13  14
ENDBRANCH  12  13
ENDBRANCH  11  12
ENDBRANCH   1  11
TORSDOF 14
ENDMDL
MODEL 7
REMARK VINA RESULT:    -2.948      1.161      3.131
REMARK INTER + INTRA:          -7.707
REMARK INTER:                  -5.209
REMARK INTRA:                  -2.498
REMARK UNBOUND:                -2.346
REMARK SMILES CCCCCCCCCCCCCCCC(=O)[O-]
REMARK SMILES IDX 9 1 10 2 11 3 12 4 13 5 14 6 15 7 16 8 17 9 18 10 8 11 7 12
REMARK SMILES IDX 6 13 5 14 4 15 3 16 2 17 1 18
REMARK H PARENT
REMARK Flexibility Score: inf
ROOT
ATOM      1  C   UNL     1       9.691   8.147  32.380  1.00  0.00     0.000 C 
ENDROOT
BRANCH   1   2
ATOM      2  C   UNL     1      10.442   7.573  33.596  1.00  0.00     0.000 C 
BRANCH   2   3
ATOM      3  C   UNL     1      11.875   7.088  33.305  1.00  0.00     0.000 C 
BRANCH   3   4
ATOM      4  C   UNL     1      12.202   5.674  33.823  1.00  0.00     0.000 C 
BRANCH   4   5
ATOM      5  C   UNL     1      12.841   4.756  32.760  1.00  0.00     0.000 C 
BRANCH   5   6
ATOM      6  C   UNL     1      12.286   5.015  31.349  1.00  0.00     0.006 C 
BRANCH   6   7
ATOM      7  C   UNL     1      13.358   4.850  30.264  1.00  0.00     0.053 C 
BRANCH   7   8
ATOM      8  C   UNL     1      12.835   5.206  28.907  1.00  0.00     0.041 C 
ATOM      9  O   UNL     1      13.236   6.251  28.328  1.00  0.00    -0.550 OA
ATOM     10  O   UNL     1      11.929   4.369  28.268  1.00  0.00    -0.550 OA
ENDBRANCH   7   8
ENDBRANCH   6   7
ENDBRANCH   5   6
ENDBRANCH   4   5
ENDBRANCH   3   4
ENDBRANCH   2   3
ENDBRANCH   1   2
BRANCH   1  11
ATOM     11  C   UNL     1      10.435   7.920  31.056  1.00  0.00     0.000 C 
BRANCH  11  12
ATOM     12  C   UNL     1       9.473   7.444  29.961  1.00  0.00    -0.000 C 
BRANCH  12  13
ATOM     13  C   UNL     1       8.537   6.346  30.491  1.00  0.00    -0.000 C 
BRANCH  13  14
ATOM     14  C   UNL     1       8.929   4.943  29.999  1.00  0.00    -0.000 C 
BRANCH  14  15
ATOM     15  C   UNL     1       8.949   3.902  31.132  1.00  0.00    -0.000 C 
BRANCH  15  16
ATOM     16  C   UNL     1       8.834   4.545  32.524  1.00  0.00    -0.000 C 
BRANCH  16  17
ATOM     17  C   UNL     1       8.962   3.521  33.662  1.00  0.00    -0.003 C 
ATOM     18  C   UNL     1       9.117   4.217  35.011  1.00  0.00     0.004 C 
ENDBRANCH  16  17
ENDBRANCH  15  16
ENDBRANCH  14  15
ENDBRANCH  13  14
ENDBRANCH  12  13
ENDBRANCH  11  12
ENDBRANCH   1  11
TORSDOF 14
ENDMDL
MODEL 8
REMARK VINA RESULT:    -2.948      1.160      2.336
REMARK INTER + INTRA:          -7.707
REMARK INTER:                  -5.289
REMARK INTRA:                  -2.418
REMARK UNBOUND:                -2.346
REMARK SMILES CCCCCCCCCCCCCCCC(=O)[O-]
REMARK SMILES IDX 9 1 10 2 11 3 12 4 13 5 14 6 15 7 16 8 17 9 18 10 8 11 7 12
REMARK SMILES IDX 6 13 5 14 4 15 3 16 2 17 1 18
REMARK H PARENT
REMARK Flexibility Score: inf
ROOT
ATOM      1  C   UNL     1       8.254   5.421  31.557  1.00  0.00     0.000 C 
ENDROOT
BRANCH   1   2
ATOM      2  C   UNL     1       9.181   4.216  31.805  1.00  0.00     0.000 C 
BRANCH   2   3
ATOM      3  C   UNL     1       9.161   3.142  30.701  1.00  0.00     0.000 C 
BRANCH   3   4
ATOM      4  C   UNL     1      10.529   2.845  30.058  1.00  0.00     0.000 C 
BRANCH   4   5
ATOM      5  C   UNL     1      11.525   4.021  30.143  1.00  0.00     0.000 C 
BRANCH   5   6
ATOM      6  C   UNL     1      11.682   4.757  28.801  1.00  0.00     0.006 C 
BRANCH   6   7
ATOM      7  C   UNL     1      12.575   5.998  28.922  1.00  0.00     0.053 C 
BRANCH   7   8
ATOM      8  C   UNL     1      13.737   5.940  27.978  1.00  0.00     0.041 C 
ATOM      9  O   UNL     1      14.915   6.011  28.420  1.00  0.00    -0.550 OA
ATOM     10  O   UNL     1      13.521   5.775  26.616  1.00  0.00    -0.550 OA
ENDBRANCH   7   8
ENDBRANCH   6   7
ENDBRANCH   5   6
ENDBRANCH   4   5
ENDBRANCH   3   4
ENDBRANCH   2   3
ENDBRANCH   1   2
BRANCH   1  11
ATOM     11  C   UNL     1       8.377   5.987  30.134  1.00  0.00     0.000 C 
BRANCH  11  12
ATOM     12  C   UNL     1       9.203   7.279  30.129  1.00  0.00    -0.000 C 
BRANCH  12  13
ATOM     13  C   UNL     1       9.221   7.925  31.523  1.00  0.00    -0.000 C 
BRANCH  13  14
ATOM     14  C   UNL     1      10.634   8.327  31.974  1.00  0.00    -0.000 C 
BRANCH  14  15
ATOM     15  C   UNL     1      11.049   7.652  33.293  1.00  0.00    -0.000 C 
BRANCH  15  16
ATOM     16  C   UNL     1      11.894   6.388  33.067  1.00  0.00    -0.000 C 
BRANCH  16  17
ATOM     17  C   UNL     1      11.709   5.344  34.178  1.00  0.00    -0.003 C 
ATOM     18  C   UNL     1      12.379   4.024  33.808  1.00  0.00     0.004 C 
ENDBRANCH  16  17
ENDBRANCH  15  16
ENDBRANCH  14  15
ENDBRANCH  13  14
ENDBRANCH  12  13
ENDBRANCH  11  12
ENDBRANCH   1  11
TORSDOF 14
ENDMDL
MODEL 9
REMARK VINA RESULT:    -2.935      1.796      4.157
REMARK INTER + INTRA:          -7.683
REMARK INTER:                  -5.828
REMARK INTRA:                  -1.855
REMARK UNBOUND:                -2.346
REMARK SMILES CCCCCCCCCCCCCCCC(=O)[O-]
REMARK SMILES IDX 9 1 10 2 11 3 12 4 13 5 14 6 15 7 16 8 17 9 18 10 8 11 7 12
REMARK SMILES IDX 6 13 5 14 4 15 3 16 2 17 1 18
REMARK H PARENT
REMARK Flexibility Score: inf
ROOT
ATOM      1  C   UNL     1      10.643   4.108  30.118  1.00  0.00     0.000 C 
ENDROOT
BRANCH   1   2
ATOM      2  C   UNL     1      11.158   4.985  28.961  1.00  0.00     0.000 C 
BRANCH   2   3
ATOM      3  C   UNL     1      12.511   5.675  29.219  1.00  0.00     0.000 C 
BRANCH   3   4
ATOM      4  C   UNL     1      13.716   4.723  29.336  1.00  0.00     0.000 C 
BRANCH   4   5
ATOM      5  C   UNL     1      15.046   5.343  28.858  1.00  0.00     0.000 C 
BRANCH   5   6
ATOM      6  C   UNL     1      14.841   6.396  27.755  1.00  0.00     0.006 C 
BRANCH   6   7
ATOM      7  C   UNL     1      14.671   5.758  26.370  1.00  0.00     0.053 C 
BRANCH   7   8
ATOM      8  C   UNL     1      13.973   6.679  25.417  1.00  0.00     0.041 C 
ATOM      9  O   UNL     1      13.818   7.894  25.710  1.00  0.00    -0.550 OA
ATOM     10  O   UNL     1      13.523   6.204  24.191  1.00  0.00    -0.550 OA
ENDBRANCH   7   8
ENDBRANCH   6   7
ENDBRANCH   5   6
ENDBRANCH   4   5
ENDBRANCH   3   4
ENDBRANCH   2   3
ENDBRANCH   1   2
BRANCH   1  11
ATOM     11  C   UNL     1       9.262   4.545  30.630  1.00  0.00     0.000 C 
BRANCH  11  12
ATOM     12  C   UNL     1       8.512   5.351  29.562  1.00  0.00    -0.000 C 
BRANCH  12  13
ATOM     13  C   UNL     1       8.182   6.763  30.071  1.00  0.00    -0.000 C 
BRANCH  13  14
ATOM     14  C   UNL     1       8.798   7.057  31.449  1.00  0.00    -0.000 C 
BRANCH  14  15
ATOM     15  C   UNL     1       9.903   8.126  31.387  1.00  0.00    -0.000 C 
BRANCH  15  16
ATOM     16  C   UNL     1      10.857   8.057  32.591  1.00  0.00    -0.000 C 
BRANCH  16  17
ATOM     17  C   UNL     1      10.879   6.671  33.252  1.00  0.00    -0.003 C 
ATOM     18  C   UNL     1      12.195   5.952  32.975  1.00  0.00     0.004 C 
ENDBRANCH  16  17
ENDBRANCH  15  16
ENDBRANCH  14  15
ENDBRANCH  13  14
ENDBRANCH  12  13
ENDBRANCH  11  12
ENDBRANCH   1  11
TORSDOF 14
ENDMDL
