MODEL 1
REMARK VINA RESULT:    -5.832      0.000      0.000
REMARK INTER + INTRA:          -6.714
REMARK INTER:                  -6.514
REMARK INTRA:                  -0.200
REMARK UNBOUND:                -0.200
REMARK SMILES C=CCc1ccc2c(c1)OCO2
REMARK SMILES IDX 3 1 2 2 1 3 4 4 9 5 5 6 8 7 6 8 7 9 10 10 12 11 11 12
REMARK H PARENT
REMARK Flexibility Score: inf
ROOT
ATOM      1  C   UNL     1       4.253   0.682 -21.709  1.00  0.00     0.062 C 
ENDROOT
BRANCH   1   2
ATOM      2  C   UNL     1       5.532   1.213 -22.294  1.00  0.00    -0.030 C 
ATOM      3  C   UNL     1       5.571   2.370 -22.962  1.00  0.00     0.004 C 
ENDBRANCH   1   2
BRANCH   1   4
ATOM      4  C   UNL     1       3.948  -0.689 -22.251  1.00  0.00    -0.040 A 
ATOM      5  C   UNL     1       2.688  -1.283 -22.015  1.00  0.00     0.054 A 
ATOM      6  C   UNL     1       4.909  -1.372 -23.041  1.00  0.00     0.008 A 
ATOM      7  C   UNL     1       2.445  -2.539 -22.563  1.00  0.00     0.166 A 
ATOM      8  C   UNL     1       4.622  -2.640 -23.575  1.00  0.00     0.051 A 
ATOM      9  C   UNL     1       3.371  -3.190 -23.310  1.00  0.00     0.165 A 
ATOM     10  O   UNL     1       1.305  -3.313 -22.468  1.00  0.00    -0.454 OA
ATOM     11  O   UNL     1       2.860  -4.406 -23.722  1.00  0.00    -0.454 OA
ATOM     12  C   UNL     1       1.530  -4.525 -23.200  1.00  0.00     0.468 C 
ENDBRANCH   1   4
TORSDOF 2
ENDMDL
MODEL 2
REMARK VINA RESULT:    -5.381      0.935      2.014
REMARK INTER + INTRA:          -6.210
REMARK INTER:                  -6.028
REMARK INTRA:                  -0.182
REMARK UNBOUND:                -0.200
REMARK SMILES C=CCc1ccc2c(c1)OCO2
REMARK SMILES IDX 3 1 2 2 1 3 4 4 9 5 5 6 8 7 6 8 7 9 10 10 12 11 11 12
REMARK H PARENT
REMARK Flexibility Score: inf
ROOT
ATOM      1  C   UNL     1       5.809   0.930 -22.177  1.00  0.00     0.062 C 
ENDROOT
BRANCH   1   2
ATOM      2  C   UNL     1       5.563   2.118 -23.064  1.00  0.00    -0.030 C 
ATOM      3  C   UNL     1       5.078   3.266 -22.583  1.00  0.00     0.004 C 
ENDBRANCH   1   2
BRANCH   1   4
ATOM      4  C   UNL     1       4.759  -0.126 -22.396  1.00  0.00    -0.040 A 
ATOM      5  C   UNL     1       5.063  -1.289 -23.138  1.00  0.00     0.054 A 
ATOM      6  C   UNL     1       3.471   0.022 -21.820  1.00  0.00     0.008 A 
ATOM      7  C   UNL     1       4.065  -2.249 -23.286  1.00  0.00     0.166 A 
ATOM      8  C   UNL     1       2.491  -0.972 -21.995  1.00  0.00     0.051 A 
ATOM      9  C   UNL     1       2.834  -2.097 -22.740  1.00  0.00     0.165 A 
ATOM     10  O   UNL     1       4.123  -3.452 -23.962  1.00  0.00    -0.454 OA
ATOM     11  O   UNL     1       2.055  -3.197 -23.045  1.00  0.00    -0.454 OA
ATOM     12  C   UNL     1       2.848  -4.095 -23.832  1.00  0.00     0.468 C 
ENDBRANCH   1   4
TORSDOF 2
ENDMDL
MODEL 3
REMARK VINA RESULT:    -5.360      2.430      4.805
REMARK INTER + INTRA:          -6.187
REMARK INTER:                  -6.018
REMARK INTRA:                  -0.169
REMARK UNBOUND:                -0.200
REMARK SMILES C=CCc1ccc2c(c1)OCO2
REMARK SMILES IDX 3 1 2 2 1 3 4 4 9 5 5 6 8 7 6 8 7 9 10 10 12 11 11 12
REMARK H PARENT
REMARK Flexibility Score: inf
ROOT
ATOM      1  C   UNL     1       1.887  -3.483 -22.233  1.00  0.00     0.062 C 
ENDROOT
BRANCH   1   2
ATOM      2  C   UNL     1       0.960  -3.587 -23.412  1.00  0.00    -0.030 C 
ATOM      3  C   UNL     1      -0.368  -3.548 -23.267  1.00  0.00     0.004 C 
ENDBRANCH   1   2
BRANCH   1   4
ATOM      4  C   UNL     1       2.914  -2.406 -22.456  1.00  0.00    -0.040 A 
ATOM      5  C   UNL     1       2.739  -1.126 -21.883  1.00  0.00     0.054 A 
ATOM      6  C   UNL     1       4.087  -2.685 -23.205  1.00  0.00     0.008 A 
ATOM      7  C   UNL     1       3.733  -0.174 -22.094  1.00  0.00     0.166 A 
ATOM      8  C   UNL     1       5.066  -1.694 -23.395  1.00  0.00     0.051 A 
ATOM      9  C   UNL     1       4.847  -0.445 -22.819  1.00  0.00     0.165 A 
ATOM     10  O   UNL     1       3.784   1.131 -21.644  1.00  0.00    -0.454 OA
ATOM     11  O   UNL     1       5.654   0.675 -22.861  1.00  0.00    -0.454 OA
ATOM     12  C   UNL     1       5.006   1.715 -22.116  1.00  0.00     0.468 C 
ENDBRANCH   1   4
TORSDOF 2
ENDMDL
MODEL 4
REMARK VINA RESULT:    -5.230      1.946      3.179
REMARK INTER + INTRA:          -6.041
REMARK INTER:                  -5.883
REMARK INTRA:                  -0.158
REMARK UNBOUND:                -0.200
REMARK SMILES C=CCc1ccc2c(c1)OCO2
REMARK SMILES IDX 3 1 2 2 1 3 4 4 9 5 5 6 8 7 6 8 7 9 10 10 12 11 11 12
REMARK H PARENT
REMARK Flexibility Score: inf
ROOT
ATOM      1  C   UNL     1       5.756  -2.065 -23.609  1.00  0.00     0.062 C 
ENDROOT
BRANCH   1   2
ATOM      2  C   UNL     1       6.379  -3.098 -24.505  1.00  0.00    -0.030 C 
ATOM      3  C   UNL     1       7.703  -3.264 -24.572  1.00  0.00     0.004 C 
ENDBRANCH   1   2
BRANCH   1   4
ATOM      4  C   UNL     1       4.307  -2.383 -23.354  1.00  0.00    -0.040 A 
ATOM      5  C   UNL     1       3.753  -3.598 -23.816  1.00  0.00     0.054 A 
ATOM      6  C   UNL     1       3.502  -1.484 -22.608  1.00  0.00     0.008 A 
ATOM      7  C   UNL     1       2.416  -3.858 -23.528  1.00  0.00     0.166 A 
ATOM      8  C   UNL     1       2.155  -1.786 -22.340  1.00  0.00     0.051 A 
ATOM      9  C   UNL     1       1.650  -2.990 -22.823  1.00  0.00     0.165 A 
ATOM     10  O   UNL     1       1.661  -4.963 -23.873  1.00  0.00    -0.454 OA
ATOM     11  O   UNL     1       0.375  -3.505 -22.688  1.00  0.00    -0.454 OA
ATOM     12  C   UNL     1       0.339  -4.776 -23.351  1.00  0.00     0.468 C 
ENDBRANCH   1   4
TORSDOF 2
ENDMDL
MODEL 5
REMARK VINA RESULT:    -5.026      2.475      3.902
REMARK INTER + INTRA:          -5.814
REMARK INTER:                  -5.628
REMARK INTRA:                  -0.186
REMARK UNBOUND:                -0.200
REMARK SMILES C=CCc1ccc2c(c1)OCO2
REMARK SMILES IDX 3 1 2 2 1 3 4 4 9 5 5 6 8 7 6 8 7 9 10 10 12 11 11 12
REMARK H PARENT
REMARK Flexibility Score: inf
ROOT
ATOM      1  C   UNL     1       4.475   4.251 -21.776  1.00  0.00     0.062 C 
ENDROOT
BRANCH   1   2
ATOM      2  C   UNL     1       5.497   5.217 -22.308  1.00  0.00    -0.030 C 
ATOM      3  C   UNL     1       5.171   6.465 -22.654  1.00  0.00     0.004 C 
ENDBRANCH   1   2
BRANCH   1   4
ATOM      4  C   UNL     1       4.588   2.920 -22.468  1.00  0.00    -0.040 A 
ATOM      5  C   UNL     1       4.191   1.737 -21.805  1.00  0.00     0.054 A 
ATOM      6  C   UNL     1       5.052   2.852 -23.808  1.00  0.00     0.008 A 
ATOM      7  C   UNL     1       4.287   0.534 -22.500  1.00  0.00     0.166 A 
ATOM      8  C   UNL     1       5.134   1.615 -24.473  1.00  0.00     0.051 A 
ATOM      9  C   UNL     1       4.740   0.476 -23.777  1.00  0.00     0.165 A 
ATOM     10  O   UNL     1       3.966  -0.737 -22.067  1.00  0.00    -0.454 OA
ATOM     11  O   UNL     1       4.726  -0.836 -24.212  1.00  0.00    -0.454 OA
ATOM     12  C   UNL     1       4.235  -1.651 -23.139  1.00  0.00     0.468 C 
ENDBRANCH   1   4
TORSDOF 2
ENDMDL
MODEL 6
REMARK VINA RESULT:    -4.979      4.297      6.756
REMARK INTER + INTRA:          -5.761
REMARK INTER:                  -5.594
REMARK INTRA:                  -0.168
REMARK UNBOUND:                -0.200
REMARK SMILES C=CCc1ccc2c(c1)OCO2
REMARK SMILES IDX 3 1 2 2 1 3 4 4 9 5 5 6 8 7 6 8 7 9 10 10 12 11 11 12
REMARK H PARENT
REMARK Flexibility Score: inf
ROOT
ATOM      1  C   UNL     1       5.582   0.867 -22.121  1.00  0.00     0.062 C 
ENDROOT
BRANCH   1   2
ATOM      2  C   UNL     1       4.689  -0.230 -22.630  1.00  0.00    -0.030 C 
ATOM      3  C   UNL     1       5.186  -1.341 -23.182  1.00  0.00     0.004 C 
ENDBRANCH   1   2
BRANCH   1   4
ATOM      4  C   UNL     1       5.111   2.209 -22.611  1.00  0.00    -0.040 A 
ATOM      5  C   UNL     1       5.380   2.618 -23.937  1.00  0.00     0.054 A 
ATOM      6  C   UNL     1       4.354   3.053 -21.757  1.00  0.00     0.008 A 
ATOM      7  C   UNL     1       4.896   3.856 -24.350  1.00  0.00     0.166 A 
ATOM      8  C   UNL     1       3.884   4.297 -22.215  1.00  0.00     0.051 A 
ATOM      9  C   UNL     1       4.181   4.661 -23.526  1.00  0.00     0.165 A 
ATOM     10  O   UNL     1       5.033   4.465 -25.582  1.00  0.00    -0.454 OA
ATOM     11  O   UNL     1       3.832   5.817 -24.197  1.00  0.00    -0.454 OA
ATOM     12  C   UNL     1       4.362   5.732 -25.527  1.00  0.00     0.468 C 
ENDBRANCH   1   4
TORSDOF 2
ENDMDL
MODEL 7
REMARK VINA RESULT:    -4.921      3.890      6.057
REMARK INTER + INTRA:          -5.697
REMARK INTER:                  -5.519
REMARK INTRA:                  -0.177
REMARK UNBOUND:                -0.200
REMARK SMILES C=CCc1ccc2c(c1)OCO2
REMARK SMILES IDX 3 1 2 2 1 3 4 4 9 5 5 6 8 7 6 8 7 9 10 10 12 11 11 12
REMARK H PARENT
REMARK Flexibility Score: inf
ROOT
ATOM      1  C   UNL     1       4.103  -0.668 -22.668  1.00  0.00     0.062 C 
ENDROOT
BRANCH   1   2
ATOM      2  C   UNL     1       5.146  -1.581 -23.249  1.00  0.00    -0.030 C 
ATOM      3  C   UNL     1       4.829  -2.771 -23.767  1.00  0.00     0.004 C 
ENDBRANCH   1   2
BRANCH   1   4
ATOM      4  C   UNL     1       4.400   0.767 -23.010  1.00  0.00    -0.040 A 
ATOM      5  C   UNL     1       4.340   1.764 -22.011  1.00  0.00     0.054 A 
ATOM      6  C   UNL     1       4.785   1.119 -24.330  1.00  0.00     0.008 A 
ATOM      7  C   UNL     1       4.653   3.072 -22.373  1.00  0.00     0.166 A 
ATOM      8  C   UNL     1       5.091   2.453 -24.653  1.00  0.00     0.051 A 
ATOM      9  C   UNL     1       5.011   3.402 -23.638  1.00  0.00     0.165 A 
ATOM     10  O   UNL     1       4.662   4.204 -21.582  1.00  0.00    -0.454 OA
ATOM     11  O   UNL     1       5.264   4.759 -23.707  1.00  0.00    -0.454 OA
ATOM     12  C   UNL     1       5.050   5.315 -22.402  1.00  0.00     0.468 C 
ENDBRANCH   1   4
TORSDOF 2
ENDMDL
MODEL 8
REMARK VINA RESULT:    -4.918      3.405      5.357
REMARK INTER + INTRA:          -5.693
REMARK INTER:                  -5.522
REMARK INTRA:                  -0.171
REMARK UNBOUND:                -0.200
REMARK SMILES C=CCc1ccc2c(c1)OCO2
REMARK SMILES IDX 3 1 2 2 1 3 4 4 9 5 5 6 8 7 6 8 7 9 10 10 12 11 11 12
REMARK H PARENT
REMARK Flexibility Score: inf
ROOT
ATOM      1  C   UNL     1       5.133  -1.867 -23.209  1.00  0.00     0.062 C 
ENDROOT
BRANCH   1   2
ATOM      2  C   UNL     1       5.207  -2.498 -24.571  1.00  0.00    -0.030 C 
ATOM      3  C   UNL     1       6.253  -3.240 -24.946  1.00  0.00     0.004 C 
ENDBRANCH   1   2
BRANCH   1   4
ATOM      4  C   UNL     1       4.949  -0.377 -23.320  1.00  0.00    -0.040 A 
ATOM      5  C   UNL     1       4.208   0.170 -24.392  1.00  0.00     0.054 A 
ATOM      6  C   UNL     1       5.482   0.482 -22.324  1.00  0.00     0.008 A 
ATOM      7  C   UNL     1       4.042   1.552 -24.432  1.00  0.00     0.166 A 
ATOM      8  C   UNL     1       5.291   1.873 -22.405  1.00  0.00     0.051 A 
ATOM      9  C   UNL     1       4.561   2.367 -23.482  1.00  0.00     0.165 A 
ATOM     10  O   UNL     1       3.368   2.309 -25.371  1.00  0.00    -0.454 OA
ATOM     11  O   UNL     1       4.241   3.679 -23.774  1.00  0.00    -0.454 OA
ATOM     12  C   UNL     1       3.472   3.687 -24.985  1.00  0.00     0.468 C 
ENDBRANCH   1   4
TORSDOF 2
ENDMDL
MODEL 9
REMARK VINA RESULT:    -4.900      2.603      3.650
REMARK INTER + INTRA:          -5.673
REMARK INTER:                  -5.462
REMARK INTRA:                  -0.211
REMARK UNBOUND:                -0.200
REMARK SMILES C=CCc1ccc2c(c1)OCO2
REMARK SMILES IDX 3 1 2 2 1 3 4 4 9 5 5 6 8 7 6 8 7 9 10 10 12 11 11 12
REMARK H PARENT
REMARK Flexibility Score: inf
ROOT
ATOM      1  C   UNL     1       5.580   3.555 -22.981  1.00  0.00     0.062 C 
ENDROOT
BRANCH   1   2
ATOM      2  C   UNL     1       4.735   4.081 -21.855  1.00  0.00    -0.030 C 
ATOM      3  C   UNL     1       3.603   4.754 -22.081  1.00  0.00     0.004 C 
ENDBRANCH   1   2
BRANCH   1   4
ATOM      4  C   UNL     1       5.238   2.120 -23.279  1.00  0.00    -0.040 A 
ATOM      5  C   UNL     1       4.697   1.764 -24.535  1.00  0.00     0.054 A 
ATOM      6  C   UNL     1       5.500   1.111 -22.316  1.00  0.00     0.008 A 
ATOM      7  C   UNL     1       4.426   0.419 -24.771  1.00  0.00     0.166 A 
ATOM      8  C   UNL     1       5.211  -0.236 -22.596  1.00  0.00     0.051 A 
ATOM      9  C   UNL     1       4.671  -0.539 -23.843  1.00  0.00     0.165 A 
ATOM     10  O   UNL     1       3.898  -0.165 -25.906  1.00  0.00    -0.454 OA
ATOM     11  O   UNL     1       4.309  -1.773 -24.347  1.00  0.00    -0.454 OA
ATOM     12  C   UNL     1       3.806  -1.578 -25.675  1.00  0.00     0.468 C 
ENDBRANCH   1   4
TORSDOF 2
ENDMDL
