MODEL 1
REMARK VINA RESULT:    -6.004      0.000      0.000
REMARK INTER + INTRA:          -7.428
REMARK INTER:                  -7.232
REMARK INTRA:                  -0.196
REMARK UNBOUND:                -0.196
REMARK SMILES Oc1cc(O)c2c(c1)O[C@@H](c1ccc(O)c(O)c1)[C@H](O)C2
REMARK SMILES IDX 21 1 19 2 10 3 9 4 7 5 8 6 2 7 3 8 4 9 6 10 20 11 11 13
REMARK SMILES IDX 18 14 12 15 16 16 13 17 14 18 17 19 15 21 5 23 1 25
REMARK H PARENT 20 12 17 20 15 22 5 24 1 26
REMARK Flexibility Score: inf
ROOT
ATOM      1  C   UNL     1      -3.121 -15.021  10.986  1.00  0.00     0.079 C 
ATOM      2  C   UNL     1      -2.149 -15.415  12.115  1.00  0.00     0.164 C 
ATOM      3  C   UNL     1      -2.443 -16.850  12.596  1.00  0.00     0.232 C 
ATOM      4  O   UNL     1      -2.368 -17.751  11.493  1.00  0.00    -0.482 OA
ATOM      5  C   UNL     1      -2.840 -17.416  10.219  1.00  0.00     0.131 A 
ATOM      6  C   UNL     1      -2.910 -18.409   9.239  1.00  0.00     0.093 A 
ATOM      7  C   UNL     1      -3.389 -18.111   7.963  1.00  0.00     0.122 A 
ATOM      8  C   UNL     1      -3.814 -16.810   7.667  1.00  0.00     0.092 A 
ATOM      9  C   UNL     1      -3.753 -15.802   8.635  1.00  0.00     0.126 A 
ATOM     10  C   UNL     1      -3.226 -16.091   9.917  1.00  0.00     0.039 A 
ENDROOT
BRANCH   2  11
ATOM     11  O   UNL     1      -2.221 -14.493  13.173  1.00  0.00    -0.389 OA
ATOM     12  H   UNL     1      -2.069 -13.587  12.795  1.00  0.00     0.211 HD
ENDBRANCH   2  11
BRANCH   3  13
ATOM     13  C   UNL     1      -1.466 -17.276  13.668  1.00  0.00    -0.001 A 
ATOM     14  C   UNL     1      -0.255 -17.901  13.323  1.00  0.00     0.057 A 
ATOM     15  C   UNL     1      -1.737 -17.007  15.018  1.00  0.00     0.012 A 
ATOM     16  C   UNL     1       0.663 -18.271  14.317  1.00  0.00     0.157 A 
ATOM     17  C   UNL     1      -0.824 -17.375  16.010  1.00  0.00     0.050 A 
ATOM     18  C   UNL     1       0.375 -18.007  15.667  1.00  0.00     0.157 A 
BRANCH  16  19
ATOM     19  O   UNL     1       1.860 -18.895  13.967  1.00  0.00    -0.504 OA
ATOM     20  H   UNL     1       2.432 -19.371  14.656  1.00  0.00     0.293 HD
ENDBRANCH  16  19
BRANCH  18  21
ATOM     21  O   UNL     1       1.267 -18.363  16.678  1.00  0.00    -0.504 OA
ATOM     22  H   UNL     1       2.092 -18.923  16.495  1.00  0.00     0.293 HD
ENDBRANCH  18  21
ENDBRANCH   3  13
BRANCH   9  23
ATOM     23  O   UNL     1      -4.232 -14.535   8.295  1.00  0.00    -0.507 OA
ATOM     24  H   UNL     1      -4.323 -13.778   8.960  1.00  0.00     0.293 HD
ENDBRANCH   9  23
BRANCH   7  25
ATOM     25  O   UNL     1      -3.449 -19.115   6.999  1.00  0.00    -0.508 OA
ATOM     26  H   UNL     1      -4.274 -19.692   6.885  1.00  0.00     0.293 HD
ENDBRANCH   7  25
TORSDOF 6
ENDMDL
MODEL 2
REMARK VINA RESULT:    -5.806      1.943      3.490
REMARK INTER + INTRA:          -7.190
REMARK INTER:                  -7.054
REMARK INTRA:                  -0.136
REMARK UNBOUND:                -0.196
REMARK SMILES Oc1cc(O)c2c(c1)O[C@@H](c1ccc(O)c(O)c1)[C@H](O)C2
REMARK SMILES IDX 21 1 19 2 10 3 9 4 7 5 8 6 2 7 3 8 4 9 6 10 20 11 11 13
REMARK SMILES IDX 18 14 12 15 16 16 13 17 14 18 17 19 15 21 5 23 1 25
REMARK H PARENT 20 12 17 20 15 22 5 24 1 26
REMARK Flexibility Score: inf
ROOT
ATOM      1  C   UNL     1      -4.429 -17.649   8.758  1.00  0.00     0.079 C 
ATOM      2  C   UNL     1      -3.993 -17.604  10.235  1.00  0.00     0.164 C 
ATOM      3  C   UNL     1      -2.795 -16.649  10.409  1.00  0.00     0.232 C 
ATOM      4  O   UNL     1      -3.139 -15.354   9.918  1.00  0.00    -0.482 OA
ATOM      5  C   UNL     1      -3.915 -15.171   8.769  1.00  0.00     0.131 A 
ATOM      6  C   UNL     1      -4.052 -13.885   8.241  1.00  0.00     0.093 A 
ATOM      7  C   UNL     1      -4.807 -13.671   7.088  1.00  0.00     0.122 A 
ATOM      8  C   UNL     1      -5.424 -14.754   6.449  1.00  0.00     0.092 A 
ATOM      9  C   UNL     1      -5.298 -16.050   6.962  1.00  0.00     0.126 A 
ATOM     10  C   UNL     1      -4.569 -16.264   8.156  1.00  0.00     0.039 A 
ENDROOT
BRANCH   2  11
ATOM     11  O   UNL     1      -3.692 -18.896  10.700  1.00  0.00    -0.389 OA
ATOM     12  H   UNL     1      -2.883 -19.210  10.217  1.00  0.00     0.211 HD
ENDBRANCH   2  11
BRANCH   3  13
ATOM     13  C   UNL     1      -2.385 -16.550  11.860  1.00  0.00    -0.001 A 
ATOM     14  C   UNL     1      -1.533 -17.513  12.430  1.00  0.00     0.057 A 
ATOM     15  C   UNL     1      -2.812 -15.466  12.643  1.00  0.00     0.012 A 
ATOM     16  C   UNL     1      -1.130 -17.404  13.768  1.00  0.00     0.157 A 
ATOM     17  C   UNL     1      -2.412 -15.356  13.977  1.00  0.00     0.050 A 
ATOM     18  C   UNL     1      -1.574 -16.320  14.546  1.00  0.00     0.157 A 
BRANCH  16  19
ATOM     19  O   UNL     1      -0.290 -18.366  14.327  1.00  0.00    -0.504 OA
ATOM     20  H   UNL     1       0.614 -18.121  14.715  1.00  0.00     0.293 HD
ENDBRANCH  16  19
BRANCH  18  21
ATOM     21  O   UNL     1      -1.192 -16.185  15.880  1.00  0.00    -0.504 OA
ATOM     22  H   UNL     1      -0.617 -15.414  16.199  1.00  0.00     0.293 HD
ENDBRANCH  18  21
ENDBRANCH   3  13
BRANCH   9  23
ATOM     23  O   UNL     1      -5.898 -17.095   6.257  1.00  0.00    -0.507 OA
ATOM     24  H   UNL     1      -6.316 -17.901   6.706  1.00  0.00     0.293 HD
ENDBRANCH   9  23
BRANCH   7  25
ATOM     25  O   UNL     1      -4.934 -12.380   6.578  1.00  0.00    -0.508 OA
ATOM     26  H   UNL     1      -5.519 -12.183   5.774  1.00  0.00     0.293 HD
ENDBRANCH   7  25
TORSDOF 6
ENDMDL
MODEL 3
REMARK VINA RESULT:    -5.345      1.566      1.860
REMARK INTER + INTRA:          -6.635
REMARK INTER:                  -6.365
REMARK INTRA:                  -0.270
REMARK UNBOUND:                -0.196
REMARK SMILES Oc1cc(O)c2c(c1)O[C@@H](c1ccc(O)c(O)c1)[C@H](O)C2
REMARK SMILES IDX 21 1 19 2 10 3 9 4 7 5 8 6 2 7 3 8 4 9 6 10 20 11 11 13
REMARK SMILES IDX 18 14 12 15 16 16 13 17 14 18 17 19 15 21 5 23 1 25
REMARK H PARENT 20 12 17 20 15 22 5 24 1 26
REMARK Flexibility Score: inf
ROOT
ATOM      1  C   UNL     1      -2.934 -13.687   9.941  1.00  0.00     0.079 C 
ATOM      2  C   UNL     1      -2.146 -14.370  11.076  1.00  0.00     0.164 C 
ATOM      3  C   UNL     1      -3.047 -15.373  11.823  1.00  0.00     0.232 C 
ATOM      4  O   UNL     1      -3.579 -16.321  10.900  1.00  0.00    -0.482 OA
ATOM      5  C   UNL     1      -3.986 -15.964   9.610  1.00  0.00     0.131 A 
ATOM      6  C   UNL     1      -4.670 -16.900   8.831  1.00  0.00     0.093 A 
ATOM      7  C   UNL     1      -5.103 -16.570   7.546  1.00  0.00     0.122 A 
ATOM      8  C   UNL     1      -4.859 -15.288   7.038  1.00  0.00     0.092 A 
ATOM      9  C   UNL     1      -4.177 -14.336   7.804  1.00  0.00     0.126 A 
ATOM     10  C   UNL     1      -3.698 -14.682   9.090  1.00  0.00     0.039 A 
ENDROOT
BRANCH   2  11
ATOM     11  O   UNL     1      -1.607 -13.411  11.951  1.00  0.00    -0.389 OA
ATOM     12  H   UNL     1      -0.653 -13.284  11.710  1.00  0.00     0.211 HD
ENDBRANCH   2  11
BRANCH   3  13
ATOM     13  C   UNL     1      -2.279 -16.093  12.907  1.00  0.00    -0.001 A 
ATOM     14  C   UNL     1      -1.477 -17.205  12.596  1.00  0.00     0.057 A 
ATOM     15  C   UNL     1      -2.321 -15.628  14.231  1.00  0.00     0.012 A 
ATOM     16  C   UNL     1      -0.743 -17.855  13.599  1.00  0.00     0.157 A 
ATOM     17  C   UNL     1      -1.591 -16.275  15.231  1.00  0.00     0.050 A 
ATOM     18  C   UNL     1      -0.802 -17.388  14.923  1.00  0.00     0.157 A 
BRANCH  16  19
ATOM     19  O   UNL     1       0.046 -18.961  13.283  1.00  0.00    -0.504 OA
ATOM     20  H   UNL     1      -0.139 -19.876  13.678  1.00  0.00     0.293 HD
ENDBRANCH  16  19
BRANCH  18  21
ATOM     21  O   UNL     1      -0.085 -18.014  15.942  1.00  0.00    -0.504 OA
ATOM     22  H   UNL     1       0.236 -17.511  16.761  1.00  0.00     0.293 HD
ENDBRANCH  18  21
ENDBRANCH   3  13
BRANCH   9  23
ATOM     23  O   UNL     1      -4.003 -13.061   7.261  1.00  0.00    -0.507 OA
ATOM     24  H   UNL     1      -4.759 -12.398   7.148  1.00  0.00     0.293 HD
ENDBRANCH   9  23
BRANCH   7  25
ATOM     25  O   UNL     1      -5.781 -17.519   6.784  1.00  0.00    -0.508 OA
ATOM     26  H   UNL     1      -5.289 -18.267   6.309  1.00  0.00     0.293 HD
ENDBRANCH   7  25
TORSDOF 6
ENDMDL
MODEL 4
REMARK VINA RESULT:    -5.096      0.987      1.673
REMARK INTER + INTRA:          -6.335
REMARK INTER:                  -6.055
REMARK INTRA:                  -0.280
REMARK UNBOUND:                -0.196
REMARK SMILES Oc1cc(O)c2c(c1)O[C@@H](c1ccc(O)c(O)c1)[C@H](O)C2
REMARK SMILES IDX 21 1 19 2 10 3 9 4 7 5 8 6 2 7 3 8 4 9 6 10 20 11 11 13
REMARK SMILES IDX 18 14 12 15 16 16 13 17 14 18 17 19 15 21 5 23 1 25
REMARK H PARENT 20 12 17 20 15 22 5 24 1 26
REMARK Flexibility Score: inf
ROOT
ATOM      1  C   UNL     1      -2.903 -14.440  10.558  1.00  0.00     0.079 C 
ATOM      2  C   UNL     1      -2.055 -14.961  11.734  1.00  0.00     0.164 C 
ATOM      3  C   UNL     1      -2.581 -16.330  12.207  1.00  0.00     0.232 C 
ATOM      4  O   UNL     1      -2.590 -17.245  11.113  1.00  0.00    -0.482 OA
ATOM      5  C   UNL     1      -2.946 -16.858   9.816  1.00  0.00     0.131 A 
ATOM      6  C   UNL     1      -3.116 -17.841   8.838  1.00  0.00     0.093 A 
ATOM      7  C   UNL     1      -3.486 -17.490   7.539  1.00  0.00     0.122 A 
ATOM      8  C   UNL     1      -3.698 -16.144   7.217  1.00  0.00     0.092 A 
ATOM      9  C   UNL     1      -3.533 -15.145   8.183  1.00  0.00     0.126 A 
ATOM     10  C   UNL     1      -3.116 -15.494   9.490  1.00  0.00     0.039 A 
ENDROOT
BRANCH   2  11
ATOM     11  O   UNL     1      -2.038 -14.026  12.784  1.00  0.00    -0.389 OA
ATOM     12  H   UNL     1      -2.270 -14.507  13.620  1.00  0.00     0.211 HD
ENDBRANCH   2  11
BRANCH   3  13
ATOM     13  C   UNL     1      -1.730 -16.884  13.326  1.00  0.00    -0.001 A 
ATOM     14  C   UNL     1      -2.117 -16.719  14.668  1.00  0.00     0.057 A 
ATOM     15  C   UNL     1      -0.567 -17.613  13.034  1.00  0.00     0.012 A 
ATOM     16  C   UNL     1      -1.340 -17.258  15.704  1.00  0.00     0.157 A 
ATOM     17  C   UNL     1       0.208 -18.150  14.065  1.00  0.00     0.050 A 
ATOM     18  C   UNL     1      -0.171 -17.976  15.400  1.00  0.00     0.157 A 
BRANCH  16  19
ATOM     19  O   UNL     1      -1.728 -17.085  17.032  1.00  0.00    -0.504 OA
ATOM     20  H   UNL     1      -2.364 -16.345  17.307  1.00  0.00     0.293 HD
ENDBRANCH  16  19
BRANCH  18  21
ATOM     21  O   UNL     1       0.622 -18.523  16.408  1.00  0.00    -0.504 OA
ATOM     22  H   UNL     1       1.245 -17.955  16.970  1.00  0.00     0.293 HD
ENDBRANCH  18  21
ENDBRANCH   3  13
BRANCH   9  23
ATOM     23  O   UNL     1      -3.802 -13.825   7.814  1.00  0.00    -0.507 OA
ATOM     24  H   UNL     1      -3.350 -13.025   8.240  1.00  0.00     0.293 HD
ENDBRANCH   9  23
BRANCH   7  25
ATOM     25  O   UNL     1      -3.648 -18.484   6.577  1.00  0.00    -0.508 OA
ATOM     26  H   UNL     1      -2.857 -18.999   6.208  1.00  0.00     0.293 HD
ENDBRANCH   7  25
TORSDOF 6
ENDMDL
MODEL 5
REMARK VINA RESULT:    -4.674      1.651      2.908
REMARK INTER + INTRA:          -5.826
REMARK INTER:                  -5.459
REMARK INTRA:                  -0.367
REMARK UNBOUND:                -0.196
REMARK SMILES Oc1cc(O)c2c(c1)O[C@@H](c1ccc(O)c(O)c1)[C@H](O)C2
REMARK SMILES IDX 21 1 19 2 10 3 9 4 7 5 8 6 2 7 3 8 4 9 6 10 20 11 11 13
REMARK SMILES IDX 18 14 12 15 16 16 13 17 14 18 17 19 15 21 5 23 1 25
REMARK H PARENT 20 12 17 20 15 22 5 24 1 26
REMARK Flexibility Score: inf
ROOT
ATOM      1  C   UNL     1      -4.318 -17.601   9.554  1.00  0.00     0.079 C 
ATOM      2  C   UNL     1      -3.782 -17.772  10.988  1.00  0.00     0.164 C 
ATOM      3  C   UNL     1      -2.359 -17.188  11.100  1.00  0.00     0.232 C 
ATOM      4  O   UNL     1      -2.370 -15.820  10.696  1.00  0.00    -0.482 OA
ATOM      5  C   UNL     1      -3.147 -15.359   9.627  1.00  0.00     0.131 A 
ATOM      6  C   UNL     1      -2.963 -14.053   9.169  1.00  0.00     0.093 A 
ATOM      7  C   UNL     1      -3.712 -13.568   8.096  1.00  0.00     0.122 A 
ATOM      8  C   UNL     1      -4.645 -14.401   7.467  1.00  0.00     0.092 A 
ATOM      9  C   UNL     1      -4.842 -15.714   7.911  1.00  0.00     0.126 A 
ATOM     10  C   UNL     1      -4.116 -16.194   9.027  1.00  0.00     0.039 A 
ENDROOT
BRANCH   2  11
ATOM     11  O   UNL     1      -3.813 -19.125  11.369  1.00  0.00    -0.389 OA
ATOM     12  H   UNL     1      -3.382 -19.197  12.260  1.00  0.00     0.211 HD
ENDBRANCH   2  11
BRANCH   3  13
ATOM     13  C   UNL     1      -1.835 -17.297  12.512  1.00  0.00    -0.001 A 
ATOM     14  C   UNL     1      -0.637 -17.984  12.779  1.00  0.00     0.057 A 
ATOM     15  C   UNL     1      -2.515 -16.672  13.569  1.00  0.00     0.012 A 
ATOM     16  C   UNL     1      -0.137 -18.061  14.087  1.00  0.00     0.157 A 
ATOM     17  C   UNL     1      -2.018 -16.749  14.873  1.00  0.00     0.050 A 
ATOM     18  C   UNL     1      -0.833 -17.441  15.139  1.00  0.00     0.157 A 
BRANCH  16  19
ATOM     19  O   UNL     1       1.049 -18.748  14.343  1.00  0.00    -0.504 OA
ATOM     20  H   UNL     1       1.930 -18.457  13.936  1.00  0.00     0.293 HD
ENDBRANCH  16  19
BRANCH  18  21
ATOM     21  O   UNL     1      -0.362 -17.501  16.450  1.00  0.00    -0.504 OA
ATOM     22  H   UNL     1      -0.971 -17.360  17.247  1.00  0.00     0.293 HD
ENDBRANCH  18  21
ENDBRANCH   3  13
BRANCH   9  23
ATOM     23  O   UNL     1      -5.754 -16.511   7.216  1.00  0.00    -0.507 OA
ATOM     24  H   UNL     1      -6.751 -16.334   7.204  1.00  0.00     0.293 HD
ENDBRANCH   9  23
BRANCH   7  25
ATOM     25  O   UNL     1      -3.516 -12.261   7.655  1.00  0.00    -0.508 OA
ATOM     26  H   UNL     1      -4.297 -11.654   7.433  1.00  0.00     0.293 HD
ENDBRANCH   7  25
TORSDOF 6
ENDMDL
MODEL 6
REMARK VINA RESULT:    -4.667      1.361      6.855
REMARK INTER + INTRA:          -5.818
REMARK INTER:                  -5.447
REMARK INTRA:                  -0.371
REMARK UNBOUND:                -0.196
REMARK SMILES Oc1cc(O)c2c(c1)O[C@@H](c1ccc(O)c(O)c1)[C@H](O)C2
REMARK SMILES IDX 21 1 19 2 10 3 9 4 7 5 8 6 2 7 3 8 4 9 6 10 20 11 11 13
REMARK SMILES IDX 18 14 12 15 16 16 13 17 14 18 17 19 15 21 5 23 1 25
REMARK H PARENT 20 12 17 20 15 22 5 24 1 26
REMARK Flexibility Score: inf
ROOT
ATOM      1  C   UNL     1      -2.914 -16.388  14.373  1.00  0.00     0.079 C 
ATOM      2  C   UNL     1      -3.444 -16.490  12.930  1.00  0.00     0.164 C 
ATOM      3  C   UNL     1      -2.333 -16.126  11.925  1.00  0.00     0.232 C 
ATOM      4  O   UNL     1      -1.202 -16.969  12.135  1.00  0.00    -0.482 OA
ATOM      5  C   UNL     1      -0.781 -17.353  13.413  1.00  0.00     0.131 A 
ATOM      6  C   UNL     1       0.440 -18.018  13.553  1.00  0.00     0.093 A 
ATOM      7  C   UNL     1       0.895 -18.401  14.815  1.00  0.00     0.122 A 
ATOM      8  C   UNL     1       0.129 -18.107  15.950  1.00  0.00     0.092 A 
ATOM      9  C   UNL     1      -1.096 -17.440  15.830  1.00  0.00     0.126 A 
ATOM     10  C   UNL     1      -1.581 -17.089  14.547  1.00  0.00     0.039 A 
ENDROOT
BRANCH   2  11
ATOM     11  O   UNL     1      -4.577 -15.674  12.761  1.00  0.00    -0.389 OA
ATOM     12  H   UNL     1      -4.427 -15.112  11.957  1.00  0.00     0.211 HD
ENDBRANCH   2  11
BRANCH   3  13
ATOM     13  C   UNL     1      -2.817 -16.270  10.501  1.00  0.00    -0.001 A 
ATOM     14  C   UNL     1      -2.816 -15.167   9.630  1.00  0.00     0.057 A 
ATOM     15  C   UNL     1      -3.230 -17.523  10.019  1.00  0.00     0.012 A 
ATOM     16  C   UNL     1      -3.240 -15.309   8.301  1.00  0.00     0.157 A 
ATOM     17  C   UNL     1      -3.652 -17.666   8.695  1.00  0.00     0.050 A 
ATOM     18  C   UNL     1      -3.661 -16.565   7.832  1.00  0.00     0.157 A 
BRANCH  16  19
ATOM     19  O   UNL     1      -3.241 -14.208   7.445  1.00  0.00    -0.504 OA
ATOM     20  H   UNL     1      -2.770 -13.345   7.690  1.00  0.00     0.293 HD
ENDBRANCH  16  19
BRANCH  18  21
ATOM     21  O   UNL     1      -4.089 -16.738   6.516  1.00  0.00    -0.504 OA
ATOM     22  H   UNL     1      -4.611 -16.024   6.022  1.00  0.00     0.293 HD
ENDBRANCH  18  21
ENDBRANCH   3  13
BRANCH   9  23
ATOM     23  O   UNL     1      -1.794 -17.135  17.000  1.00  0.00    -0.507 OA
ATOM     24  H   UNL     1      -1.686 -16.261  17.500  1.00  0.00     0.293 HD
ENDBRANCH   9  23
BRANCH   7  25
ATOM     25  O   UNL     1       2.114 -19.066  14.934  1.00  0.00    -0.508 OA
ATOM     26  H   UNL     1       2.732 -18.902  15.721  1.00  0.00     0.293 HD
ENDBRANCH   7  25
TORSDOF 6
ENDMDL
MODEL 7
REMARK VINA RESULT:    -4.347      2.261      3.999
REMARK INTER + INTRA:          -5.433
REMARK INTER:                  -5.854
REMARK INTRA:                   0.421
REMARK UNBOUND:                -0.196
REMARK SMILES Oc1cc(O)c2c(c1)O[C@@H](c1ccc(O)c(O)c1)[C@H](O)C2
REMARK SMILES IDX 21 1 19 2 10 3 9 4 7 5 8 6 2 7 3 8 4 9 6 10 20 11 11 13
REMARK SMILES IDX 18 14 12 15 16 16 13 17 14 18 17 19 15 21 5 23 1 25
REMARK H PARENT 20 12 17 20 15 22 5 24 1 26
REMARK Flexibility Score: inf
ROOT
ATOM      1  C   UNL     1      -2.471 -16.950  15.097  1.00  0.00     0.079 C 
ATOM      2  C   UNL     1      -0.986 -17.193  15.430  1.00  0.00     0.164 C 
ATOM      3  C   UNL     1      -0.342 -18.102  14.365  1.00  0.00     0.232 C 
ATOM      4  O   UNL     1      -0.507 -17.519  13.074  1.00  0.00    -0.482 OA
ATOM      5  C   UNL     1      -1.680 -16.855  12.696  1.00  0.00     0.131 A 
ATOM      6  C   UNL     1      -1.845 -16.478  11.361  1.00  0.00     0.093 A 
ATOM      7  C   UNL     1      -3.009 -15.828  10.949  1.00  0.00     0.122 A 
ATOM      8  C   UNL     1      -4.023 -15.563  11.877  1.00  0.00     0.092 A 
ATOM      9  C   UNL     1      -3.876 -15.934  13.219  1.00  0.00     0.126 A 
ATOM     10  C   UNL     1      -2.678 -16.554  13.649  1.00  0.00     0.039 A 
ENDROOT
BRANCH   2  11
ATOM     11  O   UNL     1      -0.852 -17.738  16.720  1.00  0.00    -0.389 OA
ATOM     12  H   UNL     1      -0.977 -17.001  17.373  1.00  0.00     0.211 HD
ENDBRANCH   2  11
BRANCH   3  13
ATOM     13  C   UNL     1       1.128 -18.311  14.644  1.00  0.00    -0.001 A 
ATOM     14  C   UNL     1       1.611 -18.321  15.964  1.00  0.00     0.057 A 
ATOM     15  C   UNL     1       2.022 -18.546  13.587  1.00  0.00     0.012 A 
ATOM     16  C   UNL     1       2.972 -18.543  16.223  1.00  0.00     0.157 A 
ATOM     17  C   UNL     1       3.377 -18.766  13.843  1.00  0.00     0.050 A 
ATOM     18  C   UNL     1       3.859 -18.765  15.156  1.00  0.00     0.157 A 
BRANCH  16  19
ATOM     19  O   UNL     1       3.443 -18.546  17.535  1.00  0.00    -0.504 OA
ATOM     20  H   UNL     1       2.821 -18.686  18.323  1.00  0.00     0.293 HD
ENDBRANCH  16  19
BRANCH  18  21
ATOM     21  O   UNL     1       5.217 -18.988  15.381  1.00  0.00    -0.504 OA
ATOM     22  H   UNL     1       5.629 -19.911  15.315  1.00  0.00     0.293 HD
ENDBRANCH  18  21
ENDBRANCH   3  13
BRANCH   9  23
ATOM     23  O   UNL     1      -4.939 -15.683  14.089  1.00  0.00    -0.507 OA
ATOM     24  H   UNL     1      -4.991 -14.864  14.682  1.00  0.00     0.293 HD
ENDBRANCH   9  23
BRANCH   7  25
ATOM     25  O   UNL     1      -3.154 -15.458   9.613  1.00  0.00    -0.508 OA
ATOM     26  H   UNL     1      -3.758 -14.692   9.339  1.00  0.00     0.293 HD
ENDBRANCH   7  25
TORSDOF 6
ENDMDL
MODEL 8
REMARK VINA RESULT:    -4.052      1.979      7.722
REMARK INTER + INTRA:          -5.077
REMARK INTER:                  -5.214
REMARK INTRA:                   0.137
REMARK UNBOUND:                -0.196
REMARK SMILES Oc1cc(O)c2c(c1)O[C@@H](c1ccc(O)c(O)c1)[C@H](O)C2
REMARK SMILES IDX 21 1 19 2 10 3 9 4 7 5 8 6 2 7 3 8 4 9 6 10 20 11 11 13
REMARK SMILES IDX 18 14 12 15 16 16 13 17 14 18 17 19 15 21 5 23 1 25
REMARK H PARENT 20 12 17 20 15 22 5 24 1 26
REMARK Flexibility Score: inf
ROOT
ATOM      1  C   UNL     1      -2.394 -18.130  10.796  1.00  0.00     0.079 C 
ATOM      2  C   UNL     1      -2.854 -17.604   9.422  1.00  0.00     0.164 C 
ATOM      3  C   UNL     1      -4.145 -16.776   9.572  1.00  0.00     0.232 C 
ATOM      4  O   UNL     1      -3.930 -15.715  10.501  1.00  0.00    -0.482 OA
ATOM      5  C   UNL     1      -3.160 -15.878  11.658  1.00  0.00     0.131 A 
ATOM      6  C   UNL     1      -3.148 -14.859  12.614  1.00  0.00     0.093 A 
ATOM      7  C   UNL     1      -2.402 -14.996  13.785  1.00  0.00     0.122 A 
ATOM      8  C   UNL     1      -1.669 -16.168  14.009  1.00  0.00     0.092 A 
ATOM      9  C   UNL     1      -1.668 -17.200  13.064  1.00  0.00     0.126 A 
ATOM     10  C   UNL     1      -2.389 -17.046  11.855  1.00  0.00     0.039 A 
ENDROOT
BRANCH   2  11
ATOM     11  O   UNL     1      -3.027 -18.668   8.519  1.00  0.00    -0.389 OA
ATOM     12  H   UNL     1      -2.414 -18.516   7.753  1.00  0.00     0.211 HD
ENDBRANCH   2  11
BRANCH   3  13
ATOM     13  C   UNL     1      -4.585 -16.207   8.243  1.00  0.00    -0.001 A 
ATOM     14  C   UNL     1      -4.589 -14.818   8.027  1.00  0.00     0.057 A 
ATOM     15  C   UNL     1      -4.949 -17.064   7.193  1.00  0.00     0.012 A 
ATOM     16  C   UNL     1      -4.970 -14.293   6.783  1.00  0.00     0.157 A 
ATOM     17  C   UNL     1      -5.330 -16.543   5.955  1.00  0.00     0.050 A 
ATOM     18  C   UNL     1      -5.344 -15.161   5.743  1.00  0.00     0.157 A 
BRANCH  16  19
ATOM     19  O   UNL     1      -4.976 -12.914   6.579  1.00  0.00    -0.504 OA
ATOM     20  H   UNL     1      -5.433 -12.498   5.775  1.00  0.00     0.293 HD
ENDBRANCH  16  19
BRANCH  18  21
ATOM     21  O   UNL     1      -5.730 -14.669   4.497  1.00  0.00    -0.504 OA
ATOM     22  H   UNL     1      -6.585 -14.140   4.368  1.00  0.00     0.293 HD
ENDBRANCH  18  21
ENDBRANCH   3  13
BRANCH   9  23
ATOM     23  O   UNL     1      -0.954 -18.362  13.362  1.00  0.00    -0.507 OA
ATOM     24  H   UNL     1      -0.111 -18.637  12.875  1.00  0.00     0.293 HD
ENDBRANCH   9  23
BRANCH   7  25
ATOM     25  O   UNL     1      -2.402 -13.968  14.725  1.00  0.00    -0.508 OA
ATOM     26  H   UNL     1      -2.983 -14.008  15.554  1.00  0.00     0.293 HD
ENDBRANCH   7  25
TORSDOF 6
ENDMDL
