MODEL 1
REMARK VINA RESULT:    32.042      0.000      0.000
REMARK INTER + INTRA:          39.070
REMARK INTER:                  38.599
REMARK INTRA:                   0.471
REMARK UNBOUND:                 0.471
REMARK SMILES O=c1c(O)c(-c2ccc(O)c(O)c2)oc2cc(O)cc(O)c12
REMARK SMILES IDX 5 1 3 2 2 3 1 4 22 5 20 6 19 7 17 8 16 9 15 10 14 11 6 12
REMARK SMILES IDX 7 13 8 14 9 15 13 16 11 17 10 18 12 20 4 22 21 24 18 26
REMARK H PARENT 10 19 12 21 4 23 21 25 18 27
REMARK Flexibility Score: inf
ROOT
ATOM      1  C   UNL     1      11.620  12.917  28.917  1.00  0.00     0.180 A 
ATOM      2  C   UNL     1      12.943  13.381  28.997  1.00  0.00     0.208 A 
ATOM      3  C   UNL     1      13.443  14.196  27.969  1.00  0.00     0.238 A 
ATOM      4  O   UNL     1      14.612  14.653  28.074  1.00  0.00    -0.285 OA
ATOM      5  C   UNL     1      12.618  14.525  26.868  1.00  0.00     0.111 A 
ATOM      6  C   UNL     1      13.033  15.311  25.750  1.00  0.00     0.134 A 
ATOM      7  C   UNL     1      12.093  15.683  24.781  1.00  0.00     0.093 A 
ATOM      8  C   UNL     1      10.769  15.242  24.854  1.00  0.00     0.123 A 
ATOM      9  C   UNL     1      10.370  14.425  25.909  1.00  0.00     0.094 A 
ATOM     10  C   UNL     1      11.275  14.068  26.910  1.00  0.00     0.146 A 
ATOM     11  O   UNL     1      10.850  13.297  27.904  1.00  0.00    -0.452 OA
ENDROOT
BRANCH   1  12
ATOM     12  C   UNL     1      11.030  12.033  29.949  1.00  0.00     0.025 A 
ATOM     13  C   UNL     1      11.781  11.597  31.055  1.00  0.00     0.016 A 
ATOM     14  C   UNL     1      11.211  10.743  32.003  1.00  0.00     0.051 A 
ATOM     15  C   UNL     1       9.890  10.303  31.855  1.00  0.00     0.157 A 
ATOM     16  C   UNL     1       9.713  11.572  29.793  1.00  0.00     0.062 A 
ATOM     17  C   UNL     1       9.139  10.717  30.742  1.00  0.00     0.158 A 
BRANCH  15  18
ATOM     18  O   UNL     1       9.323   9.453  32.803  1.00  0.00    -0.504 OA
ATOM     19  H   UNL     1       9.039   8.509  32.568  1.00  0.00     0.293 HD
ENDBRANCH  15  18
BRANCH  17  20
ATOM     20  O   UNL     1       7.823  10.290  30.561  1.00  0.00    -0.504 OA
ATOM     21  H   UNL     1       7.030  10.876  30.792  1.00  0.00     0.293 HD
ENDBRANCH  17  20
ENDBRANCH   1  12
BRANCH   2  22
ATOM     22  O   UNL     1      13.735  13.062  30.104  1.00  0.00    -0.502 OA
ATOM     23  H   UNL     1      14.570  12.494  30.031  1.00  0.00     0.293 HD
ENDBRANCH   2  22
BRANCH   6  24
ATOM     24  O   UNL     1      14.349  15.726  25.534  1.00  0.00    -0.507 OA
ATOM     25  H   UNL     1      15.139  15.452  26.100  1.00  0.00     0.293 HD
ENDBRANCH   6  24
BRANCH   8  26
ATOM     26  O   UNL     1       9.845  15.603  23.875  1.00  0.00    -0.508 OA
ATOM     27  H   UNL     1       9.043  15.022  23.664  1.00  0.00     0.293 HD
ENDBRANCH   8  26
TORSDOF 6
ENDMDL
MODEL 2
REMARK VINA RESULT:    32.250      0.923      1.193
REMARK INTER + INTRA:          39.320
REMARK INTER:                  39.607
REMARK INTRA:                  -0.288
REMARK UNBOUND:                 0.471
REMARK SMILES O=c1c(O)c(-c2ccc(O)c(O)c2)oc2cc(O)cc(O)c12
REMARK SMILES IDX 5 1 3 2 2 3 1 4 22 5 20 6 19 7 17 8 16 9 15 10 14 11 6 12
REMARK SMILES IDX 7 13 8 14 9 15 13 16 11 17 10 18 12 20 4 22 21 24 18 26
REMARK H PARENT 10 19 12 21 4 23 21 25 18 27
REMARK Flexibility Score: inf
ROOT
ATOM      1  C   UNL     1      11.475  12.703  28.908  1.00  0.00     0.180 A 
ATOM      2  C   UNL     1      12.775  13.192  29.116  1.00  0.00     0.208 A 
ATOM      3  C   UNL     1      13.331  14.070  28.172  1.00  0.00     0.238 A 
ATOM      4  O   UNL     1      14.475  14.548  28.392  1.00  0.00    -0.285 OA
ATOM      5  C   UNL     1      12.587  14.434  27.025  1.00  0.00     0.111 A 
ATOM      6  C   UNL     1      13.067  15.285  25.983  1.00  0.00     0.134 A 
ATOM      7  C   UNL     1      12.197  15.683  24.961  1.00  0.00     0.093 A 
ATOM      8  C   UNL     1      10.884  15.208  24.906  1.00  0.00     0.123 A 
ATOM      9  C   UNL     1      10.426  14.330  25.885  1.00  0.00     0.094 A 
ATOM     10  C   UNL     1      11.258  13.944  26.937  1.00  0.00     0.146 A 
ATOM     11  O   UNL     1      10.777  13.115  27.855  1.00  0.00    -0.452 OA
ENDROOT
BRANCH   1  12
ATOM     12  C   UNL     1      10.830  11.754  29.844  1.00  0.00     0.025 A 
ATOM     13  C   UNL     1       9.904  12.192  30.808  1.00  0.00     0.016 A 
ATOM     14  C   UNL     1       9.327  11.282  31.698  1.00  0.00     0.051 A 
ATOM     15  C   UNL     1       9.673   9.925  31.646  1.00  0.00     0.157 A 
ATOM     16  C   UNL     1      11.190  10.396  29.810  1.00  0.00     0.062 A 
ATOM     17  C   UNL     1      10.612   9.482  30.699  1.00  0.00     0.158 A 
BRANCH  15  18
ATOM     18  O   UNL     1       9.093   9.020  32.533  1.00  0.00    -0.504 OA
ATOM     19  H   UNL     1       9.265   9.069  33.530  1.00  0.00     0.293 HD
ENDBRANCH  15  18
BRANCH  17  20
ATOM     20  O   UNL     1      10.984   8.140  30.627  1.00  0.00    -0.504 OA
ATOM     21  H   UNL     1      10.301   7.395  30.562  1.00  0.00     0.293 HD
ENDBRANCH  17  20
ENDBRANCH   1  12
BRANCH   2  22
ATOM     22  O   UNL     1      13.485  12.837  30.266  1.00  0.00    -0.502 OA
ATOM     23  H   UNL     1      13.345  13.299  31.157  1.00  0.00     0.293 HD
ENDBRANCH   2  22
BRANCH   6  24
ATOM     24  O   UNL     1      14.385  15.741  25.894  1.00  0.00    -0.507 OA
ATOM     25  H   UNL     1      14.995  15.896  26.683  1.00  0.00     0.293 HD
ENDBRANCH   6  24
BRANCH   8  26
ATOM     26  O   UNL     1      10.031  15.596  23.875  1.00  0.00    -0.508 OA
ATOM     27  H   UNL     1       9.248  16.217  24.041  1.00  0.00     0.293 HD
ENDBRANCH   8  26
TORSDOF 6
ENDMDL
MODEL 3
REMARK VINA RESULT:    33.061      1.224      1.824
REMARK INTER + INTRA:          40.297
REMARK INTER:                  40.020
REMARK INTRA:                   0.277
REMARK UNBOUND:                 0.471
REMARK SMILES O=c1c(O)c(-c2ccc(O)c(O)c2)oc2cc(O)cc(O)c12
REMARK SMILES IDX 5 1 3 2 2 3 1 4 22 5 20 6 19 7 17 8 16 9 15 10 14 11 6 12
REMARK SMILES IDX 7 13 8 14 9 15 13 16 11 17 10 18 12 20 4 22 21 24 18 26
REMARK H PARENT 10 19 12 21 4 23 21 25 18 27
REMARK Flexibility Score: inf
ROOT
ATOM      1  C   UNL     1      11.115  12.273  29.753  1.00  0.00     0.180 A 
ATOM      2  C   UNL     1      12.370  12.780  30.128  1.00  0.00     0.208 A 
ATOM      3  C   UNL     1      13.069  13.602  29.230  1.00  0.00     0.238 A 
ATOM      4  O   UNL     1      14.168  14.098  29.594  1.00  0.00    -0.285 OA
ATOM      5  C   UNL     1      12.511  13.894  27.963  1.00  0.00     0.111 A 
ATOM      6  C   UNL     1      13.149  14.683  26.958  1.00  0.00     0.134 A 
ATOM      7  C   UNL     1      12.448  15.015  25.792  1.00  0.00     0.093 A 
ATOM      8  C   UNL     1      11.157  14.531  25.565  1.00  0.00     0.123 A 
ATOM      9  C   UNL     1      10.550  13.711  26.513  1.00  0.00     0.094 A 
ATOM     10  C   UNL     1      11.209  13.393  27.702  1.00  0.00     0.146 A 
ATOM     11  O   UNL     1      10.589  12.618  28.584  1.00  0.00    -0.452 OA
ENDROOT
BRANCH   1  12
ATOM     12  C   UNL     1      10.330  11.379  30.635  1.00  0.00     0.025 A 
ATOM     13  C   UNL     1       9.495  10.379  30.107  1.00  0.00     0.016 A 
ATOM     14  C   UNL     1       8.745   9.563  30.958  1.00  0.00     0.051 A 
ATOM     15  C   UNL     1       8.809   9.740  32.346  1.00  0.00     0.157 A 
ATOM     16  C   UNL     1      10.375  11.567  32.027  1.00  0.00     0.062 A 
ATOM     17  C   UNL     1       9.626  10.750  32.882  1.00  0.00     0.158 A 
BRANCH  15  18
ATOM     18  O   UNL     1       8.062   8.923  33.192  1.00  0.00    -0.504 OA
ATOM     19  H   UNL     1       7.174   9.226  33.576  1.00  0.00     0.293 HD
ENDBRANCH  15  18
BRANCH  17  20
ATOM     20  O   UNL     1       9.705  10.957  34.259  1.00  0.00    -0.504 OA
ATOM     21  H   UNL     1       9.160  11.670  34.728  1.00  0.00     0.293 HD
ENDBRANCH  17  20
ENDBRANCH   1  12
BRANCH   2  22
ATOM     22  O   UNL     1      12.894  12.498  31.393  1.00  0.00    -0.502 OA
ATOM     23  H   UNL     1      13.633  13.049  31.812  1.00  0.00     0.293 HD
ENDBRANCH   2  22
BRANCH   6  24
ATOM     24  O   UNL     1      14.467  15.139  27.045  1.00  0.00    -0.507 OA
ATOM     25  H   UNL     1      14.806  15.792  27.736  1.00  0.00     0.293 HD
ENDBRANCH   6  24
BRANCH   8  26
ATOM     26  O   UNL     1      10.473  14.853  24.394  1.00  0.00    -0.508 OA
ATOM     27  H   UNL     1       9.466  14.772  24.330  1.00  0.00     0.293 HD
ENDBRANCH   8  26
TORSDOF 6
ENDMDL
MODEL 4
REMARK VINA RESULT:    33.712      1.821      3.348
REMARK INTER + INTRA:          41.080
REMARK INTER:                  40.783
REMARK INTRA:                   0.297
REMARK UNBOUND:                 0.471
REMARK SMILES O=c1c(O)c(-c2ccc(O)c(O)c2)oc2cc(O)cc(O)c12
REMARK SMILES IDX 5 1 3 2 2 3 1 4 22 5 20 6 19 7 17 8 16 9 15 10 14 11 6 12
REMARK SMILES IDX 7 13 8 14 9 15 13 16 11 17 10 18 12 20 4 22 21 24 18 26
REMARK H PARENT 10 19 12 21 4 23 21 25 18 27
REMARK Flexibility Score: inf
ROOT
ATOM      1  C   UNL     1      10.207  11.263  30.556  1.00  0.00     0.180 A 
ATOM      2  C   UNL     1      11.253  11.704  31.384  1.00  0.00     0.208 A 
ATOM      3  C   UNL     1      12.203  12.598  30.864  1.00  0.00     0.238 A 
ATOM      4  O   UNL     1      13.105  13.032  31.628  1.00  0.00    -0.285 OA
ATOM      5  C   UNL     1      12.105  13.025  29.519  1.00  0.00     0.111 A 
ATOM      6  C   UNL     1      13.034  13.897  28.876  1.00  0.00     0.134 A 
ATOM      7  C   UNL     1      12.766  14.358  27.581  1.00  0.00     0.093 A 
ATOM      8  C   UNL     1      11.636  13.926  26.881  1.00  0.00     0.123 A 
ATOM      9  C   UNL     1      10.756  13.028  27.479  1.00  0.00     0.094 A 
ATOM     10  C   UNL     1      10.976  12.580  28.783  1.00  0.00     0.146 A 
ATOM     11  O   UNL     1      10.105  11.733  29.319  1.00  0.00    -0.452 OA
ENDROOT
BRANCH   1  12
ATOM     12  C   UNL     1       9.183  10.301  31.025  1.00  0.00     0.025 A 
ATOM     13  C   UNL     1       7.857  10.362  30.562  1.00  0.00     0.016 A 
ATOM     14  C   UNL     1       6.901   9.459  31.036  1.00  0.00     0.051 A 
ATOM     15  C   UNL     1       7.252   8.492  31.986  1.00  0.00     0.157 A 
ATOM     16  C   UNL     1       9.525   9.343  31.993  1.00  0.00     0.062 A 
ATOM     17  C   UNL     1       8.570   8.437  32.469  1.00  0.00     0.158 A 
BRANCH  15  18
ATOM     18  O   UNL     1       6.297   7.591  32.455  1.00  0.00    -0.504 OA
ATOM     19  H   UNL     1       6.082   7.512  33.442  1.00  0.00     0.293 HD
ENDBRANCH  15  18
BRANCH  17  20
ATOM     20  O   UNL     1       8.950   7.491  33.421  1.00  0.00    -0.504 OA
ATOM     21  H   UNL     1       8.784   7.627  34.411  1.00  0.00     0.293 HD
ENDBRANCH  17  20
ENDBRANCH   1  12
BRANCH   2  22
ATOM     22  O   UNL     1      11.319  11.287  32.717  1.00  0.00    -0.502 OA
ATOM     23  H   UNL     1      11.506  11.926  33.479  1.00  0.00     0.293 HD
ENDBRANCH   2  22
BRANCH   6  24
ATOM     24  O   UNL     1      14.237  14.316  29.450  1.00  0.00    -0.507 OA
ATOM     25  H   UNL     1      15.092  14.480  28.939  1.00  0.00     0.293 HD
ENDBRANCH   6  24
BRANCH   8  26
ATOM     26  O   UNL     1      11.387  14.377  25.587  1.00  0.00    -0.508 OA
ATOM     27  H   UNL     1      11.266  13.732  24.815  1.00  0.00     0.293 HD
ENDBRANCH   8  26
TORSDOF 6
ENDMDL
MODEL 5
REMARK VINA RESULT:    33.814      3.162      4.227
REMARK INTER + INTRA:          41.203
REMARK INTER:                  40.967
REMARK INTRA:                   0.237
REMARK UNBOUND:                 0.471
REMARK SMILES O=c1c(O)c(-c2ccc(O)c(O)c2)oc2cc(O)cc(O)c12
REMARK SMILES IDX 5 1 3 2 2 3 1 4 22 5 20 6 19 7 17 8 16 9 15 10 14 11 6 12
REMARK SMILES IDX 7 13 8 14 9 15 13 16 11 17 10 18 12 20 4 22 21 24 18 26
REMARK H PARENT 10 19 12 21 4 23 21 25 18 27
REMARK Flexibility Score: inf
ROOT
ATOM      1  C   UNL     1      10.740  11.379  31.171  1.00  0.00     0.180 A 
ATOM      2  C   UNL     1      11.483  10.874  30.091  1.00  0.00     0.208 A 
ATOM      3  C   UNL     1      12.479  11.678  29.514  1.00  0.00     0.238 A 
ATOM      4  O   UNL     1      13.177  11.199  28.582  1.00  0.00    -0.285 OA
ATOM      5  C   UNL     1      12.709  12.981  30.014  1.00  0.00     0.111 A 
ATOM      6  C   UNL     1      13.665  13.898  29.480  1.00  0.00     0.134 A 
ATOM      7  C   UNL     1      13.899  15.112  30.137  1.00  0.00     0.093 A 
ATOM      8  C   UNL     1      13.165  15.472  31.271  1.00  0.00     0.123 A 
ATOM      9  C   UNL     1      12.188  14.610  31.763  1.00  0.00     0.094 A 
ATOM     10  C   UNL     1      11.957  13.376  31.151  1.00  0.00     0.146 A 
ATOM     11  O   UNL     1      11.024  12.580  31.661  1.00  0.00    -0.452 OA
ENDROOT
BRANCH   1  12
ATOM     12  C   UNL     1       9.657  10.601  31.816  1.00  0.00     0.025 A 
ATOM     13  C   UNL     1       9.446  10.653  33.205  1.00  0.00     0.016 A 
ATOM     14  C   UNL     1       8.432   9.891  33.794  1.00  0.00     0.051 A 
ATOM     15  C   UNL     1       7.624   9.060  33.007  1.00  0.00     0.157 A 
ATOM     16  C   UNL     1       8.857   9.751  31.034  1.00  0.00     0.062 A 
ATOM     17  C   UNL     1       7.841   8.988  31.621  1.00  0.00     0.158 A 
BRANCH  15  18
ATOM     18  O   UNL     1       6.612   8.305  33.597  1.00  0.00    -0.504 OA
ATOM     19  H   UNL     1       6.604   8.114  34.592  1.00  0.00     0.293 HD
ENDBRANCH  15  18
BRANCH  17  20
ATOM     20  O   UNL     1       7.059   8.164  30.811  1.00  0.00    -0.504 OA
ATOM     21  H   UNL     1       6.069   8.026  30.980  1.00  0.00     0.293 HD
ENDBRANCH  17  20
ENDBRANCH   1  12
BRANCH   2  22
ATOM     22  O   UNL     1      11.254   9.576  29.626  1.00  0.00    -0.502 OA
ATOM     23  H   UNL     1      11.944   8.839  29.706  1.00  0.00     0.293 HD
ENDBRANCH   2  22
BRANCH   6  24
ATOM     24  O   UNL     1      14.385  13.676  28.304  1.00  0.00    -0.507 OA
ATOM     25  H   UNL     1      14.670  12.769  27.965  1.00  0.00     0.293 HD
ENDBRANCH   6  24
BRANCH   8  26
ATOM     26  O   UNL     1      13.393  16.690  31.908  1.00  0.00    -0.508 OA
ATOM     27  H   UNL     1      14.239  17.222  31.746  1.00  0.00     0.293 HD
ENDBRANCH   8  26
TORSDOF 6
ENDMDL
MODEL 6
REMARK VINA RESULT:    33.920      2.818      4.449
REMARK INTER + INTRA:          41.331
REMARK INTER:                  41.655
REMARK INTRA:                  -0.324
REMARK UNBOUND:                 0.471
REMARK SMILES O=c1c(O)c(-c2ccc(O)c(O)c2)oc2cc(O)cc(O)c12
REMARK SMILES IDX 5 1 3 2 2 3 1 4 22 5 20 6 19 7 17 8 16 9 15 10 14 11 6 12
REMARK SMILES IDX 7 13 8 14 9 15 13 16 11 17 10 18 12 20 4 22 21 24 18 26
REMARK H PARENT 10 19 12 21 4 23 21 25 18 27
REMARK Flexibility Score: inf
ROOT
ATOM      1  C   UNL     1      10.416  11.072  30.805  1.00  0.00     0.180 A 
ATOM      2  C   UNL     1      10.110  12.322  30.244  1.00  0.00     0.208 A 
ATOM      3  C   UNL     1      11.119  13.034  29.574  1.00  0.00     0.238 A 
ATOM      4  O   UNL     1      10.825  14.129  29.026  1.00  0.00    -0.285 OA
ATOM      5  C   UNL     1      12.423  12.493  29.489  1.00  0.00     0.111 A 
ATOM      6  C   UNL     1      13.532  13.145  28.870  1.00  0.00     0.134 A 
ATOM      7  C   UNL     1      14.745  12.459  28.728  1.00  0.00     0.093 A 
ATOM      8  C   UNL     1      14.909  11.170  29.243  1.00  0.00     0.123 A 
ATOM      9  C   UNL     1      13.851  10.550  29.902  1.00  0.00     0.094 A 
ATOM     10  C   UNL     1      12.618  11.194  30.026  1.00  0.00     0.146 A 
ATOM     11  O   UNL     1      11.632  10.561  30.651  1.00  0.00    -0.452 OA
ENDROOT
BRANCH   1  12
ATOM     12  C   UNL     1       9.413  10.274  31.548  1.00  0.00     0.025 A 
ATOM     13  C   UNL     1       9.299  10.362  32.946  1.00  0.00     0.016 A 
ATOM     14  C   UNL     1       8.361   9.581  33.629  1.00  0.00     0.051 A 
ATOM     15  C   UNL     1       7.533   8.696  32.927  1.00  0.00     0.157 A 
ATOM     16  C   UNL     1       8.595   9.370  30.851  1.00  0.00     0.062 A 
ATOM     17  C   UNL     1       7.654   8.588  31.531  1.00  0.00     0.158 A 
BRANCH  15  18
ATOM     18  O   UNL     1       6.597   7.921  33.610  1.00  0.00    -0.504 OA
ATOM     19  H   UNL     1       5.805   8.340  34.083  1.00  0.00     0.293 HD
ENDBRANCH  15  18
BRANCH  17  20
ATOM     20  O   UNL     1       6.850   7.710  30.804  1.00  0.00    -0.504 OA
ATOM     21  H   UNL     1       6.369   7.994  29.960  1.00  0.00     0.293 HD
ENDBRANCH  17  20
ENDBRANCH   1  12
BRANCH   2  22
ATOM     22  O   UNL     1       8.810  12.829  30.320  1.00  0.00    -0.502 OA
ATOM     23  H   UNL     1       8.018  12.258  30.589  1.00  0.00     0.293 HD
ENDBRANCH   2  22
BRANCH   6  24
ATOM     24  O   UNL     1      13.503  14.462  28.404  1.00  0.00    -0.507 OA
ATOM     25  H   UNL     1      12.681  14.929  28.050  1.00  0.00     0.293 HD
ENDBRANCH   6  24
BRANCH   8  26
ATOM     26  O   UNL     1      16.125  10.502  29.112  1.00  0.00    -0.508 OA
ATOM     27  H   UNL     1      17.008  10.974  29.266  1.00  0.00     0.293 HD
ENDBRANCH   8  26
TORSDOF 6
ENDMDL
