MODEL 1
REMARK VINA RESULT:    -3.898      0.000      0.000
REMARK INTER + INTRA:          -2.367
REMARK INTER:                  -4.809
REMARK INTRA:                   2.442
REMARK UNBOUND:                 2.442
REMARK SMILES C=C1CC[C@H]2[C@@H]([C@H]3[C@H](C)CC[C@@H]13)C2(C)C
REMARK SMILES IDX 3 1 2 2 1 3 12 4 9 5 8 6 10 7 7 8 11 9 4 11 5 12 6 13 13 14
REMARK SMILES IDX 14 16 15 17
REMARK H PARENT
REMARK Flexibility Score: 80.00
ROOT
ATOM      1  C   UNL     1      32.123  26.029  10.100  1.00  0.00     0.031 C 
ENDROOT
BRANCH   1   2
ATOM      2  C   UNL     1      31.564  24.756  10.695  1.00  0.00    -0.074 C 
ATOM      3  C   UNL     1      31.253  23.728   9.884  1.00  0.00     0.008 C 
BRANCH   2   4
ATOM      4  C   UNL     1      31.226  24.752  12.183  1.00  0.00     0.018 C 
ATOM      5  C   UNL     1      27.719  23.975  13.372  1.00  0.00     0.008 C 
ATOM      6  C   UNL     1      29.005  23.859  12.541  1.00  0.00    -0.010 C 
ATOM      7  C   UNL     1      29.988  22.846  13.134  1.00  0.00     0.004 C 
ATOM      8  C   UNL     1      29.772  25.186  12.446  1.00  0.00     0.003 CG0
ATOM      9  C   UNL     1      31.391  23.387  12.869  1.00  0.00     0.008 C 
ATOM     10  G   UNL     1      29.106  26.131  11.386  1.00  0.00     0.000 G0
ENDBRANCH   2   4
ENDBRANCH   1   2
BRANCH   1  11
ATOM     11  C   UNL     1      31.448  27.274  10.694  1.00  0.00     0.009 C 
BRANCH  11  12
ATOM     12  C   UNL     1      29.912  27.198  10.564  1.00  0.00    -0.001 C 
ATOM     13  C   UNL     1      29.120  26.151  11.388  1.00  0.00     0.002 CG0
ATOM     14  C   UNL     1      29.004  27.656  11.717  1.00  0.00    -0.029 C 
ATOM     15  G   UNL     1      29.778  25.203  12.450  1.00  0.00     0.000 G0
ATOM     16  C   UNL     1      27.698  28.321  11.265  1.00  0.00     0.011 C 
ATOM     17  C   UNL     1      29.648  28.259  12.981  1.00  0.00     0.011 C 
ENDBRANCH  11  12
ENDBRANCH   1  11
TORSDOF 0
ENDMDL
MODEL 2
REMARK VINA RESULT:    -3.748      1.293      4.744
REMARK INTER + INTRA:          -2.182
REMARK INTER:                  -4.636
REMARK INTRA:                   2.454
REMARK UNBOUND:                 2.442
REMARK SMILES C=C1CC[C@H]2[C@@H]([C@H]3[C@H](C)CC[C@@H]13)C2(C)C
REMARK SMILES IDX 3 1 2 2 1 3 12 4 9 5 8 6 10 7 7 8 11 9 4 11 5 12 6 13 13 14
REMARK SMILES IDX 14 16 15 17
REMARK H PARENT
REMARK Flexibility Score: 80.00
ROOT
ATOM      1  C   UNL     1      27.783  23.744  13.549  1.00  0.00     0.031 C 
ENDROOT
BRANCH   1   2
ATOM      2  C   UNL     1      28.102  24.630  12.364  1.00  0.00    -0.074 C 
ATOM      3  C   UNL     1      27.359  24.533  11.246  1.00  0.00     0.008 C 
BRANCH   2   4
ATOM      4  C   UNL     1      29.363  25.488  12.434  1.00  0.00     0.018 C 
ATOM      5  C   UNL     1      32.094  25.135   9.840  1.00  0.00     0.008 C 
ATOM      6  C   UNL     1      30.674  25.226  10.417  1.00  0.00    -0.010 C 
ATOM      7  C   UNL     1      30.138  26.660  10.411  1.00  0.00     0.004 C 
ATOM      8  C   UNL     1      30.594  24.751  11.875  1.00  0.00     0.003 CG0
ATOM      9  C   UNL     1      29.273  26.812  11.661  1.00  0.00     0.008 C 
ATOM     10  G   UNL     1      30.581  23.185  11.944  1.00  0.00     0.000 G0
ENDBRANCH   2   4
ENDBRANCH   1   2
BRANCH   1  11
ATOM     11  C   UNL     1      29.053  23.117  14.143  1.00  0.00     0.009 C 
BRANCH  11  12
ATOM     12  C   UNL     1      29.871  22.375  13.065  1.00  0.00    -0.001 C 
ATOM     13  C   UNL     1      30.579  23.178  11.945  1.00  0.00     0.002 CG0
ATOM     14  C   UNL     1      31.406  22.470  13.041  1.00  0.00    -0.029 C 
ATOM     15  G   UNL     1      30.605  24.745  11.884  1.00  0.00     0.000 G0
ATOM     16  C   UNL     1      32.111  21.185  12.595  1.00  0.00     0.011 C 
ATOM     17  C   UNL     1      32.121  23.264  14.152  1.00  0.00     0.011 C 
ENDBRANCH  11  12
ENDBRANCH   1  11
TORSDOF 0
ENDMDL
MODEL 3
REMARK VINA RESULT:    -3.350      1.231      3.810
REMARK INTER + INTRA:          -1.691
REMARK INTER:                  -4.212
REMARK INTRA:                   2.521
REMARK UNBOUND:                 2.442
REMARK SMILES C=C1CC[C@H]2[C@@H]([C@H]3[C@H](C)CC[C@@H]13)C2(C)C
REMARK SMILES IDX 3 1 2 2 1 3 12 4 9 5 8 6 10 7 7 8 11 9 4 11 5 12 6 13 13 14
REMARK SMILES IDX 14 16 15 17
REMARK H PARENT
REMARK Flexibility Score: 80.00
ROOT
ATOM      1  C   UNL     1      32.050  24.569  12.486  1.00  0.00     0.031 C 
ENDROOT
BRANCH   1   2
ATOM      2  C   UNL     1      31.803  26.057  12.375  1.00  0.00    -0.074 C 
ATOM      3  C   UNL     1      32.123  26.859  13.407  1.00  0.00     0.008 C 
BRANCH   2   4
ATOM      4  C   UNL     1      31.049  26.565  11.149  1.00  0.00     0.018 C 
ATOM      5  C   UNL     1      27.809  28.481  11.523  1.00  0.00     0.008 C 
ATOM      6  C   UNL     1      29.249  28.038  11.817  1.00  0.00    -0.010 C 
ATOM      7  C   UNL     1      30.281  28.905  11.090  1.00  0.00     0.004 C 
ATOM      8  C   UNL     1      29.527  26.593  11.378  1.00  0.00     0.003 CG0
ATOM      9  C   UNL     1      31.438  27.984  10.708  1.00  0.00     0.008 C 
ATOM     10  G   UNL     1      28.943  25.580  12.423  1.00  0.00     0.000 G0
ENDBRANCH   2   4
ENDBRANCH   1   2
BRANCH   1  11
ATOM     11  C   UNL     1      30.836  23.757  12.011  1.00  0.00     0.009 C 
BRANCH  11  12
ATOM     12  C   UNL     1      29.545  24.204  12.728  1.00  0.00    -0.001 C 
ATOM     13  C   UNL     1      28.946  25.603  12.436  1.00  0.00     0.002 CG0
ATOM     14  C   UNL     1      28.221  24.327  11.956  1.00  0.00    -0.029 C 
ATOM     15  G   UNL     1      29.521  26.587  11.358  1.00  0.00     0.000 G0
ATOM     16  C   UNL     1      26.979  23.940  12.767  1.00  0.00     0.011 C 
ATOM     17  C   UNL     1      28.186  23.929  10.467  1.00  0.00     0.011 C 
ENDBRANCH  11  12
ENDBRANCH   1  11
TORSDOF 0
ENDMDL
MODEL 4
REMARK VINA RESULT:    -1.768      1.548      4.143
REMARK INTER + INTRA:           0.261
REMARK INTER:                  -2.226
REMARK INTRA:                   2.487
REMARK UNBOUND:                 2.442
REMARK SMILES C=C1CC[C@H]2[C@@H]([C@H]3[C@H](C)CC[C@@H]13)C2(C)C
REMARK SMILES IDX 3 1 2 2 1 3 12 4 9 5 8 6 10 7 7 8 11 9 4 11 5 12 6 13 13 14
REMARK SMILES IDX 14 16 15 17
REMARK H PARENT
REMARK Flexibility Score: 80.00
ROOT
ATOM      1  C   UNL     1      31.412  25.393  10.990  1.00  0.00     0.031 C 
ENDROOT
BRANCH   1   2
ATOM      2  C   UNL     1      29.980  25.528  11.458  1.00  0.00    -0.074 C 
ATOM      3  C   UNL     1      29.590  26.658  12.077  1.00  0.00     0.008 C 
BRANCH   2   4
ATOM      4  C   UNL     1      29.076  24.303  11.349  1.00  0.00     0.018 C 
ATOM      5  C   UNL     1      27.420  22.836  14.418  1.00  0.00     0.008 C 
ATOM      6  C   UNL     1      27.935  23.907  13.446  1.00  0.00    -0.010 C 
ATOM      7  C   UNL     1      26.866  24.334  12.436  1.00  0.00     0.004 C 
ATOM      8  C   UNL     1      29.134  23.428  12.615  1.00  0.00     0.003 CG0
ATOM      9  C   UNL     1      27.591  24.628  11.125  1.00  0.00     0.008 C 
ATOM     10  G   UNL     1      30.451  23.487  13.464  1.00  0.00     0.000 G0
ENDBRANCH   2   4
ENDBRANCH   1   2
BRANCH   1  11
ATOM     11  C   UNL     1      31.992  24.014  11.334  1.00  0.00     0.009 C 
BRANCH  11  12
ATOM     12  C   UNL     1      31.858  23.707  12.841  1.00  0.00    -0.001 C 
ATOM     13  C   UNL     1      30.455  23.475  13.458  1.00  0.00     0.002 CG0
ATOM     14  C   UNL     1      31.453  22.304  13.323  1.00  0.00    -0.029 C 
ATOM     15  G   UNL     1      29.132  23.431  12.617  1.00  0.00     0.000 G0
ATOM     16  C   UNL     1      32.125  21.867  14.630  1.00  0.00     0.011 C 
ATOM     17  C   UNL     1      31.250  21.186  12.280  1.00  0.00     0.011 C 
ENDBRANCH  11  12
ENDBRANCH   1  11
TORSDOF 0
ENDMDL
MODEL 5
REMARK VINA RESULT:    -1.675      1.514      3.071
REMARK INTER + INTRA:           0.376
REMARK INTER:                  -2.106
REMARK INTRA:                   2.482
REMARK UNBOUND:                 2.442
REMARK SMILES C=C1CC[C@H]2[C@@H]([C@H]3[C@H](C)CC[C@@H]13)C2(C)C
REMARK SMILES IDX 3 1 2 2 1 3 12 4 9 5 8 6 10 7 7 8 11 9 4 11 5 12 6 13 13 14
REMARK SMILES IDX 14 16 15 17
REMARK H PARENT
REMARK Flexibility Score: 80.00
ROOT
ATOM      1  C   UNL     1      27.071  23.754  11.863  1.00  0.00     0.031 C 
ENDROOT
BRANCH   1   2
ATOM      2  C   UNL     1      28.317  23.439  12.661  1.00  0.00    -0.074 C 
ATOM      3  C   UNL     1      28.201  23.057  13.946  1.00  0.00     0.008 C 
BRANCH   2   4
ATOM      4  C   UNL     1      29.669  23.725  12.013  1.00  0.00     0.018 C 
ATOM      5  C   UNL     1      32.124  26.110  13.626  1.00  0.00     0.008 C 
ATOM      6  C   UNL     1      31.074  24.995  13.521  1.00  0.00    -0.010 C 
ATOM      7  C   UNL     1      31.712  23.609  13.386  1.00  0.00     0.004 C 
ATOM      8  C   UNL     1      30.156  25.158  12.301  1.00  0.00     0.003 CG0
ATOM      9  C   UNL     1      30.802  22.793  12.470  1.00  0.00     0.008 C 
ATOM     10  G   UNL     1      29.057  26.242  12.581  1.00  0.00     0.000 G0
ENDBRANCH   2   4
ENDBRANCH   1   2
BRANCH   1  11
ATOM     11  C   UNL     1      27.230  25.049  11.054  1.00  0.00     0.009 C 
BRANCH  11  12
ATOM     12  C   UNL     1      27.650  26.228  11.956  1.00  0.00    -0.001 C 
ATOM     13  C   UNL     1      29.062  26.246  12.594  1.00  0.00     0.002 CG0
ATOM     14  C   UNL     1      28.697  27.249  11.478  1.00  0.00    -0.029 C 
ATOM     15  G   UNL     1      30.162  25.168  12.299  1.00  0.00     0.000 G0
ATOM     16  C   UNL     1      28.441  28.684  11.951  1.00  0.00     0.011 C 
ATOM     17  C   UNL     1      29.271  27.116  10.053  1.00  0.00     0.011 C 
ENDBRANCH  11  12
ENDBRANCH   1  11
TORSDOF 0
ENDMDL
MODEL 6
REMARK VINA RESULT:    -1.596      1.369      2.077
REMARK INTER + INTRA:           0.473
REMARK INTER:                  -1.942
REMARK INTRA:                   2.415
REMARK UNBOUND:                 2.442
REMARK SMILES C=C1CC[C@H]2[C@@H]([C@H]3[C@H](C)CC[C@@H]13)C2(C)C
REMARK SMILES IDX 3 1 2 2 1 3 12 4 9 5 8 6 10 7 7 8 11 9 4 11 5 12 6 13 13 14
REMARK SMILES IDX 14 16 15 17
REMARK H PARENT
REMARK Flexibility Score: 80.00
ROOT
ATOM      1  C   UNL     1      32.056  24.724  13.174  1.00  0.00     0.031 C 
ENDROOT
BRANCH   1   2
ATOM      2  C   UNL     1      30.903  23.748  13.078  1.00  0.00    -0.074 C 
ATOM      3  C   UNL     1      31.081  22.576  12.441  1.00  0.00     0.008 C 
BRANCH   2   4
ATOM      4  C   UNL     1      29.536  24.210  13.573  1.00  0.00     0.018 C 
ATOM      5  C   UNL     1      26.546  24.243  11.255  1.00  0.00     0.008 C 
ATOM      6  C   UNL     1      27.836  23.738  11.916  1.00  0.00    -0.010 C 
ATOM      7  C   UNL     1      27.554  22.821  13.110  1.00  0.00     0.004 C 
ATOM      8  C   UNL     1      28.712  24.877  12.456  1.00  0.00     0.003 CG0
ATOM      9  C   UNL     1      28.652  23.087  14.137  1.00  0.00     0.008 C 
ATOM     10  G   UNL     1      29.511  25.557  11.290  1.00  0.00     0.000 G0
ENDBRANCH   2   4
ENDBRANCH   1   2
BRANCH   1  11
ATOM     11  C   UNL     1      31.611  26.158  12.853  1.00  0.00     0.009 C 
BRANCH  11  12
ATOM     12  C   UNL     1      30.907  26.235  11.482  1.00  0.00    -0.001 C 
ATOM     13  C   UNL     1      29.518  25.576  11.290  1.00  0.00     0.002 CG0
ATOM     14  C   UNL     1      29.660  27.113  11.287  1.00  0.00    -0.029 C 
ATOM     15  G   UNL     1      28.708  24.901  12.451  1.00  0.00     0.000 G0
ATOM     16  C   UNL     1      29.562  27.774   9.907  1.00  0.00     0.011 C 
ATOM     17  C   UNL     1      29.162  27.973  12.466  1.00  0.00     0.011 C 
ENDBRANCH  11  12
ENDBRANCH   1  11
TORSDOF 0
ENDMDL
MODEL 7
REMARK VINA RESULT:    -1.434      1.414      3.166
REMARK INTER + INTRA:           0.673
REMARK INTER:                  -1.762
REMARK INTRA:                   2.434
REMARK UNBOUND:                 2.442
REMARK SMILES C=C1CC[C@H]2[C@@H]([C@H]3[C@H](C)CC[C@@H]13)C2(C)C
REMARK SMILES IDX 3 1 2 2 1 3 12 4 9 5 8 6 10 7 7 8 11 9 4 11 5 12 6 13 13 14
REMARK SMILES IDX 14 16 15 17
REMARK H PARENT
REMARK Flexibility Score: 80.00
ROOT
ATOM      1  C   UNL     1      27.489  25.445  11.484  1.00  0.00     0.031 C 
ENDROOT
BRANCH   1   2
ATOM      2  C   UNL     1      27.922  24.315  12.392  1.00  0.00    -0.074 C 
ATOM      3  C   UNL     1      27.267  24.108  13.549  1.00  0.00     0.008 C 
BRANCH   2   4
ATOM      4  C   UNL     1      29.194  23.554  12.026  1.00  0.00     0.018 C 
ATOM      5  C   UNL     1      32.122  23.409  14.417  1.00  0.00     0.008 C 
ATOM      6  C   UNL     1      30.662  23.393  13.943  1.00  0.00    -0.010 C 
ATOM      7  C   UNL     1      30.164  21.975  13.650  1.00  0.00     0.004 C 
ATOM      8  C   UNL     1      30.449  24.192  12.649  1.00  0.00     0.003 CG0
ATOM      9  C   UNL     1      29.202  22.082  12.468  1.00  0.00     0.008 C 
ATOM     10  G   UNL     1      30.390  25.729  12.955  1.00  0.00     0.000 G0
ENDBRANCH   2   4
ENDBRANCH   1   2
BRANCH   1  11
ATOM     11  C   UNL     1      28.695  26.216  10.928  1.00  0.00     0.009 C 
BRANCH  11  12
ATOM     12  C   UNL     1      29.598  26.744  12.063  1.00  0.00    -0.001 C 
ATOM     13  C   UNL     1      30.409  25.747  12.929  1.00  0.00     0.002 CG0
ATOM     14  C   UNL     1      31.130  26.686  11.938  1.00  0.00    -0.029 C 
ATOM     15  G   UNL     1      30.455  24.202  12.662  1.00  0.00     0.000 G0
ATOM     16  C   UNL     1      31.860  27.872  12.579  1.00  0.00     0.011 C 
ATOM     17  C   UNL     1      31.752  26.158  10.630  1.00  0.00     0.011 C 
ENDBRANCH  11  12
ENDBRANCH   1  11
TORSDOF 0
ENDMDL
MODEL 8
REMARK VINA RESULT:    -1.010      1.441      3.538
REMARK INTER + INTRA:           1.196
REMARK INTER:                  -1.321
REMARK INTRA:                   2.517
REMARK UNBOUND:                 2.442
REMARK SMILES C=C1CC[C@H]2[C@@H]([C@H]3[C@H](C)CC[C@@H]13)C2(C)C
REMARK SMILES IDX 3 1 2 2 1 3 12 4 9 5 8 6 10 7 7 8 11 9 4 11 5 12 6 13 13 14
REMARK SMILES IDX 14 16 15 17
REMARK H PARENT
REMARK Flexibility Score: 80.00
ROOT
ATOM      1  C   UNL     1      28.072  27.591  11.680  1.00  0.00     0.031 C 
ENDROOT
BRANCH   1   2
ATOM      2  C   UNL     1      29.421  27.055  11.254  1.00  0.00    -0.074 C 
ATOM      3  C   UNL     1      29.881  27.328  10.019  1.00  0.00     0.008 C 
BRANCH   2   4
ATOM      4  C   UNL     1      30.134  26.089  12.196  1.00  0.00     0.018 C 
ATOM      5  C   UNL     1      31.045  22.596  11.063  1.00  0.00     0.008 C 
ATOM      6  C   UNL     1      30.858  24.118  10.992  1.00  0.00    -0.010 C 
ATOM      7  C   UNL     1      32.125  24.876  11.398  1.00  0.00     0.004 C 
ATOM      8  C   UNL     1      29.746  24.624  11.923  1.00  0.00     0.003 CG0
ATOM      9  C   UNL     1      31.668  26.143  12.119  1.00  0.00     0.008 C 
ATOM     10  G   UNL     1      28.336  24.366  11.286  1.00  0.00     0.000 G0
ENDBRANCH   2   4
ENDBRANCH   1   2
BRANCH   1  11
ATOM     11  C   UNL     1      27.235  26.515  12.389  1.00  0.00     0.009 C 
BRANCH  11  12
ATOM     12  C   UNL     1      27.107  25.242  11.525  1.00  0.00    -0.001 C 
ATOM     13  C   UNL     1      28.352  24.355  11.271  1.00  0.00     0.002 CG0
ATOM     14  C   UNL     1      27.199  23.847  12.165  1.00  0.00    -0.029 C 
ATOM     15  G   UNL     1      29.751  24.612  11.930  1.00  0.00     0.000 G0
ATOM     16  C   UNL     1      26.290  22.796  11.520  1.00  0.00     0.011 C 
ATOM     17  C   UNL     1      27.352  23.737  13.695  1.00  0.00     0.011 C 
ENDBRANCH  11  12
ENDBRANCH   1  11
TORSDOF 0
ENDMDL
MODEL 9
REMARK VINA RESULT:    -1.009      1.482      4.203
REMARK INTER + INTRA:           1.198
REMARK INTER:                  -1.098
REMARK INTRA:                   2.296
REMARK UNBOUND:                 2.442
REMARK SMILES C=C1CC[C@H]2[C@@H]([C@H]3[C@H](C)CC[C@@H]13)C2(C)C
REMARK SMILES IDX 3 1 2 2 1 3 12 4 9 5 8 6 10 7 7 8 11 9 4 11 5 12 6 13 13 14
REMARK SMILES IDX 14 16 15 17
REMARK H PARENT
REMARK Flexibility Score: 80.00
ROOT
ATOM      1  C   UNL     1      30.204  24.125   9.762  1.00  0.00     0.031 C 
ENDROOT
BRANCH   1   2
ATOM      2  C   UNL     1      30.651  25.515  10.157  1.00  0.00    -0.074 C 
ATOM      3  C   UNL     1      31.683  26.087   9.510  1.00  0.00     0.008 C 
BRANCH   2   4
ATOM      4  C   UNL     1      30.008  26.148  11.389  1.00  0.00     0.018 C 
ATOM      5  C   UNL     1      32.124  27.286  14.311  1.00  0.00     0.008 C 
ATOM      6  C   UNL     1      31.706  27.062  12.851  1.00  0.00    -0.010 C 
ATOM      7  C   UNL     1      30.927  28.252  12.282  1.00  0.00     0.004 C 
ATOM      8  C   UNL     1      30.796  25.838  12.675  1.00  0.00     0.003 CG0
ATOM      9  C   UNL     1      29.885  27.678  11.325  1.00  0.00     0.008 C 
ATOM     10  G   UNL     1      31.641  24.517  12.694  1.00  0.00     0.000 G0
ENDBRANCH   2   4
ENDBRANCH   1   2
BRANCH   1  11
ATOM     11  C   UNL     1      29.960  23.239  10.993  1.00  0.00     0.009 C 
BRANCH  11  12
ATOM     12  C   UNL     1      31.203  23.191  11.907  1.00  0.00    -0.001 C 
ATOM     13  C   UNL     1      31.634  24.458  12.688  1.00  0.00     0.002 CG0
ATOM     14  C   UNL     1      31.054  23.238  13.436  1.00  0.00    -0.029 C 
ATOM     15  G   UNL     1      30.817  25.796  12.693  1.00  0.00     0.000 G0
ATOM     16  C   UNL     1      32.082  22.392  14.197  1.00  0.00     0.011 C 
ATOM     17  C   UNL     1      29.639  23.263  14.048  1.00  0.00     0.011 C 
ENDBRANCH  11  12
ENDBRANCH   1  11
TORSDOF 0
ENDMDL
