MODEL 1
REMARK VINA RESULT:    -4.731      0.000      0.000
REMARK INTER + INTRA:          -7.388
REMARK INTER:                  -6.667
REMARK INTRA:                  -0.721
REMARK UNBOUND:                -0.721
REMARK SMILES COc1ccc(-c2cc(=O)c3c(OC)c(OC)c(OC)c(OC)c3o2)cc1OC
REMARK SMILES IDX 7 1 8 2 9 3 10 4 11 5 24 6 25 7 21 8 18 9 15 10 12 11 6 12
REMARK SMILES IDX 3 13 27 14 4 15 26 16 5 17 2 18 1 19 28 20 29 21 22 22 23 23
REMARK SMILES IDX 13 24 14 25 19 26 20 27 16 28 17 29
REMARK H PARENT
REMARK Flexibility Score: inf
ROOT
ATOM      1  C   UNL     1      10.518   0.262  14.106  1.00  0.00     0.138 A 
ATOM      2  C   UNL     1      10.698   1.076  12.983  1.00  0.00     0.100 A 
ATOM      3  C   UNL     1       9.653   1.886  12.553  1.00  0.00     0.197 A 
ATOM      4  O   UNL     1       9.830   2.618  11.543  1.00  0.00    -0.289 OA
ATOM      5  C   UNL     1       8.423   1.871  13.249  1.00  0.00     0.115 A 
ATOM      6  C   UNL     1       8.313   1.029  14.384  1.00  0.00     0.188 A 
ATOM      7  O   UNL     1       9.354   0.282  14.750  1.00  0.00    -0.452 OA
ATOM      8  C   UNL     1       7.104   0.980  15.126  1.00  0.00     0.209 A 
ATOM      9  C   UNL     1       6.005   1.773  14.709  1.00  0.00     0.211 A 
ATOM     10  C   UNL     1       6.114   2.583  13.572  1.00  0.00     0.208 A 
ATOM     11  C   UNL     1       7.327   2.673  12.866  1.00  0.00     0.179 A 
ENDROOT
BRANCH   1  12
ATOM     12  C   UNL     1      11.604  -0.615  14.607  1.00  0.00     0.021 A 
ATOM     13  C   UNL     1      13.683  -2.293  15.517  1.00  0.00     0.160 A 
ATOM     14  C   UNL     1      13.231  -1.238  16.326  1.00  0.00     0.161 A 
ATOM     15  C   UNL     1      13.095  -2.501  14.257  1.00  0.00     0.051 A 
ATOM     16  C   UNL     1      12.195  -0.401  15.865  1.00  0.00     0.062 A 
ATOM     17  C   UNL     1      12.072  -1.666  13.807  1.00  0.00     0.016 A 
BRANCH  13  18
ATOM     18  O   UNL     1      14.714  -3.113  16.003  1.00  0.00    -0.493 OA
ATOM     19  C   UNL     1      16.093  -2.945  15.690  1.00  0.00     0.278 C 
ENDBRANCH  13  18
BRANCH  14  20
ATOM     20  O   UNL     1      13.836  -1.057  17.582  1.00  0.00    -0.493 OA
ATOM     21  C   UNL     1      13.237  -1.407  18.826  1.00  0.00     0.278 C 
ENDBRANCH  14  20
ENDBRANCH   1  12
BRANCH   8  22
ATOM     22  O   UNL     1       6.941   0.155  16.255  1.00  0.00    -0.490 OA
ATOM     23  C   UNL     1       7.318   0.446  17.597  1.00  0.00     0.278 C 
ENDBRANCH   8  22
BRANCH  11  24
ATOM     24  O   UNL     1       7.450   3.562  11.793  1.00  0.00    -0.492 OA
ATOM     25  C   UNL     1       7.535   4.971  11.986  1.00  0.00     0.278 C 
ENDBRANCH  11  24
BRANCH   9  26
ATOM     26  O   UNL     1       4.760   1.798  15.369  1.00  0.00    -0.490 OA
ATOM     27  C   UNL     1       3.655   0.924  15.154  1.00  0.00     0.279 C 
ENDBRANCH   9  26
BRANCH  10  28
ATOM     28  O   UNL     1       4.982   3.294  13.159  1.00  0.00    -0.490 OA
ATOM     29  C   UNL     1       4.169   2.874  12.066  1.00  0.00     0.278 C 
ENDBRANCH  10  28
TORSDOF 7
ENDMDL
MODEL 2
REMARK VINA RESULT:    -4.464      1.235      3.475
REMARK INTER + INTRA:          -7.012
REMARK INTER:                  -6.245
REMARK INTRA:                  -0.767
REMARK UNBOUND:                -0.721
REMARK SMILES COc1ccc(-c2cc(=O)c3c(OC)c(OC)c(OC)c(OC)c3o2)cc1OC
REMARK SMILES IDX 7 1 8 2 9 3 10 4 11 5 24 6 25 7 21 8 18 9 15 10 12 11 6 12
REMARK SMILES IDX 3 13 27 14 4 15 26 16 5 17 2 18 1 19 28 20 29 21 22 22 23 23
REMARK SMILES IDX 13 24 14 25 19 26 20 27 16 28 17 29
REMARK H PARENT
REMARK Flexibility Score: inf
ROOT
ATOM      1  C   UNL     1       9.296   0.092  14.568  1.00  0.00     0.138 A 
ATOM      2  C   UNL     1       8.342  -0.037  15.582  1.00  0.00     0.100 A 
ATOM      3  C   UNL     1       7.156   0.685  15.499  1.00  0.00     0.197 A 
ATOM      4  O   UNL     1       6.303   0.556  16.417  1.00  0.00    -0.289 OA
ATOM      5  C   UNL     1       6.934   1.543  14.398  1.00  0.00     0.115 A 
ATOM      6  C   UNL     1       7.940   1.618  13.402  1.00  0.00     0.188 A 
ATOM      7  O   UNL     1       9.051   0.895  13.536  1.00  0.00    -0.452 OA
ATOM      8  C   UNL     1       7.767   2.457  12.271  1.00  0.00     0.209 A 
ATOM      9  C   UNL     1       6.583   3.229  12.157  1.00  0.00     0.211 A 
ATOM     10  C   UNL     1       5.605   3.167  13.159  1.00  0.00     0.208 A 
ATOM     11  C   UNL     1       5.751   2.298  14.254  1.00  0.00     0.179 A 
ENDROOT
BRANCH   1  12
ATOM     12  C   UNL     1      10.573  -0.661  14.608  1.00  0.00     0.021 A 
ATOM     13  C   UNL     1      12.998  -2.104  14.640  1.00  0.00     0.160 A 
ATOM     14  C   UNL     1      12.777  -1.089  15.584  1.00  0.00     0.161 A 
ATOM     15  C   UNL     1      12.008  -2.389  13.684  1.00  0.00     0.051 A 
ATOM     16  C   UNL     1      11.565  -0.369  15.562  1.00  0.00     0.062 A 
ATOM     17  C   UNL     1      10.813  -1.671  13.667  1.00  0.00     0.016 A 
BRANCH  13  18
ATOM     18  O   UNL     1      14.213  -2.806  14.688  1.00  0.00    -0.493 OA
ATOM     19  C   UNL     1      14.380  -4.090  15.281  1.00  0.00     0.278 C 
ENDBRANCH  13  18
BRANCH  14  20
ATOM     20  O   UNL     1      13.784  -0.828  16.530  1.00  0.00    -0.493 OA
ATOM     21  C   UNL     1      13.688  -1.133  17.918  1.00  0.00     0.278 C 
ENDBRANCH  14  20
ENDBRANCH   1  12
BRANCH   8  22
ATOM     22  O   UNL     1       8.738   2.574  11.258  1.00  0.00    -0.490 OA
ATOM     23  C   UNL     1       9.921   3.366  11.286  1.00  0.00     0.278 C 
ENDBRANCH   8  22
BRANCH  11  24
ATOM     24  O   UNL     1       4.721   2.173  15.193  1.00  0.00    -0.492 OA
ATOM     25  C   UNL     1       3.507   1.489  14.896  1.00  0.00     0.278 C 
ENDBRANCH  11  24
BRANCH   9  26
ATOM     26  O   UNL     1       6.311   4.095  11.079  1.00  0.00    -0.490 OA
ATOM     27  C   UNL     1       6.810   5.416  10.891  1.00  0.00     0.279 C 
ENDBRANCH   9  26
BRANCH  10  28
ATOM     28  O   UNL     1       4.486   3.998  13.037  1.00  0.00    -0.490 OA
ATOM     29  C   UNL     1       4.365   5.229  13.746  1.00  0.00     0.278 C 
ENDBRANCH  10  28
TORSDOF 7
ENDMDL
MODEL 3
REMARK VINA RESULT:    -4.352      2.244      8.821
REMARK INTER + INTRA:          -6.854
REMARK INTER:                  -6.140
REMARK INTRA:                  -0.714
REMARK UNBOUND:                -0.721
REMARK SMILES COc1ccc(-c2cc(=O)c3c(OC)c(OC)c(OC)c(OC)c3o2)cc1OC
REMARK SMILES IDX 7 1 8 2 9 3 10 4 11 5 24 6 25 7 21 8 18 9 15 10 12 11 6 12
REMARK SMILES IDX 3 13 27 14 4 15 26 16 5 17 2 18 1 19 28 20 29 21 22 22 23 23
REMARK SMILES IDX 13 24 14 25 19 26 20 27 16 28 17 29
REMARK H PARENT
REMARK Flexibility Score: inf
ROOT
ATOM      1  C   UNL     1      11.062  -0.764  14.707  1.00  0.00     0.138 A 
ATOM      2  C   UNL     1      12.011  -0.409  15.672  1.00  0.00     0.100 A 
ATOM      3  C   UNL     1      13.178  -1.156  15.788  1.00  0.00     0.197 A 
ATOM      4  O   UNL     1      14.026  -0.824  16.658  1.00  0.00    -0.289 OA
ATOM      5  C   UNL     1      13.388  -2.264  14.936  1.00  0.00     0.115 A 
ATOM      6  C   UNL     1      12.389  -2.561  13.975  1.00  0.00     0.188 A 
ATOM      7  O   UNL     1      11.296  -1.802  13.910  1.00  0.00    -0.452 OA
ATOM      8  C   UNL     1      12.551  -3.658  13.089  1.00  0.00     0.209 A 
ATOM      9  C   UNL     1      13.715  -4.460  13.187  1.00  0.00     0.211 A 
ATOM     10  C   UNL     1      14.685  -4.175  14.156  1.00  0.00     0.208 A 
ATOM     11  C   UNL     1      14.552  -3.059  15.001  1.00  0.00     0.179 A 
ENDROOT
BRANCH   1  12
ATOM     12  C   UNL     1       9.805   0.005  14.541  1.00  0.00     0.021 A 
ATOM     13  C   UNL     1       7.405   1.465  14.270  1.00  0.00     0.160 A 
ATOM     14  C   UNL     1       8.426   1.616  13.319  1.00  0.00     0.161 A 
ATOM     15  C   UNL     1       7.591   0.588  15.354  1.00  0.00     0.051 A 
ATOM     16  C   UNL     1       9.624   0.888  13.461  1.00  0.00     0.062 A 
ATOM     17  C   UNL     1       8.781  -0.128  15.488  1.00  0.00     0.016 A 
BRANCH  13  18
ATOM     18  O   UNL     1       6.222   2.202  14.102  1.00  0.00    -0.493 OA
ATOM     19  C   UNL     1       4.969   1.859  14.684  1.00  0.00     0.278 C 
ENDBRANCH  13  18
BRANCH  14  20
ATOM     20  O   UNL     1       8.211   2.498  12.246  1.00  0.00    -0.493 OA
ATOM     21  C   UNL     1       9.112   3.529  11.853  1.00  0.00     0.278 C 
ENDBRANCH  14  20
ENDBRANCH   1  12
BRANCH   8  22
ATOM     22  O   UNL     1      11.586  -3.999  12.122  1.00  0.00    -0.490 OA
ATOM     23  C   UNL     1      10.453  -4.844  12.295  1.00  0.00     0.278 C 
ENDBRANCH   8  22
BRANCH  11  24
ATOM     24  O   UNL     1      15.577  -2.729  15.895  1.00  0.00    -0.492 OA
ATOM     25  C   UNL     1      16.853  -2.279  15.449  1.00  0.00     0.278 C 
ENDBRANCH  11  24
BRANCH   9  26
ATOM     26  O   UNL     1      13.974  -5.572  12.361  1.00  0.00    -0.490 OA
ATOM     27  C   UNL     1      13.494  -6.902  12.533  1.00  0.00     0.279 C 
ENDBRANCH   9  26
BRANCH  10  28
ATOM     28  O   UNL     1      15.784  -5.035  14.260  1.00  0.00    -0.490 OA
ATOM     29  C   UNL     1      15.877  -6.041  15.267  1.00  0.00     0.278 C 
ENDBRANCH  10  28
TORSDOF 7
ENDMDL
MODEL 4
REMARK VINA RESULT:    -4.195      2.220      8.492
REMARK INTER + INTRA:          -6.632
REMARK INTER:                  -5.907
REMARK INTRA:                  -0.725
REMARK UNBOUND:                -0.721
REMARK SMILES COc1ccc(-c2cc(=O)c3c(OC)c(OC)c(OC)c(OC)c3o2)cc1OC
REMARK SMILES IDX 7 1 8 2 9 3 10 4 11 5 24 6 25 7 21 8 18 9 15 10 12 11 6 12
REMARK SMILES IDX 3 13 27 14 4 15 26 16 5 17 2 18 1 19 28 20 29 21 22 22 23 23
REMARK SMILES IDX 13 24 14 25 19 26 20 27 16 28 17 29
REMARK H PARENT
REMARK Flexibility Score: inf
ROOT
ATOM      1  C   UNL     1      10.851  -1.096  13.735  1.00  0.00     0.138 A 
ATOM      2  C   UNL     1      11.017  -1.516  12.412  1.00  0.00     0.100 A 
ATOM      3  C   UNL     1      12.139  -2.263  12.069  1.00  0.00     0.197 A 
ATOM      4  O   UNL     1      12.275  -2.640  10.875  1.00  0.00    -0.289 OA
ATOM      5  C   UNL     1      13.097  -2.581  13.058  1.00  0.00     0.115 A 
ATOM      6  C   UNL     1      12.860  -2.131  14.381  1.00  0.00     0.188 A 
ATOM      7  O   UNL     1      11.762  -1.425  14.646  1.00  0.00    -0.452 OA
ATOM      8  C   UNL     1      13.785  -2.428  15.416  1.00  0.00     0.209 A 
ATOM      9  C   UNL     1      14.954  -3.168  15.107  1.00  0.00     0.211 A 
ATOM     10  C   UNL     1      15.193  -3.587  13.792  1.00  0.00     0.208 A 
ATOM     11  C   UNL     1      14.253  -3.339  12.775  1.00  0.00     0.179 A 
ENDROOT
BRANCH   1  12
ATOM     12  C   UNL     1       9.669  -0.302  14.150  1.00  0.00     0.021 A 
ATOM     13  C   UNL     1       7.411   1.217  14.897  1.00  0.00     0.160 A 
ATOM     14  C   UNL     1       7.871   0.190  15.737  1.00  0.00     0.161 A 
ATOM     15  C   UNL     1       8.079   1.476  13.688  1.00  0.00     0.051 A 
ATOM     16  C   UNL     1       8.997  -0.568  15.357  1.00  0.00     0.062 A 
ATOM     17  C   UNL     1       9.192   0.719  13.319  1.00  0.00     0.016 A 
BRANCH  13  18
ATOM     18  O   UNL     1       6.288   1.957  15.302  1.00  0.00    -0.493 OA
ATOM     19  C   UNL     1       4.961   1.727  14.841  1.00  0.00     0.278 C 
ENDBRANCH  13  18
BRANCH  14  20
ATOM     20  O   UNL     1       7.183  -0.043  16.940  1.00  0.00    -0.493 OA
ATOM     21  C   UNL     1       7.637   0.373  18.225  1.00  0.00     0.278 C 
ENDBRANCH  14  20
ENDBRANCH   1  12
BRANCH   8  22
ATOM     22  O   UNL     1      13.600  -1.997  16.743  1.00  0.00    -0.490 OA
ATOM     23  C   UNL     1      14.000  -0.753  17.310  1.00  0.00     0.278 C 
ENDBRANCH   8  22
BRANCH  11  24
ATOM     24  O   UNL     1      14.459  -3.852  11.490  1.00  0.00    -0.492 OA
ATOM     25  C   UNL     1      14.321  -5.240  11.200  1.00  0.00     0.278 C 
ENDBRANCH  11  24
BRANCH   9  26
ATOM     26  O   UNL     1      15.938  -3.514  16.055  1.00  0.00    -0.490 OA
ATOM     27  C   UNL     1      15.947  -4.656  16.907  1.00  0.00     0.279 C 
ENDBRANCH   9  26
BRANCH  10  28
ATOM     28  O   UNL     1      16.393  -4.255  13.522  1.00  0.00    -0.490 OA
ATOM     29  C   UNL     1      17.600  -3.564  13.208  1.00  0.00     0.278 C 
ENDBRANCH  10  28
TORSDOF 7
ENDMDL
MODEL 5
REMARK VINA RESULT:    -4.043     11.533     13.557
REMARK INTER + INTRA:          -6.417
REMARK INTER:                  -5.779
REMARK INTRA:                  -0.639
REMARK UNBOUND:                -0.721
REMARK SMILES COc1ccc(-c2cc(=O)c3c(OC)c(OC)c(OC)c(OC)c3o2)cc1OC
REMARK SMILES IDX 7 1 8 2 9 3 10 4 11 5 24 6 25 7 21 8 18 9 15 10 12 11 6 12
REMARK SMILES IDX 3 13 27 14 4 15 26 16 5 17 2 18 1 19 28 20 29 21 22 22 23 23
REMARK SMILES IDX 13 24 14 25 19 26 20 27 16 28 17 29
REMARK H PARENT
REMARK Flexibility Score: inf
ROOT
ATOM      1  C   UNL     1      11.658   8.334  25.507  1.00  0.00     0.138 A 
ATOM      2  C   UNL     1      10.285   8.578  25.405  1.00  0.00     0.100 A 
ATOM      3  C   UNL     1       9.683   8.577  24.151  1.00  0.00     0.197 A 
ATOM      4  O   UNL     1       8.445   8.793  24.074  1.00  0.00    -0.289 OA
ATOM      5  C   UNL     1      10.466   8.336  22.999  1.00  0.00     0.115 A 
ATOM      6  C   UNL     1      11.849   8.087  23.177  1.00  0.00     0.188 A 
ATOM      7  O   UNL     1      12.365   8.095  24.405  1.00  0.00    -0.452 OA
ATOM      8  C   UNL     1      12.681   7.832  22.056  1.00  0.00     0.209 A 
ATOM      9  C   UNL     1      12.114   7.843  20.757  1.00  0.00     0.211 A 
ATOM     10  C   UNL     1      10.750   8.115  20.589  1.00  0.00     0.208 A 
ATOM     11  C   UNL     1       9.914   8.317  21.701  1.00  0.00     0.179 A 
ENDROOT
BRANCH   1  12
ATOM     12  C   UNL     1      12.344   8.320  26.821  1.00  0.00     0.021 A 
ATOM     13  C   UNL     1      13.655   8.337  29.321  1.00  0.00     0.160 A 
ATOM     14  C   UNL     1      12.783   7.286  28.997  1.00  0.00     0.161 A 
ATOM     15  C   UNL     1      13.864   9.375  28.396  1.00  0.00     0.051 A 
ATOM     16  C   UNL     1      12.128   7.284  27.749  1.00  0.00     0.062 A 
ATOM     17  C   UNL     1      13.211   9.367  27.164  1.00  0.00     0.016 A 
BRANCH  13  18
ATOM     18  O   UNL     1      14.295   8.312  30.571  1.00  0.00    -0.493 OA
ATOM     19  C   UNL     1      15.663   8.642  30.783  1.00  0.00     0.278 C 
ENDBRANCH  13  18
BRANCH  14  20
ATOM     20  O   UNL     1      12.595   6.262  29.941  1.00  0.00    -0.493 OA
ATOM     21  C   UNL     1      13.426   5.111  30.061  1.00  0.00     0.278 C 
ENDBRANCH  14  20
ENDBRANCH   1  12
BRANCH   8  22
ATOM     22  O   UNL     1      14.062   7.587  22.178  1.00  0.00    -0.490 OA
ATOM     23  C   UNL     1      15.112   8.550  22.192  1.00  0.00     0.278 C 
ENDBRANCH   8  22
BRANCH  11  24
ATOM     24  O   UNL     1       8.537   8.487  21.521  1.00  0.00    -0.492 OA
ATOM     25  C   UNL     1       7.697   7.427  21.075  1.00  0.00     0.278 C 
ENDBRANCH  11  24
BRANCH   9  26
ATOM     26  O   UNL     1      12.848   7.606  19.577  1.00  0.00    -0.490 OA
ATOM     27  C   UNL     1      13.057   6.354  18.931  1.00  0.00     0.279 C 
ENDBRANCH   9  26
BRANCH  10  28
ATOM     28  O   UNL     1      10.249   8.184  19.283  1.00  0.00    -0.490 OA
ATOM     29  C   UNL     1      10.137   9.412  18.569  1.00  0.00     0.278 C 
ENDBRANCH  10  28
TORSDOF 7
ENDMDL
MODEL 6
REMARK VINA RESULT:    -3.860      7.055     11.099
REMARK INTER + INTRA:          -6.161
REMARK INTER:                  -5.415
REMARK INTRA:                  -0.746
REMARK UNBOUND:                -0.721
REMARK SMILES COc1ccc(-c2cc(=O)c3c(OC)c(OC)c(OC)c(OC)c3o2)cc1OC
REMARK SMILES IDX 7 1 8 2 9 3 10 4 11 5 24 6 25 7 21 8 18 9 15 10 12 11 6 12
REMARK SMILES IDX 3 13 27 14 4 15 26 16 5 17 2 18 1 19 28 20 29 21 22 22 23 23
REMARK SMILES IDX 13 24 14 25 19 26 20 27 16 28 17 29
REMARK H PARENT
REMARK Flexibility Score: inf
ROOT
ATOM      1  C   UNL     1      14.484  -5.564  18.507  1.00  0.00     0.138 A 
ATOM      2  C   UNL     1      15.559  -6.368  18.898  1.00  0.00     0.100 A 
ATOM      3  C   UNL     1      16.784  -6.228  18.254  1.00  0.00     0.197 A 
ATOM      4  O   UNL     1      17.746  -6.955  18.619  1.00  0.00    -0.289 OA
ATOM      5  C   UNL     1      16.924  -5.284  17.213  1.00  0.00     0.115 A 
ATOM      6  C   UNL     1      15.796  -4.496  16.875  1.00  0.00     0.188 A 
ATOM      7  O   UNL     1      14.652  -4.672  17.534  1.00  0.00    -0.452 OA
ATOM      8  C   UNL     1      15.882  -3.527  15.842  1.00  0.00     0.209 A 
ATOM      9  C   UNL     1      17.105  -3.366  15.144  1.00  0.00     0.211 A 
ATOM     10  C   UNL     1      18.208  -4.167  15.468  1.00  0.00     0.208 A 
ATOM     11  C   UNL     1      18.141  -5.091  16.525  1.00  0.00     0.179 A 
ENDROOT
BRANCH   1  12
ATOM     12  C   UNL     1      13.160  -5.671  19.166  1.00  0.00     0.021 A 
ATOM     13  C   UNL     1      10.643  -5.921  20.419  1.00  0.00     0.160 A 
ATOM     14  C   UNL     1      11.410  -4.762  20.616  1.00  0.00     0.161 A 
ATOM     15  C   UNL     1      11.140  -6.950  19.600  1.00  0.00     0.051 A 
ATOM     16  C   UNL     1      12.668  -4.643  19.991  1.00  0.00     0.062 A 
ATOM     17  C   UNL     1      12.387  -6.826  18.987  1.00  0.00     0.016 A 
BRANCH  13  18
ATOM     18  O   UNL     1       9.393  -6.010  21.053  1.00  0.00    -0.493 OA
ATOM     19  C   UNL     1       8.729  -7.231  21.358  1.00  0.00     0.278 C 
ENDBRANCH  13  18
BRANCH  14  20
ATOM     20  O   UNL     1      10.886  -3.749  21.438  1.00  0.00    -0.493 OA
ATOM     21  C   UNL     1      10.669  -2.403  21.025  1.00  0.00     0.278 C 
ENDBRANCH  14  20
ENDBRANCH   1  12
BRANCH   8  22
ATOM     22  O   UNL     1      14.789  -2.724  15.462  1.00  0.00    -0.490 OA
ATOM     23  C   UNL     1      13.757  -3.054  14.538  1.00  0.00     0.278 C 
ENDBRANCH   8  22
BRANCH  11  24
ATOM     24  O   UNL     1      19.281  -5.810  16.901  1.00  0.00    -0.492 OA
ATOM     25  C   UNL     1      20.369  -5.198  17.586  1.00  0.00     0.278 C 
ENDBRANCH  11  24
BRANCH   9  26
ATOM     26  O   UNL     1      17.299  -2.438  14.101  1.00  0.00    -0.490 OA
ATOM     27  C   UNL     1      17.000  -2.620  12.720  1.00  0.00     0.279 C 
ENDBRANCH   9  26
BRANCH  10  28
ATOM     28  O   UNL     1      19.373  -4.021  14.706  1.00  0.00    -0.490 OA
ATOM     29  C   UNL     1      19.735  -4.937  13.676  1.00  0.00     0.278 C 
ENDBRANCH  10  28
TORSDOF 7
ENDMDL
MODEL 7
REMARK VINA RESULT:    -3.808      2.264      8.894
REMARK INTER + INTRA:          -6.086
REMARK INTER:                  -5.371
REMARK INTRA:                  -0.715
REMARK UNBOUND:                -0.721
REMARK SMILES COc1ccc(-c2cc(=O)c3c(OC)c(OC)c(OC)c(OC)c3o2)cc1OC
REMARK SMILES IDX 7 1 8 2 9 3 10 4 11 5 24 6 25 7 21 8 18 9 15 10 12 11 6 12
REMARK SMILES IDX 3 13 27 14 4 15 26 16 5 17 2 18 1 19 28 20 29 21 22 22 23 23
REMARK SMILES IDX 13 24 14 25 19 26 20 27 16 28 17 29
REMARK H PARENT
REMARK Flexibility Score: inf
ROOT
ATOM      1  C   UNL     1      10.686  -1.586  13.867  1.00  0.00     0.138 A 
ATOM      2  C   UNL     1      10.546  -2.613  12.927  1.00  0.00     0.100 A 
ATOM      3  C   UNL     1      11.585  -3.520  12.749  1.00  0.00     0.197 A 
ATOM      4  O   UNL     1      11.445  -4.443  11.903  1.00  0.00    -0.289 OA
ATOM      5  C   UNL     1      12.767  -3.390  13.512  1.00  0.00     0.115 A 
ATOM      6  C   UNL     1      12.837  -2.333  14.453  1.00  0.00     0.188 A 
ATOM      7  O   UNL     1      11.804  -1.501  14.582  1.00  0.00    -0.452 OA
ATOM      8  C   UNL     1      13.996  -2.159  15.253  1.00  0.00     0.209 A 
ATOM      9  C   UNL     1      15.089  -3.048  15.088  1.00  0.00     0.211 A 
ATOM     10  C   UNL     1      15.021  -4.075  14.138  1.00  0.00     0.208 A 
ATOM     11  C   UNL     1      13.854  -4.281  13.382  1.00  0.00     0.179 A 
ENDROOT
BRANCH   1  12
ATOM     12  C   UNL     1       9.605  -0.598  14.097  1.00  0.00     0.021 A 
ATOM     13  C   UNL     1       7.550   1.276  14.581  1.00  0.00     0.160 A 
ATOM     14  C   UNL     1       8.330   1.378  13.418  1.00  0.00     0.161 A 
ATOM     15  C   UNL     1       7.804   0.240  15.497  1.00  0.00     0.051 A 
ATOM     16  C   UNL     1       9.357   0.442  13.183  1.00  0.00     0.062 A 
ATOM     17  C   UNL     1       8.824  -0.682  15.258  1.00  0.00     0.016 A 
BRANCH  13  18
ATOM     18  O   UNL     1       6.532   2.221  14.788  1.00  0.00    -0.493 OA
ATOM     19  C   UNL     1       5.140   1.941  14.688  1.00  0.00     0.278 C 
ENDBRANCH  13  18
BRANCH  14  20
ATOM     20  O   UNL     1       8.051   2.423  12.520  1.00  0.00    -0.493 OA
ATOM     21  C   UNL     1       9.039   3.171  11.817  1.00  0.00     0.278 C 
ENDBRANCH  14  20
ENDBRANCH   1  12
BRANCH   8  22
ATOM     22  O   UNL     1      14.119  -1.121  16.196  1.00  0.00    -0.490 OA
ATOM     23  C   UNL     1      13.756  -1.159  17.572  1.00  0.00     0.278 C 
ENDBRANCH   8  22
BRANCH  11  24
ATOM     24  O   UNL     1      13.765  -5.372  12.510  1.00  0.00    -0.492 OA
ATOM     25  C   UNL     1      13.610  -6.706  12.984  1.00  0.00     0.278 C 
ENDBRANCH  11  24
BRANCH   9  26
ATOM     26  O   UNL     1      16.287  -2.965  15.826  1.00  0.00    -0.490 OA
ATOM     27  C   UNL     1      17.427  -2.164  15.527  1.00  0.00     0.279 C 
ENDBRANCH   9  26
BRANCH  10  28
ATOM     28  O   UNL     1      16.150  -4.885  13.963  1.00  0.00    -0.490 OA
ATOM     29  C   UNL     1      17.053  -4.715  12.873  1.00  0.00     0.278 C 
ENDBRANCH  10  28
TORSDOF 7
ENDMDL
MODEL 8
REMARK VINA RESULT:    -3.748      4.022      6.344
REMARK INTER + INTRA:          -6.002
REMARK INTER:                  -5.404
REMARK INTRA:                  -0.598
REMARK UNBOUND:                -0.721
REMARK SMILES COc1ccc(-c2cc(=O)c3c(OC)c(OC)c(OC)c(OC)c3o2)cc1OC
REMARK SMILES IDX 7 1 8 2 9 3 10 4 11 5 24 6 25 7 21 8 18 9 15 10 12 11 6 12
REMARK SMILES IDX 3 13 27 14 4 15 26 16 5 17 2 18 1 19 28 20 29 21 22 22 23 23
REMARK SMILES IDX 13 24 14 25 19 26 20 27 16 28 17 29
REMARK H PARENT
REMARK Flexibility Score: inf
ROOT
ATOM      1  C   UNL     1       6.167   2.288  15.703  1.00  0.00     0.138 A 
ATOM      2  C   UNL     1       4.853   2.282  15.227  1.00  0.00     0.100 A 
ATOM      3  C   UNL     1       3.925   3.161  15.776  1.00  0.00     0.197 A 
ATOM      4  O   UNL     1       2.745   3.149  15.335  1.00  0.00    -0.289 OA
ATOM      5  C   UNL     1       4.319   4.041  16.809  1.00  0.00     0.115 A 
ATOM      6  C   UNL     1       5.670   3.999  17.237  1.00  0.00     0.188 A 
ATOM      7  O   UNL     1       6.512   3.140  16.665  1.00  0.00    -0.452 OA
ATOM      8  C   UNL     1       6.123   4.865  18.265  1.00  0.00     0.209 A 
ATOM      9  C   UNL     1       5.205   5.762  18.869  1.00  0.00     0.211 A 
ATOM     10  C   UNL     1       3.866   5.778  18.458  1.00  0.00     0.208 A 
ATOM     11  C   UNL     1       3.426   4.958  17.404  1.00  0.00     0.179 A 
ENDROOT
BRANCH   1  12
ATOM     12  C   UNL     1       7.195   1.375  15.146  1.00  0.00     0.021 A 
ATOM     13  C   UNL     1       9.133  -0.396  14.111  1.00  0.00     0.160 A 
ATOM     14  C   UNL     1       8.727   0.714  13.355  1.00  0.00     0.161 A 
ATOM     15  C   UNL     1       8.566  -0.617  15.379  1.00  0.00     0.051 A 
ATOM     16  C   UNL     1       7.755   1.594  13.874  1.00  0.00     0.062 A 
ATOM     17  C   UNL     1       7.604   0.257  15.885  1.00  0.00     0.016 A 
BRANCH  13  18
ATOM     18  O   UNL     1      10.104  -1.254  13.569  1.00  0.00    -0.493 OA
ATOM     19  C   UNL     1      11.469  -1.284  13.973  1.00  0.00     0.278 C 
ENDBRANCH  13  18
BRANCH  14  20
ATOM     20  O   UNL     1       9.313   0.910  12.092  1.00  0.00    -0.493 OA
ATOM     21  C   UNL     1       9.620   2.183  11.532  1.00  0.00     0.278 C 
ENDBRANCH  14  20
ENDBRANCH   1  12
BRANCH   8  22
ATOM     22  O   UNL     1       7.452   4.859  18.731  1.00  0.00    -0.490 OA
ATOM     23  C   UNL     1       7.987   4.085  19.800  1.00  0.00     0.278 C 
ENDBRANCH   8  22
BRANCH  11  24
ATOM     24  O   UNL     1       2.111   5.059  16.938  1.00  0.00    -0.492 OA
ATOM     25  C   UNL     1       1.004   4.574  17.691  1.00  0.00     0.278 C 
ENDBRANCH  11  24
BRANCH   9  26
ATOM     26  O   UNL     1       5.547   6.661  19.899  1.00  0.00    -0.490 OA
ATOM     27  C   UNL     1       5.544   6.405  21.301  1.00  0.00     0.279 C 
ENDBRANCH   9  26
BRANCH  10  28
ATOM     28  O   UNL     1       2.982   6.630  19.130  1.00  0.00    -0.490 OA
ATOM     29  C   UNL     1       2.676   7.941  18.661  1.00  0.00     0.278 C 
ENDBRANCH  10  28
TORSDOF 7
ENDMDL
MODEL 9
REMARK VINA RESULT:    -3.743      3.414     11.404
REMARK INTER + INTRA:          -5.995
REMARK INTER:                  -5.239
REMARK INTRA:                  -0.756
REMARK UNBOUND:                -0.721
REMARK SMILES COc1ccc(-c2cc(=O)c3c(OC)c(OC)c(OC)c(OC)c3o2)cc1OC
REMARK SMILES IDX 7 1 8 2 9 3 10 4 11 5 24 6 25 7 21 8 18 9 15 10 12 11 6 12
REMARK SMILES IDX 3 13 27 14 4 15 26 16 5 17 2 18 1 19 28 20 29 21 22 22 23 23
REMARK SMILES IDX 13 24 14 25 19 26 20 27 16 28 17 29
REMARK H PARENT
REMARK Flexibility Score: inf
ROOT
ATOM      1  C   UNL     1      14.810  -2.947  15.664  1.00  0.00     0.138 A 
ATOM      2  C   UNL     1      14.751  -4.003  16.580  1.00  0.00     0.100 A 
ATOM      3  C   UNL     1      15.903  -4.733  16.853  1.00  0.00     0.197 A 
ATOM      4  O   UNL     1      15.838  -5.678  17.683  1.00  0.00    -0.289 OA
ATOM      5  C   UNL     1      17.112  -4.404  16.200  1.00  0.00     0.115 A 
ATOM      6  C   UNL     1      17.101  -3.316  15.291  1.00  0.00     0.188 A 
ATOM      7  O   UNL     1      15.967  -2.652  15.078  1.00  0.00    -0.452 OA
ATOM      8  C   UNL     1      18.289  -2.937  14.613  1.00  0.00     0.209 A 
ATOM      9  C   UNL     1      19.481  -3.669  14.845  1.00  0.00     0.211 A 
ATOM     10  C   UNL     1      19.477  -4.758  15.725  1.00  0.00     0.208 A 
ATOM     11  C   UNL     1      18.315  -5.103  16.438  1.00  0.00     0.179 A 
ENDROOT
BRANCH   1  12
ATOM     12  C   UNL     1      13.611  -2.136  15.344  1.00  0.00     0.021 A 
ATOM     13  C   UNL     1      11.345  -0.557  14.759  1.00  0.00     0.160 A 
ATOM     14  C   UNL     1      11.751  -1.556  13.861  1.00  0.00     0.161 A 
ATOM     15  C   UNL     1      12.076  -0.350  15.942  1.00  0.00     0.051 A 
ATOM     16  C   UNL     1      12.885  -2.340  14.156  1.00  0.00     0.062 A 
ATOM     17  C   UNL     1      13.199  -1.128  16.226  1.00  0.00     0.016 A 
BRANCH  13  18
ATOM     18  O   UNL     1      10.210   0.206  14.441  1.00  0.00    -0.493 OA
ATOM     19  C   UNL     1       8.913  -0.013  14.985  1.00  0.00     0.278 C 
ENDBRANCH  13  18
BRANCH  14  20
ATOM     20  O   UNL     1      10.999  -1.742  12.688  1.00  0.00    -0.493 OA
ATOM     21  C   UNL     1      11.440  -2.483  11.554  1.00  0.00     0.278 C 
ENDBRANCH  14  20
ENDBRANCH   1  12
BRANCH   8  22
ATOM     22  O   UNL     1      18.329  -1.870  13.695  1.00  0.00    -0.490 OA
ATOM     23  C   UNL     1      17.992  -1.909  12.312  1.00  0.00     0.278 C 
ENDBRANCH   8  22
BRANCH  11  24
ATOM     24  O   UNL     1      18.353  -6.129  17.388  1.00  0.00    -0.492 OA
ATOM     25  C   UNL     1      18.987  -5.964  18.653  1.00  0.00     0.278 C 
ENDBRANCH  11  24
BRANCH   9  26
ATOM     26  O   UNL     1      20.713  -3.380  14.223  1.00  0.00    -0.490 OA
ATOM     27  C   UNL     1      21.125  -3.761  12.913  1.00  0.00     0.279 C 
ENDBRANCH   9  26
BRANCH  10  28
ATOM     28  O   UNL     1      20.660  -5.492  15.869  1.00  0.00    -0.490 OA
ATOM     29  C   UNL     1      20.880  -6.730  15.198  1.00  0.00     0.278 C 
ENDBRANCH  10  28
TORSDOF 7
ENDMDL
