MODEL 1
REMARK VINA RESULT:    -3.684      0.000      0.000
REMARK INTER + INTRA:          -8.493
REMARK INTER:                  -6.484
REMARK INTRA:                  -2.010
REMARK UNBOUND:                -2.010
REMARK SMILES CCCCCCCCCCCCCCC(=O)[O-]
REMARK SMILES IDX 9 1 10 2 11 3 12 4 13 5 14 6 15 7 16 8 17 9 8 10 7 11 6 12
REMARK SMILES IDX 5 13 4 14 3 15 2 16 1 17
REMARK H PARENT
REMARK Flexibility Score: inf
ROOT
ATOM      1  C   UNL     1      20.188  -1.108  15.228  1.00  0.00     0.000 C 
ENDROOT
BRANCH   1   2
ATOM      2  C   UNL     1      20.121  -2.434  14.443  1.00  0.00     0.000 C 
BRANCH   2   3
ATOM      3  C   UNL     1      21.136  -2.565  13.292  1.00  0.00     0.000 C 
BRANCH   3   4
ATOM      4  C   UNL     1      22.535  -2.045  13.667  1.00  0.00     0.000 C 
BRANCH   4   5
ATOM      5  C   UNL     1      23.337  -3.052  14.511  1.00  0.00     0.006 C 
BRANCH   5   6
ATOM      6  C   UNL     1      23.888  -2.480  15.828  1.00  0.00     0.053 C 
BRANCH   6   7
ATOM      7  C   UNL     1      23.826  -3.478  16.944  1.00  0.00     0.041 C 
ATOM      8  O   UNL     1      24.684  -3.452  17.864  1.00  0.00    -0.550 OA
ATOM      9  O   UNL     1      22.801  -4.415  16.984  1.00  0.00    -0.550 OA
ENDBRANCH   6   7
ENDBRANCH   5   6
ENDBRANCH   4   5
ENDBRANCH   3   4
ENDBRANCH   2   3
ENDBRANCH   1   2
BRANCH   1  10
ATOM     10  C   UNL     1      20.556  -1.250  16.717  1.00  0.00     0.000 C 
BRANCH  10  11
ATOM     11  C   UNL     1      21.062   0.041  17.391  1.00  0.00    -0.000 C 
BRANCH  11  12
ATOM     12  C   UNL     1      21.513   1.150  16.422  1.00  0.00    -0.000 C 
BRANCH  12  13
ATOM     13  C   UNL     1      23.034   1.154  16.188  1.00  0.00    -0.000 C 
BRANCH  13  14
ATOM     14  C   UNL     1      23.400   1.295  14.700  1.00  0.00    -0.000 C 
BRANCH  14  15
ATOM     15  C   UNL     1      22.177   1.602  13.819  1.00  0.00    -0.000 C 
BRANCH  15  16
ATOM     16  C   UNL     1      22.180   3.046  13.292  1.00  0.00    -0.003 C 
ATOM     17  C   UNL     1      23.520   3.752  13.501  1.00  0.00     0.004 C 
ENDBRANCH  15  16
ENDBRANCH  14  15
ENDBRANCH  13  14
ENDBRANCH  12  13
ENDBRANCH  11  12
ENDBRANCH  10  11
ENDBRANCH   1  10
TORSDOF 13
ENDMDL
MODEL 2
REMARK VINA RESULT:    -3.645      3.200      5.969
REMARK INTER + INTRA:          -8.425
REMARK INTER:                  -6.525
REMARK INTRA:                  -1.900
REMARK UNBOUND:                -2.010
REMARK SMILES CCCCCCCCCCCCCCC(=O)[O-]
REMARK SMILES IDX 9 1 10 2 11 3 12 4 13 5 14 6 15 7 16 8 17 9 8 10 7 11 6 12
REMARK SMILES IDX 5 13 4 14 3 15 2 16 1 17
REMARK H PARENT
REMARK Flexibility Score: inf
ROOT
ATOM      1  C   UNL     1      20.692  -0.751  16.030  1.00  0.00     0.000 C 
ENDROOT
BRANCH   1   2
ATOM      2  C   UNL     1      21.365   0.633  16.126  1.00  0.00     0.000 C 
BRANCH   2   3
ATOM      3  C   UNL     1      22.863   0.609  16.485  1.00  0.00     0.000 C 
BRANCH   3   4
ATOM      4  C   UNL     1      23.774   0.834  15.266  1.00  0.00     0.000 C 
BRANCH   4   5
ATOM      5  C   UNL     1      24.397   2.242  15.241  1.00  0.00     0.006 C 
BRANCH   5   6
ATOM      6  C   UNL     1      23.396   3.377  14.975  1.00  0.00     0.053 C 
BRANCH   6   7
ATOM      7  C   UNL     1      23.009   3.458  13.530  1.00  0.00     0.041 C 
ATOM      8  O   UNL     1      23.657   4.195  12.741  1.00  0.00    -0.550 OA
ATOM      9  O   UNL     1      21.952   2.695  13.048  1.00  0.00    -0.550 OA
ENDBRANCH   6   7
ENDBRANCH   5   6
ENDBRANCH   4   5
ENDBRANCH   3   4
ENDBRANCH   2   3
ENDBRANCH   1   2
BRANCH   1  10
ATOM     10  C   UNL     1      20.429  -1.251  14.597  1.00  0.00     0.000 C 
BRANCH  10  11
ATOM     11  C   UNL     1      21.247  -2.489  14.176  1.00  0.00    -0.000 C 
BRANCH  11  12
ATOM     12  C   UNL     1      22.726  -2.213  13.845  1.00  0.00    -0.000 C 
BRANCH  12  13
ATOM     13  C   UNL     1      23.684  -3.202  14.532  1.00  0.00    -0.000 C 
BRANCH  13  14
ATOM     14  C   UNL     1      23.927  -2.855  16.011  1.00  0.00    -0.000 C 
BRANCH  14  15
ATOM     15  C   UNL     1      23.479  -3.978  16.961  1.00  0.00    -0.000 C 
BRANCH  15  16
ATOM     16  C   UNL     1      22.205  -3.616  17.741  1.00  0.00    -0.003 C 
ATOM     17  C   UNL     1      20.996  -4.453  17.323  1.00  0.00     0.004 C 
ENDBRANCH  15  16
ENDBRANCH  14  15
ENDBRANCH  13  14
ENDBRANCH  12  13
ENDBRANCH  11  12
ENDBRANCH  10  11
ENDBRANCH   1  10
TORSDOF 13
ENDMDL
MODEL 3
REMARK VINA RESULT:    -3.642      3.033      5.631
REMARK INTER + INTRA:          -8.420
REMARK INTER:                  -6.227
REMARK INTRA:                  -2.193
REMARK UNBOUND:                -2.010
REMARK SMILES CCCCCCCCCCCCCCC(=O)[O-]
REMARK SMILES IDX 9 1 10 2 11 3 12 4 13 5 14 6 15 7 16 8 17 9 8 10 7 11 6 12
REMARK SMILES IDX 5 13 4 14 3 15 2 16 1 17
REMARK H PARENT
REMARK Flexibility Score: inf
ROOT
ATOM      1  C   UNL     1      20.938  -0.092  18.102  1.00  0.00     0.000 C 
ENDROOT
BRANCH   1   2
ATOM      2  C   UNL     1      22.361  -0.452  18.576  1.00  0.00     0.000 C 
BRANCH   2   3
ATOM      3  C   UNL     1      23.488  -0.116  17.580  1.00  0.00     0.000 C 
BRANCH   3   4
ATOM      4  C   UNL     1      23.215   1.172  16.783  1.00  0.00     0.000 C 
BRANCH   4   5
ATOM      5  C   UNL     1      23.768   1.110  15.347  1.00  0.00     0.006 C 
BRANCH   5   6
ATOM      6  C   UNL     1      22.718   1.356  14.251  1.00  0.00     0.053 C 
BRANCH   6   7
ATOM      7  C   UNL     1      22.847   2.720  13.645  1.00  0.00     0.041 C 
ATOM      8  O   UNL     1      23.854   3.432  13.895  1.00  0.00    -0.550 OA
ATOM      9  O   UNL     1      21.869   3.191  12.778  1.00  0.00    -0.550 OA
ENDBRANCH   6   7
ENDBRANCH   5   6
ENDBRANCH   4   5
ENDBRANCH   3   4
ENDBRANCH   2   3
ENDBRANCH   1   2
BRANCH   1  10
ATOM     10  C   UNL     1      20.275  -1.132  17.179  1.00  0.00     0.000 C 
BRANCH  10  11
ATOM     11  C   UNL     1      20.218  -0.740  15.688  1.00  0.00    -0.000 C 
BRANCH  11  12
ATOM     12  C   UNL     1      20.091  -1.921  14.708  1.00  0.00    -0.000 C 
BRANCH  12  13
ATOM     13  C   UNL     1      21.209  -2.963  14.882  1.00  0.00    -0.000 C 
BRANCH  13  14
ATOM     14  C   UNL     1      22.605  -2.380  14.605  1.00  0.00    -0.000 C 
BRANCH  14  15
ATOM     15  C   UNL     1      23.707  -3.075  15.424  1.00  0.00    -0.000 C 
BRANCH  15  16
ATOM     16  C   UNL     1      23.163  -3.732  16.703  1.00  0.00    -0.003 C 
ATOM     17  C   UNL     1      24.221  -4.550  17.445  1.00  0.00     0.004 C 
ENDBRANCH  15  16
ENDBRANCH  14  15
ENDBRANCH  13  14
ENDBRANCH  12  13
ENDBRANCH  11  12
ENDBRANCH  10  11
ENDBRANCH   1  10
TORSDOF 13
ENDMDL
MODEL 4
REMARK VINA RESULT:    -3.640      2.950      4.999
REMARK INTER + INTRA:          -8.417
REMARK INTER:                  -6.046
REMARK INTRA:                  -2.370
REMARK UNBOUND:                -2.010
REMARK SMILES CCCCCCCCCCCCCCC(=O)[O-]
REMARK SMILES IDX 9 1 10 2 11 3 12 4 13 5 14 6 15 7 16 8 17 9 8 10 7 11 6 12
REMARK SMILES IDX 5 13 4 14 3 15 2 16 1 17
REMARK H PARENT
REMARK Flexibility Score: inf
ROOT
ATOM      1  C   UNL     1      20.893  -0.995  18.230  1.00  0.00     0.000 C 
ENDROOT
BRANCH   1   2
ATOM      2  C   UNL     1      20.304  -0.223  17.033  1.00  0.00     0.000 C 
BRANCH   2   3
ATOM      3  C   UNL     1      21.310   0.647  16.255  1.00  0.00     0.000 C 
BRANCH   3   4
ATOM      4  C   UNL     1      22.773   0.309  16.588  1.00  0.00     0.000 C 
BRANCH   4   5
ATOM      5  C   UNL     1      23.733   0.610  15.422  1.00  0.00     0.006 C 
BRANCH   5   6
ATOM      6  C   UNL     1      23.138   1.506  14.324  1.00  0.00     0.053 C 
BRANCH   6   7
ATOM      7  C   UNL     1      23.739   2.879  14.331  1.00  0.00     0.041 C 
ATOM      8  O   UNL     1      24.711   3.141  15.087  1.00  0.00    -0.550 OA
ATOM      9  O   UNL     1      23.246   3.859  13.478  1.00  0.00    -0.550 OA
ENDBRANCH   6   7
ENDBRANCH   5   6
ENDBRANCH   4   5
ENDBRANCH   3   4
ENDBRANCH   2   3
ENDBRANCH   1   2
BRANCH   1  10
ATOM     10  C   UNL     1      20.811  -2.530  18.121  1.00  0.00     0.000 C 
BRANCH  10  11
ATOM     11  C   UNL     1      22.169  -3.260  18.138  1.00  0.00    -0.000 C 
BRANCH  11  12
ATOM     12  C   UNL     1      22.549  -3.960  16.820  1.00  0.00    -0.000 C 
BRANCH  12  13
ATOM     13  C   UNL     1      23.770  -3.321  16.137  1.00  0.00    -0.000 C 
BRANCH  13  14
ATOM     14  C   UNL     1      23.487  -2.923  14.678  1.00  0.00    -0.000 C 
BRANCH  14  15
ATOM     15  C   UNL     1      21.993  -2.665  14.416  1.00  0.00    -0.000 C 
BRANCH  15  16
ATOM     16  C   UNL     1      21.755  -1.812  13.161  1.00  0.00    -0.003 C 
ATOM     17  C   UNL     1      20.395  -1.112  13.167  1.00  0.00     0.004 C 
ENDBRANCH  15  16
ENDBRANCH  14  15
ENDBRANCH  13  14
ENDBRANCH  12  13
ENDBRANCH  11  12
ENDBRANCH  10  11
ENDBRANCH   1  10
TORSDOF 13
ENDMDL
MODEL 5
REMARK VINA RESULT:    -3.639      3.149      6.314
REMARK INTER + INTRA:          -8.414
REMARK INTER:                  -5.795
REMARK INTRA:                  -2.619
REMARK UNBOUND:                -2.010
REMARK SMILES CCCCCCCCCCCCCCC(=O)[O-]
REMARK SMILES IDX 9 1 10 2 11 3 12 4 13 5 14 6 15 7 16 8 17 9 8 10 7 11 6 12
REMARK SMILES IDX 5 13 4 14 3 15 2 16 1 17
REMARK H PARENT
REMARK Flexibility Score: inf
ROOT
ATOM      1  C   UNL     1      25.181   6.297  14.131  1.00  0.00     0.000 C 
ENDROOT
BRANCH   1   2
ATOM      2  C   UNL     1      24.791   5.799  15.537  1.00  0.00     0.000 C 
BRANCH   2   3
ATOM      3  C   UNL     1      24.674   4.269  15.681  1.00  0.00     0.000 C 
BRANCH   3   4
ATOM      4  C   UNL     1      23.507   3.843  16.588  1.00  0.00     0.000 C 
BRANCH   4   5
ATOM      5  C   UNL     1      23.055   2.393  16.333  1.00  0.00     0.006 C 
BRANCH   5   6
ATOM      6  C   UNL     1      23.818   1.678  15.207  1.00  0.00     0.053 C 
BRANCH   6   7
ATOM      7  C   UNL     1      23.073   0.483  14.693  1.00  0.00     0.041 C 
ATOM      8  O   UNL     1      23.501  -0.677  14.925  1.00  0.00    -0.550 OA
ATOM      9  O   UNL     1      21.889   0.653  13.987  1.00  0.00    -0.550 OA
ENDBRANCH   6   7
ENDBRANCH   5   6
ENDBRANCH   4   5
ENDBRANCH   3   4
ENDBRANCH   2   3
ENDBRANCH   1   2
BRANCH   1  10
ATOM     10  C   UNL     1      24.984   5.272  12.998  1.00  0.00     0.000 C 
BRANCH  10  11
ATOM     11  C   UNL     1      23.611   5.327  12.298  1.00  0.00    -0.000 C 
BRANCH  11  12
ATOM     12  C   UNL     1      22.786   4.029  12.377  1.00  0.00    -0.000 C 
BRANCH  12  13
ATOM     13  C   UNL     1      21.624   4.121  13.382  1.00  0.00    -0.000 C 
BRANCH  13  14
ATOM     14  C   UNL     1      21.261   5.575  13.729  1.00  0.00    -0.000 C 
BRANCH  14  15
ATOM     15  C   UNL     1      20.663   5.713  15.141  1.00  0.00    -0.000 C 
BRANCH  15  16
ATOM     16  C   UNL     1      21.242   6.911  15.910  1.00  0.00    -0.003 C 
ATOM     17  C   UNL     1      21.844   7.973  14.989  1.00  0.00     0.004 C 
ENDBRANCH  15  16
ENDBRANCH  14  15
ENDBRANCH  13  14
ENDBRANCH  12  13
ENDBRANCH  11  12
ENDBRANCH  10  11
ENDBRANCH   1  10
TORSDOF 13
ENDMDL
MODEL 6
REMARK VINA RESULT:    -3.620      4.227      6.923
REMARK INTER + INTRA:          -8.381
REMARK INTER:                  -7.069
REMARK INTRA:                  -1.311
REMARK UNBOUND:                -2.010
REMARK SMILES CCCCCCCCCCCCCCC(=O)[O-]
REMARK SMILES IDX 9 1 10 2 11 3 12 4 13 5 14 6 15 7 16 8 17 9 8 10 7 11 6 12
REMARK SMILES IDX 5 13 4 14 3 15 2 16 1 17
REMARK H PARENT
REMARK Flexibility Score: inf
ROOT
ATOM      1  C   UNL     1      23.941   1.115  15.426  1.00  0.00     0.000 C 
ENDROOT
BRANCH   1   2
ATOM      2  C   UNL     1      23.171   1.840  14.304  1.00  0.00     0.000 C 
BRANCH   2   3
ATOM      3  C   UNL     1      23.585   3.305  14.066  1.00  0.00     0.000 C 
BRANCH   3   4
ATOM      4  C   UNL     1      22.981   3.895  12.781  1.00  0.00     0.000 C 
BRANCH   4   5
ATOM      5  C   UNL     1      23.743   5.135  12.279  1.00  0.00     0.006 C 
BRANCH   5   6
ATOM      6  C   UNL     1      25.095   5.373  12.972  1.00  0.00     0.053 C 
BRANCH   6   7
ATOM      7  C   UNL     1      25.221   6.772  13.494  1.00  0.00     0.041 C 
ATOM      8  O   UNL     1      26.270   7.134  14.088  1.00  0.00    -0.550 OA
ATOM      9  O   UNL     1      24.192   7.684  13.294  1.00  0.00    -0.550 OA
ENDBRANCH   6   7
ENDBRANCH   5   6
ENDBRANCH   4   5
ENDBRANCH   3   4
ENDBRANCH   2   3
ENDBRANCH   1   2
BRANCH   1  10
ATOM     10  C   UNL     1      23.207   1.040  16.779  1.00  0.00     0.000 C 
BRANCH  10  11
ATOM     11  C   UNL     1      22.276  -0.178  16.950  1.00  0.00    -0.000 C 
BRANCH  11  12
ATOM     12  C   UNL     1      20.783   0.100  16.693  1.00  0.00    -0.000 C 
BRANCH  12  13
ATOM     13  C   UNL     1      20.158  -0.885  15.691  1.00  0.00    -0.000 C 
BRANCH  13  14
ATOM     14  C   UNL     1      20.962  -0.984  14.383  1.00  0.00    -0.000 C 
BRANCH  14  15
ATOM     15  C   UNL     1      21.434  -2.418  14.087  1.00  0.00    -0.000 C 
BRANCH  15  16
ATOM     16  C   UNL     1      22.964  -2.526  13.992  1.00  0.00    -0.003 C 
ATOM     17  C   UNL     1      23.605  -3.033  15.284  1.00  0.00     0.004 C 
ENDBRANCH  15  16
ENDBRANCH  14  15
ENDBRANCH  13  14
ENDBRANCH  12  13
ENDBRANCH  11  12
ENDBRANCH  10  11
ENDBRANCH   1  10
TORSDOF 13
ENDMDL
MODEL 7
REMARK VINA RESULT:    -3.614      4.312      7.037
REMARK INTER + INTRA:          -8.370
REMARK INTER:                  -7.047
REMARK INTRA:                  -1.323
REMARK UNBOUND:                -2.010
REMARK SMILES CCCCCCCCCCCCCCC(=O)[O-]
REMARK SMILES IDX 9 1 10 2 11 3 12 4 13 5 14 6 15 7 16 8 17 9 8 10 7 11 6 12
REMARK SMILES IDX 5 13 4 14 3 15 2 16 1 17
REMARK H PARENT
REMARK Flexibility Score: inf
ROOT
ATOM      1  C   UNL     1      22.297   0.854  14.232  1.00  0.00     0.000 C 
ENDROOT
BRANCH   1   2
ATOM      2  C   UNL     1      22.401   2.389  14.141  1.00  0.00     0.000 C 
BRANCH   2   3
ATOM      3  C   UNL     1      22.000   2.994  12.782  1.00  0.00     0.000 C 
BRANCH   3   4
ATOM      4  C   UNL     1      22.889   4.180  12.370  1.00  0.00     0.000 C 
BRANCH   4   5
ATOM      5  C   UNL     1      23.899   4.574  13.463  1.00  0.00     0.006 C 
BRANCH   5   6
ATOM      6  C   UNL     1      25.131   5.334  12.946  1.00  0.00     0.053 C 
BRANCH   6   7
ATOM      7  C   UNL     1      25.167   6.748  13.439  1.00  0.00     0.041 C 
ATOM      8  O   UNL     1      24.125   7.453  13.417  1.00  0.00    -0.550 OA
ATOM      9  O   UNL     1      26.345   7.276  13.954  1.00  0.00    -0.550 OA
ENDBRANCH   6   7
ENDBRANCH   5   6
ENDBRANCH   4   5
ENDBRANCH   3   4
ENDBRANCH   2   3
ENDBRANCH   1   2
BRANCH   1  10
ATOM     10  C   UNL     1      21.586   0.176  13.045  1.00  0.00     0.000 C 
BRANCH  10  11
ATOM     11  C   UNL     1      21.539  -1.364  13.103  1.00  0.00    -0.000 C 
BRANCH  11  12
ATOM     12  C   UNL     1      22.714  -2.025  13.848  1.00  0.00    -0.000 C 
BRANCH  12  13
ATOM     13  C   UNL     1      22.264  -2.810  15.092  1.00  0.00    -0.000 C 
BRANCH  13  14
ATOM     14  C   UNL     1      20.751  -2.695  15.346  1.00  0.00    -0.000 C 
BRANCH  14  15
ATOM     15  C   UNL     1      20.429  -2.011  16.686  1.00  0.00    -0.000 C 
BRANCH  15  16
ATOM     16  C   UNL     1      19.820  -0.612  16.501  1.00  0.00    -0.003 C 
ATOM     17  C   UNL     1      20.482   0.445  17.385  1.00  0.00     0.004 C 
ENDBRANCH  15  16
ENDBRANCH  14  15
ENDBRANCH  13  14
ENDBRANCH  12  13
ENDBRANCH  11  12
ENDBRANCH  10  11
ENDBRANCH   1  10
TORSDOF 13
ENDMDL
MODEL 8
REMARK VINA RESULT:    -3.611      1.281      3.437
REMARK INTER + INTRA:          -8.365
REMARK INTER:                  -6.183
REMARK INTRA:                  -2.182
REMARK UNBOUND:                -2.010
REMARK SMILES CCCCCCCCCCCCCCC(=O)[O-]
REMARK SMILES IDX 9 1 10 2 11 3 12 4 13 5 14 6 15 7 16 8 17 9 8 10 7 11 6 12
REMARK SMILES IDX 5 13 4 14 3 15 2 16 1 17
REMARK H PARENT
REMARK Flexibility Score: inf
ROOT
ATOM      1  C   UNL     1      20.428  -0.979  13.448  1.00  0.00     0.000 C 
ENDROOT
BRANCH   1   2
ATOM      2  C   UNL     1      20.850  -2.457  13.573  1.00  0.00     0.000 C 
BRANCH   2   3
ATOM      3  C   UNL     1      21.637  -2.807  14.850  1.00  0.00     0.000 C 
BRANCH   3   4
ATOM      4  C   UNL     1      23.149  -2.944  14.601  1.00  0.00     0.000 C 
BRANCH   4   5
ATOM      5  C   UNL     1      23.984  -2.742  15.879  1.00  0.00     0.006 C 
BRANCH   5   6
ATOM      6  C   UNL     1      23.270  -3.155  17.176  1.00  0.00     0.053 C 
BRANCH   6   7
ATOM      7  C   UNL     1      23.436  -4.615  17.469  1.00  0.00     0.041 C 
ATOM      8  O   UNL     1      24.587  -5.116  17.558  1.00  0.00    -0.550 OA
ATOM      9  O   UNL     1      22.319  -5.415  17.675  1.00  0.00    -0.550 OA
ENDBRANCH   6   7
ENDBRANCH   5   6
ENDBRANCH   4   5
ENDBRANCH   3   4
ENDBRANCH   2   3
ENDBRANCH   1   2
BRANCH   1  10
ATOM     10  C   UNL     1      21.460  -0.063  12.763  1.00  0.00     0.000 C 
BRANCH  10  11
ATOM     11  C   UNL     1      21.987   1.094  13.635  1.00  0.00    -0.000 C 
BRANCH  11  12
ATOM     12  C   UNL     1      23.119   0.715  14.609  1.00  0.00    -0.000 C 
BRANCH  12  13
ATOM     13  C   UNL     1      22.783   1.050  16.072  1.00  0.00    -0.000 C 
BRANCH  13  14
ATOM     14  C   UNL     1      21.306   0.784  16.413  1.00  0.00    -0.000 C 
BRANCH  14  15
ATOM     15  C   UNL     1      21.140  -0.227  17.561  1.00  0.00    -0.000 C 
BRANCH  15  16
ATOM     16  C   UNL     1      19.760  -0.904  17.553  1.00  0.00    -0.003 C 
ATOM     17  C   UNL     1      19.514  -1.766  18.792  1.00  0.00     0.004 C 
ENDBRANCH  15  16
ENDBRANCH  14  15
ENDBRANCH  13  14
ENDBRANCH  12  13
ENDBRANCH  11  12
ENDBRANCH  10  11
ENDBRANCH   1  10
TORSDOF 13
ENDMDL
MODEL 9
REMARK VINA RESULT:    -3.561      2.679      4.866
REMARK INTER + INTRA:          -8.277
REMARK INTER:                  -6.406
REMARK INTRA:                  -1.871
REMARK UNBOUND:                -2.010
REMARK SMILES CCCCCCCCCCCCCCC(=O)[O-]
REMARK SMILES IDX 9 1 10 2 11 3 12 4 13 5 14 6 15 7 16 8 17 9 8 10 7 11 6 12
REMARK SMILES IDX 5 13 4 14 3 15 2 16 1 17
REMARK H PARENT
REMARK Flexibility Score: inf
ROOT
ATOM      1  C   UNL     1      19.476  -1.820  13.542  1.00  0.00     0.000 C 
ENDROOT
BRANCH   1   2
ATOM      2  C   UNL     1      20.442  -1.570  12.366  1.00  0.00     0.000 C 
BRANCH   2   3
ATOM      3  C   UNL     1      21.774  -0.896  12.745  1.00  0.00     0.000 C 
BRANCH   3   4
ATOM      4  C   UNL     1      21.594   0.553  13.230  1.00  0.00     0.000 C 
BRANCH   4   5
ATOM      5  C   UNL     1      21.960   0.734  14.714  1.00  0.00     0.006 C 
BRANCH   5   6
ATOM      6  C   UNL     1      23.455   0.562  15.026  1.00  0.00     0.053 C 
BRANCH   6   7
ATOM      7  C   UNL     1      24.160   1.879  15.145  1.00  0.00     0.041 C 
ATOM      8  O   UNL     1      25.112   2.016  15.956  1.00  0.00    -0.550 OA
ATOM      9  O   UNL     1      23.786   2.944  14.335  1.00  0.00    -0.550 OA
ENDBRANCH   6   7
ENDBRANCH   5   6
ENDBRANCH   4   5
ENDBRANCH   3   4
ENDBRANCH   2   3
ENDBRANCH   1   2
BRANCH   1  10
ATOM     10  C   UNL     1      19.866  -2.987  14.470  1.00  0.00     0.000 C 
BRANCH  10  11
ATOM     11  C   UNL     1      20.498  -2.570  15.813  1.00  0.00    -0.000 C 
BRANCH  11  12
ATOM     12  C   UNL     1      21.713  -3.410  16.251  1.00  0.00    -0.000 C 
BRANCH  12  13
ATOM     13  C   UNL     1      22.981  -3.089  15.442  1.00  0.00    -0.000 C 
BRANCH  13  14
ATOM     14  C   UNL     1      24.234  -2.984  16.329  1.00  0.00    -0.000 C 
BRANCH  14  15
ATOM     15  C   UNL     1      23.930  -3.255  17.813  1.00  0.00    -0.000 C 
BRANCH  15  16
ATOM     16  C   UNL     1      24.238  -2.044  18.707  1.00  0.00    -0.003 C 
ATOM     17  C   UNL     1      23.254  -0.891  18.503  1.00  0.00     0.004 C 
ENDBRANCH  15  16
ENDBRANCH  14  15
ENDBRANCH  13  14
ENDBRANCH  12  13
ENDBRANCH  11  12
ENDBRANCH  10  11
ENDBRANCH   1  10
TORSDOF 13
ENDMDL
