MODEL 1
REMARK VINA RESULT:    -3.862      0.000      0.000
REMARK INTER + INTRA:          -5.166
REMARK INTER:                  -4.991
REMARK INTRA:                  -0.175
REMARK UNBOUND:                -0.175
REMARK SMILES CCCCCCC(=O)[O-]
REMARK SMILES IDX 5 1 6 2 7 3 8 4 9 5 4 6 3 7 2 8 1 9
REMARK H PARENT
REMARK Flexibility Score: inf
ROOT
ATOM      1  C   UNL     1     -28.289 -20.097 -28.544  1.00  0.00     0.006 C 
ENDROOT
BRANCH   1   2
ATOM      2  C   UNL     1     -28.266 -20.548 -27.078  1.00  0.00     0.053 C 
BRANCH   2   3
ATOM      3  C   UNL     1     -28.573 -19.419 -26.144  1.00  0.00     0.041 C 
ATOM      4  O   UNL     1     -29.467 -18.581 -26.434  1.00  0.00    -0.550 OA
ATOM      5  O   UNL     1     -27.848 -19.272 -24.967  1.00  0.00    -0.550 OA
ENDBRANCH   2   3
ENDBRANCH   1   2
BRANCH   1   6
ATOM      6  C   UNL     1     -27.352 -20.936 -29.426  1.00  0.00     0.000 C 
BRANCH   6   7
ATOM      7  C   UNL     1     -26.568 -21.952 -28.581  1.00  0.00    -0.000 C 
BRANCH   7   8
ATOM      8  C   UNL     1     -25.060 -21.657 -28.552  1.00  0.00    -0.003 C 
ATOM      9  C   UNL     1     -24.279 -22.656 -27.698  1.00  0.00     0.004 C 
ENDBRANCH   7   8
ENDBRANCH   6   7
ENDBRANCH   1   6
TORSDOF 5
ENDMDL
MODEL 2
REMARK VINA RESULT:    -3.786      0.909      1.351
REMARK INTER + INTRA:          -5.067
REMARK INTER:                  -4.907
REMARK INTRA:                  -0.160
REMARK UNBOUND:                -0.175
REMARK SMILES CCCCCCC(=O)[O-]
REMARK SMILES IDX 5 1 6 2 7 3 8 4 9 5 4 6 3 7 2 8 1 9
REMARK H PARENT
REMARK Flexibility Score: inf
ROOT
ATOM      1  C   UNL     1     -26.607 -20.958 -27.865  1.00  0.00     0.006 C 
ENDROOT
BRANCH   1   2
ATOM      2  C   UNL     1     -28.064 -20.482 -27.928  1.00  0.00     0.053 C 
BRANCH   2   3
ATOM      3  C   UNL     1     -28.449 -19.706 -26.708  1.00  0.00     0.041 C 
ATOM      4  O   UNL     1     -29.522 -19.046 -26.689  1.00  0.00    -0.550 OA
ATOM      5  O   UNL     1     -27.608 -19.682 -25.601  1.00  0.00    -0.550 OA
ENDBRANCH   2   3
ENDBRANCH   1   2
BRANCH   1   6
ATOM      6  C   UNL     1     -26.319 -22.087 -28.866  1.00  0.00     0.000 C 
BRANCH   6   7
ATOM      7  C   UNL     1     -25.045 -22.852 -28.477  1.00  0.00    -0.000 C 
BRANCH   7   8
ATOM      8  C   UNL     1     -24.207 -22.109 -27.425  1.00  0.00    -0.003 C 
ATOM      9  C   UNL     1     -23.248 -23.032 -26.673  1.00  0.00     0.004 C 
ENDBRANCH   7   8
ENDBRANCH   6   7
ENDBRANCH   1   6
TORSDOF 5
ENDMDL
MODEL 3
REMARK VINA RESULT:    -3.689      3.090      4.739
REMARK INTER + INTRA:          -4.942
REMARK INTER:                  -4.716
REMARK INTRA:                  -0.226
REMARK UNBOUND:                -0.175
REMARK SMILES CCCCCCC(=O)[O-]
REMARK SMILES IDX 5 1 6 2 7 3 8 4 9 5 4 6 3 7 2 8 1 9
REMARK H PARENT
REMARK Flexibility Score: inf
ROOT
ATOM      1  C   UNL     1     -27.569 -20.933 -29.296  1.00  0.00     0.006 C 
ENDROOT
BRANCH   1   2
ATOM      2  C   UNL     1     -26.591 -21.962 -28.714  1.00  0.00     0.053 C 
BRANCH   2   3
ATOM      3  C   UNL     1     -25.284 -21.963 -29.444  1.00  0.00     0.041 C 
ATOM      4  O   UNL     1     -24.662 -23.043 -29.627  1.00  0.00    -0.550 OA
ATOM      5  O   UNL     1     -24.736 -20.768 -29.894  1.00  0.00    -0.550 OA
ENDBRANCH   2   3
ENDBRANCH   1   2
BRANCH   1   6
ATOM      6  C   UNL     1     -28.249 -20.093 -28.204  1.00  0.00     0.000 C 
BRANCH   6   7
ATOM      7  C   UNL     1     -27.475 -20.184 -26.880  1.00  0.00    -0.000 C 
BRANCH   7   8
ATOM      8  C   UNL     1     -28.209 -19.497 -25.719  1.00  0.00    -0.003 C 
ATOM      9  C   UNL     1     -29.728 -19.512 -25.888  1.00  0.00     0.004 C 
ENDBRANCH   7   8
ENDBRANCH   6   7
ENDBRANCH   1   6
TORSDOF 5
ENDMDL
MODEL 4
REMARK VINA RESULT:    -3.614     13.975     14.573
REMARK INTER + INTRA:          -4.844
REMARK INTER:                  -4.664
REMARK INTRA:                  -0.181
REMARK UNBOUND:                -0.175
REMARK SMILES CCCCCCC(=O)[O-]
REMARK SMILES IDX 5 1 6 2 7 3 8 4 9 5 4 6 3 7 2 8 1 9
REMARK H PARENT
REMARK Flexibility Score: inf
ROOT
ATOM      1  C   UNL     1     -23.367 -12.277 -15.725  1.00  0.00     0.006 C 
ENDROOT
BRANCH   1   2
ATOM      2  C   UNL     1     -22.910 -13.342 -14.719  1.00  0.00     0.053 C 
BRANCH   2   3
ATOM      3  C   UNL     1     -24.050 -14.194 -14.254  1.00  0.00     0.041 C 
ATOM      4  O   UNL     1     -23.936 -15.448 -14.233  1.00  0.00    -0.550 OA
ATOM      5  O   UNL     1     -25.251 -13.605 -13.876  1.00  0.00    -0.550 OA
ENDBRANCH   2   3
ENDBRANCH   1   2
BRANCH   1   6
ATOM      6  C   UNL     1     -22.616 -12.379 -17.062  1.00  0.00     0.000 C 
BRANCH   6   7
ATOM      7  C   UNL     1     -21.558 -13.491 -17.013  1.00  0.00    -0.000 C 
BRANCH   7   8
ATOM      8  C   UNL     1     -20.485 -13.333 -18.101  1.00  0.00    -0.003 C 
ATOM      9  C   UNL     1     -19.081 -13.677 -17.601  1.00  0.00     0.004 C 
ENDBRANCH   7   8
ENDBRANCH   6   7
ENDBRANCH   1   6
TORSDOF 5
ENDMDL
MODEL 5
REMARK VINA RESULT:    -3.589     13.739     14.852
REMARK INTER + INTRA:          -4.813
REMARK INTER:                  -4.590
REMARK INTRA:                  -0.223
REMARK UNBOUND:                -0.175
REMARK SMILES CCCCCCC(=O)[O-]
REMARK SMILES IDX 5 1 6 2 7 3 8 4 9 5 4 6 3 7 2 8 1 9
REMARK H PARENT
REMARK Flexibility Score: inf
ROOT
ATOM      1  C   UNL     1     -22.643 -12.965 -17.358  1.00  0.00     0.006 C 
ENDROOT
BRANCH   1   2
ATOM      2  C   UNL     1     -21.448 -13.919 -17.237  1.00  0.00     0.053 C 
BRANCH   2   3
ATOM      3  C   UNL     1     -20.231 -13.376 -17.919  1.00  0.00     0.041 C 
ATOM      4  O   UNL     1     -20.343 -12.724 -18.991  1.00  0.00    -0.550 OA
ATOM      5  O   UNL     1     -18.969 -13.618 -17.389  1.00  0.00    -0.550 OA
ENDBRANCH   2   3
ENDBRANCH   1   2
BRANCH   1   6
ATOM      6  C   UNL     1     -23.131 -12.466 -15.989  1.00  0.00     0.000 C 
BRANCH   6   7
ATOM      7  C   UNL     1     -22.683 -13.416 -14.868  1.00  0.00    -0.000 C 
BRANCH   7   8
ATOM      8  C   UNL     1     -23.824 -14.313 -14.363  1.00  0.00    -0.003 C 
ATOM      9  C   UNL     1     -25.075 -13.520 -13.984  1.00  0.00     0.004 C 
ENDBRANCH   7   8
ENDBRANCH   6   7
ENDBRANCH   1   6
TORSDOF 5
ENDMDL
MODEL 6
REMARK VINA RESULT:    -3.588     13.977     14.954
REMARK INTER + INTRA:          -4.812
REMARK INTER:                  -4.596
REMARK INTRA:                  -0.216
REMARK UNBOUND:                -0.175
REMARK SMILES CCCCCCC(=O)[O-]
REMARK SMILES IDX 5 1 6 2 7 3 8 4 9 5 4 6 3 7 2 8 1 9
REMARK H PARENT
REMARK Flexibility Score: inf
ROOT
ATOM      1  C   UNL     1     -22.551 -12.721 -17.231  1.00  0.00     0.006 C 
ENDROOT
BRANCH   1   2
ATOM      2  C   UNL     1     -21.430 -13.760 -17.099  1.00  0.00     0.053 C 
BRANCH   2   3
ATOM      3  C   UNL     1     -20.207 -13.360 -17.864  1.00  0.00     0.041 C 
ATOM      4  O   UNL     1     -19.090 -13.869 -17.585  1.00  0.00    -0.550 OA
ATOM      5  O   UNL     1     -20.294 -12.399 -18.865  1.00  0.00    -0.550 OA
ENDBRANCH   2   3
ENDBRANCH   1   2
BRANCH   1   6
ATOM      6  C   UNL     1     -23.234 -12.428 -15.886  1.00  0.00     0.000 C 
BRANCH   6   7
ATOM      7  C   UNL     1     -22.730 -13.384 -14.795  1.00  0.00    -0.000 C 
BRANCH   7   8
ATOM      8  C   UNL     1     -23.829 -14.328 -14.284  1.00  0.00    -0.003 C 
ATOM      9  C   UNL     1     -25.147 -13.605 -14.004  1.00  0.00     0.004 C 
ENDBRANCH   7   8
ENDBRANCH   6   7
ENDBRANCH   1   6
TORSDOF 5
ENDMDL
MODEL 7
REMARK VINA RESULT:    -3.567     13.086     14.610
REMARK INTER + INTRA:          -4.784
REMARK INTER:                  -4.635
REMARK INTRA:                  -0.149
REMARK UNBOUND:                -0.175
REMARK SMILES CCCCCCC(=O)[O-]
REMARK SMILES IDX 5 1 6 2 7 3 8 4 9 5 4 6 3 7 2 8 1 9
REMARK H PARENT
REMARK Flexibility Score: inf
ROOT
ATOM      1  C   UNL     1     -22.719 -13.676 -16.738  1.00  0.00     0.006 C 
ENDROOT
BRANCH   1   2
ATOM      2  C   UNL     1     -22.724 -12.324 -17.463  1.00  0.00     0.053 C 
BRANCH   2   3
ATOM      3  C   UNL     1     -21.985 -12.388 -18.764  1.00  0.00     0.041 C 
ATOM      4  O   UNL     1     -20.764 -12.085 -18.814  1.00  0.00    -0.550 OA
ATOM      5  O   UNL     1     -22.653 -12.749 -19.928  1.00  0.00    -0.550 OA
ENDBRANCH   2   3
ENDBRANCH   1   2
BRANCH   1   6
ATOM      6  C   UNL     1     -22.656 -13.516 -15.211  1.00  0.00     0.000 C 
BRANCH   6   7
ATOM      7  C   UNL     1     -23.725 -12.529 -14.718  1.00  0.00    -0.000 C 
BRANCH   7   8
ATOM      8  C   UNL     1     -24.892 -13.228 -14.004  1.00  0.00    -0.003 C 
ATOM      9  C   UNL     1     -24.775 -14.753 -14.036  1.00  0.00     0.004 C 
ENDBRANCH   7   8
ENDBRANCH   6   7
ENDBRANCH   1   6
TORSDOF 5
ENDMDL
MODEL 8
REMARK VINA RESULT:    -3.553     13.937     14.491
REMARK INTER + INTRA:          -4.766
REMARK INTER:                  -4.595
REMARK INTRA:                  -0.171
REMARK UNBOUND:                -0.175
REMARK SMILES CCCCCCC(=O)[O-]
REMARK SMILES IDX 5 1 6 2 7 3 8 4 9 5 4 6 3 7 2 8 1 9
REMARK H PARENT
REMARK Flexibility Score: inf
ROOT
ATOM      1  C   UNL     1     -22.629 -13.002 -16.555  1.00  0.00     0.006 C 
ENDROOT
BRANCH   1   2
ATOM      2  C   UNL     1     -23.471 -12.263 -15.507  1.00  0.00     0.053 C 
BRANCH   2   3
ATOM      3  C   UNL     1     -23.977 -13.189 -14.445  1.00  0.00     0.041 C 
ATOM      4  O   UNL     1     -24.870 -12.806 -13.643  1.00  0.00    -0.550 OA
ATOM      5  O   UNL     1     -23.440 -14.465 -14.319  1.00  0.00    -0.550 OA
ENDBRANCH   2   3
ENDBRANCH   1   2
BRANCH   1   6
ATOM      6  C   UNL     1     -22.312 -12.122 -17.774  1.00  0.00     0.000 C 
BRANCH   6   7
ATOM      7  C   UNL     1     -21.070 -12.639 -18.515  1.00  0.00    -0.000 C 
BRANCH   7   8
ATOM      8  C   UNL     1     -20.383 -13.800 -17.778  1.00  0.00    -0.003 C 
ATOM      9  C   UNL     1     -18.865 -13.636 -17.702  1.00  0.00     0.004 C 
ENDBRANCH   7   8
ENDBRANCH   6   7
ENDBRANCH   1   6
TORSDOF 5
ENDMDL
MODEL 9
REMARK VINA RESULT:    -3.523     12.709     14.219
REMARK INTER + INTRA:          -4.727
REMARK INTER:                  -4.544
REMARK INTRA:                  -0.183
REMARK UNBOUND:                -0.175
REMARK SMILES CCCCCCC(=O)[O-]
REMARK SMILES IDX 5 1 6 2 7 3 8 4 9 5 4 6 3 7 2 8 1 9
REMARK H PARENT
REMARK Flexibility Score: inf
ROOT
ATOM      1  C   UNL     1     -22.524 -14.306 -16.074  1.00  0.00     0.006 C 
ENDROOT
BRANCH   1   2
ATOM      2  C   UNL     1     -22.905 -13.539 -14.802  1.00  0.00     0.053 C 
BRANCH   2   3
ATOM      3  C   UNL     1     -24.187 -14.040 -14.212  1.00  0.00     0.041 C 
ATOM      4  O   UNL     1     -25.090 -13.229 -13.876  1.00  0.00    -0.550 OA
ATOM      5  O   UNL     1     -24.372 -15.402 -14.003  1.00  0.00    -0.550 OA
ENDBRANCH   2   3
ENDBRANCH   1   2
BRANCH   1   6
ATOM      6  C   UNL     1     -21.736 -13.435 -17.065  1.00  0.00     0.000 C 
BRANCH   6   7
ATOM      7  C   UNL     1     -22.536 -12.179 -17.446  1.00  0.00    -0.000 C 
BRANCH   7   8
ATOM      8  C   UNL     1     -22.507 -11.897 -18.956  1.00  0.00    -0.003 C 
ATOM      9  C   UNL     1     -22.634 -13.168 -19.797  1.00  0.00     0.004 C 
ENDBRANCH   7   8
ENDBRANCH   6   7
ENDBRANCH   1   6
TORSDOF 5
ENDMDL
