MODEL 1
REMARK VINA RESULT:    -5.356      0.000      0.000
REMARK INTER + INTRA:          -5.513
REMARK INTER:                  -5.513
REMARK INTRA:                   0.000
REMARK UNBOUND:                 0.000
REMARK SMILES Oc1ccc2[nH]ccc2c1
REMARK SMILES IDX 3 1 4 2 5 3 9 4 8 5 7 6 6 7 10 8 2 9 1 11
REMARK H PARENT 6 10 1 12
REMARK Flexibility Score: inf
ROOT
ATOM      1  C   UNL     1      21.729  44.991  14.442  1.00  0.00     0.048 A 
ATOM      2  C   UNL     1      21.608  44.669  13.078  1.00  0.00     0.030 A 
ATOM      3  C   UNL     1      20.454  45.081  12.413  1.00  0.00     0.046 A 
ATOM      4  C   UNL     1      19.463  45.776  13.054  1.00  0.00     0.003 A 
ATOM      5  C   UNL     1      18.474  46.030  12.129  1.00  0.00     0.028 A 
ATOM      6  C   UNL     1      18.929  45.459  10.944  1.00  0.00     0.083 A 
ATOM      7  N   UNL     1      20.139  44.880  11.123  1.00  0.00    -0.361 N 
ATOM      8  C   UNL     1      19.553  46.110  14.403  1.00  0.00     0.056 A 
ATOM      9  C   UNL     1      20.708  45.709  15.107  1.00  0.00     0.116 A 
ATOM     10  H   UNL     1      20.708  44.381  10.403  1.00  0.00     0.166 HD
ENDROOT
BRANCH   9  11
ATOM     11  O   UNL     1      20.853  46.015  16.457  1.00  0.00    -0.508 OA
ATOM     12  H   UNL     1      21.201  46.916  16.761  1.00  0.00     0.293 HD
ENDBRANCH   9  11
TORSDOF 1
ENDMDL
MODEL 2
REMARK VINA RESULT:    -5.162     10.753     11.656
REMARK INTER + INTRA:          -5.313
REMARK INTER:                  -5.313
REMARK INTRA:                   0.000
REMARK UNBOUND:                 0.000
REMARK SMILES Oc1ccc2[nH]ccc2c1
REMARK SMILES IDX 3 1 4 2 5 3 9 4 8 5 7 6 6 7 10 8 2 9 1 11
REMARK H PARENT 6 10 1 12
REMARK Flexibility Score: inf
ROOT
ATOM      1  C   UNL     1      20.215  36.022  12.876  1.00  0.00     0.048 A 
ATOM      2  C   UNL     1      19.645  34.908  13.520  1.00  0.00     0.030 A 
ATOM      3  C   UNL     1      20.473  33.820  13.791  1.00  0.00     0.046 A 
ATOM      4  C   UNL     1      21.799  33.821  13.446  1.00  0.00     0.003 A 
ATOM      5  C   UNL     1      22.330  32.614  13.846  1.00  0.00     0.028 A 
ATOM      6  C   UNL     1      21.269  31.926  14.428  1.00  0.00     0.083 A 
ATOM      7  N   UNL     1      20.137  32.667  14.392  1.00  0.00    -0.361 N 
ATOM      8  C   UNL     1      22.393  34.907  12.808  1.00  0.00     0.056 A 
ATOM      9  C   UNL     1      21.583  36.027  12.520  1.00  0.00     0.116 A 
ATOM     10  H   UNL     1      19.198  32.394  14.756  1.00  0.00     0.166 HD
ENDROOT
BRANCH   9  11
ATOM     11  O   UNL     1      22.121  37.142  11.883  1.00  0.00    -0.508 OA
ATOM     12  H   UNL     1      22.588  37.875  12.404  1.00  0.00     0.293 HD
ENDBRANCH   9  11
TORSDOF 1
ENDMDL
MODEL 3
REMARK VINA RESULT:    -5.104     10.978     11.629
REMARK INTER + INTRA:          -5.253
REMARK INTER:                  -5.253
REMARK INTRA:                   0.000
REMARK UNBOUND:                 0.000
REMARK SMILES Oc1ccc2[nH]ccc2c1
REMARK SMILES IDX 3 1 4 2 5 3 9 4 8 5 7 6 6 7 10 8 2 9 1 11
REMARK H PARENT 6 10 1 12
REMARK Flexibility Score: inf
ROOT
ATOM      1  C   UNL     1      22.179  32.796  14.706  1.00  0.00     0.048 A 
ATOM      2  C   UNL     1      22.779  33.986  14.253  1.00  0.00     0.030 A 
ATOM      3  C   UNL     1      22.024  34.824  13.434  1.00  0.00     0.046 A 
ATOM      4  C   UNL     1      20.740  34.512  13.074  1.00  0.00     0.003 A 
ATOM      5  C   UNL     1      20.278  35.533  12.271  1.00  0.00     0.028 A 
ATOM      6  C   UNL     1      21.336  36.434  12.185  1.00  0.00     0.083 A 
ATOM      7  N   UNL     1      22.400  35.996  12.897  1.00  0.00    -0.361 N 
ATOM      8  C   UNL     1      20.117  33.343  13.504  1.00  0.00     0.056 A 
ATOM      9  C   UNL     1      20.853  32.472  14.336  1.00  0.00     0.116 A 
ATOM     10  H   UNL     1      23.322  36.474  13.004  1.00  0.00     0.166 HD
ENDROOT
BRANCH   9  11
ATOM     11  O   UNL     1      20.283  31.289  14.797  1.00  0.00    -0.508 OA
ATOM     12  H   UNL     1      20.853  30.526  15.143  1.00  0.00     0.293 HD
ENDBRANCH   9  11
TORSDOF 1
ENDMDL
MODEL 4
REMARK VINA RESULT:    -4.791     11.814     12.533
REMARK INTER + INTRA:          -4.931
REMARK INTER:                  -4.931
REMARK INTRA:                   0.000
REMARK UNBOUND:                 0.000
REMARK SMILES Oc1ccc2[nH]ccc2c1
REMARK SMILES IDX 3 1 4 2 5 3 9 4 8 5 7 6 6 7 10 8 2 9 1 11
REMARK H PARENT 6 10 1 12
REMARK Flexibility Score: inf
ROOT
ATOM      1  C   UNL     1      22.747  34.504  14.333  1.00  0.00     0.048 A 
ATOM      2  C   UNL     1      22.342  33.283  14.903  1.00  0.00     0.030 A 
ATOM      3  C   UNL     1      21.386  32.532  14.222  1.00  0.00     0.046 A 
ATOM      4  C   UNL     1      20.849  32.957  13.035  1.00  0.00     0.003 A 
ATOM      5  C   UNL     1      19.945  32.001  12.626  1.00  0.00     0.028 A 
ATOM      6  C   UNL     1      19.983  31.019  13.613  1.00  0.00     0.083 A 
ATOM      7  N   UNL     1      20.865  31.348  14.585  1.00  0.00    -0.361 N 
ATOM      8  C   UNL     1      21.227  34.160  12.445  1.00  0.00     0.056 A 
ATOM      9  C   UNL     1      22.194  34.945  13.108  1.00  0.00     0.116 A 
ATOM     10  H   UNL     1      21.091  30.794  15.441  1.00  0.00     0.166 HD
ENDROOT
BRANCH   9  11
ATOM     11  O   UNL     1      22.611  36.158  12.566  1.00  0.00    -0.508 OA
ATOM     12  H   UNL     1      22.107  36.600  11.807  1.00  0.00     0.293 HD
ENDBRANCH   9  11
TORSDOF 1
ENDMDL
MODEL 5
REMARK VINA RESULT:    -4.788     10.858     11.849
REMARK INTER + INTRA:          -4.928
REMARK INTER:                  -4.928
REMARK INTRA:                   0.000
REMARK UNBOUND:                 0.000
REMARK SMILES Oc1ccc2[nH]ccc2c1
REMARK SMILES IDX 3 1 4 2 5 3 9 4 8 5 7 6 6 7 10 8 2 9 1 11
REMARK H PARENT 6 10 1 12
REMARK Flexibility Score: inf
ROOT
ATOM      1  C   UNL     1      22.579  34.544  10.649  1.00  0.00     0.048 A 
ATOM      2  C   UNL     1      22.814  33.351  11.358  1.00  0.00     0.030 A 
ATOM      3  C   UNL     1      22.759  33.401  12.750  1.00  0.00     0.046 A 
ATOM      4  C   UNL     1      22.487  34.566  13.418  1.00  0.00     0.003 A 
ATOM      5  C   UNL     1      22.506  34.280  14.767  1.00  0.00     0.028 A 
ATOM      6  C   UNL     1      22.796  32.921  14.846  1.00  0.00     0.083 A 
ATOM      7  N   UNL     1      22.950  32.389  13.612  1.00  0.00    -0.361 N 
ATOM      8  C   UNL     1      22.251  35.762  12.747  1.00  0.00     0.056 A 
ATOM      9  C   UNL     1      22.298  35.747  11.336  1.00  0.00     0.116 A 
ATOM     10  H   UNL     1      23.171  31.395  13.381  1.00  0.00     0.166 HD
ENDROOT
BRANCH   9  11
ATOM     11  O   UNL     1      22.069  36.913  10.611  1.00  0.00    -0.508 OA
ATOM     12  H   UNL     1      21.297  37.531  10.830  1.00  0.00     0.293 HD
ENDBRANCH   9  11
TORSDOF 1
ENDMDL
MODEL 6
REMARK VINA RESULT:    -4.787      2.504      3.934
REMARK INTER + INTRA:          -4.927
REMARK INTER:                  -4.927
REMARK INTRA:                   0.000
REMARK UNBOUND:                 0.000
REMARK SMILES Oc1ccc2[nH]ccc2c1
REMARK SMILES IDX 3 1 4 2 5 3 9 4 8 5 7 6 6 7 10 8 2 9 1 11
REMARK H PARENT 6 10 1 12
REMARK Flexibility Score: inf
ROOT
ATOM      1  C   UNL     1      19.080  46.125  13.108  1.00  0.00     0.048 A 
ATOM      2  C   UNL     1      19.801  45.813  14.275  1.00  0.00     0.030 A 
ATOM      3  C   UNL     1      21.032  45.175  14.130  1.00  0.00     0.046 A 
ATOM      4  C   UNL     1      21.534  44.855  12.896  1.00  0.00     0.003 A 
ATOM      5  C   UNL     1      22.752  44.240  13.095  1.00  0.00     0.028 A 
ATOM      6  C   UNL     1      22.927  44.220  14.475  1.00  0.00     0.083 A 
ATOM      7  N   UNL     1      21.874  44.792  15.103  1.00  0.00    -0.361 N 
ATOM      8  C   UNL     1      20.846  45.148  11.722  1.00  0.00     0.056 A 
ATOM      9  C   UNL     1      19.597  45.795  11.833  1.00  0.00     0.116 A 
ATOM     10  H   UNL     1      21.746  44.910  16.132  1.00  0.00     0.166 HD
ENDROOT
BRANCH   9  11
ATOM     11  O   UNL     1      18.864  46.114  10.693  1.00  0.00    -0.508 OA
ATOM     12  H   UNL     1      19.296  46.146   9.778  1.00  0.00     0.293 HD
ENDBRANCH   9  11
TORSDOF 1
ENDMDL
MODEL 7
REMARK VINA RESULT:    -4.776     10.112     10.921
REMARK INTER + INTRA:          -4.916
REMARK INTER:                  -4.916
REMARK INTRA:                   0.000
REMARK UNBOUND:                 0.000
REMARK SMILES Oc1ccc2[nH]ccc2c1
REMARK SMILES IDX 3 1 4 2 5 3 9 4 8 5 7 6 6 7 10 8 2 9 1 11
REMARK H PARENT 6 10 1 12
REMARK Flexibility Score: inf
ROOT
ATOM      1  C   UNL     1      19.752  34.857  13.998  1.00  0.00     0.048 A 
ATOM      2  C   UNL     1      20.125  36.044  13.340  1.00  0.00     0.030 A 
ATOM      3  C   UNL     1      21.154  35.973  12.404  1.00  0.00     0.046 A 
ATOM      4  C   UNL     1      21.792  34.793  12.124  1.00  0.00     0.003 A 
ATOM      5  C   UNL     1      22.748  35.059  11.167  1.00  0.00     0.028 A 
ATOM      6  C   UNL     1      22.637  36.423  10.911  1.00  0.00     0.083 A 
ATOM      7  N   UNL     1      21.662  36.976  11.669  1.00  0.00    -0.361 N 
ATOM      8  C   UNL     1      21.448  33.602  12.757  1.00  0.00     0.056 A 
ATOM      9  C   UNL     1      20.408  33.638  13.710  1.00  0.00     0.116 A 
ATOM     10  H   UNL     1      21.368  37.978  11.679  1.00  0.00     0.166 HD
ENDROOT
BRANCH   9  11
ATOM     11  O   UNL     1      20.020  32.478  14.375  1.00  0.00    -0.508 OA
ATOM     12  H   UNL     1      19.121  32.407  14.836  1.00  0.00     0.293 HD
ENDBRANCH   9  11
TORSDOF 1
ENDMDL
MODEL 8
REMARK VINA RESULT:    -4.666     11.673     12.312
REMARK INTER + INTRA:          -4.802
REMARK INTER:                  -4.802
REMARK INTRA:                   0.000
REMARK UNBOUND:                 0.000
REMARK SMILES Oc1ccc2[nH]ccc2c1
REMARK SMILES IDX 3 1 4 2 5 3 9 4 8 5 7 6 6 7 10 8 2 9 1 11
REMARK H PARENT 6 10 1 12
REMARK Flexibility Score: inf
ROOT
ATOM      1  C   UNL     1      19.937  31.809  11.848  1.00  0.00     0.048 A 
ATOM      2  C   UNL     1      19.740  33.090  11.299  1.00  0.00     0.030 A 
ATOM      3  C   UNL     1      19.834  34.186  12.154  1.00  0.00     0.046 A 
ATOM      4  C   UNL     1      20.105  34.036  13.489  1.00  0.00     0.003 A 
ATOM      5  C   UNL     1      20.129  35.295  14.048  1.00  0.00     0.028 A 
ATOM      6  C   UNL     1      19.862  36.166  12.995  1.00  0.00     0.083 A 
ATOM      7  N   UNL     1      19.683  35.483  11.840  1.00  0.00    -0.361 N 
ATOM      8  C   UNL     1      20.304  32.784  14.064  1.00  0.00     0.056 A 
ATOM      9  C   UNL     1      20.218  31.652  13.225  1.00  0.00     0.116 A 
ATOM     10  H   UNL     1      19.470  35.885  10.900  1.00  0.00     0.166 HD
ENDROOT
BRANCH   9  11
ATOM     11  O   UNL     1      20.408  30.374  13.744  1.00  0.00    -0.508 OA
ATOM     12  H   UNL     1      20.787  30.230  14.672  1.00  0.00     0.293 HD
ENDBRANCH   9  11
TORSDOF 1
ENDMDL
MODEL 9
REMARK VINA RESULT:    -4.652     10.770     11.537
REMARK INTER + INTRA:          -4.788
REMARK INTER:                  -4.788
REMARK INTRA:                   0.000
REMARK UNBOUND:                 0.000
REMARK SMILES Oc1ccc2[nH]ccc2c1
REMARK SMILES IDX 3 1 4 2 5 3 9 4 8 5 7 6 6 7 10 8 2 9 1 11
REMARK H PARENT 6 10 1 12
REMARK Flexibility Score: inf
ROOT
ATOM      1  C   UNL     1      21.599  36.041  12.530  1.00  0.00     0.048 A 
ATOM      2  C   UNL     1      22.397  34.884  12.588  1.00  0.00     0.030 A 
ATOM      3  C   UNL     1      21.851  33.746  13.179  1.00  0.00     0.046 A 
ATOM      4  C   UNL     1      20.581  33.742  13.694  1.00  0.00     0.003 A 
ATOM      5  C   UNL     1      20.347  32.482  14.200  1.00  0.00     0.028 A 
ATOM      6  C   UNL     1      21.519  31.770  13.960  1.00  0.00     0.083 A 
ATOM      7  N   UNL     1      22.434  32.547  13.337  1.00  0.00    -0.361 N 
ATOM      8  C   UNL     1      19.767  34.870  13.653  1.00  0.00     0.056 A 
ATOM      9  C   UNL     1      20.288  36.039  13.060  1.00  0.00     0.116 A 
ATOM     10  H   UNL     1      23.396  32.268  13.040  1.00  0.00     0.166 HD
ENDROOT
BRANCH   9  11
ATOM     11  O   UNL     1      19.520  37.198  12.990  1.00  0.00    -0.508 OA
ATOM     12  H   UNL     1      18.569  37.183  12.642  1.00  0.00     0.293 HD
ENDBRANCH   9  11
TORSDOF 1
ENDMDL
