MODEL 1
REMARK VINA RESULT:    -5.443      0.000      0.000
REMARK INTER + INTRA:          -6.857
REMARK INTER:                  -6.715
REMARK INTRA:                  -0.141
REMARK UNBOUND:                -0.141
REMARK SMILES CCOC(=O)c1ccc(O)c(O)c1
REMARK SMILES IDX 4 1 5 2 3 3 2 4 1 5 6 6 13 7 7 8 11 9 8 10 9 11 12 12 10 14
REMARK H PARENT 12 13 10 15
REMARK Flexibility Score: inf
ROOT
ATOM      1  C   UNL     1     -14.585 -20.334  -8.121  1.00  0.00     0.338 C 
ATOM      2  O   UNL     1     -14.614 -20.379  -9.382  1.00  0.00    -0.246 OA
ENDROOT
BRANCH   1   3
ATOM      3  O   UNL     1     -15.781 -20.288  -7.392  1.00  0.00    -0.462 OA
BRANCH   3   4
ATOM      4  C   UNL     1     -17.072 -20.341  -7.994  1.00  0.00     0.230 C 
ATOM      5  C   UNL     1     -18.083 -19.556  -7.167  1.00  0.00     0.049 C 
ENDBRANCH   3   4
ENDBRANCH   1   3
BRANCH   1   6
ATOM      6  C   UNL     1     -13.288 -20.335  -7.409  1.00  0.00     0.064 A 
ATOM      7  C   UNL     1     -13.220 -20.719  -6.058  1.00  0.00     0.065 A 
ATOM      8  C   UNL     1     -12.106 -19.951  -8.068  1.00  0.00     0.020 A 
ATOM      9  C   UNL     1     -11.995 -20.722  -5.376  1.00  0.00     0.158 A 
ATOM     10  C   UNL     1     -10.885 -19.954  -7.390  1.00  0.00     0.051 A 
ATOM     11  C   UNL     1     -10.822 -20.337  -6.047  1.00  0.00     0.157 A 
BRANCH   9  12
ATOM     12  O   UNL     1     -11.939 -21.104  -4.037  1.00  0.00    -0.504 OA
ATOM     13  H   UNL     1     -12.421 -20.582  -3.314  1.00  0.00     0.293 HD
ENDBRANCH   9  12
BRANCH  11  14
ATOM     14  O   UNL     1      -9.588 -20.328  -5.397  1.00  0.00    -0.504 OA
ATOM     15  H   UNL     1      -9.061 -21.178  -5.233  1.00  0.00     0.293 HD
ENDBRANCH  11  14
ENDBRANCH   1   6
TORSDOF 5
ENDMDL
MODEL 2
REMARK VINA RESULT:    -5.380     12.670     14.251
REMARK INTER + INTRA:          -6.779
REMARK INTER:                  -6.503
REMARK INTRA:                  -0.275
REMARK UNBOUND:                -0.141
REMARK SMILES CCOC(=O)c1ccc(O)c(O)c1
REMARK SMILES IDX 4 1 5 2 3 3 2 4 1 5 6 6 13 7 7 8 11 9 8 10 9 11 12 12 10 14
REMARK H PARENT 12 13 10 15
REMARK Flexibility Score: inf
ROOT
ATOM      1  C   UNL     1     -13.159  -9.147 -15.637  1.00  0.00     0.338 C 
ATOM      2  O   UNL     1     -12.876  -8.589 -16.733  1.00  0.00    -0.246 OA
ENDROOT
BRANCH   1   3
ATOM      3  O   UNL     1     -12.157  -9.374 -14.685  1.00  0.00    -0.462 OA
BRANCH   3   4
ATOM      4  C   UNL     1     -10.947 -10.074 -14.967  1.00  0.00     0.230 C 
ATOM      5  C   UNL     1     -11.224 -11.555 -15.196  1.00  0.00     0.049 C 
ENDBRANCH   3   4
ENDBRANCH   1   3
BRANCH   1   6
ATOM      6  C   UNL     1     -14.552  -9.557 -15.352  1.00  0.00     0.064 A 
ATOM      7  C   UNL     1     -15.313  -8.865 -14.393  1.00  0.00     0.065 A 
ATOM      8  C   UNL     1     -15.135 -10.641 -16.031  1.00  0.00     0.020 A 
ATOM      9  C   UNL     1     -16.634  -9.248 -14.117  1.00  0.00     0.158 A 
ATOM     10  C   UNL     1     -16.450 -11.024 -15.757  1.00  0.00     0.051 A 
ATOM     11  C   UNL     1     -17.204 -10.334 -14.804  1.00  0.00     0.157 A 
BRANCH   9  12
ATOM     12  O   UNL     1     -17.380  -8.556 -13.165  1.00  0.00    -0.504 OA
ATOM     13  H   UNL     1     -18.172  -7.980 -13.426  1.00  0.00     0.293 HD
ENDBRANCH   9  12
BRANCH  11  14
ATOM     14  O   UNL     1     -18.514 -10.740 -14.552  1.00  0.00    -0.504 OA
ATOM     15  H   UNL     1     -19.137 -10.208 -13.956  1.00  0.00     0.293 HD
ENDBRANCH  11  14
ENDBRANCH   1   6
TORSDOF 5
ENDMDL
MODEL 3
REMARK VINA RESULT:    -5.363     12.474     14.150
REMARK INTER + INTRA:          -6.758
REMARK INTER:                  -6.575
REMARK INTRA:                  -0.183
REMARK UNBOUND:                -0.141
REMARK SMILES CCOC(=O)c1ccc(O)c(O)c1
REMARK SMILES IDX 4 1 5 2 3 3 2 4 1 5 6 6 13 7 7 8 11 9 8 10 9 11 12 12 10 14
REMARK H PARENT 12 13 10 15
REMARK Flexibility Score: inf
ROOT
ATOM      1  C   UNL     1     -13.862 -10.266 -15.962  1.00  0.00     0.338 C 
ATOM      2  O   UNL     1     -13.487 -10.215 -17.166  1.00  0.00    -0.246 OA
ENDROOT
BRANCH   1   3
ATOM      3  O   UNL     1     -12.925 -10.131 -14.929  1.00  0.00    -0.462 OA
BRANCH   3   4
ATOM      4  C   UNL     1     -11.515 -10.184 -15.133  1.00  0.00     0.230 C 
ATOM      5  C   UNL     1     -10.994 -11.601 -14.918  1.00  0.00     0.049 C 
ENDBRANCH   3   4
ENDBRANCH   1   3
BRANCH   1   6
ATOM      6  C   UNL     1     -15.292 -10.463 -15.638  1.00  0.00     0.064 A 
ATOM      7  C   UNL     1     -16.172 -10.991 -16.600  1.00  0.00     0.065 A 
ATOM      8  C   UNL     1     -15.794 -10.124 -14.369  1.00  0.00     0.020 A 
ATOM      9  C   UNL     1     -17.528 -11.179 -16.300  1.00  0.00     0.158 A 
ATOM     10  C   UNL     1     -17.145 -10.311 -14.069  1.00  0.00     0.051 A 
ATOM     11  C   UNL     1     -18.016 -10.837 -15.027  1.00  0.00     0.157 A 
BRANCH   9  12
ATOM     12  O   UNL     1     -18.392 -11.704 -17.260  1.00  0.00    -0.504 OA
ATOM     13  H   UNL     1     -18.972 -12.513 -17.068  1.00  0.00     0.293 HD
ENDBRANCH   9  12
BRANCH  11  14
ATOM     14  O   UNL     1     -19.360 -11.012 -14.698  1.00  0.00    -0.504 OA
ATOM     15  H   UNL     1     -19.660 -11.217 -13.752  1.00  0.00     0.293 HD
ENDBRANCH  11  14
ENDBRANCH   1   6
TORSDOF 5
ENDMDL
MODEL 4
REMARK VINA RESULT:    -5.330      2.142      5.754
REMARK INTER + INTRA:          -6.717
REMARK INTER:                  -6.554
REMARK INTRA:                  -0.163
REMARK UNBOUND:                -0.141
REMARK SMILES CCOC(=O)c1ccc(O)c(O)c1
REMARK SMILES IDX 4 1 5 2 3 3 2 4 1 5 6 6 13 7 7 8 11 9 8 10 9 11 12 12 10 14
REMARK H PARENT 12 13 10 15
REMARK Flexibility Score: inf
ROOT
ATOM      1  C   UNL     1      -9.247 -19.795  -6.700  1.00  0.00     0.338 C 
ATOM      2  O   UNL     1      -8.589 -20.631  -6.021  1.00  0.00    -0.246 OA
ENDROOT
BRANCH   1   3
ATOM      3  O   UNL     1      -8.577 -18.841  -7.479  1.00  0.00    -0.462 OA
BRANCH   3   4
ATOM      4  C   UNL     1      -7.255 -19.022  -7.981  1.00  0.00     0.230 C 
ATOM      5  C   UNL     1      -6.258 -18.191  -7.182  1.00  0.00     0.049 C 
ENDBRANCH   3   4
ENDBRANCH   1   3
BRANCH   1   6
ATOM      6  C   UNL     1     -10.726 -19.824  -6.682  1.00  0.00     0.064 A 
ATOM      7  C   UNL     1     -11.411 -20.424  -5.611  1.00  0.00     0.065 A 
ATOM      8  C   UNL     1     -11.468 -19.255  -7.732  1.00  0.00     0.020 A 
ATOM      9  C   UNL     1     -12.812 -20.456  -5.587  1.00  0.00     0.158 A 
ATOM     10  C   UNL     1     -12.864 -19.286  -7.710  1.00  0.00     0.051 A 
ATOM     11  C   UNL     1     -13.542 -19.883  -6.643  1.00  0.00     0.157 A 
BRANCH   9  12
ATOM     12  O   UNL     1     -13.482 -21.053  -4.520  1.00  0.00    -0.504 OA
ATOM     13  H   UNL     1     -12.981 -21.450  -3.734  1.00  0.00     0.293 HD
ENDBRANCH   9  12
BRANCH  11  14
ATOM     14  O   UNL     1     -14.936 -19.899  -6.649  1.00  0.00    -0.504 OA
ATOM     15  H   UNL     1     -15.469 -20.591  -6.136  1.00  0.00     0.293 HD
ENDBRANCH  11  14
ENDBRANCH   1   6
TORSDOF 5
ENDMDL
MODEL 5
REMARK VINA RESULT:    -5.261     13.023     14.595
REMARK INTER + INTRA:          -6.633
REMARK INTER:                  -6.356
REMARK INTRA:                  -0.277
REMARK UNBOUND:                -0.141
REMARK SMILES CCOC(=O)c1ccc(O)c(O)c1
REMARK SMILES IDX 4 1 5 2 3 3 2 4 1 5 6 6 13 7 7 8 11 9 8 10 9 11 12 12 10 14
REMARK H PARENT 12 13 10 15
REMARK Flexibility Score: inf
ROOT
ATOM      1  C   UNL     1     -13.829 -10.288 -16.046  1.00  0.00     0.338 C 
ATOM      2  O   UNL     1     -12.928 -10.797 -15.325  1.00  0.00    -0.246 OA
ENDROOT
BRANCH   1   3
ATOM      3  O   UNL     1     -13.484  -9.553 -17.188  1.00  0.00    -0.462 OA
BRANCH   3   4
ATOM      4  C   UNL     1     -12.790  -8.309 -17.143  1.00  0.00     0.230 C 
ATOM      5  C   UNL     1     -13.743  -7.173 -16.788  1.00  0.00     0.049 C 
ENDBRANCH   3   4
ENDBRANCH   1   3
BRANCH   1   6
ATOM      6  C   UNL     1     -15.254 -10.471 -15.692  1.00  0.00     0.064 A 
ATOM      7  C   UNL     1     -16.158 -10.994 -16.634  1.00  0.00     0.065 A 
ATOM      8  C   UNL     1     -15.727 -10.125 -14.414  1.00  0.00     0.020 A 
ATOM      9  C   UNL     1     -17.510 -11.170 -16.306  1.00  0.00     0.158 A 
ATOM     10  C   UNL     1     -17.073 -10.300 -14.085  1.00  0.00     0.051 A 
ATOM     11  C   UNL     1     -17.969 -10.820 -15.024  1.00  0.00     0.157 A 
BRANCH   9  12
ATOM     12  O   UNL     1     -18.398 -11.689 -17.247  1.00  0.00    -0.504 OA
ATOM     13  H   UNL     1     -19.344 -11.336 -17.336  1.00  0.00     0.293 HD
ENDBRANCH   9  12
BRANCH  11  14
ATOM     14  O   UNL     1     -19.307 -10.983 -14.667  1.00  0.00    -0.504 OA
ATOM     15  H   UNL     1     -19.952 -10.202 -14.629  1.00  0.00     0.293 HD
ENDBRANCH  11  14
ENDBRANCH   1   6
TORSDOF 5
ENDMDL
MODEL 6
REMARK VINA RESULT:    -5.234      2.949      6.228
REMARK INTER + INTRA:          -6.599
REMARK INTER:                  -6.462
REMARK INTRA:                  -0.137
REMARK UNBOUND:                -0.141
REMARK SMILES CCOC(=O)c1ccc(O)c(O)c1
REMARK SMILES IDX 4 1 5 2 3 3 2 4 1 5 6 6 13 7 7 8 11 9 8 10 9 11 12 12 10 14
REMARK H PARENT 12 13 10 15
REMARK Flexibility Score: inf
ROOT
ATOM      1  C   UNL     1      -8.245 -19.643  -7.118  1.00  0.00     0.338 C 
ATOM      2  O   UNL     1      -7.647 -20.745  -7.266  1.00  0.00    -0.246 OA
ENDROOT
BRANCH   1   3
ATOM      3  O   UNL     1      -7.563 -18.439  -7.340  1.00  0.00    -0.462 OA
BRANCH   3   4
ATOM      4  C   UNL     1      -6.161 -18.362  -7.585  1.00  0.00     0.230 C 
ATOM      5  C   UNL     1      -5.501 -17.374  -6.629  1.00  0.00     0.049 C 
ENDBRANCH   3   4
ENDBRANCH   1   3
BRANCH   1   6
ATOM      6  C   UNL     1      -9.668 -19.620  -6.716  1.00  0.00     0.064 A 
ATOM      7  C   UNL     1     -10.128 -20.454  -5.681  1.00  0.00     0.065 A 
ATOM      8  C   UNL     1     -10.583 -18.769  -7.362  1.00  0.00     0.020 A 
ATOM      9  C   UNL     1     -11.476 -20.438  -5.296  1.00  0.00     0.158 A 
ATOM     10  C   UNL     1     -11.926 -18.752  -6.979  1.00  0.00     0.051 A 
ATOM     11  C   UNL     1     -12.379 -19.582  -5.949  1.00  0.00     0.157 A 
BRANCH   9  12
ATOM     12  O   UNL     1     -11.921 -21.269  -4.269  1.00  0.00    -0.504 OA
ATOM     13  H   UNL     1     -11.696 -21.081  -3.299  1.00  0.00     0.293 HD
ENDBRANCH   9  12
BRANCH  11  14
ATOM     14  O   UNL     1     -13.725 -19.542  -5.589  1.00  0.00    -0.504 OA
ATOM     15  H   UNL     1     -14.060 -19.923  -4.712  1.00  0.00     0.293 HD
ENDBRANCH  11  14
ENDBRANCH   1   6
TORSDOF 5
ENDMDL
MODEL 7
REMARK VINA RESULT:    -5.204      3.155      6.598
REMARK INTER + INTRA:          -6.562
REMARK INTER:                  -6.350
REMARK INTRA:                  -0.212
REMARK UNBOUND:                -0.141
REMARK SMILES CCOC(=O)c1ccc(O)c(O)c1
REMARK SMILES IDX 4 1 5 2 3 3 2 4 1 5 6 6 13 7 7 8 11 9 8 10 9 11 12 12 10 14
REMARK H PARENT 12 13 10 15
REMARK Flexibility Score: inf
ROOT
ATOM      1  C   UNL     1      -7.930 -19.732  -6.897  1.00  0.00     0.338 C 
ATOM      2  O   UNL     1      -7.219 -20.627  -6.361  1.00  0.00    -0.246 OA
ENDROOT
BRANCH   1   3
ATOM      3  O   UNL     1      -7.353 -18.815  -7.786  1.00  0.00    -0.462 OA
BRANCH   3   4
ATOM      4  C   UNL     1      -5.966 -18.489  -7.790  1.00  0.00     0.230 C 
ATOM      5  C   UNL     1      -5.650 -17.466  -6.704  1.00  0.00     0.049 C 
ENDBRANCH   3   4
ENDBRANCH   1   3
BRANCH   1   6
ATOM      6  C   UNL     1      -9.376 -19.653  -6.592  1.00  0.00     0.064 A 
ATOM      7  C   UNL     1     -10.186 -18.700  -7.235  1.00  0.00     0.065 A 
ATOM      8  C   UNL     1      -9.961 -20.523  -5.656  1.00  0.00     0.020 A 
ATOM      9  C   UNL     1     -11.556 -18.619  -6.951  1.00  0.00     0.158 A 
ATOM     10  C   UNL     1     -11.326 -20.443  -5.372  1.00  0.00     0.051 A 
ATOM     11  C   UNL     1     -12.128 -19.495  -6.014  1.00  0.00     0.157 A 
BRANCH   9  12
ATOM     12  O   UNL     1     -12.350 -17.671  -7.595  1.00  0.00    -0.504 OA
ATOM     13  H   UNL     1     -13.209 -17.328  -7.181  1.00  0.00     0.293 HD
ENDBRANCH   9  12
BRANCH  11  14
ATOM     14  O   UNL     1     -13.488 -19.440  -5.709  1.00  0.00    -0.504 OA
ATOM     15  H   UNL     1     -14.042 -18.607  -5.870  1.00  0.00     0.293 HD
ENDBRANCH  11  14
ENDBRANCH   1   6
TORSDOF 5
ENDMDL
MODEL 8
REMARK VINA RESULT:    -5.178      2.842      4.567
REMARK INTER + INTRA:          -6.530
REMARK INTER:                  -6.281
REMARK INTRA:                  -0.249
REMARK UNBOUND:                -0.141
REMARK SMILES CCOC(=O)c1ccc(O)c(O)c1
REMARK SMILES IDX 4 1 5 2 3 3 2 4 1 5 6 6 13 7 7 8 11 9 8 10 9 11 12 12 10 14
REMARK H PARENT 12 13 10 15
REMARK Flexibility Score: inf
ROOT
ATOM      1  C   UNL     1     -12.278 -22.059 -10.112  1.00  0.00     0.338 C 
ATOM      2  O   UNL     1     -12.726 -23.234 -10.005  1.00  0.00    -0.246 OA
ENDROOT
BRANCH   1   3
ATOM      3  O   UNL     1     -11.717 -21.629 -11.322  1.00  0.00    -0.462 OA
BRANCH   3   4
ATOM      4  C   UNL     1     -10.955 -22.475 -12.181  1.00  0.00     0.230 C 
ATOM      5  C   UNL     1      -9.496 -22.514 -11.742  1.00  0.00     0.049 C 
ENDBRANCH   3   4
ENDBRANCH   1   3
BRANCH   1   6
ATOM      6  C   UNL     1     -12.350 -21.129  -8.963  1.00  0.00     0.064 A 
ATOM      7  C   UNL     1     -13.569 -20.923  -8.292  1.00  0.00     0.065 A 
ATOM      8  C   UNL     1     -11.207 -20.437  -8.526  1.00  0.00     0.020 A 
ATOM      9  C   UNL     1     -13.645 -20.044  -7.203  1.00  0.00     0.158 A 
ATOM     10  C   UNL     1     -11.281 -19.561  -7.441  1.00  0.00     0.051 A 
ATOM     11  C   UNL     1     -12.494 -19.359  -6.776  1.00  0.00     0.157 A 
BRANCH   9  12
ATOM     12  O   UNL     1     -14.858 -19.847  -6.545  1.00  0.00    -0.504 OA
ATOM     13  H   UNL     1     -15.005 -20.169  -5.595  1.00  0.00     0.293 HD
ENDBRANCH   9  12
BRANCH  11  14
ATOM     14  O   UNL     1     -12.537 -18.477  -5.697  1.00  0.00    -0.504 OA
ATOM     15  H   UNL     1     -12.699 -18.795  -4.749  1.00  0.00     0.293 HD
ENDBRANCH  11  14
ENDBRANCH   1   6
TORSDOF 5
ENDMDL
MODEL 9
REMARK VINA RESULT:    -5.142     13.429     14.593
REMARK INTER + INTRA:          -6.485
REMARK INTER:                  -6.163
REMARK INTRA:                  -0.322
REMARK UNBOUND:                -0.141
REMARK SMILES CCOC(=O)c1ccc(O)c(O)c1
REMARK SMILES IDX 4 1 5 2 3 3 2 4 1 5 6 6 13 7 7 8 11 9 8 10 9 11 12 12 10 14
REMARK H PARENT 12 13 10 15
REMARK Flexibility Score: inf
ROOT
ATOM      1  C   UNL     1     -13.700 -10.224 -16.373  1.00  0.00     0.338 C 
ATOM      2  O   UNL     1     -12.760 -10.726 -15.698  1.00  0.00    -0.246 OA
ENDROOT
BRANCH   1   3
ATOM      3  O   UNL     1     -13.428  -9.589 -17.592  1.00  0.00    -0.462 OA
BRANCH   3   4
ATOM      4  C   UNL     1     -13.961  -8.317 -17.954  1.00  0.00     0.230 C 
ATOM      5  C   UNL     1     -13.461  -7.235 -17.003  1.00  0.00     0.049 C 
ENDBRANCH   3   4
ENDBRANCH   1   3
BRANCH   1   6
ATOM      6  C   UNL     1     -15.094 -10.311 -15.882  1.00  0.00     0.064 A 
ATOM      7  C   UNL     1     -15.488  -9.599 -14.736  1.00  0.00     0.065 A 
ATOM      8  C   UNL     1     -16.042 -11.105 -16.551  1.00  0.00     0.020 A 
ATOM      9  C   UNL     1     -16.807  -9.676 -14.265  1.00  0.00     0.158 A 
ATOM     10  C   UNL     1     -17.356 -11.184 -16.083  1.00  0.00     0.051 A 
ATOM     11  C   UNL     1     -17.744 -10.474 -14.943  1.00  0.00     0.157 A 
BRANCH   9  12
ATOM     12  O   UNL     1     -17.188  -8.966 -13.128  1.00  0.00    -0.504 OA
ATOM     13  H   UNL     1     -17.167  -9.388 -12.206  1.00  0.00     0.293 HD
ENDBRANCH   9  12
BRANCH  11  14
ATOM     14  O   UNL     1     -19.063 -10.572 -14.500  1.00  0.00    -0.504 OA
ATOM     15  H   UNL     1     -19.505  -9.839 -13.960  1.00  0.00     0.293 HD
ENDBRANCH  11  14
ENDBRANCH   1   6
TORSDOF 5
ENDMDL
