MODEL 1
REMARK VINA RESULT:    -8.261      0.000      0.000
REMARK INTER + INTRA:         -13.669
REMARK INTER:                 -12.125
REMARK INTRA:                  -1.544
REMARK UNBOUND:                -1.544
REMARK SMILES O=c1c(O[C@H]2O[C@H](CO)[C@@H](O)[C@@H](O)[C@@H]2O)c(-c2ccc(O)c(O)c2)oc2cc(O)cc(O)c12
REMARK SMILES IDX 4 1 3 2 16 3 25 4 2 5 26 6 1 7 33 8 27 9 31 10 28 11 30 12
REMARK SMILES IDX 17 13 18 14 19 15 20 16 24 17 22 18 21 19 23 21 32 23 29 25
REMARK SMILES IDX 5 27 14 28 6 29 12 30 7 31 10 32 15 33 13 35 8 37 9 38 11 40
REMARK H PARENT 21 20 23 22 32 24 29 26 15 34 13 36 9 39 11 41
REMARK Flexibility Score: inf
ROOT
ATOM      1  O   UNL     1      30.846  34.925  38.429  1.00  0.00    -0.454 OA
ENDROOT
BRANCH   1   2
ATOM      2  C   UNL     1      31.644  34.410  37.387  1.00  0.00     0.214 A 
ATOM      3  C   UNL     1      32.104  33.083  37.499  1.00  0.00     0.180 A 
ATOM      4  O   UNL     1      32.794  32.528  36.508  1.00  0.00    -0.452 OA
ATOM      5  C   UNL     1      31.980  35.140  36.225  1.00  0.00     0.239 A 
ATOM      6  C   UNL     1      33.111  33.169  35.392  1.00  0.00     0.146 A 
ATOM      7  O   UNL     1      31.630  36.343  36.106  1.00  0.00    -0.285 OA
ATOM      8  C   UNL     1      32.723  34.514  35.200  1.00  0.00     0.111 A 
ATOM      9  C   UNL     1      33.840  32.497  34.406  1.00  0.00     0.094 A 
ATOM     10  C   UNL     1      33.088  35.171  33.998  1.00  0.00     0.134 A 
ATOM     11  C   UNL     1      34.196  33.149  33.222  1.00  0.00     0.123 A 
ATOM     12  C   UNL     1      33.822  34.479  33.022  1.00  0.00     0.093 A 
BRANCH   3  13
ATOM     13  C   UNL     1      31.816  32.257  38.693  1.00  0.00     0.025 A 
ATOM     14  C   UNL     1      32.790  32.125  39.695  1.00  0.00     0.016 A 
ATOM     15  C   UNL     1      32.537  31.353  40.831  1.00  0.00     0.051 A 
ATOM     16  C   UNL     1      31.301  30.711  40.988  1.00  0.00     0.157 A 
ATOM     17  C   UNL     1      30.568  31.632  38.866  1.00  0.00     0.062 A 
ATOM     18  C   UNL     1      30.312  30.855  40.001  1.00  0.00     0.158 A 
BRANCH  16  19
ATOM     19  O   UNL     1      31.054  29.937  42.120  1.00  0.00    -0.504 OA
ATOM     20  H   UNL     1      31.436  29.003  42.220  1.00  0.00     0.293 HD
ENDBRANCH  16  19
BRANCH  18  21
ATOM     21  O   UNL     1      29.069  30.237  40.132  1.00  0.00    -0.504 OA
ATOM     22  H   UNL     1      28.978  29.243  40.304  1.00  0.00     0.293 HD
ENDBRANCH  18  21
ENDBRANCH   3  13
BRANCH  10  23
ATOM     23  O   UNL     1      32.729  36.499  33.765  1.00  0.00    -0.507 OA
ATOM     24  H   UNL     1      32.210  36.774  32.940  1.00  0.00     0.293 HD
ENDBRANCH  10  23
BRANCH  11  25
ATOM     25  O   UNL     1      34.923  32.485  32.237  1.00  0.00    -0.508 OA
ATOM     26  H   UNL     1      35.241  31.531  32.365  1.00  0.00     0.293 HD
ENDBRANCH  11  25
ENDBRANCH   1   2
BRANCH   1  27
ATOM     27  C   UNL     1      29.641  35.685  38.302  1.00  0.00     0.339 C 
ATOM     28  C   UNL     1      29.186  36.192  39.683  1.00  0.00     0.214 C 
ATOM     29  O   UNL     1      28.616  34.936  37.664  1.00  0.00    -0.332 OA
ATOM     30  C   UNL     1      28.701  35.021  40.563  1.00  0.00     0.180 C 
ATOM     31  C   UNL     1      28.274  33.775  38.406  1.00  0.00     0.179 C 
ATOM     32  C   UNL     1      27.690  34.157  39.786  1.00  0.00     0.177 C 
BRANCH  28  33
ATOM     33  O   UNL     1      28.150  37.124  39.510  1.00  0.00    -0.384 OA
ATOM     34  H   UNL     1      27.388  36.815  40.067  1.00  0.00     0.211 HD
ENDBRANCH  28  33
BRANCH  30  35
ATOM     35  O   UNL     1      29.789  34.228  40.967  1.00  0.00    -0.387 OA
ATOM     36  H   UNL     1      30.613  34.748  40.771  1.00  0.00     0.211 HD
ENDBRANCH  30  35
BRANCH  31  37
ATOM     37  C   UNL     1      27.275  32.953  37.582  1.00  0.00     0.191 C 
BRANCH  37  38
ATOM     38  O   UNL     1      27.378  31.593  37.902  1.00  0.00    -0.394 OA
ATOM     39  H   UNL     1      28.197  31.265  37.448  1.00  0.00     0.210 HD
ENDBRANCH  37  38
ENDBRANCH  31  37
BRANCH  32  40
ATOM     40  O   UNL     1      27.389  32.996  40.519  1.00  0.00    -0.387 OA
ATOM     41  H   UNL     1      27.997  32.284  40.188  1.00  0.00     0.211 HD
ENDBRANCH  32  40
ENDBRANCH   1  27
TORSDOF 12
ENDMDL
MODEL 2
REMARK VINA RESULT:    -7.850      1.677      4.548
REMARK INTER + INTRA:         -13.065
REMARK INTER:                 -11.879
REMARK INTRA:                  -1.186
REMARK UNBOUND:                -1.544
REMARK SMILES O=c1c(O[C@H]2O[C@H](CO)[C@@H](O)[C@@H](O)[C@@H]2O)c(-c2ccc(O)c(O)c2)oc2cc(O)cc(O)c12
REMARK SMILES IDX 4 1 3 2 16 3 25 4 2 5 26 6 1 7 33 8 27 9 31 10 28 11 30 12
REMARK SMILES IDX 17 13 18 14 19 15 20 16 24 17 22 18 21 19 23 21 32 23 29 25
REMARK SMILES IDX 5 27 14 28 6 29 12 30 7 31 10 32 15 33 13 35 8 37 9 38 11 40
REMARK H PARENT 21 20 23 22 32 24 29 26 15 34 13 36 9 39 11 41
REMARK Flexibility Score: inf
ROOT
ATOM      1  O   UNL     1      30.897  32.964  38.849  1.00  0.00    -0.454 OA
ENDROOT
BRANCH   1   2
ATOM      2  C   UNL     1      31.274  33.676  37.693  1.00  0.00     0.214 A 
ATOM      3  C   UNL     1      30.622  34.896  37.424  1.00  0.00     0.180 A 
ATOM      4  O   UNL     1      30.996  35.640  36.390  1.00  0.00    -0.452 OA
ATOM      5  C   UNL     1      32.288  33.248  36.807  1.00  0.00     0.239 A 
ATOM      6  C   UNL     1      31.958  35.288  35.547  1.00  0.00     0.146 A 
ATOM      7  O   UNL     1      32.862  32.142  36.983  1.00  0.00    -0.285 OA
ATOM      8  C   UNL     1      32.649  34.066  35.713  1.00  0.00     0.111 A 
ATOM      9  C   UNL     1      32.279  36.142  34.488  1.00  0.00     0.094 A 
ATOM     10  C   UNL     1      33.664  33.718  34.788  1.00  0.00     0.134 A 
ATOM     11  C   UNL     1      33.283  35.794  33.579  1.00  0.00     0.123 A 
ATOM     12  C   UNL     1      33.969  34.588  33.730  1.00  0.00     0.093 A 
BRANCH   3  13
ATOM     13  C   UNL     1      29.534  35.404  38.288  1.00  0.00     0.025 A 
ATOM     14  C   UNL     1      29.759  36.528  39.097  1.00  0.00     0.016 A 
ATOM     15  C   UNL     1      28.744  37.025  39.918  1.00  0.00     0.051 A 
ATOM     16  C   UNL     1      27.484  36.412  39.932  1.00  0.00     0.157 A 
ATOM     17  C   UNL     1      28.260  34.807  38.287  1.00  0.00     0.062 A 
ATOM     18  C   UNL     1      27.241  35.300  39.109  1.00  0.00     0.158 A 
BRANCH  16  19
ATOM     19  O   UNL     1      26.474  36.908  40.756  1.00  0.00    -0.504 OA
ATOM     20  H   UNL     1      25.728  36.314  41.098  1.00  0.00     0.293 HD
ENDBRANCH  16  19
BRANCH  18  21
ATOM     21  O   UNL     1      25.995  34.674  39.093  1.00  0.00    -0.504 OA
ATOM     22  H   UNL     1      25.816  33.820  39.608  1.00  0.00     0.293 HD
ENDBRANCH  18  21
ENDBRANCH   3  13
BRANCH  10  23
ATOM     23  O   UNL     1      34.371  32.521  34.911  1.00  0.00    -0.507 OA
ATOM     24  H   UNL     1      34.389  32.000  35.779  1.00  0.00     0.293 HD
ENDBRANCH  10  23
BRANCH  11  25
ATOM     25  O   UNL     1      33.607  36.640  32.520  1.00  0.00    -0.508 OA
ATOM     26  H   UNL     1      33.142  36.569  31.623  1.00  0.00     0.293 HD
ENDBRANCH  11  25
ENDBRANCH   1   2
BRANCH   1  27
ATOM     27  C   UNL     1      30.917  33.433  40.200  1.00  0.00     0.339 C 
ATOM     28  C   UNL     1      32.360  33.446  40.737  1.00  0.00     0.214 C 
ATOM     29  O   UNL     1      30.064  32.660  41.033  1.00  0.00    -0.332 OA
ATOM     30  C   UNL     1      32.889  32.008  40.920  1.00  0.00     0.180 C 
ATOM     31  C   UNL     1      30.469  31.300  41.082  1.00  0.00     0.179 C 
ATOM     32  C   UNL     1      31.873  31.167  41.715  1.00  0.00     0.177 C 
BRANCH  28  33
ATOM     33  O   UNL     1      32.386  34.127  41.965  1.00  0.00    -0.384 OA
ATOM     34  H   UNL     1      32.087  33.483  42.658  1.00  0.00     0.211 HD
ENDBRANCH  28  33
BRANCH  30  35
ATOM     35  O   UNL     1      33.124  31.410  39.670  1.00  0.00    -0.387 OA
ATOM     36  H   UNL     1      33.254  30.439  39.836  1.00  0.00     0.211 HD
ENDBRANCH  30  35
BRANCH  31  37
ATOM     37  C   UNL     1      29.419  30.512  41.876  1.00  0.00     0.191 C 
BRANCH  37  38
ATOM     38  O   UNL     1      29.712  30.548  43.246  1.00  0.00    -0.394 OA
ATOM     39  H   UNL     1      28.844  30.450  43.716  1.00  0.00     0.210 HD
ENDBRANCH  37  38
ENDBRANCH  31  37
BRANCH  32  40
ATOM     40  O   UNL     1      32.271  29.819  41.723  1.00  0.00    -0.387 OA
ATOM     41  H   UNL     1      33.193  29.795  42.090  1.00  0.00     0.211 HD
ENDBRANCH  32  40
ENDBRANCH   1  27
TORSDOF 12
ENDMDL
MODEL 3
REMARK VINA RESULT:    -7.845      1.368      2.447
REMARK INTER + INTRA:         -13.059
REMARK INTER:                 -11.934
REMARK INTRA:                  -1.125
REMARK UNBOUND:                -1.544
REMARK SMILES O=c1c(O[C@H]2O[C@H](CO)[C@@H](O)[C@@H](O)[C@@H]2O)c(-c2ccc(O)c(O)c2)oc2cc(O)cc(O)c12
REMARK SMILES IDX 4 1 3 2 16 3 25 4 2 5 26 6 1 7 33 8 27 9 31 10 28 11 30 12
REMARK SMILES IDX 17 13 18 14 19 15 20 16 24 17 22 18 21 19 23 21 32 23 29 25
REMARK SMILES IDX 5 27 14 28 6 29 12 30 7 31 10 32 15 33 13 35 8 37 9 38 11 40
REMARK H PARENT 21 20 23 22 32 24 29 26 15 34 13 36 9 39 11 41
REMARK Flexibility Score: inf
ROOT
ATOM      1  O   UNL     1      30.018  34.746  38.500  1.00  0.00    -0.454 OA
ENDROOT
BRANCH   1   2
ATOM      2  C   UNL     1      31.051  34.367  37.620  1.00  0.00     0.214 A 
ATOM      3  C   UNL     1      31.819  33.232  37.950  1.00  0.00     0.180 A 
ATOM      4  O   UNL     1      32.752  32.790  37.114  1.00  0.00    -0.452 OA
ATOM      5  C   UNL     1      31.338  35.043  36.413  1.00  0.00     0.239 A 
ATOM      6  C   UNL     1      33.038  33.380  35.962  1.00  0.00     0.146 A 
ATOM      7  O   UNL     1      30.708  36.088  36.104  1.00  0.00    -0.285 OA
ATOM      8  C   UNL     1      32.345  34.544  35.558  1.00  0.00     0.111 A 
ATOM      9  C   UNL     1      34.039  32.837  35.150  1.00  0.00     0.094 A 
ATOM     10  C   UNL     1      32.684  35.154  34.324  1.00  0.00     0.134 A 
ATOM     11  C   UNL     1      34.368  33.442  33.933  1.00  0.00     0.123 A 
ATOM     12  C   UNL     1      33.693  34.594  33.526  1.00  0.00     0.093 A 
BRANCH   3  13
ATOM     13  C   UNL     1      31.599  32.481  39.206  1.00  0.00     0.025 A 
ATOM     14  C   UNL     1      32.452  32.694  40.298  1.00  0.00     0.016 A 
ATOM     15  C   UNL     1      32.260  31.998  41.494  1.00  0.00     0.051 A 
ATOM     16  C   UNL     1      31.203  31.086  41.618  1.00  0.00     0.157 A 
ATOM     17  C   UNL     1      30.524  31.584  39.342  1.00  0.00     0.062 A 
ATOM     18  C   UNL     1      30.329  30.882  40.537  1.00  0.00     0.158 A 
BRANCH  16  19
ATOM     19  O   UNL     1      31.016  30.388  42.810  1.00  0.00    -0.504 OA
ATOM     20  H   UNL     1      31.298  29.420  42.910  1.00  0.00     0.293 HD
ENDBRANCH  16  19
BRANCH  18  21
ATOM     21  O   UNL     1      29.262  29.989  40.631  1.00  0.00    -0.504 OA
ATOM     22  H   UNL     1      28.957  29.431  39.843  1.00  0.00     0.293 HD
ENDBRANCH  18  21
ENDBRANCH   3  13
BRANCH  10  23
ATOM     23  O   UNL     1      32.029  36.305  33.886  1.00  0.00    -0.507 OA
ATOM     24  H   UNL     1      31.023  36.334  33.769  1.00  0.00     0.293 HD
ENDBRANCH  10  23
BRANCH  11  25
ATOM     25  O   UNL     1      35.365  32.906  33.121  1.00  0.00    -0.508 OA
ATOM     26  H   UNL     1      35.162  32.183  32.440  1.00  0.00     0.293 HD
ENDBRANCH  11  25
ENDBRANCH   1   2
BRANCH   1  27
ATOM     27  C   UNL     1      30.154  35.387  39.772  1.00  0.00     0.339 C 
ATOM     28  C   UNL     1      29.073  34.876  40.742  1.00  0.00     0.214 C 
ATOM     29  O   UNL     1      30.110  36.802  39.650  1.00  0.00    -0.332 OA
ATOM     30  C   UNL     1      27.676  35.371  40.315  1.00  0.00     0.180 C 
ATOM     31  C   UNL     1      28.872  37.245  39.115  1.00  0.00     0.179 C 
ATOM     32  C   UNL     1      27.704  36.890  40.064  1.00  0.00     0.177 C 
BRANCH  28  33
ATOM     33  O   UNL     1      29.369  35.332  42.037  1.00  0.00    -0.384 OA
ATOM     34  H   UNL     1      29.536  34.528  42.595  1.00  0.00     0.211 HD
ENDBRANCH  28  33
BRANCH  30  35
ATOM     35  O   UNL     1      27.256  34.706  39.149  1.00  0.00    -0.387 OA
ATOM     36  H   UNL     1      26.447  35.182  38.823  1.00  0.00     0.211 HD
ENDBRANCH  30  35
BRANCH  31  37
ATOM     37  C   UNL     1      28.962  38.758  38.879  1.00  0.00     0.191 C 
BRANCH  37  38
ATOM     38  O   UNL     1      29.945  39.325  39.701  1.00  0.00    -0.394 OA
ATOM     39  H   UNL     1      29.901  38.835  40.562  1.00  0.00     0.210 HD
ENDBRANCH  37  38
ENDBRANCH  31  37
BRANCH  32  40
ATOM     40  O   UNL     1      26.485  37.305  39.503  1.00  0.00    -0.387 OA
ATOM     41  H   UNL     1      25.779  37.101  40.170  1.00  0.00     0.211 HD
ENDBRANCH  32  40
ENDBRANCH   1  27
TORSDOF 12
ENDMDL
MODEL 4
REMARK VINA RESULT:    -7.652      2.789      5.383
REMARK INTER + INTRA:         -12.774
REMARK INTER:                 -11.535
REMARK INTRA:                  -1.239
REMARK UNBOUND:                -1.544
REMARK SMILES O=c1c(O[C@H]2O[C@H](CO)[C@@H](O)[C@@H](O)[C@@H]2O)c(-c2ccc(O)c(O)c2)oc2cc(O)cc(O)c12
REMARK SMILES IDX 4 1 3 2 16 3 25 4 2 5 26 6 1 7 33 8 27 9 31 10 28 11 30 12
REMARK SMILES IDX 17 13 18 14 19 15 20 16 24 17 22 18 21 19 23 21 32 23 29 25
REMARK SMILES IDX 5 27 14 28 6 29 12 30 7 31 10 32 15 33 13 35 8 37 9 38 11 40
REMARK H PARENT 21 20 23 22 32 24 29 26 15 34 13 36 9 39 11 41
REMARK Flexibility Score: inf
ROOT
ATOM      1  O   UNL     1      29.701  31.013  36.634  1.00  0.00    -0.454 OA
ENDROOT
BRANCH   1   2
ATOM      2  C   UNL     1      30.368  32.064  35.974  1.00  0.00     0.214 A 
ATOM      3  C   UNL     1      29.861  33.370  36.126  1.00  0.00     0.180 A 
ATOM      4  O   UNL     1      30.501  34.402  35.587  1.00  0.00    -0.452 OA
ATOM      5  C   UNL     1      31.533  31.883  35.195  1.00  0.00     0.239 A 
ATOM      6  C   UNL     1      31.608  34.280  34.868  1.00  0.00     0.146 A 
ATOM      7  O   UNL     1      31.992  30.728  34.995  1.00  0.00    -0.285 OA
ATOM      8  C   UNL     1      32.177  33.007  34.632  1.00  0.00     0.111 A 
ATOM      9  C   UNL     1      32.208  35.429  34.343  1.00  0.00     0.094 A 
ATOM     10  C   UNL     1      33.356  32.914  33.852  1.00  0.00     0.134 A 
ATOM     11  C   UNL     1      33.373  35.331  33.575  1.00  0.00     0.123 A 
ATOM     12  C   UNL     1      33.940  34.079  33.332  1.00  0.00     0.093 A 
BRANCH   3  13
ATOM     13  C   UNL     1      28.634  33.643  36.905  1.00  0.00     0.025 A 
ATOM     14  C   UNL     1      27.485  34.106  36.246  1.00  0.00     0.016 A 
ATOM     15  C   UNL     1      26.315  34.367  36.963  1.00  0.00     0.051 A 
ATOM     16  C   UNL     1      26.272  34.156  38.348  1.00  0.00     0.157 A 
ATOM     17  C   UNL     1      28.580  33.409  38.291  1.00  0.00     0.062 A 
ATOM     18  C   UNL     1      27.411  33.671  39.013  1.00  0.00     0.158 A 
BRANCH  16  19
ATOM     19  O   UNL     1      25.105  34.422  39.062  1.00  0.00    -0.504 OA
ATOM     20  H   UNL     1      24.919  35.338  39.455  1.00  0.00     0.293 HD
ENDBRANCH  16  19
BRANCH  18  21
ATOM     21  O   UNL     1      27.399  33.443  40.389  1.00  0.00    -0.504 OA
ATOM     22  H   UNL     1      28.035  33.916  41.018  1.00  0.00     0.293 HD
ENDBRANCH  18  21
ENDBRANCH   3  13
BRANCH  10  23
ATOM     23  O   UNL     1      33.951  31.679  33.591  1.00  0.00    -0.507 OA
ATOM     24  H   UNL     1      33.399  30.851  33.403  1.00  0.00     0.293 HD
ENDBRANCH  10  23
BRANCH  11  25
ATOM     25  O   UNL     1      33.973  36.472  33.049  1.00  0.00    -0.508 OA
ATOM     26  H   UNL     1      34.862  36.812  33.396  1.00  0.00     0.293 HD
ENDBRANCH  11  25
ENDBRANCH   1   2
BRANCH   1  27
ATOM     27  C   UNL     1      28.662  30.181  36.109  1.00  0.00     0.339 C 
ATOM     28  C   UNL     1      27.849  29.558  37.259  1.00  0.00     0.214 C 
ATOM     29  O   UNL     1      29.182  29.181  35.244  1.00  0.00    -0.332 OA
ATOM     30  C   UNL     1      28.694  28.520  38.026  1.00  0.00     0.180 C 
ATOM     31  C   UNL     1      30.078  28.314  35.922  1.00  0.00     0.179 C 
ATOM     32  C   UNL     1      29.348  27.534  37.040  1.00  0.00     0.177 C 
BRANCH  28  33
ATOM     33  O   UNL     1      26.702  28.946  36.729  1.00  0.00    -0.384 OA
ATOM     34  H   UNL     1      26.017  29.657  36.627  1.00  0.00     0.211 HD
ENDBRANCH  28  33
BRANCH  30  35
ATOM     35  O   UNL     1      29.690  29.162  38.784  1.00  0.00    -0.387 OA
ATOM     36  H   UNL     1      29.452  30.126  38.813  1.00  0.00     0.211 HD
ENDBRANCH  30  35
BRANCH  31  37
ATOM     37  C   UNL     1      30.702  27.363  34.892  1.00  0.00     0.191 C 
BRANCH  37  38
ATOM     38  O   UNL     1      31.173  28.082  33.785  1.00  0.00    -0.394 OA
ATOM     39  H   UNL     1      32.158  27.959  33.777  1.00  0.00     0.210 HD
ENDBRANCH  37  38
ENDBRANCH  31  37
BRANCH  32  40
ATOM     40  O   UNL     1      30.257  26.707  37.722  1.00  0.00    -0.387 OA
ATOM     41  H   UNL     1      30.258  25.833  37.249  1.00  0.00     0.211 HD
ENDBRANCH  32  40
ENDBRANCH   1  27
TORSDOF 12
ENDMDL
MODEL 5
REMARK VINA RESULT:    -7.648      1.656      4.614
REMARK INTER + INTRA:         -12.769
REMARK INTER:                 -11.379
REMARK INTRA:                  -1.390
REMARK UNBOUND:                -1.544
REMARK SMILES O=c1c(O[C@H]2O[C@H](CO)[C@@H](O)[C@@H](O)[C@@H]2O)c(-c2ccc(O)c(O)c2)oc2cc(O)cc(O)c12
REMARK SMILES IDX 4 1 3 2 16 3 25 4 2 5 26 6 1 7 33 8 27 9 31 10 28 11 30 12
REMARK SMILES IDX 17 13 18 14 19 15 20 16 24 17 22 18 21 19 23 21 32 23 29 25
REMARK SMILES IDX 5 27 14 28 6 29 12 30 7 31 10 32 15 33 13 35 8 37 9 38 11 40
REMARK H PARENT 21 20 23 22 32 24 29 26 15 34 13 36 9 39 11 41
REMARK Flexibility Score: inf
ROOT
ATOM      1  O   UNL     1      30.215  32.312  38.130  1.00  0.00    -0.454 OA
ENDROOT
BRANCH   1   2
ATOM      2  C   UNL     1      30.757  33.210  37.189  1.00  0.00     0.214 A 
ATOM      3  C   UNL     1      30.409  34.571  37.295  1.00  0.00     0.180 A 
ATOM      4  O   UNL     1      30.955  35.467  36.479  1.00  0.00    -0.452 OA
ATOM      5  C   UNL     1      31.651  32.825  36.165  1.00  0.00     0.239 A 
ATOM      6  C   UNL     1      31.815  35.151  35.520  1.00  0.00     0.146 A 
ATOM      7  O   UNL     1      31.951  31.612  36.004  1.00  0.00    -0.285 OA
ATOM      8  C   UNL     1      32.201  33.808  35.313  1.00  0.00     0.111 A 
ATOM      9  C   UNL     1      32.335  36.168  34.713  1.00  0.00     0.094 A 
ATOM     10  C   UNL     1      33.114  33.507  34.272  1.00  0.00     0.134 A 
ATOM     11  C   UNL     1      33.238  35.865  33.689  1.00  0.00     0.123 A 
ATOM     12  C   UNL     1      33.623  34.542  33.472  1.00  0.00     0.093 A 
BRANCH   3  13
ATOM     13  C   UNL     1      29.462  35.054  38.324  1.00  0.00     0.025 A 
ATOM     14  C   UNL     1      29.956  35.641  39.499  1.00  0.00     0.016 A 
ATOM     15  C   UNL     1      29.079  36.106  40.481  1.00  0.00     0.051 A 
ATOM     16  C   UNL     1      27.693  36.004  40.297  1.00  0.00     0.157 A 
ATOM     17  C   UNL     1      28.070  34.976  38.132  1.00  0.00     0.062 A 
ATOM     18  C   UNL     1      27.188  35.439  39.114  1.00  0.00     0.158 A 
BRANCH  16  19
ATOM     19  O   UNL     1      26.820  36.464  41.280  1.00  0.00    -0.504 OA
ATOM     20  H   UNL     1      26.514  35.869  42.042  1.00  0.00     0.293 HD
ENDBRANCH  16  19
BRANCH  18  21
ATOM     21  O   UNL     1      25.815  35.330  38.896  1.00  0.00    -0.504 OA
ATOM     22  H   UNL     1      25.383  34.459  38.613  1.00  0.00     0.293 HD
ENDBRANCH  18  21
ENDBRANCH   3  13
BRANCH  10  23
ATOM     23  O   UNL     1      33.522  32.194  34.029  1.00  0.00    -0.507 OA
ATOM     24  H   UNL     1      33.156  31.658  33.253  1.00  0.00     0.293 HD
ENDBRANCH  10  23
BRANCH  11  25
ATOM     25  O   UNL     1      33.758  36.874  32.881  1.00  0.00    -0.508 OA
ATOM     26  H   UNL     1      34.147  37.722  33.275  1.00  0.00     0.293 HD
ENDBRANCH  11  25
ENDBRANCH   1   2
BRANCH   1  27
ATOM     27  C   UNL     1      30.885  31.225  38.775  1.00  0.00     0.339 C 
ATOM     28  C   UNL     1      29.935  30.531  39.769  1.00  0.00     0.214 C 
ATOM     29  O   UNL     1      32.078  31.654  39.417  1.00  0.00    -0.332 OA
ATOM     30  C   UNL     1      29.639  31.447  40.974  1.00  0.00     0.180 C 
ATOM     31  C   UNL     1      31.814  32.612  40.430  1.00  0.00     0.179 C 
ATOM     32  C   UNL     1      30.953  31.997  41.558  1.00  0.00     0.177 C 
BRANCH  28  33
ATOM     33  O   UNL     1      30.526  29.335  40.208  1.00  0.00    -0.384 OA
ATOM     34  H   UNL     1      30.069  28.595  39.731  1.00  0.00     0.211 HD
ENDBRANCH  28  33
BRANCH  30  35
ATOM     35  O   UNL     1      28.810  32.514  40.586  1.00  0.00    -0.387 OA
ATOM     36  H   UNL     1      28.551  32.994  41.417  1.00  0.00     0.211 HD
ENDBRANCH  30  35
BRANCH  31  37
ATOM     37  C   UNL     1      33.155  33.129  40.967  1.00  0.00     0.191 C 
BRANCH  37  38
ATOM     38  O   UNL     1      32.999  34.399  41.538  1.00  0.00    -0.394 OA
ATOM     39  H   UNL     1      33.762  34.943  41.214  1.00  0.00     0.210 HD
ENDBRANCH  37  38
ENDBRANCH  31  37
BRANCH  32  40
ATOM     40  O   UNL     1      30.674  32.969  42.534  1.00  0.00    -0.387 OA
ATOM     41  H   UNL     1      30.644  32.497  43.407  1.00  0.00     0.211 HD
ENDBRANCH  32  40
ENDBRANCH   1  27
TORSDOF 12
ENDMDL
MODEL 6
REMARK VINA RESULT:    -7.603      1.789      6.039
REMARK INTER + INTRA:         -12.704
REMARK INTER:                 -11.470
REMARK INTRA:                  -1.233
REMARK UNBOUND:                -1.544
REMARK SMILES O=c1c(O[C@H]2O[C@H](CO)[C@@H](O)[C@@H](O)[C@@H]2O)c(-c2ccc(O)c(O)c2)oc2cc(O)cc(O)c12
REMARK SMILES IDX 4 1 3 2 16 3 25 4 2 5 26 6 1 7 33 8 27 9 31 10 28 11 30 12
REMARK SMILES IDX 17 13 18 14 19 15 20 16 24 17 22 18 21 19 23 21 32 23 29 25
REMARK SMILES IDX 5 27 14 28 6 29 12 30 7 31 10 32 15 33 13 35 8 37 9 38 11 40
REMARK H PARENT 21 20 23 22 32 24 29 26 15 34 13 36 9 39 11 41
REMARK Flexibility Score: inf
ROOT
ATOM      1  O   UNL     1      31.737  33.031  37.535  1.00  0.00    -0.454 OA
ENDROOT
BRANCH   1   2
ATOM      2  C   UNL     1      30.897  33.842  38.323  1.00  0.00     0.214 A 
ATOM      3  C   UNL     1      30.375  33.297  39.512  1.00  0.00     0.180 A 
ATOM      4  O   UNL     1      29.641  34.047  40.327  1.00  0.00    -0.452 OA
ATOM      5  C   UNL     1      30.574  35.180  38.001  1.00  0.00     0.239 A 
ATOM      6  C   UNL     1      29.334  35.312  40.075  1.00  0.00     0.146 A 
ATOM      7  O   UNL     1      30.981  35.691  36.925  1.00  0.00    -0.285 OA
ATOM      8  C   UNL     1      29.784  35.940  38.891  1.00  0.00     0.111 A 
ATOM      9  C   UNL     1      28.556  36.019  40.997  1.00  0.00     0.094 A 
ATOM     10  C   UNL     1      29.428  37.290  38.650  1.00  0.00     0.134 A 
ATOM     11  C   UNL     1      28.210  37.352  40.755  1.00  0.00     0.123 A 
ATOM     12  C   UNL     1      28.644  37.981  39.587  1.00  0.00     0.093 A 
BRANCH   3  13
ATOM     13  C   UNL     1      30.644  31.898  39.911  1.00  0.00     0.025 A 
ATOM     14  C   UNL     1      31.785  31.602  40.672  1.00  0.00     0.016 A 
ATOM     15  C   UNL     1      32.057  30.288  41.061  1.00  0.00     0.051 A 
ATOM     16  C   UNL     1      31.183  29.252  40.706  1.00  0.00     0.157 A 
ATOM     17  C   UNL     1      29.757  30.858  39.578  1.00  0.00     0.062 A 
ATOM     18  C   UNL     1      30.026  29.540  39.963  1.00  0.00     0.158 A 
BRANCH  16  19
ATOM     19  O   UNL     1      31.459  27.941  41.091  1.00  0.00    -0.504 OA
ATOM     20  H   UNL     1      31.095  27.552  41.953  1.00  0.00     0.293 HD
ENDBRANCH  16  19
BRANCH  18  21
ATOM     21  O   UNL     1      29.133  28.533  39.601  1.00  0.00    -0.504 OA
ATOM     22  H   UNL     1      29.400  27.556  39.588  1.00  0.00     0.293 HD
ENDBRANCH  18  21
ENDBRANCH   3  13
BRANCH  10  23
ATOM     23  O   UNL     1      29.847  37.950  37.493  1.00  0.00    -0.507 OA
ATOM     24  H   UNL     1      30.252  38.877  37.526  1.00  0.00     0.293 HD
ENDBRANCH  10  23
BRANCH  11  25
ATOM     25  O   UNL     1      27.434  38.061  41.669  1.00  0.00    -0.508 OA
ATOM     26  H   UNL     1      27.654  38.069  42.658  1.00  0.00     0.293 HD
ENDBRANCH  11  25
ENDBRANCH   1   2
BRANCH   1  27
ATOM     27  C   UNL     1      31.418  32.407  36.288  1.00  0.00     0.339 C 
ATOM     28  C   UNL     1      32.318  31.177  36.065  1.00  0.00     0.214 C 
ATOM     29  O   UNL     1      31.518  33.322  35.206  1.00  0.00    -0.332 OA
ATOM     30  C   UNL     1      33.778  31.605  35.811  1.00  0.00     0.180 C 
ATOM     31  C   UNL     1      32.837  33.830  35.067  1.00  0.00     0.179 C 
ATOM     32  C   UNL     1      33.830  32.695  34.724  1.00  0.00     0.177 C 
BRANCH  28  33
ATOM     33  O   UNL     1      31.833  30.449  34.966  1.00  0.00    -0.384 OA
ATOM     34  H   UNL     1      30.842  30.443  35.038  1.00  0.00     0.211 HD
ENDBRANCH  28  33
BRANCH  30  35
ATOM     35  O   UNL     1      34.359  32.091  36.995  1.00  0.00    -0.387 OA
ATOM     36  H   UNL     1      34.843  31.329  37.411  1.00  0.00     0.211 HD
ENDBRANCH  30  35
BRANCH  31  37
ATOM     37  C   UNL     1      32.826  34.912  33.980  1.00  0.00     0.191 C 
BRANCH  37  38
ATOM     38  O   UNL     1      31.808  35.844  34.227  1.00  0.00    -0.394 OA
ATOM     39  H   UNL     1      32.143  36.433  34.950  1.00  0.00     0.210 HD
ENDBRANCH  37  38
ENDBRANCH  31  37
BRANCH  32  40
ATOM     40  O   UNL     1      35.133  33.210  34.624  1.00  0.00    -0.387 OA
ATOM     41  H   UNL     1      35.422  33.437  35.546  1.00  0.00     0.211 HD
ENDBRANCH  32  40
ENDBRANCH   1  27
TORSDOF 12
ENDMDL
MODEL 7
REMARK VINA RESULT:    -7.576      3.050      6.536
REMARK INTER + INTRA:         -12.663
REMARK INTER:                 -11.105
REMARK INTRA:                  -1.558
REMARK UNBOUND:                -1.544
REMARK SMILES O=c1c(O[C@H]2O[C@H](CO)[C@@H](O)[C@@H](O)[C@@H]2O)c(-c2ccc(O)c(O)c2)oc2cc(O)cc(O)c12
REMARK SMILES IDX 4 1 3 2 16 3 25 4 2 5 26 6 1 7 33 8 27 9 31 10 28 11 30 12
REMARK SMILES IDX 17 13 18 14 19 15 20 16 24 17 22 18 21 19 23 21 32 23 29 25
REMARK SMILES IDX 5 27 14 28 6 29 12 30 7 31 10 32 15 33 13 35 8 37 9 38 11 40
REMARK H PARENT 21 20 23 22 32 24 29 26 15 34 13 36 9 39 11 41
REMARK Flexibility Score: inf
ROOT
ATOM      1  O   UNL     1      29.868  30.915  39.906  1.00  0.00    -0.454 OA
ENDROOT
BRANCH   1   2
ATOM      2  C   UNL     1      29.583  30.247  38.698  1.00  0.00     0.214 A 
ATOM      3  C   UNL     1      29.563  31.005  37.511  1.00  0.00     0.180 A 
ATOM      4  O   UNL     1      29.376  30.408  36.339  1.00  0.00    -0.452 OA
ATOM      5  C   UNL     1      29.348  28.857  38.610  1.00  0.00     0.239 A 
ATOM      6  C   UNL     1      29.174  29.104  36.208  1.00  0.00     0.146 A 
ATOM      7  O   UNL     1      29.310  28.150  39.651  1.00  0.00    -0.285 OA
ATOM      8  C   UNL     1      29.144  28.263  37.345  1.00  0.00     0.111 A 
ATOM      9  C   UNL     1      28.988  28.570  34.930  1.00  0.00     0.094 A 
ATOM     10  C   UNL     1      28.916  26.876  37.168  1.00  0.00     0.134 A 
ATOM     11  C   UNL     1      28.765  27.199  34.762  1.00  0.00     0.123 A 
ATOM     12  C   UNL     1      28.729  26.360  35.876  1.00  0.00     0.093 A 
BRANCH   3  13
ATOM     13  C   UNL     1      29.776  32.469  37.518  1.00  0.00     0.025 A 
ATOM     14  C   UNL     1      28.708  33.323  37.830  1.00  0.00     0.016 A 
ATOM     15  C   UNL     1      28.889  34.708  37.845  1.00  0.00     0.051 A 
ATOM     16  C   UNL     1      30.146  35.259  37.561  1.00  0.00     0.157 A 
ATOM     17  C   UNL     1      31.043  33.025  37.258  1.00  0.00     0.062 A 
ATOM     18  C   UNL     1      31.228  34.412  37.270  1.00  0.00     0.158 A 
BRANCH  16  19
ATOM     19  O   UNL     1      30.323  36.642  37.572  1.00  0.00    -0.504 OA
ATOM     20  H   UNL     1      31.240  37.062  37.475  1.00  0.00     0.293 HD
ENDBRANCH  16  19
BRANCH  18  21
ATOM     21  O   UNL     1      32.493  34.928  36.992  1.00  0.00    -0.504 OA
ATOM     22  H   UNL     1      33.013  34.660  36.165  1.00  0.00     0.293 HD
ENDBRANCH  18  21
ENDBRANCH   3  13
BRANCH  10  23
ATOM     23  O   UNL     1      28.876  26.008  38.260  1.00  0.00    -0.507 OA
ATOM     24  H   UNL     1      29.722  25.659  38.695  1.00  0.00     0.293 HD
ENDBRANCH  10  23
BRANCH  11  25
ATOM     25  O   UNL     1      28.578  26.662  33.490  1.00  0.00    -0.508 OA
ATOM     26  H   UNL     1      28.698  25.672  33.310  1.00  0.00     0.293 HD
ENDBRANCH  11  25
ENDBRANCH   1   2
BRANCH   1  27
ATOM     27  C   UNL     1      30.782  30.505  40.928  1.00  0.00     0.339 C 
ATOM     28  C   UNL     1      30.529  31.308  42.218  1.00  0.00     0.214 C 
ATOM     29  O   UNL     1      32.131  30.627  40.500  1.00  0.00    -0.332 OA
ATOM     30  C   UNL     1      30.941  32.783  42.033  1.00  0.00     0.180 C 
ATOM     31  C   UNL     1      32.464  31.971  40.188  1.00  0.00     0.179 C 
ATOM     32  C   UNL     1      32.361  32.869  41.443  1.00  0.00     0.177 C 
BRANCH  28  33
ATOM     33  O   UNL     1      31.265  30.732  43.266  1.00  0.00    -0.384 OA
ATOM     34  H   UNL     1      32.102  30.375  42.869  1.00  0.00     0.211 HD
ENDBRANCH  28  33
BRANCH  30  35
ATOM     35  O   UNL     1      30.035  33.442  41.184  1.00  0.00    -0.387 OA
ATOM     36  H   UNL     1      29.631  34.181  41.712  1.00  0.00     0.211 HD
ENDBRANCH  30  35
BRANCH  31  37
ATOM     37  C   UNL     1      33.881  31.993  39.599  1.00  0.00     0.191 C 
BRANCH  37  38
ATOM     38  O   UNL     1      34.091  33.171  38.870  1.00  0.00    -0.394 OA
ATOM     39  H   UNL     1      34.413  33.845  39.523  1.00  0.00     0.210 HD
ENDBRANCH  37  38
ENDBRANCH  31  37
BRANCH  32  40
ATOM     40  O   UNL     1      32.661  34.200  41.108  1.00  0.00    -0.387 OA
ATOM     41  H   UNL     1      32.733  34.237  40.118  1.00  0.00     0.211 HD
ENDBRANCH  32  40
ENDBRANCH   1  27
TORSDOF 12
ENDMDL
MODEL 8
REMARK VINA RESULT:    -7.556      1.677      4.533
REMARK INTER + INTRA:         -12.634
REMARK INTER:                 -11.119
REMARK INTRA:                  -1.515
REMARK UNBOUND:                -1.544
REMARK SMILES O=c1c(O[C@H]2O[C@H](CO)[C@@H](O)[C@@H](O)[C@@H]2O)c(-c2ccc(O)c(O)c2)oc2cc(O)cc(O)c12
REMARK SMILES IDX 4 1 3 2 16 3 25 4 2 5 26 6 1 7 33 8 27 9 31 10 28 11 30 12
REMARK SMILES IDX 17 13 18 14 19 15 20 16 24 17 22 18 21 19 23 21 32 23 29 25
REMARK SMILES IDX 5 27 14 28 6 29 12 30 7 31 10 32 15 33 13 35 8 37 9 38 11 40
REMARK H PARENT 21 20 23 22 32 24 29 26 15 34 13 36 9 39 11 41
REMARK Flexibility Score: inf
ROOT
ATOM      1  O   UNL     1      29.701  32.295  37.227  1.00  0.00    -0.454 OA
ENDROOT
BRANCH   1   2
ATOM      2  C   UNL     1      30.479  33.272  36.574  1.00  0.00     0.214 A 
ATOM      3  C   UNL     1      30.387  34.603  37.025  1.00  0.00     0.180 A 
ATOM      4  O   UNL     1      31.158  35.545  36.493  1.00  0.00    -0.452 OA
ATOM      5  C   UNL     1      31.367  32.984  35.514  1.00  0.00     0.239 A 
ATOM      6  C   UNL     1      32.020  35.314  35.512  1.00  0.00     0.146 A 
ATOM      7  O   UNL     1      31.445  31.816  35.048  1.00  0.00    -0.285 OA
ATOM      8  C   UNL     1      32.162  34.016  34.970  1.00  0.00     0.111 A 
ATOM      9  C   UNL     1      32.788  36.373  35.019  1.00  0.00     0.094 A 
ATOM     10  C   UNL     1      33.087  33.808  33.916  1.00  0.00     0.134 A 
ATOM     11  C   UNL     1      33.701  36.161  33.981  1.00  0.00     0.123 A 
ATOM     12  C   UNL     1      33.846  34.885  33.434  1.00  0.00     0.093 A 
BRANCH   3  13
ATOM     13  C   UNL     1      29.465  34.994  38.114  1.00  0.00     0.025 A 
ATOM     14  C   UNL     1      28.152  35.381  37.805  1.00  0.00     0.016 A 
ATOM     15  C   UNL     1      27.265  35.751  38.818  1.00  0.00     0.051 A 
ATOM     16  C   UNL     1      27.674  35.727  40.159  1.00  0.00     0.157 A 
ATOM     17  C   UNL     1      29.864  34.948  39.463  1.00  0.00     0.062 A 
ATOM     18  C   UNL     1      28.979  35.320  40.481  1.00  0.00     0.158 A 
BRANCH  16  19
ATOM     19  O   UNL     1      26.788  36.102  41.167  1.00  0.00    -0.504 OA
ATOM     20  H   UNL     1      26.185  36.910  41.072  1.00  0.00     0.293 HD
ENDBRANCH  16  19
BRANCH  18  21
ATOM     21  O   UNL     1      29.414  35.277  41.805  1.00  0.00    -0.504 OA
ATOM     22  H   UNL     1      28.837  34.902  42.548  1.00  0.00     0.293 HD
ENDBRANCH  18  21
ENDBRANCH   3  13
BRANCH  10  23
ATOM     23  O   UNL     1      33.259  32.545  33.348  1.00  0.00    -0.507 OA
ATOM     24  H   UNL     1      33.836  32.403  32.528  1.00  0.00     0.293 HD
ENDBRANCH  10  23
BRANCH  11  25
ATOM     25  O   UNL     1      34.468  37.213  33.485  1.00  0.00    -0.508 OA
ATOM     26  H   UNL     1      35.420  37.071  33.168  1.00  0.00     0.293 HD
ENDBRANCH  11  25
ENDBRANCH   1   2
BRANCH   1  27
ATOM     27  C   UNL     1      30.110  30.983  37.622  1.00  0.00     0.339 C 
ATOM     28  C   UNL     1      28.884  30.060  37.748  1.00  0.00     0.214 C 
ATOM     29  O   UNL     1      30.860  31.011  38.828  1.00  0.00    -0.332 OA
ATOM     30  C   UNL     1      28.013  30.468  38.954  1.00  0.00     0.180 C 
ATOM     31  C   UNL     1      30.099  31.528  39.909  1.00  0.00     0.179 C 
ATOM     32  C   UNL     1      28.887  30.617  40.213  1.00  0.00     0.177 C 
BRANCH  28  33
ATOM     33  O   UNL     1      29.322  28.734  37.899  1.00  0.00    -0.384 OA
ATOM     34  H   UNL     1      28.653  28.272  38.468  1.00  0.00     0.211 HD
ENDBRANCH  28  33
BRANCH  30  35
ATOM     35  O   UNL     1      27.350  31.680  38.692  1.00  0.00    -0.387 OA
ATOM     36  H   UNL     1      28.026  32.403  38.781  1.00  0.00     0.211 HD
ENDBRANCH  30  35
BRANCH  31  37
ATOM     37  C   UNL     1      31.020  31.662  41.128  1.00  0.00     0.191 C 
BRANCH  37  38
ATOM     38  O   UNL     1      30.471  32.550  42.062  1.00  0.00    -0.394 OA
ATOM     39  H   UNL     1      29.494  32.561  41.892  1.00  0.00     0.210 HD
ENDBRANCH  37  38
ENDBRANCH  31  37
BRANCH  32  40
ATOM     40  O   UNL     1      28.127  31.163  41.262  1.00  0.00    -0.387 OA
ATOM     41  H   UNL     1      28.738  31.258  42.038  1.00  0.00     0.211 HD
ENDBRANCH  32  40
ENDBRANCH   1  27
TORSDOF 12
ENDMDL
MODEL 9
REMARK VINA RESULT:    -7.499      3.632      6.223
REMARK INTER + INTRA:         -12.550
REMARK INTER:                 -10.958
REMARK INTRA:                  -1.592
REMARK UNBOUND:                -1.544
REMARK SMILES O=c1c(O[C@H]2O[C@H](CO)[C@@H](O)[C@@H](O)[C@@H]2O)c(-c2ccc(O)c(O)c2)oc2cc(O)cc(O)c12
REMARK SMILES IDX 4 1 3 2 16 3 25 4 2 5 26 6 1 7 33 8 27 9 31 10 28 11 30 12
REMARK SMILES IDX 17 13 18 14 19 15 20 16 24 17 22 18 21 19 23 21 32 23 29 25
REMARK SMILES IDX 5 27 14 28 6 29 12 30 7 31 10 32 15 33 13 35 8 37 9 38 11 40
REMARK H PARENT 21 20 23 22 32 24 29 26 15 34 13 36 9 39 11 41
REMARK Flexibility Score: inf
ROOT
ATOM      1  O   UNL     1      28.705  31.395  37.525  1.00  0.00    -0.454 OA
ENDROOT
BRANCH   1   2
ATOM      2  C   UNL     1      29.144  30.286  36.776  1.00  0.00     0.214 A 
ATOM      3  C   UNL     1      30.269  30.450  35.944  1.00  0.00     0.180 A 
ATOM      4  O   UNL     1      30.767  29.413  35.279  1.00  0.00    -0.452 OA
ATOM      5  C   UNL     1      28.536  29.011  36.836  1.00  0.00     0.239 A 
ATOM      6  C   UNL     1      30.242  28.197  35.325  1.00  0.00     0.146 A 
ATOM      7  O   UNL     1      27.500  28.833  37.529  1.00  0.00    -0.285 OA
ATOM      8  C   UNL     1      29.091  27.938  36.105  1.00  0.00     0.111 A 
ATOM      9  C   UNL     1      30.840  27.170  34.588  1.00  0.00     0.094 A 
ATOM     10  C   UNL     1      28.552  26.628  36.122  1.00  0.00     0.134 A 
ATOM     11  C   UNL     1      30.304  25.879  34.611  1.00  0.00     0.123 A 
ATOM     12  C   UNL     1      29.166  25.613  35.374  1.00  0.00     0.093 A 
BRANCH   3  13
ATOM     13  C   UNL     1      30.950  31.756  35.806  1.00  0.00     0.025 A 
ATOM     14  C   UNL     1      30.645  32.584  34.715  1.00  0.00     0.016 A 
ATOM     15  C   UNL     1      31.274  33.822  34.568  1.00  0.00     0.051 A 
ATOM     16  C   UNL     1      32.211  34.256  35.516  1.00  0.00     0.157 A 
ATOM     17  C   UNL     1      31.872  32.207  36.769  1.00  0.00     0.062 A 
ATOM     18  C   UNL     1      32.507  33.445  36.624  1.00  0.00     0.158 A 
BRANCH  16  19
ATOM     19  O   UNL     1      32.841  35.490  35.364  1.00  0.00    -0.504 OA
ATOM     20  H   UNL     1      33.183  35.805  34.463  1.00  0.00     0.293 HD
ENDBRANCH  16  19
BRANCH  18  21
ATOM     21  O   UNL     1      33.427  33.851  37.590  1.00  0.00    -0.504 OA
ATOM     22  H   UNL     1      34.066  33.202  38.031  1.00  0.00     0.293 HD
ENDBRANCH  18  21
ENDBRANCH   3  13
BRANCH  10  23
ATOM     23  O   UNL     1      27.417  26.327  36.876  1.00  0.00    -0.507 OA
ATOM     24  H   UNL     1      26.632  26.964  36.936  1.00  0.00     0.293 HD
ENDBRANCH  10  23
BRANCH  11  25
ATOM     25  O   UNL     1      30.895  24.852  33.877  1.00  0.00    -0.508 OA
ATOM     26  H   UNL     1      30.789  24.790  32.872  1.00  0.00     0.293 HD
ENDBRANCH  11  25
ENDBRANCH   1   2
BRANCH   1  27
ATOM     27  C   UNL     1      28.350  31.420  38.910  1.00  0.00     0.339 C 
ATOM     28  C   UNL     1      27.814  32.811  39.296  1.00  0.00     0.214 C 
ATOM     29  O   UNL     1      29.444  31.043  39.735  1.00  0.00    -0.332 OA
ATOM     30  C   UNL     1      28.943  33.861  39.265  1.00  0.00     0.180 C 
ATOM     31  C   UNL     1      30.541  31.932  39.592  1.00  0.00     0.179 C 
ATOM     32  C   UNL     1      30.160  33.355  40.061  1.00  0.00     0.177 C 
BRANCH  28  33
ATOM     33  O   UNL     1      27.254  32.745  40.582  1.00  0.00    -0.384 OA
ATOM     34  H   UNL     1      26.552  33.445  40.628  1.00  0.00     0.211 HD
ENDBRANCH  28  33
BRANCH  30  35
ATOM     35  O   UNL     1      29.324  34.133  37.940  1.00  0.00    -0.387 OA
ATOM     36  H   UNL     1      28.987  33.381  37.384  1.00  0.00     0.211 HD
ENDBRANCH  30  35
BRANCH  31  37
ATOM     37  C   UNL     1      31.722  31.374  40.397  1.00  0.00     0.191 C 
BRANCH  37  38
ATOM     38  O   UNL     1      32.919  31.983  39.997  1.00  0.00    -0.394 OA
ATOM     39  H   UNL     1      33.592  31.749  40.688  1.00  0.00     0.210 HD
ENDBRANCH  37  38
ENDBRANCH  31  37
BRANCH  32  40
ATOM     40  O   UNL     1      31.247  34.228  39.881  1.00  0.00    -0.387 OA
ATOM     41  H   UNL     1      32.069  33.672  39.915  1.00  0.00     0.211 HD
ENDBRANCH  32  40
ENDBRANCH   1  27
TORSDOF 12
ENDMDL
