MODEL 1
REMARK VINA RESULT:    -7.198      0.000      0.000
REMARK INTER + INTRA:          -7.198
REMARK INTER:                  -7.198
REMARK INTRA:                   0.000
REMARK UNBOUND:                 0.000
REMARK SMILES C=C1CCC[C@]2(C)CC(=O)C(=C(C)C)C[C@H]12
REMARK SMILES IDX 13 1 12 2 11 3 15 4 16 5 2 6 1 7 3 8 4 9 5 10 6 11 8 12 9 13
REMARK SMILES IDX 10 14 7 15 14 16
REMARK H PARENT
REMARK Flexibility Score: inf
ROOT
ATOM      1  C   UNL     1     116.955 179.099 124.944  1.00  0.00     0.039 C 
ATOM      2  C   UNL     1     117.661 178.036 125.755  1.00  0.00    -0.070 C 
ATOM      3  C   UNL     1     118.959 177.689 125.509  1.00  0.00    -0.006 C 
ATOM      4  C   UNL     1     119.681 176.665 126.376  1.00  0.00     0.047 C 
ATOM      5  C   UNL     1     121.208 176.915 126.484  1.00  0.00     0.025 C 
ATOM      6  C   UNL     1     121.613 178.038 127.443  1.00  0.00    -0.073 C 
ATOM      7  C   UNL     1     120.747 178.881 128.038  1.00  0.00     0.008 C 
ATOM      8  C   UNL     1     123.094 178.232 127.636  1.00  0.00     0.031 C 
ATOM      9  C   UNL     1     123.752 178.497 126.281  1.00  0.00     0.005 C 
ATOM     10  C   UNL     1     123.407 177.398 125.261  1.00  0.00     0.008 C 
ATOM     11  C   UNL     1     121.876 177.139 125.088  1.00  0.00    -0.018 C 
ATOM     12  C   UNL     1     121.202 178.343 124.379  1.00  0.00     0.088 C 
ATOM     13  C   UNL     1     119.708 178.197 124.323  1.00  0.00     0.159 C 
ATOM     14  O   UNL     1     119.112 178.498 123.254  1.00  0.00    -0.295 OA
ATOM     15  C   UNL     1     121.727 175.876 124.202  1.00  0.00     0.012 C 
ATOM     16  C   UNL     1     116.879 177.401 126.881  1.00  0.00     0.039 C 
ENDROOT
TORSDOF 0
ENDMDL
MODEL 2
REMARK VINA RESULT:    -7.050      1.728      4.687
REMARK INTER + INTRA:          -7.050
REMARK INTER:                  -7.050
REMARK INTRA:                   0.000
REMARK UNBOUND:                 0.000
REMARK SMILES C=C1CCC[C@]2(C)CC(=O)C(=C(C)C)C[C@H]12
REMARK SMILES IDX 13 1 12 2 11 3 15 4 16 5 2 6 1 7 3 8 4 9 5 10 6 11 8 12 9 13
REMARK SMILES IDX 10 14 7 15 14 16
REMARK H PARENT
REMARK Flexibility Score: inf
ROOT
ATOM      1  C   UNL     1     123.595 177.523 121.640  1.00  0.00     0.039 C 
ATOM      2  C   UNL     1     123.609 177.364 123.143  1.00  0.00    -0.070 C 
ATOM      3  C   UNL     1     122.544 177.734 123.914  1.00  0.00    -0.006 C 
ATOM      4  C   UNL     1     122.543 177.506 125.421  1.00  0.00     0.047 C 
ATOM      5  C   UNL     1     121.128 177.261 126.007  1.00  0.00     0.025 C 
ATOM      6  C   UNL     1     120.569 175.855 125.778  1.00  0.00    -0.073 C 
ATOM      7  C   UNL     1     121.145 174.923 124.993  1.00  0.00     0.008 C 
ATOM      8  C   UNL     1     119.238 175.565 126.422  1.00  0.00     0.031 C 
ATOM      9  C   UNL     1     118.205 176.579 125.929  1.00  0.00     0.005 C 
ATOM     10  C   UNL     1     118.685 178.025 126.141  1.00  0.00     0.008 C 
ATOM     11  C   UNL     1     120.091 178.330 125.531  1.00  0.00    -0.018 C 
ATOM     12  C   UNL     1     120.019 178.329 123.982  1.00  0.00     0.088 C 
ATOM     13  C   UNL     1     121.376 178.476 123.356  1.00  0.00     0.159 C 
ATOM     14  O   UNL     1     121.504 179.246 122.367  1.00  0.00    -0.295 OA
ATOM     15  C   UNL     1     120.500 179.744 126.021  1.00  0.00     0.012 C 
ATOM     16  C   UNL     1     124.841 176.739 123.756  1.00  0.00     0.039 C 
ENDROOT
TORSDOF 0
ENDMDL
MODEL 3
REMARK VINA RESULT:    -7.014      5.879      8.574
REMARK INTER + INTRA:          -7.014
REMARK INTER:                  -7.014
REMARK INTRA:                   0.000
REMARK UNBOUND:                 0.000
REMARK SMILES C=C1CCC[C@]2(C)CC(=O)C(=C(C)C)C[C@H]12
REMARK SMILES IDX 13 1 12 2 11 3 15 4 16 5 2 6 1 7 3 8 4 9 5 10 6 11 8 12 9 13
REMARK SMILES IDX 10 14 7 15 14 16
REMARK H PARENT
REMARK Flexibility Score: inf
ROOT
ATOM      1  C   UNL     1     128.601 174.061 123.512  1.00  0.00     0.039 C 
ATOM      2  C   UNL     1     128.231 175.526 123.568  1.00  0.00    -0.070 C 
ATOM      3  C   UNL     1     127.692 176.172 122.492  1.00  0.00    -0.006 C 
ATOM      4  C   UNL     1     127.261 177.631 122.581  1.00  0.00     0.047 C 
ATOM      5  C   UNL     1     126.070 177.980 121.650  1.00  0.00     0.025 C 
ATOM      6  C   UNL     1     124.699 177.527 122.158  1.00  0.00    -0.073 C 
ATOM      7  C   UNL     1     124.507 176.737 123.233  1.00  0.00     0.008 C 
ATOM      8  C   UNL     1     123.519 177.940 121.317  1.00  0.00     0.031 C 
ATOM      9  C   UNL     1     123.702 177.415 119.893  1.00  0.00     0.005 C 
ATOM     10  C   UNL     1     125.056 177.845 119.301  1.00  0.00     0.008 C 
ATOM     11  C   UNL     1     126.290 177.477 120.186  1.00  0.00    -0.018 C 
ATOM     12  C   UNL     1     126.510 175.942 120.193  1.00  0.00     0.088 C 
ATOM     13  C   UNL     1     127.597 175.535 121.147  1.00  0.00     0.159 C 
ATOM     14  O   UNL     1     128.426 174.661 120.778  1.00  0.00    -0.295 OA
ATOM     15  C   UNL     1     127.525 178.167 119.551  1.00  0.00     0.012 C 
ATOM     16  C   UNL     1     128.445 176.238 124.884  1.00  0.00     0.039 C 
ENDROOT
TORSDOF 0
ENDMDL
MODEL 4
REMARK VINA RESULT:    -6.688      1.769      4.968
REMARK INTER + INTRA:          -6.688
REMARK INTER:                  -6.688
REMARK INTRA:                   0.000
REMARK UNBOUND:                 0.000
REMARK SMILES C=C1CCC[C@]2(C)CC(=O)C(=C(C)C)C[C@H]12
REMARK SMILES IDX 13 1 12 2 11 3 15 4 16 5 2 6 1 7 3 8 4 9 5 10 6 11 8 12 9 13
REMARK SMILES IDX 10 14 7 15 14 16
REMARK H PARENT
REMARK Flexibility Score: inf
ROOT
ATOM      1  C   UNL     1     124.096 178.855 126.878  1.00  0.00     0.039 C 
ATOM      2  C   UNL     1     123.402 177.907 125.926  1.00  0.00    -0.070 C 
ATOM      3  C   UNL     1     122.094 177.553 126.091  1.00  0.00    -0.006 C 
ATOM      4  C   UNL     1     121.387 176.650 125.087  1.00  0.00     0.047 C 
ATOM      5  C   UNL     1     119.867 176.934 124.966  1.00  0.00     0.025 C 
ATOM      6  C   UNL     1     119.505 178.169 124.135  1.00  0.00    -0.073 C 
ATOM      7  C   UNL     1     120.399 179.063 123.670  1.00  0.00     0.008 C 
ATOM      8  C   UNL     1     118.033 178.408 123.923  1.00  0.00     0.031 C 
ATOM      9  C   UNL     1     117.337 178.521 125.280  1.00  0.00     0.005 C 
ATOM     10  C   UNL     1     117.637 177.304 126.173  1.00  0.00     0.008 C 
ATOM     11  C   UNL     1     119.159 177.003 126.358  1.00  0.00    -0.018 C 
ATOM     12  C   UNL     1     119.825 178.104 127.225  1.00  0.00     0.088 C 
ATOM     13  C   UNL     1     121.315 177.929 127.306  1.00  0.00     0.159 C 
ATOM     14  O   UNL     1     121.881 178.093 128.421  1.00  0.00    -0.295 OA
ATOM     15  C   UNL     1     119.266 175.642 127.092  1.00  0.00     0.012 C 
ATOM     16  C   UNL     1     124.211 177.397 124.755  1.00  0.00     0.039 C 
ENDROOT
TORSDOF 0
ENDMDL
MODEL 5
REMARK VINA RESULT:    -6.604      6.897      9.121
REMARK INTER + INTRA:          -6.604
REMARK INTER:                  -6.604
REMARK INTRA:                   0.000
REMARK UNBOUND:                 0.000
REMARK SMILES C=C1CCC[C@]2(C)CC(=O)C(=C(C)C)C[C@H]12
REMARK SMILES IDX 13 1 12 2 11 3 15 4 16 5 2 6 1 7 3 8 4 9 5 10 6 11 8 12 9 13
REMARK SMILES IDX 10 14 7 15 14 16
REMARK H PARENT
REMARK Flexibility Score: inf
ROOT
ATOM      1  C   UNL     1     128.605 176.243 124.999  1.00  0.00     0.039 C 
ATOM      2  C   UNL     1     127.958 175.463 123.877  1.00  0.00    -0.070 C 
ATOM      3  C   UNL     1     127.306 176.086 122.851  1.00  0.00    -0.006 C 
ATOM      4  C   UNL     1     126.717 175.293 121.692  1.00  0.00     0.047 C 
ATOM      5  C   UNL     1     126.706 176.074 120.352  1.00  0.00     0.025 C 
ATOM      6  C   UNL     1     128.057 176.148 119.636  1.00  0.00    -0.073 C 
ATOM      7  C   UNL     1     129.225 175.733 120.166  1.00  0.00     0.008 C 
ATOM      8  C   UNL     1     128.049 176.819 118.287  1.00  0.00     0.031 C 
ATOM      9  C   UNL     1     127.503 178.240 118.431  1.00  0.00     0.005 C 
ATOM     10  C   UNL     1     126.131 178.251 119.128  1.00  0.00     0.008 C 
ATOM     11  C   UNL     1     126.104 177.509 120.503  1.00  0.00    -0.018 C 
ATOM     12  C   UNL     1     126.915 178.303 121.561  1.00  0.00     0.088 C 
ATOM     13  C   UNL     1     127.034 177.553 122.856  1.00  0.00     0.159 C 
ATOM     14  O   UNL     1     126.884 178.186 123.936  1.00  0.00    -0.295 OA
ATOM     15  C   UNL     1     124.621 177.435 120.948  1.00  0.00     0.012 C 
ATOM     16  C   UNL     1     128.099 173.958 123.917  1.00  0.00     0.039 C 
ENDROOT
TORSDOF 0
ENDMDL
MODEL 6
REMARK VINA RESULT:    -6.563      2.823      4.857
REMARK INTER + INTRA:          -6.563
REMARK INTER:                  -6.563
REMARK INTRA:                   0.000
REMARK UNBOUND:                 0.000
REMARK SMILES C=C1CCC[C@]2(C)CC(=O)C(=C(C)C)C[C@H]12
REMARK SMILES IDX 13 1 12 2 11 3 15 4 16 5 2 6 1 7 3 8 4 9 5 10 6 11 8 12 9 13
REMARK SMILES IDX 10 14 7 15 14 16
REMARK H PARENT
REMARK Flexibility Score: inf
ROOT
ATOM      1  C   UNL     1     122.547 172.543 127.048  1.00  0.00     0.039 C 
ATOM      2  C   UNL     1     121.326 173.100 126.352  1.00  0.00    -0.070 C 
ATOM      3  C   UNL     1     120.869 174.362 126.602  1.00  0.00    -0.006 C 
ATOM      4  C   UNL     1     119.679 174.936 125.844  1.00  0.00     0.047 C 
ATOM      5  C   UNL     1     119.745 176.476 125.665  1.00  0.00     0.025 C 
ATOM      6  C   UNL     1     120.697 176.958 124.567  1.00  0.00    -0.073 C 
ATOM      7  C   UNL     1     121.556 176.163 123.899  1.00  0.00     0.008 C 
ATOM      8  C   UNL     1     120.704 178.442 124.311  1.00  0.00     0.031 C 
ATOM      9  C   UNL     1     121.052 179.178 125.606  1.00  0.00     0.005 C 
ATOM     10  C   UNL     1     120.124 178.761 126.760  1.00  0.00     0.008 C 
ATOM     11  C   UNL     1     120.056 177.219 127.005  1.00  0.00    -0.018 C 
ATOM     12  C   UNL     1     121.401 176.705 127.583  1.00  0.00     0.088 C 
ATOM     13  C   UNL     1     121.427 175.208 127.697  1.00  0.00     0.159 C 
ATOM     14  O   UNL     1     121.915 174.691 128.738  1.00  0.00    -0.295 OA
ATOM     15  C   UNL     1     118.929 176.974 128.041  1.00  0.00     0.012 C 
ATOM     16  C   UNL     1     120.653 172.210 125.332  1.00  0.00     0.039 C 
ENDROOT
TORSDOF 0
ENDMDL
MODEL 7
REMARK VINA RESULT:    -6.510      7.509      8.648
REMARK INTER + INTRA:          -6.510
REMARK INTER:                  -6.510
REMARK INTRA:                   0.000
REMARK UNBOUND:                 0.000
REMARK SMILES C=C1CCC[C@]2(C)CC(=O)C(=C(C)C)C[C@H]12
REMARK SMILES IDX 13 1 12 2 11 3 15 4 16 5 2 6 1 7 3 8 4 9 5 10 6 11 8 12 9 13
REMARK SMILES IDX 10 14 7 15 14 16
REMARK H PARENT
REMARK Flexibility Score: inf
ROOT
ATOM      1  C   UNL     1     127.690 178.452 118.250  1.00  0.00     0.039 C 
ATOM      2  C   UNL     1     126.620 177.995 119.214  1.00  0.00    -0.070 C 
ATOM      3  C   UNL     1     126.814 176.936 120.055  1.00  0.00    -0.006 C 
ATOM      4  C   UNL     1     125.753 176.528 121.069  1.00  0.00     0.047 C 
ATOM      5  C   UNL     1     126.341 175.893 122.356  1.00  0.00     0.025 C 
ATOM      6  C   UNL     1     126.936 176.891 123.354  1.00  0.00    -0.073 C 
ATOM      7  C   UNL     1     127.111 178.204 123.108  1.00  0.00     0.008 C 
ATOM      8  C   UNL     1     127.425 176.305 124.654  1.00  0.00     0.031 C 
ATOM      9  C   UNL     1     128.475 175.233 124.363  1.00  0.00     0.005 C 
ATOM     10  C   UNL     1     127.948 174.177 123.376  1.00  0.00     0.008 C 
ATOM     11  C   UNL     1     127.381 174.768 122.045  1.00  0.00    -0.018 C 
ATOM     12  C   UNL     1     128.530 175.348 121.180  1.00  0.00     0.088 C 
ATOM     13  C   UNL     1     128.013 176.054 119.959  1.00  0.00     0.159 C 
ATOM     14  O   UNL     1     128.603 175.871 118.861  1.00  0.00    -0.295 OA
ATOM     15  C   UNL     1     126.708 173.599 121.281  1.00  0.00     0.012 C 
ATOM     16  C   UNL     1     125.333 178.789 119.237  1.00  0.00     0.039 C 
ENDROOT
TORSDOF 0
ENDMDL
MODEL 8
REMARK VINA RESULT:    -6.468      6.154      8.626
REMARK INTER + INTRA:          -6.468
REMARK INTER:                  -6.468
REMARK INTRA:                   0.000
REMARK UNBOUND:                 0.000
REMARK SMILES C=C1CCC[C@]2(C)CC(=O)C(=C(C)C)C[C@H]12
REMARK SMILES IDX 13 1 12 2 11 3 15 4 16 5 2 6 1 7 3 8 4 9 5 10 6 11 8 12 9 13
REMARK SMILES IDX 10 14 7 15 14 16
REMARK H PARENT
REMARK Flexibility Score: inf
ROOT
ATOM      1  C   UNL     1     126.167 174.698 124.019  1.00  0.00     0.039 C 
ATOM      2  C   UNL     1     126.066 176.157 123.638  1.00  0.00    -0.070 C 
ATOM      3  C   UNL     1     126.564 176.628 122.457  1.00  0.00    -0.006 C 
ATOM      4  C   UNL     1     126.396 178.087 122.054  1.00  0.00     0.047 C 
ATOM      5  C   UNL     1     126.310 178.298 120.519  1.00  0.00     0.025 C 
ATOM      6  C   UNL     1     124.956 177.952 119.895  1.00  0.00    -0.073 C 
ATOM      7  C   UNL     1     123.945 177.350 120.551  1.00  0.00     0.008 C 
ATOM      8  C   UNL     1     124.820 178.240 118.422  1.00  0.00     0.031 C 
ATOM      9  C   UNL     1     125.909 177.489 117.656  1.00  0.00     0.005 C 
ATOM     10  C   UNL     1     127.309 177.798 118.213  1.00  0.00     0.008 C 
ATOM     11  C   UNL     1     127.455 177.561 119.751  1.00  0.00    -0.018 C 
ATOM     12  C   UNL     1     127.401 176.044 120.071  1.00  0.00     0.088 C 
ATOM     13  C   UNL     1     127.393 175.782 121.550  1.00  0.00     0.159 C 
ATOM     14  O   UNL     1     128.109 174.848 122.000  1.00  0.00    -0.295 OA
ATOM     15  C   UNL     1     128.840 178.121 120.166  1.00  0.00     0.012 C 
ATOM     16  C   UNL     1     125.349 177.071 124.606  1.00  0.00     0.039 C 
ENDROOT
TORSDOF 0
ENDMDL
MODEL 9
REMARK VINA RESULT:    -6.331      2.227      4.285
REMARK INTER + INTRA:          -6.331
REMARK INTER:                  -6.331
REMARK INTRA:                   0.000
REMARK UNBOUND:                 0.000
REMARK SMILES C=C1CCC[C@]2(C)CC(=O)C(=C(C)C)C[C@H]12
REMARK SMILES IDX 13 1 12 2 11 3 15 4 16 5 2 6 1 7 3 8 4 9 5 10 6 11 8 12 9 13
REMARK SMILES IDX 10 14 7 15 14 16
REMARK H PARENT
REMARK Flexibility Score: inf
ROOT
ATOM      1  C   UNL     1     120.338 179.773 125.480  1.00  0.00     0.039 C 
ATOM      2  C   UNL     1     121.037 178.818 126.421  1.00  0.00    -0.070 C 
ATOM      3  C   UNL     1     120.521 177.587 126.709  1.00  0.00    -0.006 C 
ATOM      4  C   UNL     1     121.268 176.607 127.605  1.00  0.00     0.047 C 
ATOM      5  C   UNL     1     120.997 175.120 127.254  1.00  0.00     0.025 C 
ATOM      6  C   UNL     1     121.751 174.599 126.027  1.00  0.00    -0.073 C 
ATOM      7  C   UNL     1     122.469 175.371 125.189  1.00  0.00     0.008 C 
ATOM      8  C   UNL     1     121.578 173.133 125.726  1.00  0.00     0.031 C 
ATOM      9  C   UNL     1     120.092 172.825 125.543  1.00  0.00     0.005 C 
ATOM     10  C   UNL     1     119.263 173.303 126.748  1.00  0.00     0.008 C 
ATOM     11  C   UNL     1     119.472 174.808 127.114  1.00  0.00    -0.018 C 
ATOM     12  C   UNL     1     118.854 175.720 126.022  1.00  0.00     0.088 C 
ATOM     13  C   UNL     1     119.159 177.171 126.264  1.00  0.00     0.159 C 
ATOM     14  O   UNL     1     118.240 178.016 126.096  1.00  0.00    -0.295 OA
ATOM     15  C   UNL     1     118.738 175.053 128.458  1.00  0.00     0.012 C 
ATOM     16  C   UNL     1     122.358 179.269 127.000  1.00  0.00     0.039 C 
ENDROOT
TORSDOF 0
ENDMDL
