MODEL 1
REMARK VINA RESULT:    -6.881      0.000      0.000
REMARK INTER + INTRA:          -7.502
REMARK INTER:                  -7.283
REMARK INTRA:                  -0.219
REMARK UNBOUND:                -0.219
REMARK SMILES CC1=CC[C@]23[C@H]([C@@H](C(C)C)CC[C@@H]2C)[C@@H]13
REMARK SMILES IDX 14 1 13 2 12 3 11 4 7 5 6 6 5 7 15 8 2 9 3 10 4 11 1 12 8 13
REMARK SMILES IDX 9 14 10 15
REMARK H PARENT
REMARK Flexibility Score: inf
ROOT
ATOM      1  C   UNL     1       4.777  14.449   3.499  1.00  0.00     0.008 C 
ATOM      2  C   UNL     1       3.456  13.666   3.571  1.00  0.00    -0.007 C 
ATOM      3  C   UNL     1       3.154  13.353   5.050  1.00  0.00     0.004 C 
ATOM      4  C   UNL     1       1.783  12.710   5.231  1.00  0.00     0.004 C 
ATOM      5  C   UNL     1       0.672  13.717   4.864  1.00  0.00    -0.004 C 
ATOM      6  C   UNL     1       0.851  14.372   3.474  1.00  0.00     0.007 C 
ATOM      7  C   UNL     1       2.271  14.416   2.872  1.00  0.00    -0.013 C 
ATOM      8  C   UNL     1       1.206  13.461   2.305  1.00  0.00     0.025 C 
ATOM      9  C   UNL     1       0.886  14.000   0.956  1.00  0.00    -0.073 C 
ATOM     10  C   UNL     1       1.591  15.080   0.656  1.00  0.00    -0.027 C 
ATOM     11  C   UNL     1       2.517  15.463   1.759  1.00  0.00     0.035 C 
ATOM     12  C   UNL     1      -0.135  13.400   0.040  1.00  0.00     0.039 C 
ENDROOT
BRANCH   5  13
ATOM     13  C   UNL     1      -0.776  13.172   5.055  1.00  0.00    -0.014 C 
ATOM     14  C   UNL     1      -1.688  14.196   5.750  1.00  0.00     0.007 C 
ATOM     15  C   UNL     1      -0.848  11.823   5.789  1.00  0.00     0.007 C 
ENDBRANCH   5  13
TORSDOF 1
ENDMDL
MODEL 2
REMARK VINA RESULT:    -6.564      1.708      4.028
REMARK INTER + INTRA:          -7.168
REMARK INTER:                  -6.951
REMARK INTRA:                  -0.217
REMARK UNBOUND:                -0.219
REMARK SMILES CC1=CC[C@]23[C@H]([C@@H](C(C)C)CC[C@@H]2C)[C@@H]13
REMARK SMILES IDX 14 1 13 2 12 3 11 4 7 5 6 6 5 7 15 8 2 9 3 10 4 11 1 12 8 13
REMARK SMILES IDX 9 14 10 15
REMARK H PARENT
REMARK Flexibility Score: inf
ROOT
ATOM      1  C   UNL     1      -0.920  15.424  -0.229  1.00  0.00     0.008 C 
ATOM      2  C   UNL     1      -0.119  15.396   1.084  1.00  0.00    -0.007 C 
ATOM      3  C   UNL     1      -0.685  14.274   1.977  1.00  0.00     0.004 C 
ATOM      4  C   UNL     1       0.149  14.072   3.238  1.00  0.00     0.004 C 
ATOM      5  C   UNL     1       1.549  13.539   2.869  1.00  0.00    -0.004 C 
ATOM      6  C   UNL     1       2.279  14.379   1.795  1.00  0.00     0.007 C 
ATOM      7  C   UNL     1       1.422  15.244   0.847  1.00  0.00    -0.013 C 
ATOM      8  C   UNL     1       2.268  15.894   1.956  1.00  0.00     0.025 C 
ATOM      9  C   UNL     1       3.350  16.620   1.238  1.00  0.00    -0.073 C 
ATOM     10  C   UNL     1       3.256  16.506  -0.078  1.00  0.00    -0.027 C 
ATOM     11  C   UNL     1       2.086  15.677  -0.482  1.00  0.00     0.035 C 
ATOM     12  C   UNL     1       4.439  17.383   1.925  1.00  0.00     0.039 C 
ENDROOT
BRANCH   5  13
ATOM     13  C   UNL     1       2.471  13.256   4.095  1.00  0.00    -0.014 C 
ATOM     14  C   UNL     1       3.494  12.148   3.800  1.00  0.00     0.007 C 
ATOM     15  C   UNL     1       1.711  12.937   5.392  1.00  0.00     0.007 C 
ENDBRANCH   5  13
TORSDOF 1
ENDMDL
MODEL 3
REMARK VINA RESULT:    -6.525      1.269      4.405
REMARK INTER + INTRA:          -7.125
REMARK INTER:                  -6.873
REMARK INTRA:                  -0.253
REMARK UNBOUND:                -0.219
REMARK SMILES CC1=CC[C@]23[C@H]([C@@H](C(C)C)CC[C@@H]2C)[C@@H]13
REMARK SMILES IDX 14 1 13 2 12 3 11 4 7 5 6 6 5 7 15 8 2 9 3 10 4 11 1 12 8 13
REMARK SMILES IDX 9 14 10 15
REMARK H PARENT
REMARK Flexibility Score: inf
ROOT
ATOM      1  C   UNL     1       4.271  16.817   2.139  1.00  0.00     0.008 C 
ATOM      2  C   UNL     1       2.883  16.171   1.993  1.00  0.00    -0.007 C 
ATOM      3  C   UNL     1       2.399  16.377   0.544  1.00  0.00     0.004 C 
ATOM      4  C   UNL     1       1.096  15.635   0.266  1.00  0.00     0.004 C 
ATOM      5  C   UNL     1       1.329  14.110   0.332  1.00  0.00    -0.004 C 
ATOM      6  C   UNL     1       2.025  13.636   1.629  1.00  0.00     0.007 C 
ATOM      7  C   UNL     1       2.874  14.661   2.411  1.00  0.00    -0.013 C 
ATOM      8  C   UNL     1       1.511  14.194   2.950  1.00  0.00     0.025 C 
ATOM      9  C   UNL     1       1.832  13.382   4.155  1.00  0.00    -0.073 C 
ATOM     10  C   UNL     1       3.132  13.319   4.397  1.00  0.00    -0.027 C 
ATOM     11  C   UNL     1       3.922  14.083   3.392  1.00  0.00     0.035 C 
ATOM     12  C   UNL     1       0.801  12.694   4.994  1.00  0.00     0.039 C 
ENDROOT
BRANCH   5  13
ATOM     13  C   UNL     1       0.063  13.254   0.019  1.00  0.00    -0.014 C 
ATOM     14  C   UNL     1       0.129  12.624  -1.382  1.00  0.00     0.007 C 
ATOM     15  C   UNL     1      -1.264  14.009   0.192  1.00  0.00     0.007 C 
ENDBRANCH   5  13
TORSDOF 1
ENDMDL
MODEL 4
REMARK VINA RESULT:    -6.320      1.385      4.820
REMARK INTER + INTRA:          -6.909
REMARK INTER:                  -6.514
REMARK INTRA:                  -0.395
REMARK UNBOUND:                -0.219
REMARK SMILES CC1=CC[C@]23[C@H]([C@@H](C(C)C)CC[C@@H]2C)[C@@H]13
REMARK SMILES IDX 14 1 13 2 12 3 11 4 7 5 6 6 5 7 15 8 2 9 3 10 4 11 1 12 8 13
REMARK SMILES IDX 9 14 10 15
REMARK H PARENT
REMARK Flexibility Score: inf
ROOT
ATOM      1  C   UNL     1      -2.153  15.144   2.074  1.00  0.00     0.008 C 
ATOM      2  C   UNL     1      -1.061  14.177   2.563  1.00  0.00    -0.007 C 
ATOM      3  C   UNL     1       0.241  14.484   1.799  1.00  0.00     0.004 C 
ATOM      4  C   UNL     1       1.420  13.674   2.329  1.00  0.00     0.004 C 
ATOM      5  C   UNL     1       1.760  14.112   3.769  1.00  0.00    -0.004 C 
ATOM      6  C   UNL     1       0.549  14.110   4.730  1.00  0.00     0.007 C 
ATOM      7  C   UNL     1      -0.862  14.228   4.116  1.00  0.00    -0.013 C 
ATOM      8  C   UNL     1      -0.370  12.895   4.704  1.00  0.00     0.025 C 
ATOM      9  C   UNL     1      -1.190  12.688   5.929  1.00  0.00    -0.073 C 
ATOM     10  C   UNL     1      -2.066  13.661   6.127  1.00  0.00    -0.027 C 
ATOM     11  C   UNL     1      -1.989  14.703   5.065  1.00  0.00     0.035 C 
ATOM     12  C   UNL     1      -1.033  11.517   6.848  1.00  0.00     0.039 C 
ENDROOT
BRANCH   5  13
ATOM     13  C   UNL     1       2.984  13.373   4.392  1.00  0.00    -0.014 C 
ATOM     14  C   UNL     1       3.108  11.931   3.872  1.00  0.00     0.007 C 
ATOM     15  C   UNL     1       3.007  13.380   5.929  1.00  0.00     0.007 C 
ENDBRANCH   5  13
TORSDOF 1
ENDMDL
MODEL 5
REMARK VINA RESULT:    -6.289      1.700      5.309
REMARK INTER + INTRA:          -6.876
REMARK INTER:                  -6.655
REMARK INTRA:                  -0.221
REMARK UNBOUND:                -0.219
REMARK SMILES CC1=CC[C@]23[C@H]([C@@H](C(C)C)CC[C@@H]2C)[C@@H]13
REMARK SMILES IDX 14 1 13 2 12 3 11 4 7 5 6 6 5 7 15 8 2 9 3 10 4 11 1 12 8 13
REMARK SMILES IDX 9 14 10 15
REMARK H PARENT
REMARK Flexibility Score: inf
ROOT
ATOM      1  C   UNL     1      -1.889  14.442   2.438  1.00  0.00     0.008 C 
ATOM      2  C   UNL     1      -0.508  14.429   1.762  1.00  0.00    -0.007 C 
ATOM      3  C   UNL     1      -0.410  15.652   0.829  1.00  0.00     0.004 C 
ATOM      4  C   UNL     1       0.986  15.805   0.231  1.00  0.00     0.004 C 
ATOM      5  C   UNL     1       2.003  16.143   1.341  1.00  0.00    -0.004 C 
ATOM      6  C   UNL     1       1.968  15.171   2.544  1.00  0.00     0.007 C 
ATOM      7  C   UNL     1       0.668  14.378   2.795  1.00  0.00    -0.013 C 
ATOM      8  C   UNL     1       1.923  13.678   2.244  1.00  0.00     0.025 C 
ATOM      9  C   UNL     1       2.385  12.791   3.347  1.00  0.00    -0.073 C 
ATOM     10  C   UNL     1       1.605  12.857   4.415  1.00  0.00    -0.027 C 
ATOM     11  C   UNL     1       0.474  13.807   4.221  1.00  0.00     0.035 C 
ATOM     12  C   UNL     1       3.606  11.930   3.267  1.00  0.00     0.039 C 
ENDROOT
BRANCH   5  13
ATOM     13  C   UNL     1       3.460  16.363   0.829  1.00  0.00    -0.014 C 
ATOM     14  C   UNL     1       4.289  17.214   1.805  1.00  0.00     0.007 C 
ATOM     15  C   UNL     1       3.545  16.956  -0.587  1.00  0.00     0.007 C 
ENDBRANCH   5  13
TORSDOF 1
ENDMDL
MODEL 6
REMARK VINA RESULT:    -6.287      1.329      4.754
REMARK INTER + INTRA:          -6.874
REMARK INTER:                  -6.683
REMARK INTRA:                  -0.191
REMARK UNBOUND:                -0.219
REMARK SMILES CC1=CC[C@]23[C@H]([C@@H](C(C)C)CC[C@@H]2C)[C@@H]13
REMARK SMILES IDX 14 1 13 2 12 3 11 4 7 5 6 6 5 7 15 8 2 9 3 10 4 11 1 12 8 13
REMARK SMILES IDX 9 14 10 15
REMARK H PARENT
REMARK Flexibility Score: inf
ROOT
ATOM      1  C   UNL     1      -1.409  14.061   5.875  1.00  0.00     0.008 C 
ATOM      2  C   UNL     1      -0.825  13.704   4.498  1.00  0.00    -0.007 C 
ATOM      3  C   UNL     1      -1.573  14.519   3.425  1.00  0.00     0.004 C 
ATOM      4  C   UNL     1      -0.957  14.343   2.040  1.00  0.00     0.004 C 
ATOM      5  C   UNL     1       0.458  14.957   2.008  1.00  0.00    -0.004 C 
ATOM      6  C   UNL     1       1.384  14.463   3.144  1.00  0.00     0.007 C 
ATOM      7  C   UNL     1       0.725  13.914   4.427  1.00  0.00    -0.013 C 
ATOM      8  C   UNL     1       1.415  12.967   3.429  1.00  0.00     0.025 C 
ATOM      9  C   UNL     1       2.628  12.478   4.140  1.00  0.00    -0.073 C 
ATOM     10  C   UNL     1       2.736  12.970   5.364  1.00  0.00    -0.027 C 
ATOM     11  C   UNL     1       1.609  13.884   5.697  1.00  0.00     0.035 C 
ATOM     12  C   UNL     1       3.629  11.545   3.533  1.00  0.00     0.039 C 
ENDROOT
BRANCH   5  13
ATOM     13  C   UNL     1       1.163  14.868   0.619  1.00  0.00    -0.014 C 
ATOM     14  C   UNL     1       1.320  13.413   0.148  1.00  0.00     0.007 C 
ATOM     15  C   UNL     1       2.519  15.589   0.555  1.00  0.00     0.007 C 
ENDBRANCH   5  13
TORSDOF 1
ENDMDL
MODEL 7
REMARK VINA RESULT:    -5.975      2.097      5.230
REMARK INTER + INTRA:          -6.544
REMARK INTER:                  -6.329
REMARK INTRA:                  -0.215
REMARK UNBOUND:                -0.219
REMARK SMILES CC1=CC[C@]23[C@H]([C@@H](C(C)C)CC[C@@H]2C)[C@@H]13
REMARK SMILES IDX 14 1 13 2 12 3 11 4 7 5 6 6 5 7 15 8 2 9 3 10 4 11 1 12 8 13
REMARK SMILES IDX 9 14 10 15
REMARK H PARENT
REMARK Flexibility Score: inf
ROOT
ATOM      1  C   UNL     1      -2.016  11.302   7.540  1.00  0.00     0.008 C 
ATOM      2  C   UNL     1      -2.352  12.338   6.455  1.00  0.00    -0.007 C 
ATOM      3  C   UNL     1      -3.639  13.078   6.869  1.00  0.00     0.004 C 
ATOM      4  C   UNL     1      -3.964  14.232   5.925  1.00  0.00     0.004 C 
ATOM      5  C   UNL     1      -2.888  15.332   6.041  1.00  0.00    -0.004 C 
ATOM      6  C   UNL     1      -1.439  14.814   5.880  1.00  0.00     0.007 C 
ATOM      7  C   UNL     1      -1.167  13.324   6.174  1.00  0.00    -0.013 C 
ATOM      8  C   UNL     1      -1.156  13.856   4.730  1.00  0.00     0.025 C 
ATOM      9  C   UNL     1       0.267  13.776   4.301  1.00  0.00    -0.073 C 
ATOM     10  C   UNL     1       1.056  13.281   5.242  1.00  0.00    -0.027 C 
ATOM     11  C   UNL     1       0.300  12.938   6.479  1.00  0.00     0.035 C 
ATOM     12  C   UNL     1       0.758  14.222   2.960  1.00  0.00     0.039 C 
ENDROOT
BRANCH   5  13
ATOM     13  C   UNL     1      -3.149  16.581   5.145  1.00  0.00    -0.014 C 
ATOM     14  C   UNL     1      -4.241  17.490   5.732  1.00  0.00     0.007 C 
ATOM     15  C   UNL     1      -3.476  16.247   3.681  1.00  0.00     0.007 C 
ENDBRANCH   5  13
TORSDOF 1
ENDMDL
MODEL 8
REMARK VINA RESULT:    -5.857      1.548      2.808
REMARK INTER + INTRA:          -6.419
REMARK INTER:                  -6.128
REMARK INTRA:                  -0.291
REMARK UNBOUND:                -0.219
REMARK SMILES CC1=CC[C@]23[C@H]([C@@H](C(C)C)CC[C@@H]2C)[C@@H]13
REMARK SMILES IDX 14 1 13 2 12 3 11 4 7 5 6 6 5 7 15 8 2 9 3 10 4 11 1 12 8 13
REMARK SMILES IDX 9 14 10 15
REMARK H PARENT
REMARK Flexibility Score: inf
ROOT
ATOM      1  C   UNL     1       4.233  17.561   1.754  1.00  0.00     0.008 C 
ATOM      2  C   UNL     1       4.085  16.046   1.978  1.00  0.00    -0.007 C 
ATOM      3  C   UNL     1       4.724  15.689   3.334  1.00  0.00     0.004 C 
ATOM      4  C   UNL     1       4.490  14.229   3.710  1.00  0.00     0.004 C 
ATOM      5  C   UNL     1       2.988  13.983   3.967  1.00  0.00    -0.004 C 
ATOM      6  C   UNL     1       2.066  14.464   2.822  1.00  0.00     0.007 C 
ATOM      7  C   UNL     1       2.598  15.564   1.879  1.00  0.00    -0.013 C 
ATOM      8  C   UNL     1       2.468  14.109   1.396  1.00  0.00     0.025 C 
ATOM      9  C   UNL     1       1.365  14.132   0.397  1.00  0.00    -0.073 C 
ATOM     10  C   UNL     1       0.860  15.344   0.222  1.00  0.00    -0.027 C 
ATOM     11  C   UNL     1       1.538  16.358   1.078  1.00  0.00     0.035 C 
ATOM     12  C   UNL     1       0.866  12.918  -0.321  1.00  0.00     0.039 C 
ENDROOT
BRANCH   5  13
ATOM     13  C   UNL     1       2.643  12.525   4.401  1.00  0.00    -0.014 C 
ATOM     14  C   UNL     1       3.279  11.482   3.467  1.00  0.00     0.007 C 
ATOM     15  C   UNL     1       1.137  12.252   4.545  1.00  0.00     0.007 C 
ENDBRANCH   5  13
TORSDOF 1
ENDMDL
MODEL 9
REMARK VINA RESULT:    -5.853      1.098      4.021
REMARK INTER + INTRA:          -6.414
REMARK INTER:                  -6.027
REMARK INTRA:                  -0.387
REMARK UNBOUND:                -0.219
REMARK SMILES CC1=CC[C@]23[C@H]([C@@H](C(C)C)CC[C@@H]2C)[C@@H]13
REMARK SMILES IDX 14 1 13 2 12 3 11 4 7 5 6 6 5 7 15 8 2 9 3 10 4 11 1 12 8 13
REMARK SMILES IDX 9 14 10 15
REMARK H PARENT
REMARK Flexibility Score: inf
ROOT
ATOM      1  C   UNL     1       4.949  15.280   3.146  1.00  0.00     0.008 C 
ATOM      2  C   UNL     1       3.476  15.497   2.759  1.00  0.00    -0.007 C 
ATOM      3  C   UNL     1       3.429  16.132   1.355  1.00  0.00     0.004 C 
ATOM      4  C   UNL     1       2.003  16.244   0.825  1.00  0.00     0.004 C 
ATOM      5  C   UNL     1       1.417  14.837   0.581  1.00  0.00    -0.004 C 
ATOM      6  C   UNL     1       1.533  13.887   1.796  1.00  0.00     0.007 C 
ATOM      7  C   UNL     1       2.630  14.182   2.842  1.00  0.00    -0.013 C 
ATOM      8  C   UNL     1       1.147  14.439   3.163  1.00  0.00     0.025 C 
ATOM      9  C   UNL     1       0.793  13.419   4.186  1.00  0.00    -0.073 C 
ATOM     10  C   UNL     1       1.815  12.642   4.509  1.00  0.00    -0.027 C 
ATOM     11  C   UNL     1       3.047  13.003   3.753  1.00  0.00     0.035 C 
ATOM     12  C   UNL     1      -0.575  13.272   4.777  1.00  0.00     0.039 C 
ENDROOT
BRANCH   5  13
ATOM     13  C   UNL     1      -0.029  14.839  -0.004  1.00  0.00    -0.014 C 
ATOM     14  C   UNL     1      -0.883  15.976   0.580  1.00  0.00     0.007 C 
ATOM     15  C   UNL     1      -0.768  13.499   0.143  1.00  0.00     0.007 C 
ENDBRANCH   5  13
TORSDOF 1
ENDMDL
