MODEL 1
REMARK VINA RESULT:    -4.410      0.000      0.000
REMARK INTER + INTRA:         -10.099
REMARK INTER:                  -8.020
REMARK INTRA:                  -2.079
REMARK UNBOUND:                -2.079
REMARK SMILES CCCCCCCCCCCCCCCC(=O)[O-]
REMARK SMILES IDX 9 1 10 2 11 3 12 4 13 5 14 6 15 7 16 8 17 9 18 10 8 11 7 12
REMARK SMILES IDX 6 13 5 14 4 15 3 16 2 17 1 18
REMARK H PARENT
REMARK Flexibility Score: inf
ROOT
ATOM      1  C   UNL     1       3.327 -20.911  -7.520  1.00  0.00     0.000 C 
ENDROOT
BRANCH   1   2
ATOM      2  C   UNL     1       1.992 -20.737  -8.263  1.00  0.00     0.000 C 
BRANCH   2   3
ATOM      3  C   UNL     1       0.891 -21.665  -7.724  1.00  0.00     0.000 C 
BRANCH   3   4
ATOM      4  C   UNL     1       1.114 -22.056  -6.253  1.00  0.00     0.000 C 
BRANCH   4   5
ATOM      5  C   UNL     1       0.029 -21.492  -5.320  1.00  0.00     0.000 C 
BRANCH   5   6
ATOM      6  C   UNL     1       0.621 -20.757  -4.105  1.00  0.00     0.006 C 
BRANCH   6   7
ATOM      7  C   UNL     1       0.952 -19.292  -4.420  1.00  0.00     0.053 C 
BRANCH   7   8
ATOM      8  C   UNL     1       1.770 -18.660  -3.336  1.00  0.00     0.041 C 
ATOM      9  O   UNL     1       2.032 -19.300  -2.284  1.00  0.00    -0.550 OA
ATOM     10  O   UNL     1       2.221 -17.352  -3.475  1.00  0.00    -0.550 OA
ENDBRANCH   7   8
ENDBRANCH   6   7
ENDBRANCH   5   6
ENDBRANCH   4   5
ENDBRANCH   3   4
ENDBRANCH   2   3
ENDBRANCH   1   2
BRANCH   1  11
ATOM     11  C   UNL     1       4.018 -19.569  -7.226  1.00  0.00     0.000 C 
BRANCH  11  12
ATOM     12  C   UNL     1       4.495 -19.455  -5.766  1.00  0.00    -0.000 C 
BRANCH  12  13
ATOM     13  C   UNL     1       4.329 -20.767  -4.983  1.00  0.00    -0.000 C 
BRANCH  13  14
ATOM     14  C   UNL     1       5.654 -21.532  -4.826  1.00  0.00    -0.000 C 
BRANCH  14  15
ATOM     15  C   UNL     1       6.881 -20.695  -5.234  1.00  0.00    -0.000 C 
BRANCH  15  16
ATOM     16  C   UNL     1       7.768 -21.325  -6.323  1.00  0.00    -0.000 C 
BRANCH  16  17
ATOM     17  C   UNL     1       6.960 -21.935  -7.478  1.00  0.00    -0.003 C 
ATOM     18  C   UNL     1       7.857 -22.742  -8.412  1.00  0.00     0.004 C 
ENDBRANCH  16  17
ENDBRANCH  15  16
ENDBRANCH  14  15
ENDBRANCH  13  14
ENDBRANCH  12  13
ENDBRANCH  11  12
ENDBRANCH   1  11
TORSDOF 14
ENDMDL
MODEL 2
REMARK VINA RESULT:    -4.365     11.953     13.765
REMARK INTER + INTRA:         -10.017
REMARK INTER:                  -7.496
REMARK INTRA:                  -2.521
REMARK UNBOUND:                -2.079
REMARK SMILES CCCCCCCCCCCCCCCC(=O)[O-]
REMARK SMILES IDX 9 1 10 2 11 3 12 4 13 5 14 6 15 7 16 8 17 9 18 10 8 11 7 12
REMARK SMILES IDX 6 13 5 14 4 15 3 16 2 17 1 18
REMARK H PARENT
REMARK Flexibility Score: inf
ROOT
ATOM      1  C   UNL     1      -7.983 -27.055  -0.635  1.00  0.00     0.000 C 
ENDROOT
BRANCH   1   2
ATOM      2  C   UNL     1      -9.378 -27.680  -0.807  1.00  0.00     0.000 C 
BRANCH   2   3
ATOM      3  C   UNL     1     -10.191 -27.008  -1.924  1.00  0.00     0.000 C 
BRANCH   3   4
ATOM      4  C   UNL     1      -9.637 -27.312  -3.327  1.00  0.00     0.000 C 
BRANCH   4   5
ATOM      5  C   UNL     1      -9.183 -26.045  -4.071  1.00  0.00     0.000 C 
BRANCH   5   6
ATOM      6  C   UNL     1      -9.434 -24.762  -3.259  1.00  0.00     0.006 C 
BRANCH   6   7
ATOM      7  C   UNL     1      -8.127 -24.100  -2.805  1.00  0.00     0.053 C 
BRANCH   7   8
ATOM      8  C   UNL     1      -8.308 -23.318  -1.540  1.00  0.00     0.041 C 
ATOM      9  O   UNL     1      -9.236 -23.611  -0.741  1.00  0.00    -0.550 OA
ATOM     10  O   UNL     1      -7.468 -22.249  -1.256  1.00  0.00    -0.550 OA
ENDBRANCH   7   8
ENDBRANCH   6   7
ENDBRANCH   5   6
ENDBRANCH   4   5
ENDBRANCH   3   4
ENDBRANCH   2   3
ENDBRANCH   1   2
BRANCH   1  11
ATOM     11  C   UNL     1      -6.900 -28.103  -0.329  1.00  0.00     0.000 C 
BRANCH  11  12
ATOM     12  C   UNL     1      -5.532 -27.738  -0.935  1.00  0.00    -0.000 C 
BRANCH  12  13
ATOM     13  C   UNL     1      -5.642 -26.700  -2.063  1.00  0.00    -0.000 C 
BRANCH  13  14
ATOM     14  C   UNL     1      -5.903 -27.345  -3.435  1.00  0.00    -0.000 C 
BRANCH  14  15
ATOM     15  C   UNL     1      -5.382 -28.792  -3.526  1.00  0.00    -0.000 C 
BRANCH  15  16
ATOM     16  C   UNL     1      -6.421 -29.834  -3.977  1.00  0.00    -0.000 C 
BRANCH  16  17
ATOM     17  C   UNL     1      -7.010 -30.640  -2.810  1.00  0.00    -0.003 C 
ATOM     18  C   UNL     1      -8.535 -30.639  -2.855  1.00  0.00     0.004 C 
ENDBRANCH  16  17
ENDBRANCH  15  16
ENDBRANCH  14  15
ENDBRANCH  13  14
ENDBRANCH  12  13
ENDBRANCH  11  12
ENDBRANCH   1  11
TORSDOF 14
ENDMDL
MODEL 3
REMARK VINA RESULT:    -4.295      2.448      5.318
REMARK INTER + INTRA:          -9.890
REMARK INTER:                  -7.871
REMARK INTRA:                  -2.019
REMARK UNBOUND:                -2.079
REMARK SMILES CCCCCCCCCCCCCCCC(=O)[O-]
REMARK SMILES IDX 9 1 10 2 11 3 12 4 13 5 14 6 15 7 16 8 17 9 18 10 8 11 7 12
REMARK SMILES IDX 6 13 5 14 4 15 3 16 2 17 1 18
REMARK H PARENT
REMARK Flexibility Score: inf
ROOT
ATOM      1  C   UNL     1       0.157 -21.478  -5.199  1.00  0.00     0.000 C 
ENDROOT
BRANCH   1   2
ATOM      2  C   UNL     1       1.251 -21.972  -6.161  1.00  0.00     0.000 C 
BRANCH   2   3
ATOM      3  C   UNL     1       0.912 -21.690  -7.634  1.00  0.00     0.000 C 
BRANCH   3   4
ATOM      4  C   UNL     1       1.995 -20.859  -8.343  1.00  0.00     0.000 C 
BRANCH   4   5
ATOM      5  C   UNL     1       2.855 -20.046  -7.362  1.00  0.00     0.000 C 
BRANCH   5   6
ATOM      6  C   UNL     1       4.299 -19.859  -7.858  1.00  0.00     0.006 C 
BRANCH   6   7
ATOM      7  C   UNL     1       5.326 -20.050  -6.734  1.00  0.00     0.053 C 
BRANCH   7   8
ATOM      8  C   UNL     1       5.539 -21.498  -6.413  1.00  0.00     0.041 C 
ATOM      9  O   UNL     1       6.129 -22.249  -7.233  1.00  0.00    -0.550 OA
ATOM     10  O   UNL     1       5.062 -22.024  -5.218  1.00  0.00    -0.550 OA
ENDBRANCH   7   8
ENDBRANCH   6   7
ENDBRANCH   5   6
ENDBRANCH   4   5
ENDBRANCH   3   4
ENDBRANCH   2   3
ENDBRANCH   1   2
BRANCH   1  11
ATOM     11  C   UNL     1       0.577 -20.219  -4.424  1.00  0.00     0.000 C 
BRANCH  11  12
ATOM     12  C   UNL     1       0.578 -20.433  -2.899  1.00  0.00    -0.000 C 
BRANCH  12  13
ATOM     13  C   UNL     1       1.982 -20.313  -2.285  1.00  0.00    -0.000 C 
BRANCH  13  14
ATOM     14  C   UNL     1       3.055 -19.963  -3.329  1.00  0.00    -0.000 C 
BRANCH  14  15
ATOM     15  C   UNL     1       3.519 -18.497  -3.244  1.00  0.00    -0.000 C 
BRANCH  15  16
ATOM     16  C   UNL     1       3.197 -17.637  -4.479  1.00  0.00    -0.000 C 
BRANCH  16  17
ATOM     17  C   UNL     1       2.166 -16.535  -4.192  1.00  0.00    -0.003 C 
ATOM     18  C   UNL     1       1.653 -16.622  -2.758  1.00  0.00     0.004 C 
ENDBRANCH  16  17
ENDBRANCH  15  16
ENDBRANCH  14  15
ENDBRANCH  13  14
ENDBRANCH  12  13
ENDBRANCH  11  12
ENDBRANCH   1  11
TORSDOF 14
ENDMDL
MODEL 4
REMARK VINA RESULT:    -4.260      1.361      2.074
REMARK INTER + INTRA:          -9.826
REMARK INTER:                  -8.049
REMARK INTRA:                  -1.778
REMARK UNBOUND:                -2.079
REMARK SMILES CCCCCCCCCCCCCCCC(=O)[O-]
REMARK SMILES IDX 9 1 10 2 11 3 12 4 13 5 14 6 15 7 16 8 17 9 18 10 8 11 7 12
REMARK SMILES IDX 6 13 5 14 4 15 3 16 2 17 1 18
REMARK H PARENT
REMARK Flexibility Score: inf
ROOT
ATOM      1  C   UNL     1       1.451 -21.368  -8.412  1.00  0.00     0.000 C 
ENDROOT
BRANCH   1   2
ATOM      2  C   UNL     1       1.073 -22.450  -7.386  1.00  0.00     0.000 C 
BRANCH   2   3
ATOM      3  C   UNL     1      -0.027 -21.987  -6.418  1.00  0.00     0.000 C 
BRANCH   3   4
ATOM      4  C   UNL     1       0.490 -21.794  -4.982  1.00  0.00     0.000 C 
BRANCH   4   5
ATOM      5  C   UNL     1       0.040 -20.459  -4.365  1.00  0.00     0.000 C 
BRANCH   5   6
ATOM      6  C   UNL     1       1.169 -19.415  -4.332  1.00  0.00     0.006 C 
BRANCH   6   7
ATOM      7  C   UNL     1       1.614 -19.087  -2.901  1.00  0.00     0.053 C 
BRANCH   7   8
ATOM      8  C   UNL     1       2.327 -20.238  -2.261  1.00  0.00     0.041 C 
ATOM      9  O   UNL     1       3.531 -20.472  -2.541  1.00  0.00    -0.550 OA
ATOM     10  O   UNL     1       1.653 -21.069  -1.374  1.00  0.00    -0.550 OA
ENDBRANCH   7   8
ENDBRANCH   6   7
ENDBRANCH   5   6
ENDBRANCH   4   5
ENDBRANCH   3   4
ENDBRANCH   2   3
ENDBRANCH   1   2
BRANCH   1  11
ATOM     11  C   UNL     1       2.161 -20.166  -7.769  1.00  0.00     0.000 C 
BRANCH  11  12
ATOM     12  C   UNL     1       3.668 -20.406  -7.566  1.00  0.00    -0.000 C 
BRANCH  12  13
ATOM     13  C   UNL     1       4.065 -20.465  -6.082  1.00  0.00    -0.000 C 
BRANCH  13  14
ATOM     14  C   UNL     1       4.882 -21.722  -5.739  1.00  0.00    -0.000 C 
BRANCH  14  15
ATOM     15  C   UNL     1       5.897 -22.095  -6.836  1.00  0.00    -0.000 C 
BRANCH  15  16
ATOM     16  C   UNL     1       7.162 -21.219  -6.881  1.00  0.00    -0.000 C 
BRANCH  16  17
ATOM     17  C   UNL     1       7.676 -20.978  -8.308  1.00  0.00    -0.003 C 
ATOM     18  C   UNL     1       7.296 -19.586  -8.802  1.00  0.00     0.004 C 
ENDBRANCH  16  17
ENDBRANCH  15  16
ENDBRANCH  14  15
ENDBRANCH  13  14
ENDBRANCH  12  13
ENDBRANCH  11  12
ENDBRANCH   1  11
TORSDOF 14
ENDMDL
MODEL 5
REMARK VINA RESULT:    -4.199      1.272      2.804
REMARK INTER + INTRA:          -9.715
REMARK INTER:                  -7.602
REMARK INTRA:                  -2.114
REMARK UNBOUND:                -2.079
REMARK SMILES CCCCCCCCCCCCCCCC(=O)[O-]
REMARK SMILES IDX 9 1 10 2 11 3 12 4 13 5 14 6 15 7 16 8 17 9 18 10 8 11 7 12
REMARK SMILES IDX 6 13 5 14 4 15 3 16 2 17 1 18
REMARK H PARENT
REMARK Flexibility Score: inf
ROOT
ATOM      1  C   UNL     1       0.721 -22.214  -7.043  1.00  0.00     0.000 C 
ENDROOT
BRANCH   1   2
ATOM      2  C   UNL     1      -0.088 -21.413  -6.008  1.00  0.00     0.000 C 
BRANCH   2   3
ATOM      3  C   UNL     1       0.473 -21.554  -4.584  1.00  0.00     0.000 C 
BRANCH   3   4
ATOM      4  C   UNL     1       0.447 -20.229  -3.803  1.00  0.00     0.000 C 
BRANCH   4   5
ATOM      5  C   UNL     1       1.502 -20.180  -2.685  1.00  0.00     0.000 C 
BRANCH   5   6
ATOM      6  C   UNL     1       2.234 -18.829  -2.622  1.00  0.00     0.006 C 
BRANCH   6   7
ATOM      7  C   UNL     1       1.568 -17.769  -3.510  1.00  0.00     0.053 C 
BRANCH   7   8
ATOM      8  C   UNL     1       1.300 -16.501  -2.758  1.00  0.00     0.041 C 
ATOM      9  O   UNL     1       0.443 -15.682  -3.181  1.00  0.00    -0.550 OA
ATOM     10  O   UNL     1       2.015 -16.211  -1.602  1.00  0.00    -0.550 OA
ENDBRANCH   7   8
ENDBRANCH   6   7
ENDBRANCH   5   6
ENDBRANCH   4   5
ENDBRANCH   3   4
ENDBRANCH   2   3
ENDBRANCH   1   2
BRANCH   1  11
ATOM     11  C   UNL     1       1.368 -21.315  -8.110  1.00  0.00     0.000 C 
BRANCH  11  12
ATOM     12  C   UNL     1       2.842 -20.994  -7.800  1.00  0.00    -0.000 C 
BRANCH  12  13
ATOM     13  C   UNL     1       3.014 -19.666  -7.046  1.00  0.00    -0.000 C 
BRANCH  13  14
ATOM     14  C   UNL     1       3.819 -19.826  -5.745  1.00  0.00    -0.000 C 
BRANCH  14  15
ATOM     15  C   UNL     1       4.045 -21.300  -5.358  1.00  0.00    -0.000 C 
BRANCH  15  16
ATOM     16  C   UNL     1       5.517 -21.752  -5.341  1.00  0.00    -0.000 C 
BRANCH  16  17
ATOM     17  C   UNL     1       6.373 -21.053  -6.408  1.00  0.00    -0.003 C 
ATOM     18  C   UNL     1       6.827 -22.039  -7.481  1.00  0.00     0.004 C 
ENDBRANCH  16  17
ENDBRANCH  15  16
ENDBRANCH  14  15
ENDBRANCH  13  14
ENDBRANCH  12  13
ENDBRANCH  11  12
ENDBRANCH   1  11
TORSDOF 14
ENDMDL
MODEL 6
REMARK VINA RESULT:    -4.175      2.943      5.932
REMARK INTER + INTRA:          -9.670
REMARK INTER:                  -7.744
REMARK INTRA:                  -1.927
REMARK UNBOUND:                -2.079
REMARK SMILES CCCCCCCCCCCCCCCC(=O)[O-]
REMARK SMILES IDX 9 1 10 2 11 3 12 4 13 5 14 6 15 7 16 8 17 9 18 10 8 11 7 12
REMARK SMILES IDX 6 13 5 14 4 15 3 16 2 17 1 18
REMARK H PARENT
REMARK Flexibility Score: inf
ROOT
ATOM      1  C   UNL     1       4.714 -18.953  -2.701  1.00  0.00     0.000 C 
ENDROOT
BRANCH   1   2
ATOM      2  C   UNL     1       4.757 -20.484  -2.847  1.00  0.00     0.000 C 
BRANCH   2   3
ATOM      3  C   UNL     1       5.282 -20.931  -4.221  1.00  0.00     0.000 C 
BRANCH   3   4
ATOM      4  C   UNL     1       4.169 -21.028  -5.279  1.00  0.00     0.000 C 
BRANCH   4   5
ATOM      5  C   UNL     1       4.032 -19.744  -6.113  1.00  0.00     0.000 C 
BRANCH   5   6
ATOM      6  C   UNL     1       4.486 -19.937  -7.571  1.00  0.00     0.006 C 
BRANCH   6   7
ATOM      7  C   UNL     1       5.691 -19.056  -7.924  1.00  0.00     0.053 C 
BRANCH   7   8
ATOM      8  C   UNL     1       6.897 -19.874  -8.273  1.00  0.00     0.041 C 
ATOM      9  O   UNL     1       7.308 -20.764  -7.484  1.00  0.00    -0.550 OA
ATOM     10  O   UNL     1       7.582 -19.635  -9.458  1.00  0.00    -0.550 OA
ENDBRANCH   7   8
ENDBRANCH   6   7
ENDBRANCH   5   6
ENDBRANCH   4   5
ENDBRANCH   3   4
ENDBRANCH   2   3
ENDBRANCH   1   2
BRANCH   1  11
ATOM     11  C   UNL     1       3.314 -18.434  -2.336  1.00  0.00     0.000 C 
BRANCH  11  12
ATOM     12  C   UNL     1       2.236 -19.532  -2.410  1.00  0.00    -0.000 C 
BRANCH  12  13
ATOM     13  C   UNL     1       1.229 -19.298  -3.548  1.00  0.00    -0.000 C 
BRANCH  13  14
ATOM     14  C   UNL     1       0.539 -20.596  -4.001  1.00  0.00    -0.000 C 
BRANCH  14  15
ATOM     15  C   UNL     1       0.618 -20.816  -5.524  1.00  0.00    -0.000 C 
BRANCH  15  16
ATOM     16  C   UNL     1       0.454 -22.277  -5.981  1.00  0.00    -0.000 C 
BRANCH  16  17
ATOM     17  C   UNL     1       0.793 -22.483  -7.465  1.00  0.00    -0.003 C 
ATOM     18  C   UNL     1       1.184 -21.167  -8.129  1.00  0.00     0.004 C 
ENDBRANCH  16  17
ENDBRANCH  15  16
ENDBRANCH  14  15
ENDBRANCH  13  14
ENDBRANCH  12  13
ENDBRANCH  11  12
ENDBRANCH   1  11
TORSDOF 14
ENDMDL
MODEL 7
REMARK VINA RESULT:    -4.136      2.040      4.714
REMARK INTER + INTRA:          -9.600
REMARK INTER:                  -7.915
REMARK INTRA:                  -1.685
REMARK UNBOUND:                -2.079
REMARK SMILES CCCCCCCCCCCCCCCC(=O)[O-]
REMARK SMILES IDX 9 1 10 2 11 3 12 4 13 5 14 6 15 7 16 8 17 9 18 10 8 11 7 12
REMARK SMILES IDX 6 13 5 14 4 15 3 16 2 17 1 18
REMARK H PARENT
REMARK Flexibility Score: inf
ROOT
ATOM      1  C   UNL     1       0.321 -20.726  -3.934  1.00  0.00     0.000 C 
ENDROOT
BRANCH   1   2
ATOM      2  C   UNL     1       0.635 -19.335  -3.357  1.00  0.00     0.000 C 
BRANCH   2   3
ATOM      3  C   UNL     1       2.033 -18.834  -3.753  1.00  0.00     0.000 C 
BRANCH   3   4
ATOM      4  C   UNL     1       3.119 -19.250  -2.746  1.00  0.00     0.000 C 
BRANCH   4   5
ATOM      5  C   UNL     1       3.860 -18.046  -2.143  1.00  0.00     0.000 C 
BRANCH   5   6
ATOM      6  C   UNL     1       2.952 -17.181  -1.251  1.00  0.00     0.006 C 
BRANCH   6   7
ATOM      7  C   UNL     1       2.635 -15.824  -1.892  1.00  0.00     0.053 C 
BRANCH   7   8
ATOM      8  C   UNL     1       1.176 -15.494  -1.804  1.00  0.00     0.041 C 
ATOM      9  O   UNL     1       0.408 -15.753  -2.768  1.00  0.00    -0.550 OA
ATOM     10  O   UNL     1       0.669 -14.875  -0.668  1.00  0.00    -0.550 OA
ENDBRANCH   7   8
ENDBRANCH   6   7
ENDBRANCH   5   6
ENDBRANCH   4   5
ENDBRANCH   3   4
ENDBRANCH   2   3
ENDBRANCH   1   2
BRANCH   1  11
ATOM     11  C   UNL     1       0.551 -20.801  -5.452  1.00  0.00     0.000 C 
BRANCH  11  12
ATOM     12  C   UNL     1       0.483 -22.241  -5.993  1.00  0.00    -0.000 C 
BRANCH  12  13
ATOM     13  C   UNL     1       0.844 -22.333  -7.484  1.00  0.00    -0.000 C 
BRANCH  13  14
ATOM     14  C   UNL     1       1.182 -20.962  -8.094  1.00  0.00    -0.000 C 
BRANCH  14  15
ATOM     15  C   UNL     1       2.690 -20.774  -8.348  1.00  0.00    -0.000 C 
BRANCH  15  16
ATOM     16  C   UNL     1       3.426 -19.916  -7.303  1.00  0.00    -0.000 C 
BRANCH  16  17
ATOM     17  C   UNL     1       4.667 -20.611  -6.722  1.00  0.00    -0.003 C 
ATOM     18  C   UNL     1       4.317 -21.404  -5.467  1.00  0.00     0.004 C 
ENDBRANCH  16  17
ENDBRANCH  15  16
ENDBRANCH  14  15
ENDBRANCH  13  14
ENDBRANCH  12  13
ENDBRANCH  11  12
ENDBRANCH   1  11
TORSDOF 14
ENDMDL
MODEL 8
REMARK VINA RESULT:    -4.128     11.971     13.735
REMARK INTER + INTRA:          -9.586
REMARK INTER:                  -7.198
REMARK INTRA:                  -2.388
REMARK UNBOUND:                -2.079
REMARK SMILES CCCCCCCCCCCCCCCC(=O)[O-]
REMARK SMILES IDX 9 1 10 2 11 3 12 4 13 5 14 6 15 7 16 8 17 9 18 10 8 11 7 12
REMARK SMILES IDX 6 13 5 14 4 15 3 16 2 17 1 18
REMARK H PARENT
REMARK Flexibility Score: inf
ROOT
ATOM      1  C   UNL     1     -10.500 -27.514  -1.553  1.00  0.00     0.000 C 
ENDROOT
BRANCH   1   2
ATOM      2  C   UNL     1     -10.038 -27.913  -2.964  1.00  0.00     0.000 C 
BRANCH   2   3
ATOM      3  C   UNL     1      -9.553 -26.710  -3.789  1.00  0.00     0.000 C 
BRANCH   3   4
ATOM      4  C   UNL     1      -9.753 -25.371  -3.058  1.00  0.00     0.000 C 
BRANCH   4   5
ATOM      5  C   UNL     1      -8.469 -24.526  -3.010  1.00  0.00     0.000 C 
BRANCH   5   6
ATOM      6  C   UNL     1      -8.116 -24.070  -1.584  1.00  0.00     0.006 C 
BRANCH   6   7
ATOM      7  C   UNL     1      -7.800 -22.570  -1.517  1.00  0.00     0.053 C 
BRANCH   7   8
ATOM      8  C   UNL     1      -8.811 -21.822  -0.702  1.00  0.00     0.041 C 
ATOM      9  O   UNL     1      -9.425 -22.401   0.232  1.00  0.00    -0.550 OA
ATOM     10  O   UNL     1      -9.093 -20.493  -0.992  1.00  0.00    -0.550 OA
ENDBRANCH   7   8
ENDBRANCH   6   7
ENDBRANCH   5   6
ENDBRANCH   4   5
ENDBRANCH   3   4
ENDBRANCH   2   3
ENDBRANCH   1   2
BRANCH   1  11
ATOM     11  C   UNL     1      -9.682 -28.201  -0.447  1.00  0.00     0.000 C 
BRANCH  11  12
ATOM     12  C   UNL     1      -8.249 -28.544  -0.896  1.00  0.00    -0.000 C 
BRANCH  12  13
ATOM     13  C   UNL     1      -7.243 -27.427  -0.573  1.00  0.00    -0.000 C 
BRANCH  13  14
ATOM     14  C   UNL     1      -5.847 -27.704  -1.155  1.00  0.00    -0.000 C 
BRANCH  14  15
ATOM     15  C   UNL     1      -5.567 -26.912  -2.446  1.00  0.00    -0.000 C 
BRANCH  15  16
ATOM     16  C   UNL     1      -6.012 -27.605  -3.746  1.00  0.00    -0.000 C 
BRANCH  16  17
ATOM     17  C   UNL     1      -5.820 -29.129  -3.712  1.00  0.00    -0.003 C 
ATOM     18  C   UNL     1      -7.055 -29.851  -4.242  1.00  0.00     0.004 C 
ENDBRANCH  16  17
ENDBRANCH  15  16
ENDBRANCH  14  15
ENDBRANCH  13  14
ENDBRANCH  12  13
ENDBRANCH  11  12
ENDBRANCH   1  11
TORSDOF 14
ENDMDL
MODEL 9
REMARK VINA RESULT:    -4.126      3.197      5.661
REMARK INTER + INTRA:          -9.581
REMARK INTER:                  -7.769
REMARK INTRA:                  -1.812
REMARK UNBOUND:                -2.079
REMARK SMILES CCCCCCCCCCCCCCCC(=O)[O-]
REMARK SMILES IDX 9 1 10 2 11 3 12 4 13 5 14 6 15 7 16 8 17 9 18 10 8 11 7 12
REMARK SMILES IDX 6 13 5 14 4 15 3 16 2 17 1 18
REMARK H PARENT
REMARK Flexibility Score: inf
ROOT
ATOM      1  C   UNL     1       0.852 -21.350  -7.758  1.00  0.00     0.000 C 
ENDROOT
BRANCH   1   2
ATOM      2  C   UNL     1       2.304 -21.227  -8.252  1.00  0.00     0.000 C 
BRANCH   2   3
ATOM      3  C   UNL     1       2.967 -19.913  -7.810  1.00  0.00     0.000 C 
BRANCH   3   4
ATOM      4  C   UNL     1       4.218 -20.141  -6.943  1.00  0.00     0.000 C 
BRANCH   4   5
ATOM      5  C   UNL     1       4.377 -21.607  -6.509  1.00  0.00     0.000 C 
BRANCH   5   6
ATOM      6  C   UNL     1       5.805 -22.136  -6.728  1.00  0.00     0.006 C 
BRANCH   6   7
ATOM      7  C   UNL     1       6.811 -21.002  -6.966  1.00  0.00     0.053 C 
BRANCH   7   8
ATOM      8  C   UNL     1       7.634 -21.235  -8.196  1.00  0.00     0.041 C 
ATOM      9  O   UNL     1       7.645 -20.383  -9.122  1.00  0.00    -0.550 OA
ATOM     10  O   UNL     1       8.368 -22.408  -8.331  1.00  0.00    -0.550 OA
ENDBRANCH   7   8
ENDBRANCH   6   7
ENDBRANCH   5   6
ENDBRANCH   4   5
ENDBRANCH   3   4
ENDBRANCH   2   3
ENDBRANCH   1   2
BRANCH   1  11
ATOM     11  C   UNL     1       0.698 -22.385  -6.632  1.00  0.00     0.000 C 
BRANCH  11  12
ATOM     12  C   UNL     1       0.118 -21.775  -5.342  1.00  0.00    -0.000 C 
BRANCH  12  13
ATOM     13  C   UNL     1       0.874 -20.517  -4.888  1.00  0.00    -0.000 C 
BRANCH  13  14
ATOM     14  C   UNL     1       0.606 -20.166  -3.415  1.00  0.00    -0.000 C 
BRANCH  14  15
ATOM     15  C   UNL     1       1.897 -20.038  -2.585  1.00  0.00    -0.000 C 
BRANCH  15  16
ATOM     16  C   UNL     1       3.200 -19.999  -3.404  1.00  0.00    -0.000 C 
BRANCH  16  17
ATOM     17  C   UNL     1       4.461 -20.087  -2.532  1.00  0.00    -0.003 C 
ATOM     18  C   UNL     1       5.591 -20.800  -3.269  1.00  0.00     0.004 C 
ENDBRANCH  16  17
ENDBRANCH  15  16
ENDBRANCH  14  15
ENDBRANCH  13  14
ENDBRANCH  12  13
ENDBRANCH  11  12
ENDBRANCH   1  11
TORSDOF 14
ENDMDL
