MODEL 1
REMARK VINA RESULT:    -3.321      0.000      0.000
REMARK INTER + INTRA:          -4.011
REMARK INTER:                  -3.904
REMARK INTRA:                  -0.108
REMARK UNBOUND:                -0.108
REMARK SMILES CCCCC(=O)[O-]
REMARK SMILES IDX 4 1 5 2 6 3 7 4 3 5 2 6 1 7
REMARK H PARENT
REMARK Flexibility Score: inf
ROOT
ATOM      1  C   UNL     1      13.668  43.002  20.125  1.00  0.00     0.053 C 
ENDROOT
BRANCH   1   2
ATOM      2  C   UNL     1      13.628  41.612  19.568  1.00  0.00     0.041 C 
ATOM      3  O   UNL     1      13.512  41.428  18.328  1.00  0.00    -0.550 OA
ATOM      4  O   UNL     1      13.687  40.519  20.423  1.00  0.00    -0.550 OA
ENDBRANCH   1   2
BRANCH   1   5
ATOM      5  C   UNL     1      15.108  43.489  20.348  1.00  0.00     0.006 C 
BRANCH   5   6
ATOM      6  C   UNL     1      15.715  44.232  19.144  1.00  0.00    -0.003 C 
ATOM      7  C   UNL     1      14.666  44.960  18.304  1.00  0.00     0.004 C 
ENDBRANCH   5   6
ENDBRANCH   1   5
TORSDOF 3
ENDMDL
MODEL 2
REMARK VINA RESULT:    -3.320      0.127      1.224
REMARK INTER + INTRA:          -4.010
REMARK INTER:                  -3.910
REMARK INTRA:                  -0.100
REMARK UNBOUND:                -0.108
REMARK SMILES CCCCC(=O)[O-]
REMARK SMILES IDX 4 1 5 2 6 3 7 4 3 5 2 6 1 7
REMARK H PARENT
REMARK Flexibility Score: inf
ROOT
ATOM      1  C   UNL     1      13.597  42.996  20.011  1.00  0.00     0.053 C 
ENDROOT
BRANCH   1   2
ATOM      2  C   UNL     1      13.576  41.569  19.555  1.00  0.00     0.041 C 
ATOM      3  O   UNL     1      13.754  40.636  20.381  1.00  0.00    -0.550 OA
ATOM      4  O   UNL     1      13.389  41.272  18.211  1.00  0.00    -0.550 OA
ENDBRANCH   1   2
BRANCH   1   5
ATOM      5  C   UNL     1      15.023  43.478  20.320  1.00  0.00     0.006 C 
BRANCH   5   6
ATOM      6  C   UNL     1      15.698  44.232  19.161  1.00  0.00    -0.003 C 
ATOM      7  C   UNL     1      14.695  44.918  18.233  1.00  0.00     0.004 C 
ENDBRANCH   5   6
ENDBRANCH   1   5
TORSDOF 3
ENDMDL
MODEL 3
REMARK VINA RESULT:    -3.254      0.646      1.167
REMARK INTER + INTRA:          -3.932
REMARK INTER:                  -3.853
REMARK INTRA:                  -0.079
REMARK UNBOUND:                -0.108
REMARK SMILES CCCCC(=O)[O-]
REMARK SMILES IDX 4 1 5 2 6 3 7 4 3 5 2 6 1 7
REMARK H PARENT
REMARK Flexibility Score: inf
ROOT
ATOM      1  C   UNL     1      13.799  42.798  20.099  1.00  0.00     0.053 C 
ENDROOT
BRANCH   1   2
ATOM      2  C   UNL     1      13.582  41.407  19.588  1.00  0.00     0.041 C 
ATOM      3  O   UNL     1      13.315  41.211  18.373  1.00  0.00    -0.550 OA
ATOM      4  O   UNL     1      13.642  40.328  20.461  1.00  0.00    -0.550 OA
ENDBRANCH   1   2
BRANCH   1   5
ATOM      5  C   UNL     1      13.570  43.853  19.005  1.00  0.00     0.006 C 
BRANCH   5   6
ATOM      6  C   UNL     1      14.855  44.547  18.521  1.00  0.00    -0.003 C 
ATOM      7  C   UNL     1      16.100  44.092  19.283  1.00  0.00     0.004 C 
ENDBRANCH   5   6
ENDBRANCH   1   5
TORSDOF 3
ENDMDL
MODEL 4
REMARK VINA RESULT:    -3.047      1.555      2.095
REMARK INTER + INTRA:          -3.689
REMARK INTER:                  -3.655
REMARK INTRA:                  -0.034
REMARK UNBOUND:                -0.108
REMARK SMILES CCCCC(=O)[O-]
REMARK SMILES IDX 4 1 5 2 6 3 7 4 3 5 2 6 1 7
REMARK H PARENT
REMARK Flexibility Score: inf
ROOT
ATOM      1  C   UNL     1      13.697  41.407  19.745  1.00  0.00     0.053 C 
ENDROOT
BRANCH   1   2
ATOM      2  C   UNL     1      13.342  40.631  20.976  1.00  0.00     0.041 C 
ATOM      3  O   UNL     1      14.116  40.628  21.969  1.00  0.00    -0.550 OA
ATOM      4  O   UNL     1      12.169  39.887  21.015  1.00  0.00    -0.550 OA
ENDBRANCH   1   2
BRANCH   1   5
ATOM      5  C   UNL     1      13.648  42.924  19.988  1.00  0.00     0.006 C 
BRANCH   5   6
ATOM      6  C   UNL     1      15.012  43.551  20.324  1.00  0.00    -0.003 C 
ATOM      7  C   UNL     1      15.781  44.002  19.082  1.00  0.00     0.004 C 
ENDBRANCH   5   6
ENDBRANCH   1   5
TORSDOF 3
ENDMDL
MODEL 5
REMARK VINA RESULT:    -3.028      2.209      3.455
REMARK INTER + INTRA:          -3.667
REMARK INTER:                  -3.547
REMARK INTRA:                  -0.120
REMARK UNBOUND:                -0.108
REMARK SMILES CCCCC(=O)[O-]
REMARK SMILES IDX 4 1 5 2 6 3 7 4 3 5 2 6 1 7
REMARK H PARENT
REMARK Flexibility Score: inf
ROOT
ATOM      1  C   UNL     1      14.044  43.884  19.100  1.00  0.00     0.053 C 
ENDROOT
BRANCH   1   2
ATOM      2  C   UNL     1      15.346  43.834  19.837  1.00  0.00     0.041 C 
ATOM      3  O   UNL     1      16.432  43.982  19.218  1.00  0.00    -0.550 OA
ATOM      4  O   UNL     1      15.362  43.591  21.205  1.00  0.00    -0.550 OA
ENDBRANCH   1   2
BRANCH   1   5
ATOM      5  C   UNL     1      13.045  42.841  19.626  1.00  0.00     0.006 C 
BRANCH   5   6
ATOM      6  C   UNL     1      13.428  41.385  19.303  1.00  0.00    -0.003 C 
ATOM      7  C   UNL     1      13.482  40.495  20.545  1.00  0.00     0.004 C 
ENDBRANCH   5   6
ENDBRANCH   1   5
TORSDOF 3
ENDMDL
MODEL 6
REMARK VINA RESULT:    -2.382     16.697     17.507
REMARK INTER + INTRA:          -2.907
REMARK INTER:                  -2.880
REMARK INTRA:                  -0.027
REMARK UNBOUND:                -0.108
REMARK SMILES CCCCC(=O)[O-]
REMARK SMILES IDX 4 1 5 2 6 3 7 4 3 5 2 6 1 7
REMARK H PARENT
REMARK Flexibility Score: inf
ROOT
ATOM      1  C   UNL     1      12.825  48.757  35.358  1.00  0.00     0.053 C 
ENDROOT
BRANCH   1   2
ATOM      2  C   UNL     1      12.176  48.999  34.030  1.00  0.00     0.041 C 
ATOM      3  O   UNL     1      11.925  48.034  33.261  1.00  0.00    -0.550 OA
ATOM      4  O   UNL     1      11.876  50.295  33.628  1.00  0.00    -0.550 OA
ENDBRANCH   1   2
BRANCH   1   5
ATOM      5  C   UNL     1      11.876  48.053  36.341  1.00  0.00     0.006 C 
BRANCH   5   6
ATOM      6  C   UNL     1      12.394  48.002  37.789  1.00  0.00    -0.003 C 
ATOM      7  C   UNL     1      13.367  49.136  38.113  1.00  0.00     0.004 C 
ENDBRANCH   5   6
ENDBRANCH   1   5
TORSDOF 3
ENDMDL
MODEL 7
REMARK VINA RESULT:    -2.225     10.871     11.686
REMARK INTER + INTRA:          -2.722
REMARK INTER:                  -2.647
REMARK INTRA:                  -0.075
REMARK UNBOUND:                -0.108
REMARK SMILES CCCCC(=O)[O-]
REMARK SMILES IDX 4 1 5 2 6 3 7 4 3 5 2 6 1 7
REMARK H PARENT
REMARK Flexibility Score: inf
ROOT
ATOM      1  C   UNL     1      24.197  38.803  24.986  1.00  0.00     0.053 C 
ENDROOT
BRANCH   1   2
ATOM      2  C   UNL     1      23.827  39.655  23.812  1.00  0.00     0.041 C 
ATOM      3  O   UNL     1      23.968  40.906  23.866  1.00  0.00    -0.550 OA
ATOM      4  O   UNL     1      23.298  39.072  22.668  1.00  0.00    -0.550 OA
ENDBRANCH   1   2
BRANCH   1   5
ATOM      5  C   UNL     1      23.299  37.560  25.098  1.00  0.00     0.006 C 
BRANCH   5   6
ATOM      6  C   UNL     1      22.190  37.679  26.159  1.00  0.00    -0.003 C 
ATOM      7  C   UNL     1      22.490  38.742  27.216  1.00  0.00     0.004 C 
ENDBRANCH   5   6
ENDBRANCH   1   5
TORSDOF 3
ENDMDL
MODEL 8
REMARK VINA RESULT:    -2.187      2.286      3.638
REMARK INTER + INTRA:          -2.679
REMARK INTER:                  -2.698
REMARK INTRA:                   0.020
REMARK UNBOUND:                -0.108
REMARK SMILES CCCCC(=O)[O-]
REMARK SMILES IDX 4 1 5 2 6 3 7 4 3 5 2 6 1 7
REMARK H PARENT
REMARK Flexibility Score: inf
ROOT
ATOM      1  C   UNL     1      12.459  42.844  18.242  1.00  0.00     0.053 C 
ENDROOT
BRANCH   1   2
ATOM      2  C   UNL     1      13.607  43.803  18.164  1.00  0.00     0.041 C 
ATOM      3  O   UNL     1      14.772  43.382  17.936  1.00  0.00    -0.550 OA
ATOM      4  O   UNL     1      13.395  45.160  18.373  1.00  0.00    -0.550 OA
ENDBRANCH   1   2
BRANCH   1   5
ATOM      5  C   UNL     1      12.106  42.490  19.695  1.00  0.00     0.006 C 
BRANCH   5   6
ATOM      6  C   UNL     1      13.325  42.181  20.583  1.00  0.00    -0.003 C 
ATOM      7  C   UNL     1      13.382  40.720  21.027  1.00  0.00     0.004 C 
ENDBRANCH   5   6
ENDBRANCH   1   5
TORSDOF 3
ENDMDL
