MODEL 1
REMARK VINA RESULT:    -2.814      0.000      0.000
REMARK INTER + INTRA:          -4.671
REMARK INTER:                  -4.294
REMARK INTRA:                  -0.376
REMARK UNBOUND:                -0.376
REMARK SMILES CC1=CCC[C@H](C)C(=O)C[C@@H](C(C)C)C(=O)C1
REMARK SMILES IDX 8 1 9 2 6 3 7 4 5 5 4 6 3 7 2 8 1 9 10 11 11 12 15 13 16 14
REMARK SMILES IDX 17 15 12 17 13 18 14 19
REMARK H PARENT
REMARK Flexibility Score: 70.00
ROOT
ATOM      1  C   UNL     1      -3.230 -11.764 -40.127  1.00  0.00     0.136 C 
ATOM      2  O   UNL     1      -3.734 -12.240 -41.136  1.00  0.00    -0.299 OA
ENDROOT
BRANCH   1   3
ATOM      3  C   UNL     1      -2.690 -12.694 -39.058  1.00  0.00     0.053 C 
ATOM      4  C   UNL     1      -1.207 -12.996 -39.314  1.00  0.00     0.016 C 
BRANCH   3   5
ATOM      5  C   UNL     1      -2.893 -12.078 -37.653  1.00  0.00     0.015 C 
BRANCH   5   6
ATOM      6  C   UNL     1      -1.550 -11.859 -36.930  1.00  0.00     0.028 C 
BRANCH   6   7
ATOM      7  C   UNL     1      -1.500 -10.578 -36.134  1.00  0.00    -0.028 C 
ATOM      8  C   UNL     1      -1.097  -9.371 -36.602  1.00  0.00    -0.070 CG0
ATOM      9  C   UNL     1      -1.220  -8.185 -35.676  1.00  0.00     0.039 C 
ATOM     10  G   UNL     1      -0.483  -9.158 -37.981  1.00  0.00     0.000 G0
ENDBRANCH   6   7
ENDBRANCH   5   6
ENDBRANCH   3   5
ENDBRANCH   1   3
BRANCH   1  11
ATOM     11  C   UNL     1      -3.185 -10.260 -39.973  1.00  0.00     0.087 C 
BRANCH  11  12
ATOM     12  C   UNL     1      -1.754  -9.695 -40.188  1.00  0.00     0.066 C 
BRANCH  12  13
ATOM     13  C   UNL     1      -1.419  -8.725 -39.065  1.00  0.00     0.140 C 
ATOM     14  O   UNL     1      -1.901  -7.600 -39.064  1.00  0.00    -0.299 OA
BRANCH  13  15
ATOM     15  C   UNL     1      -0.456  -9.131 -37.976  1.00  0.00     0.106 CG0
ATOM     16  G   UNL     1      -1.111  -9.357 -36.619  1.00  0.00     0.000 G0
ENDBRANCH  13  15
ENDBRANCH  12  13
BRANCH  12  17
ATOM     17  C   UNL     1      -1.562  -9.027 -41.589  1.00  0.00    -0.006 C 
ATOM     18  C   UNL     1      -0.526  -9.799 -42.431  1.00  0.00     0.008 C 
ATOM     19  C   UNL     1      -2.875  -8.939 -42.388  1.00  0.00     0.008 C 
ENDBRANCH  12  17
ENDBRANCH  11  12
ENDBRANCH   1  11
TORSDOF 1
ENDMDL
MODEL 2
REMARK VINA RESULT:    -2.813      3.306      4.797
REMARK INTER + INTRA:          -4.669
REMARK INTER:                  -4.415
REMARK INTRA:                  -0.254
REMARK UNBOUND:                -0.376
REMARK SMILES CC1=CCC[C@H](C)C(=O)C[C@@H](C(C)C)C(=O)C1
REMARK SMILES IDX 8 1 9 2 6 3 7 4 5 5 4 6 3 7 2 8 1 9 10 11 11 12 15 13 16 14
REMARK SMILES IDX 17 15 12 17 13 18 14 19
REMARK H PARENT
REMARK Flexibility Score: 70.00
ROOT
ATOM      1  C   UNL     1      -2.231  -8.801 -42.236  1.00  0.00     0.136 C 
ATOM      2  O   UNL     1      -2.028  -8.875 -43.440  1.00  0.00    -0.299 OA
ENDROOT
BRANCH   1   3
ATOM      3  C   UNL     1      -3.424  -8.014 -41.731  1.00  0.00     0.053 C 
ATOM      4  C   UNL     1      -4.340  -7.626 -42.899  1.00  0.00     0.016 C 
BRANCH   3   5
ATOM      5  C   UNL     1      -4.199  -8.828 -40.668  1.00  0.00     0.015 C 
BRANCH   5   6
ATOM      6  C   UNL     1      -4.701 -10.170 -41.236  1.00  0.00     0.028 C 
BRANCH   6   7
ATOM      7  C   UNL     1      -4.676 -11.294 -40.230  1.00  0.00    -0.028 C 
ATOM      8  C   UNL     1      -3.764 -12.297 -40.187  1.00  0.00    -0.070 CG0
ATOM      9  C   UNL     1      -3.849 -13.270 -39.035  1.00  0.00     0.039 C 
ATOM     10  G   UNL     1      -2.702 -12.523 -41.255  1.00  0.00     0.000 G0
ENDBRANCH   6   7
ENDBRANCH   5   6
ENDBRANCH   3   5
ENDBRANCH   1   3
BRANCH   1  11
ATOM     11  C   UNL     1      -1.266  -9.481 -41.290  1.00  0.00     0.087 C 
BRANCH  11  12
ATOM     12  C   UNL     1      -0.775 -10.847 -41.843  1.00  0.00     0.066 C 
BRANCH  12  13
ATOM     13  C   UNL     1      -1.330 -11.971 -40.981  1.00  0.00     0.140 C 
ATOM     14  O   UNL     1      -0.654 -12.436 -40.072  1.00  0.00    -0.299 OA
BRANCH  13  15
ATOM     15  C   UNL     1      -2.694 -12.546 -41.273  1.00  0.00     0.106 CG0
ATOM     16  G   UNL     1      -3.724 -12.288 -40.180  1.00  0.00     0.000 G0
ENDBRANCH  13  15
ENDBRANCH  12  13
BRANCH  12  17
ATOM     17  C   UNL     1       0.782 -10.939 -41.959  1.00  0.00    -0.006 C 
ATOM     18  C   UNL     1       1.196 -11.757 -43.199  1.00  0.00     0.008 C 
ATOM     19  C   UNL     1       1.452  -9.555 -42.039  1.00  0.00     0.008 C 
ENDBRANCH  12  17
ENDBRANCH  11  12
ENDBRANCH   1  11
TORSDOF 1
ENDMDL
MODEL 3
REMARK VINA RESULT:    -2.793     13.354     15.699
REMARK INTER + INTRA:          -4.638
REMARK INTER:                  -4.560
REMARK INTRA:                  -0.078
REMARK UNBOUND:                -0.376
REMARK SMILES CC1=CCC[C@H](C)C(=O)C[C@@H](C(C)C)C(=O)C1
REMARK SMILES IDX 8 1 9 2 6 3 7 4 5 5 4 6 3 7 2 8 1 9 10 11 11 12 15 13 16 14
REMARK SMILES IDX 17 15 12 17 13 18 14 19
REMARK H PARENT
REMARK Flexibility Score: 70.00
ROOT
ATOM      1  C   UNL     1      -0.774 -23.377 -43.616  1.00  0.00     0.136 C 
ATOM      2  O   UNL     1      -1.340 -24.278 -43.011  1.00  0.00    -0.299 OA
ENDROOT
BRANCH   1   3
ATOM      3  C   UNL     1      -0.321 -22.144 -42.858  1.00  0.00     0.053 C 
ATOM      4  C   UNL     1      -0.975 -22.101 -41.471  1.00  0.00     0.016 C 
BRANCH   3   5
ATOM      5  C   UNL     1       1.222 -22.118 -42.742  1.00  0.00     0.015 C 
BRANCH   5   6
ATOM      6  C   UNL     1       1.755 -23.350 -41.985  1.00  0.00     0.028 C 
BRANCH   6   7
ATOM      7  C   UNL     1       3.122 -23.792 -42.447  1.00  0.00    -0.028 C 
ATOM      8  C   UNL     1       3.372 -24.661 -43.458  1.00  0.00    -0.070 CG0
ATOM      9  C   UNL     1       4.815 -24.895 -43.837  1.00  0.00     0.039 C 
ATOM     10  G   UNL     1       2.290 -25.446 -44.188  1.00  0.00     0.000 G0
ENDBRANCH   6   7
ENDBRANCH   5   6
ENDBRANCH   3   5
ENDBRANCH   1   3
BRANCH   1  11
ATOM     11  C   UNL     1      -0.569 -23.515 -45.108  1.00  0.00     0.087 C 
BRANCH  11  12
ATOM     12  C   UNL     1       0.096 -24.869 -45.480  1.00  0.00     0.066 C 
BRANCH  12  13
ATOM     13  C   UNL     1       1.604 -24.753 -45.320  1.00  0.00     0.140 C 
ATOM     14  O   UNL     1       2.256 -24.096 -46.122  1.00  0.00    -0.299 OA
BRANCH  13  15
ATOM     15  C   UNL     1       2.305 -25.484 -44.201  1.00  0.00     0.106 CG0
ATOM     16  G   UNL     1       3.357 -24.652 -43.478  1.00  0.00     0.000 G0
ENDBRANCH  13  15
ENDBRANCH  12  13
BRANCH  12  17
ATOM     17  C   UNL     1      -0.284 -25.367 -46.914  1.00  0.00    -0.006 C 
ATOM     18  C   UNL     1       0.441 -26.685 -47.251  1.00  0.00     0.008 C 
ATOM     19  C   UNL     1      -1.799 -25.585 -47.082  1.00  0.00     0.008 C 
ENDBRANCH  12  17
ENDBRANCH  11  12
ENDBRANCH   1  11
TORSDOF 1
ENDMDL
MODEL 4
REMARK VINA RESULT:    -2.736      2.871      5.815
REMARK INTER + INTRA:          -4.552
REMARK INTER:                  -4.115
REMARK INTRA:                  -0.437
REMARK UNBOUND:                -0.376
REMARK SMILES CC1=CCC[C@H](C)C(=O)C[C@@H](C(C)C)C(=O)C1
REMARK SMILES IDX 8 1 9 2 6 3 7 4 5 5 4 6 3 7 2 8 1 9 10 11 11 12 15 13 16 14
REMARK SMILES IDX 17 15 12 17 13 18 14 19
REMARK H PARENT
REMARK Flexibility Score: 70.00
ROOT
ATOM      1  C   UNL     1      -1.614  -9.790 -39.745  1.00  0.00     0.136 C 
ATOM      2  O   UNL     1      -0.796  -9.729 -38.837  1.00  0.00    -0.299 OA
ENDROOT
BRANCH   1   3
ATOM      3  C   UNL     1      -1.459  -8.878 -40.947  1.00  0.00     0.053 C 
ATOM      4  C   UNL     1      -0.571  -9.541 -42.008  1.00  0.00     0.016 C 
BRANCH   3   5
ATOM      5  C   UNL     1      -2.844  -8.516 -41.533  1.00  0.00     0.015 C 
BRANCH   5   6
ATOM      6  C   UNL     1      -3.000  -9.029 -42.978  1.00  0.00     0.028 C 
BRANCH   6   7
ATOM      7  C   UNL     1      -4.375  -9.576 -43.274  1.00  0.00    -0.028 C 
ATOM      8  C   UNL     1      -4.767 -10.863 -43.104  1.00  0.00    -0.070 CG0
ATOM      9  C   UNL     1      -6.219 -11.191 -43.359  1.00  0.00     0.039 C 
ATOM     10  G   UNL     1      -3.820 -11.995 -42.724  1.00  0.00     0.000 G0
ENDBRANCH   6   7
ENDBRANCH   5   6
ENDBRANCH   3   5
ENDBRANCH   1   3
BRANCH   1  11
ATOM     11  C   UNL     1      -2.768 -10.761 -39.625  1.00  0.00     0.087 C 
BRANCH  11  12
ATOM     12  C   UNL     1      -2.530 -12.053 -40.455  1.00  0.00     0.066 C 
BRANCH  12  13
ATOM     13  C   UNL     1      -3.774 -12.365 -41.272  1.00  0.00     0.140 C 
ATOM     14  O   UNL     1      -4.723 -12.934 -40.749  1.00  0.00    -0.299 OA
BRANCH  13  15
ATOM     15  C   UNL     1      -3.822 -12.018 -42.740  1.00  0.00     0.106 CG0
ATOM     16  G   UNL     1      -4.763 -10.867 -43.076  1.00  0.00     0.000 G0
ENDBRANCH  13  15
ENDBRANCH  12  13
BRANCH  12  17
ATOM     17  C   UNL     1      -2.106 -13.277 -39.578  1.00  0.00    -0.006 C 
ATOM     18  C   UNL     1      -0.613 -13.607 -39.774  1.00  0.00     0.008 C 
ATOM     19  C   UNL     1      -2.364 -13.047 -38.077  1.00  0.00     0.008 C 
ENDBRANCH  12  17
ENDBRANCH  11  12
ENDBRANCH   1  11
TORSDOF 1
ENDMDL
MODEL 5
REMARK VINA RESULT:    -2.694      1.678      3.908
REMARK INTER + INTRA:          -4.488
REMARK INTER:                  -4.403
REMARK INTRA:                  -0.086
REMARK UNBOUND:                -0.376
REMARK SMILES CC1=CCC[C@H](C)C(=O)C[C@@H](C(C)C)C(=O)C1
REMARK SMILES IDX 8 1 9 2 6 3 7 4 5 5 4 6 3 7 2 8 1 9 10 11 11 12 15 13 16 14
REMARK SMILES IDX 17 15 12 17 13 18 14 19
REMARK H PARENT
REMARK Flexibility Score: 70.00
ROOT
ATOM      1  C   UNL     1      -0.586  -9.099 -38.801  1.00  0.00     0.136 C 
ATOM      2  O   UNL     1      -0.845  -8.024 -39.324  1.00  0.00    -0.299 OA
ENDROOT
BRANCH   1   3
ATOM      3  C   UNL     1      -0.411  -9.170 -37.296  1.00  0.00     0.053 C 
ATOM      4  C   UNL     1      -0.383  -7.758 -36.696  1.00  0.00     0.016 C 
BRANCH   3   5
ATOM      5  C   UNL     1      -1.537 -10.019 -36.660  1.00  0.00     0.015 C 
BRANCH   5   6
ATOM      6  C   UNL     1      -1.103 -11.485 -36.467  1.00  0.00     0.028 C 
BRANCH   6   7
ATOM      7  C   UNL     1      -2.198 -12.479 -36.764  1.00  0.00    -0.028 C 
ATOM      8  C   UNL     1      -2.385 -13.120 -37.945  1.00  0.00    -0.070 CG0
ATOM      9  C   UNL     1      -3.478 -14.159 -38.010  1.00  0.00     0.039 C 
ATOM     10  G   UNL     1      -1.595 -12.813 -39.210  1.00  0.00     0.000 G0
ENDBRANCH   6   7
ENDBRANCH   5   6
ENDBRANCH   3   5
ENDBRANCH   1   3
BRANCH   1  11
ATOM     11  C   UNL     1      -0.426 -10.320 -39.681  1.00  0.00     0.087 C 
BRANCH  11  12
ATOM     12  C   UNL     1      -1.677 -10.563 -40.569  1.00  0.00     0.066 C 
BRANCH  12  13
ATOM     13  C   UNL     1      -2.309 -11.897 -40.198  1.00  0.00     0.140 C 
ATOM     14  O   UNL     1      -3.407 -12.200 -40.647  1.00  0.00    -0.299 OA
BRANCH  13  15
ATOM     15  C   UNL     1      -1.606 -12.827 -39.241  1.00  0.00     0.106 CG0
ATOM     16  G   UNL     1      -2.380 -13.098 -37.957  1.00  0.00     0.000 G0
ENDBRANCH  13  15
ENDBRANCH  12  13
BRANCH  12  17
ATOM     17  C   UNL     1      -1.366 -10.491 -42.101  1.00  0.00    -0.006 C 
ATOM     18  C   UNL     1      -1.877  -9.168 -42.706  1.00  0.00     0.008 C 
ATOM     19  C   UNL     1       0.138 -10.621 -42.406  1.00  0.00     0.008 C 
ENDBRANCH  12  17
ENDBRANCH  11  12
ENDBRANCH   1  11
TORSDOF 1
ENDMDL
MODEL 6
REMARK VINA RESULT:    -2.601      2.029      3.219
REMARK INTER + INTRA:          -4.346
REMARK INTER:                  -4.302
REMARK INTRA:                  -0.044
REMARK UNBOUND:                -0.376
REMARK SMILES CC1=CCC[C@H](C)C(=O)C[C@@H](C(C)C)C(=O)C1
REMARK SMILES IDX 8 1 9 2 6 3 7 4 5 5 4 6 3 7 2 8 1 9 10 11 11 12 15 13 16 14
REMARK SMILES IDX 17 15 12 17 13 18 14 19
REMARK H PARENT
REMARK Flexibility Score: 70.00
ROOT
ATOM      1  C   UNL     1      -2.799  -9.337 -42.729  1.00  0.00     0.136 C 
ATOM      2  O   UNL     1      -2.867  -8.780 -43.816  1.00  0.00    -0.299 OA
ENDROOT
BRANCH   1   3
ATOM      3  C   UNL     1      -3.775 -10.451 -42.402  1.00  0.00     0.053 C 
ATOM      4  C   UNL     1      -3.184 -11.810 -42.800  1.00  0.00     0.016 C 
BRANCH   3   5
ATOM      5  C   UNL     1      -4.140 -10.427 -40.899  1.00  0.00     0.015 C 
BRANCH   5   6
ATOM      6  C   UNL     1      -3.863 -11.785 -40.226  1.00  0.00     0.028 C 
BRANCH   6   7
ATOM      7  C   UNL     1      -3.417 -11.662 -38.789  1.00  0.00    -0.028 C 
ATOM      8  C   UNL     1      -2.142 -11.467 -38.371  1.00  0.00    -0.070 CG0
ATOM      9  C   UNL     1      -1.914 -11.265 -36.893  1.00  0.00     0.039 C 
ATOM     10  G   UNL     1      -0.933 -11.493 -39.298  1.00  0.00     0.000 G0
ENDBRANCH   6   7
ENDBRANCH   5   6
ENDBRANCH   3   5
ENDBRANCH   1   3
BRANCH   1  11
ATOM     11  C   UNL     1      -1.755  -8.875 -41.736  1.00  0.00     0.087 C 
BRANCH  11  12
ATOM     12  C   UNL     1      -0.710  -9.985 -41.433  1.00  0.00     0.066 C 
BRANCH  12  13
ATOM     13  C   UNL     1      -0.596 -10.175 -39.928  1.00  0.00     0.140 C 
ATOM     14  O   UNL     1      -0.190  -9.259 -39.224  1.00  0.00    -0.299 OA
BRANCH  13  15
ATOM     15  C   UNL     1      -0.938 -11.506 -39.305  1.00  0.00     0.106 CG0
ATOM     16  G   UNL     1      -2.145 -11.466 -38.376  1.00  0.00     0.000 G0
ENDBRANCH  13  15
ENDBRANCH  12  13
BRANCH  12  17
ATOM     17  C   UNL     1       0.688  -9.704 -42.076  1.00  0.00    -0.006 C 
ATOM     18  C   UNL     1       1.330 -11.007 -42.593  1.00  0.00     0.008 C 
ATOM     19  C   UNL     1       0.613  -8.698 -43.239  1.00  0.00     0.008 C 
ENDBRANCH  12  17
ENDBRANCH  11  12
ENDBRANCH   1  11
TORSDOF 1
ENDMDL
MODEL 7
REMARK VINA RESULT:    -2.599      2.331      4.212
REMARK INTER + INTRA:          -4.342
REMARK INTER:                  -4.377
REMARK INTRA:                   0.035
REMARK UNBOUND:                -0.376
REMARK SMILES CC1=CCC[C@H](C)C(=O)C[C@@H](C(C)C)C(=O)C1
REMARK SMILES IDX 8 1 9 2 6 3 7 4 5 5 4 6 3 7 2 8 1 9 10 11 11 12 15 13 16 14
REMARK SMILES IDX 17 15 12 17 13 18 14 19
REMARK H PARENT
REMARK Flexibility Score: 70.00
ROOT
ATOM      1  C   UNL     1      -1.467  -9.769 -38.594  1.00  0.00     0.136 C 
ATOM      2  O   UNL     1      -2.288  -9.241 -39.332  1.00  0.00    -0.299 OA
ENDROOT
BRANCH   1   3
ATOM      3  C   UNL     1      -0.595  -8.898 -37.710  1.00  0.00     0.053 C 
ATOM      4  C   UNL     1      -0.597  -7.451 -38.219  1.00  0.00     0.016 C 
BRANCH   3   5
ATOM      5  C   UNL     1      -1.074  -8.968 -36.241  1.00  0.00     0.015 C 
BRANCH   5   6
ATOM      6  C   UNL     1      -0.183  -9.901 -35.397  1.00  0.00     0.028 C 
BRANCH   6   7
ATOM      7  C   UNL     1      -0.964 -10.794 -34.464  1.00  0.00    -0.028 C 
ATOM      8  C   UNL     1      -1.443 -12.026 -34.766  1.00  0.00    -0.070 CG0
ATOM      9  C   UNL     1      -2.110 -12.806 -33.659  1.00  0.00     0.039 C 
ATOM     10  G   UNL     1      -1.391 -12.637 -36.161  1.00  0.00     0.000 G0
ENDBRANCH   6   7
ENDBRANCH   5   6
ENDBRANCH   3   5
ENDBRANCH   1   3
BRANCH   1  11
ATOM     11  C   UNL     1      -1.336 -11.276 -38.607  1.00  0.00     0.087 C 
BRANCH  11  12
ATOM     12  C   UNL     1      -2.692 -11.980 -38.329  1.00  0.00     0.066 C 
BRANCH  12  13
ATOM     13  C   UNL     1      -2.666 -12.598 -36.939  1.00  0.00     0.140 C 
ATOM     14  O   UNL     1      -3.700 -13.018 -36.436  1.00  0.00    -0.299 OA
BRANCH  13  15
ATOM     15  C   UNL     1      -1.375 -12.650 -36.159  1.00  0.00     0.106 CG0
ATOM     16  G   UNL     1      -1.462 -12.027 -34.771  1.00  0.00     0.000 G0
ENDBRANCH  13  15
ENDBRANCH  12  13
BRANCH  12  17
ATOM     17  C   UNL     1      -3.067 -13.043 -39.414  1.00  0.00    -0.006 C 
ATOM     18  C   UNL     1      -2.847 -12.484 -40.834  1.00  0.00     0.008 C 
ATOM     19  C   UNL     1      -2.258 -14.345 -39.270  1.00  0.00     0.008 C 
ENDBRANCH  12  17
ENDBRANCH  11  12
ENDBRANCH   1  11
TORSDOF 1
ENDMDL
MODEL 8
REMARK VINA RESULT:    -2.530      2.120      4.229
REMARK INTER + INTRA:          -4.237
REMARK INTER:                  -3.960
REMARK INTRA:                  -0.277
REMARK UNBOUND:                -0.376
REMARK SMILES CC1=CCC[C@H](C)C(=O)C[C@@H](C(C)C)C(=O)C1
REMARK SMILES IDX 8 1 9 2 6 3 7 4 5 5 4 6 3 7 2 8 1 9 10 11 11 12 15 13 16 14
REMARK SMILES IDX 17 15 12 17 13 18 14 19
REMARK H PARENT
REMARK Flexibility Score: 70.00
ROOT
ATOM      1  C   UNL     1      -1.843 -11.857 -38.545  1.00  0.00     0.136 C 
ATOM      2  O   UNL     1      -2.008 -12.397 -37.459  1.00  0.00    -0.299 OA
ENDROOT
BRANCH   1   3
ATOM      3  C   UNL     1      -2.697 -12.282 -39.724  1.00  0.00     0.053 C 
ATOM      4  C   UNL     1      -2.407 -13.743 -40.093  1.00  0.00     0.016 C 
BRANCH   3   5
ATOM      5  C   UNL     1      -4.197 -12.080 -39.405  1.00  0.00     0.015 C 
BRANCH   5   6
ATOM      6  C   UNL     1      -4.709 -10.721 -39.921  1.00  0.00     0.028 C 
BRANCH   6   7
ATOM      7  C   UNL     1      -4.264 -10.408 -41.328  1.00  0.00    -0.028 C 
ATOM      8  C   UNL     1      -3.357  -9.462 -41.678  1.00  0.00    -0.070 CG0
ATOM      9  C   UNL     1      -2.967  -9.374 -43.134  1.00  0.00     0.039 C 
ATOM     10  G   UNL     1      -2.756  -8.461 -40.700  1.00  0.00     0.000 G0
ENDBRANCH   6   7
ENDBRANCH   5   6
ENDBRANCH   3   5
ENDBRANCH   1   3
BRANCH   1  11
ATOM     11  C   UNL     1      -0.771 -10.797 -38.678  1.00  0.00     0.087 C 
BRANCH  11  12
ATOM     12  C   UNL     1      -1.369  -9.364 -38.690  1.00  0.00     0.066 C 
BRANCH  12  13
ATOM     13  C   UNL     1      -1.434  -8.855 -40.123  1.00  0.00     0.140 C 
ATOM     14  O   UNL     1      -0.408  -8.749 -40.782  1.00  0.00    -0.299 OA
BRANCH  13  15
ATOM     15  C   UNL     1      -2.756  -8.436 -40.718  1.00  0.00     0.106 CG0
ATOM     16  G   UNL     1      -3.360  -9.458 -41.672  1.00  0.00     0.000 G0
ENDBRANCH  13  15
ENDBRANCH  12  13
BRANCH  12  17
ATOM     17  C   UNL     1      -0.592  -8.366 -37.770  1.00  0.00    -0.006 C 
ATOM     18  C   UNL     1      -1.360  -7.037 -37.624  1.00  0.00     0.008 C 
ATOM     19  C   UNL     1      -0.331  -8.938 -36.364  1.00  0.00     0.008 C 
ENDBRANCH  12  17
ENDBRANCH  11  12
ENDBRANCH   1  11
TORSDOF 1
ENDMDL
MODEL 9
REMARK VINA RESULT:    -2.504      5.399      8.273
REMARK INTER + INTRA:          -4.198
REMARK INTER:                  -4.124
REMARK INTRA:                  -0.074
REMARK UNBOUND:                -0.376
REMARK SMILES CC1=CCC[C@H](C)C(=O)C[C@@H](C(C)C)C(=O)C1
REMARK SMILES IDX 8 1 9 2 6 3 7 4 5 5 4 6 3 7 2 8 1 9 10 11 11 12 15 13 16 14
REMARK SMILES IDX 17 15 12 17 13 18 14 19
REMARK H PARENT
REMARK Flexibility Score: 70.00
ROOT
ATOM      1  C   UNL     1      -6.284  -9.499 -47.241  1.00  0.00     0.136 C 
ATOM      2  O   UNL     1      -7.096  -9.103 -48.067  1.00  0.00    -0.299 OA
ENDROOT
BRANCH   1   3
ATOM      3  C   UNL     1      -4.900  -8.880 -47.204  1.00  0.00     0.053 C 
ATOM      4  C   UNL     1      -4.230  -8.991 -48.580  1.00  0.00     0.016 C 
BRANCH   3   5
ATOM      5  C   UNL     1      -4.980  -7.404 -46.746  1.00  0.00     0.015 C 
BRANCH   5   6
ATOM      6  C   UNL     1      -5.165  -7.293 -45.220  1.00  0.00     0.028 C 
BRANCH   6   7
ATOM      7  C   UNL     1      -4.066  -7.964 -44.432  1.00  0.00    -0.028 C 
ATOM      8  C   UNL     1      -4.240  -8.934 -43.501  1.00  0.00    -0.070 CG0
ATOM      9  C   UNL     1      -3.003  -9.554 -42.897  1.00  0.00     0.039 C 
ATOM     10  G   UNL     1      -5.604  -9.391 -42.997  1.00  0.00     0.000 G0
ENDBRANCH   6   7
ENDBRANCH   5   6
ENDBRANCH   3   5
ENDBRANCH   1   3
BRANCH   1  11
ATOM     11  C   UNL     1      -6.685 -10.613 -46.299  1.00  0.00     0.087 C 
BRANCH  11  12
ATOM     12  C   UNL     1      -7.221 -10.066 -44.948  1.00  0.00     0.066 C 
BRANCH  12  13
ATOM     13  C   UNL     1      -6.272 -10.465 -43.828  1.00  0.00     0.140 C 
ATOM     14  O   UNL     1      -6.078 -11.649 -43.583  1.00  0.00    -0.299 OA
BRANCH  13  15
ATOM     15  C   UNL     1      -5.604  -9.405 -42.987  1.00  0.00     0.106 CG0
ATOM     16  G   UNL     1      -4.252  -8.948 -43.522  1.00  0.00     0.000 G0
ENDBRANCH  13  15
ENDBRANCH  12  13
BRANCH  12  17
ATOM     17  C   UNL     1      -8.685 -10.522 -44.638  1.00  0.00    -0.006 C 
ATOM     18  C   UNL     1      -8.984 -10.430 -43.128  1.00  0.00     0.008 C 
ATOM     19  C   UNL     1      -9.737  -9.693 -45.397  1.00  0.00     0.008 C 
ENDBRANCH  12  17
ENDBRANCH  11  12
ENDBRANCH   1  11
TORSDOF 1
ENDMDL
