MODEL 1
REMARK VINA RESULT:    -6.163      0.000      0.000
REMARK INTER + INTRA:         -10.079
REMARK INTER:                  -8.325
REMARK INTRA:                  -1.754
REMARK UNBOUND:                -1.754
REMARK SMILES O=c1c(-c2ccc(O)cc2)coc2c([C@H]3O[C@@H](CO)[C@@H](O)[C@@H](O)[C@H]3O)c(O)ccc12
REMARK SMILES IDX 3 1 11 2 12 3 13 4 30 5 2 6 1 7 29 8 28 9 26 10 14 11 4 12
REMARK SMILES IDX 5 13 6 14 7 15 10 16 9 17 8 18 15 20 24 21 16 22 22 23 17 24
REMARK SMILES IDX 20 25 25 26 23 28 18 30 19 31 21 33 27 35
REMARK H PARENT 8 19 25 27 23 29 19 32 21 34 27 36
REMARK Flexibility Score: inf
ROOT
ATOM      1  C   UNL     1     -20.684  -7.318  -7.525  1.00  0.00     0.065 A 
ATOM      2  C   UNL     1     -20.015  -8.552  -7.511  1.00  0.00     0.208 A 
ATOM      3  O   UNL     1     -20.314  -9.480  -6.624  1.00  0.00    -0.463 OA
ATOM      4  C   UNL     1     -21.302  -9.325  -5.736  1.00  0.00     0.147 A 
ATOM      5  C   UNL     1     -21.941  -8.068  -5.593  1.00  0.00     0.066 A 
ATOM      6  C   UNL     1     -21.598  -7.044  -6.498  1.00  0.00     0.200 A 
ATOM      7  O   UNL     1     -22.131  -5.901  -6.421  1.00  0.00    -0.288 OA
ATOM      8  C   UNL     1     -22.954  -7.919  -4.641  1.00  0.00     0.020 A 
ATOM      9  C   UNL     1     -23.365  -9.006  -3.883  1.00  0.00     0.047 A 
ATOM     10  C   UNL     1     -22.777 -10.262  -4.039  1.00  0.00     0.125 A 
ATOM     11  C   UNL     1     -21.773 -10.458  -5.024  1.00  0.00     0.069 A 
ENDROOT
BRANCH   1  12
ATOM     12  C   UNL     1     -20.529  -6.444  -8.711  1.00  0.00    -0.011 A 
ATOM     13  C   UNL     1     -21.464  -6.500  -9.783  1.00  0.00     0.013 A 
ATOM     14  C   UNL     1     -21.632  -5.386 -10.629  1.00  0.00     0.047 A 
ATOM     15  C   UNL     1     -20.863  -4.232 -10.438  1.00  0.00     0.115 A 
ATOM     16  C   UNL     1     -19.658  -5.331  -8.622  1.00  0.00     0.013 A 
ATOM     17  C   UNL     1     -19.820  -4.237  -9.482  1.00  0.00     0.047 A 
BRANCH  15  18
ATOM     18  O   UNL     1     -21.153  -3.075 -11.162  1.00  0.00    -0.508 OA
ATOM     19  H   UNL     1     -22.008  -2.987 -11.692  1.00  0.00     0.293 HD
ENDBRANCH  15  18
ENDBRANCH   1  12
BRANCH  11  20
ATOM     20  C   UNL     1     -21.359 -11.824  -5.589  1.00  0.00     0.188 C 
ATOM     21  C   UNL     1     -22.344 -12.694  -6.418  1.00  0.00     0.179 C 
ATOM     22  O   UNL     1     -20.768 -12.623  -4.594  1.00  0.00    -0.362 OA
ATOM     23  C   UNL     1     -21.492 -13.670  -7.290  1.00  0.00     0.177 C 
ATOM     24  C   UNL     1     -20.023 -13.738  -5.118  1.00  0.00     0.176 C 
ATOM     25  C   UNL     1     -20.079 -13.931  -6.684  1.00  0.00     0.177 C 
BRANCH  21  26
ATOM     26  O   UNL     1     -23.174 -13.460  -5.562  1.00  0.00    -0.387 OA
ATOM     27  H   UNL     1     -22.887 -13.244  -4.627  1.00  0.00     0.211 HD
ENDBRANCH  21  26
BRANCH  23  28
ATOM     28  O   UNL     1     -22.171 -14.864  -7.598  1.00  0.00    -0.387 OA
ATOM     29  H   UNL     1     -21.557 -15.483  -8.097  1.00  0.00     0.211 HD
ENDBRANCH  23  28
BRANCH  24  30
ATOM     30  C   UNL     1     -20.407 -14.970  -4.248  1.00  0.00     0.191 C 
BRANCH  30  31
ATOM     31  O   UNL     1     -21.433 -15.759  -4.791  1.00  0.00    -0.394 OA
ATOM     32  H   UNL     1     -21.204 -16.716  -4.593  1.00  0.00     0.210 HD
ENDBRANCH  30  31
ENDBRANCH  24  30
BRANCH  25  33
ATOM     33  O   UNL     1     -19.518 -15.154  -7.096  1.00  0.00    -0.388 OA
ATOM     34  H   UNL     1     -18.830 -15.426  -6.433  1.00  0.00     0.211 HD
ENDBRANCH  25  33
ENDBRANCH  11  20
BRANCH  10  35
ATOM     35  O   UNL     1     -23.206 -11.283  -3.195  1.00  0.00    -0.507 OA
ATOM     36  H   UNL     1     -22.813 -11.397  -2.273  1.00  0.00     0.293 HD
ENDBRANCH  10  35
TORSDOF 9
ENDMDL
MODEL 2
REMARK VINA RESULT:    -6.010      1.721      7.933
REMARK INTER + INTRA:          -9.872
REMARK INTER:                  -8.268
REMARK INTRA:                  -1.603
REMARK UNBOUND:                -1.754
REMARK SMILES O=c1c(-c2ccc(O)cc2)coc2c([C@H]3O[C@@H](CO)[C@@H](O)[C@@H](O)[C@H]3O)c(O)ccc12
REMARK SMILES IDX 3 1 11 2 12 3 13 4 30 5 2 6 1 7 29 8 28 9 26 10 14 11 4 12
REMARK SMILES IDX 5 13 6 14 7 15 10 16 9 17 8 18 15 20 24 21 16 22 22 23 17 24
REMARK SMILES IDX 20 25 25 26 23 28 18 30 19 31 21 33 27 35
REMARK H PARENT 8 19 25 27 23 29 19 32 21 34 27 36
REMARK Flexibility Score: inf
ROOT
ATOM      1  C   UNL     1     -21.961 -11.514  -5.356  1.00  0.00     0.065 A 
ATOM      2  C   UNL     1     -22.034 -10.780  -6.551  1.00  0.00     0.208 A 
ATOM      3  O   UNL     1     -22.426  -9.522  -6.555  1.00  0.00    -0.463 OA
ATOM      4  C   UNL     1     -22.713  -8.861  -5.428  1.00  0.00     0.147 A 
ATOM      5  C   UNL     1     -22.792  -9.556  -4.195  1.00  0.00     0.066 A 
ATOM      6  C   UNL     1     -22.428 -10.917  -4.178  1.00  0.00     0.200 A 
ATOM      7  O   UNL     1     -22.478 -11.591  -3.109  1.00  0.00    -0.288 OA
ATOM      8  C   UNL     1     -23.119  -8.851  -3.032  1.00  0.00     0.020 A 
ATOM      9  C   UNL     1     -23.312  -7.478  -3.078  1.00  0.00     0.047 A 
ATOM     10  C   UNL     1     -23.197  -6.770  -4.275  1.00  0.00     0.125 A 
ATOM     11  C   UNL     1     -22.827  -7.448  -5.467  1.00  0.00     0.069 A 
ENDROOT
BRANCH   1  12
ATOM     12  C   UNL     1     -21.235 -12.806  -5.364  1.00  0.00    -0.011 A 
ATOM     13  C   UNL     1     -21.936 -14.034  -5.202  1.00  0.00     0.013 A 
ATOM     14  C   UNL     1     -21.382 -15.231  -5.699  1.00  0.00     0.047 A 
ATOM     15  C   UNL     1     -20.131 -15.222  -6.328  1.00  0.00     0.115 A 
ATOM     16  C   UNL     1     -19.911 -12.835  -5.867  1.00  0.00     0.013 A 
ATOM     17  C   UNL     1     -19.362 -14.034  -6.339  1.00  0.00     0.047 A 
BRANCH  15  18
ATOM     18  O   UNL     1     -19.668 -16.371  -6.970  1.00  0.00    -0.508 OA
ATOM     19  H   UNL     1     -20.262 -17.176  -7.101  1.00  0.00     0.293 HD
ENDBRANCH  15  18
ENDBRANCH   1  12
BRANCH  11  20
ATOM     20  C   UNL     1     -22.259  -6.765  -6.719  1.00  0.00     0.188 C 
ATOM     21  C   UNL     1     -20.742  -6.465  -6.865  1.00  0.00     0.179 C 
ATOM     22  O   UNL     1     -22.988  -5.603  -7.035  1.00  0.00    -0.362 OA
ATOM     23  C   UNL     1     -20.432  -6.326  -8.389  1.00  0.00     0.177 C 
ATOM     24  C   UNL     1     -22.768  -5.132  -8.376  1.00  0.00     0.176 C 
ATOM     25  C   UNL     1     -21.690  -5.922  -9.218  1.00  0.00     0.177 C 
BRANCH  21  26
ATOM     26  O   UNL     1     -20.411  -5.245  -6.223  1.00  0.00    -0.387 OA
ATOM     27  H   UNL     1     -20.644  -5.366  -5.256  1.00  0.00     0.211 HD
ENDBRANCH  21  26
BRANCH  23  28
ATOM     28  O   UNL     1     -19.329  -5.493  -8.650  1.00  0.00    -0.387 OA
ATOM     29  H   UNL     1     -18.687  -5.528  -7.877  1.00  0.00     0.211 HD
ENDBRANCH  23  28
BRANCH  24  30
ATOM     30  C   UNL     1     -22.582  -3.590  -8.276  1.00  0.00     0.191 C 
BRANCH  30  31
ATOM     31  O   UNL     1     -21.242  -3.173  -8.258  1.00  0.00    -0.394 OA
ATOM     32  H   UNL     1     -20.911  -3.286  -7.318  1.00  0.00     0.210 HD
ENDBRANCH  30  31
ENDBRANCH  24  30
BRANCH  25  33
ATOM     33  O   UNL     1     -21.371  -5.276 -10.427  1.00  0.00    -0.388 OA
ATOM     34  H   UNL     1     -22.015  -4.533 -10.568  1.00  0.00     0.211 HD
ENDBRANCH  25  33
ENDBRANCH  11  20
BRANCH  10  35
ATOM     35  O   UNL     1     -23.467  -5.405  -4.244  1.00  0.00    -0.507 OA
ATOM     36  H   UNL     1     -24.285  -5.046  -3.773  1.00  0.00     0.293 HD
ENDBRANCH  10  35
TORSDOF 9
ENDMDL
MODEL 3
REMARK VINA RESULT:    -5.854      1.279      1.569
REMARK INTER + INTRA:          -9.661
REMARK INTER:                  -8.834
REMARK INTRA:                  -0.827
REMARK UNBOUND:                -1.754
REMARK SMILES O=c1c(-c2ccc(O)cc2)coc2c([C@H]3O[C@@H](CO)[C@@H](O)[C@@H](O)[C@H]3O)c(O)ccc12
REMARK SMILES IDX 3 1 11 2 12 3 13 4 30 5 2 6 1 7 29 8 28 9 26 10 14 11 4 12
REMARK SMILES IDX 5 13 6 14 7 15 10 16 9 17 8 18 15 20 24 21 16 22 22 23 17 24
REMARK SMILES IDX 20 25 25 26 23 28 18 30 19 31 21 33 27 35
REMARK H PARENT 8 19 25 27 23 29 19 32 21 34 27 36
REMARK Flexibility Score: inf
ROOT
ATOM      1  C   UNL     1     -21.371  -8.009  -6.452  1.00  0.00     0.065 A 
ATOM      2  C   UNL     1     -20.655  -9.194  -6.681  1.00  0.00     0.208 A 
ATOM      3  O   UNL     1     -20.827 -10.253  -5.914  1.00  0.00    -0.463 OA
ATOM      4  C   UNL     1     -21.726 -10.278  -4.924  1.00  0.00     0.147 A 
ATOM      5  C   UNL     1     -22.397  -9.090  -4.541  1.00  0.00     0.066 A 
ATOM      6  C   UNL     1     -22.188  -7.932  -5.316  1.00  0.00     0.200 A 
ATOM      7  O   UNL     1     -22.757  -6.841  -5.023  1.00  0.00    -0.288 OA
ATOM      8  C   UNL     1     -23.316  -9.132  -3.487  1.00  0.00     0.020 A 
ATOM      9  C   UNL     1     -23.605 -10.335  -2.860  1.00  0.00     0.047 A 
ATOM     10  C   UNL     1     -22.985 -11.523  -3.252  1.00  0.00     0.125 A 
ATOM     11  C   UNL     1     -22.078 -11.524  -4.344  1.00  0.00     0.069 A 
ENDROOT
BRANCH   1  12
ATOM     12  C   UNL     1     -21.371  -6.968  -7.508  1.00  0.00    -0.011 A 
ATOM     13  C   UNL     1     -20.812  -7.235  -8.790  1.00  0.00     0.013 A 
ATOM     14  C   UNL     1     -21.240  -6.495  -9.910  1.00  0.00     0.047 A 
ATOM     15  C   UNL     1     -22.192  -5.480  -9.764  1.00  0.00     0.115 A 
ATOM     16  C   UNL     1     -22.219  -5.845  -7.351  1.00  0.00     0.013 A 
ATOM     17  C   UNL     1     -22.621  -5.103  -8.469  1.00  0.00     0.047 A 
BRANCH  15  18
ATOM     18  O   UNL     1     -22.739  -4.871 -10.895  1.00  0.00    -0.508 OA
ATOM     19  H   UNL     1     -23.300  -5.393 -11.553  1.00  0.00     0.293 HD
ENDBRANCH  15  18
ENDBRANCH   1  12
BRANCH  11  20
ATOM     20  C   UNL     1     -21.669 -12.772  -5.138  1.00  0.00     0.188 C 
ATOM     21  C   UNL     1     -22.492 -13.266  -6.358  1.00  0.00     0.179 C 
ATOM     22  O   UNL     1     -21.425 -13.859  -4.279  1.00  0.00    -0.362 OA
ATOM     23  C   UNL     1     -21.546 -14.138  -7.244  1.00  0.00     0.177 C 
ATOM     24  C   UNL     1     -20.684 -14.926  -4.896  1.00  0.00     0.176 C 
ATOM     25  C   UNL     1     -20.362 -14.746  -6.432  1.00  0.00     0.177 C 
BRANCH  21  26
ATOM     26  O   UNL     1     -23.580 -14.069  -5.934  1.00  0.00    -0.387 OA
ATOM     27  H   UNL     1     -24.236 -14.073  -6.692  1.00  0.00     0.211 HD
ENDBRANCH  21  26
BRANCH  23  28
ATOM     28  O   UNL     1     -22.237 -15.110  -7.992  1.00  0.00    -0.387 OA
ATOM     29  H   UNL     1     -21.600 -15.569  -8.620  1.00  0.00     0.211 HD
ENDBRANCH  23  28
BRANCH  24  30
ATOM     30  C   UNL     1     -21.390 -16.250  -4.481  1.00  0.00     0.191 C 
BRANCH  30  31
ATOM     31  O   UNL     1     -22.175 -16.824  -5.493  1.00  0.00    -0.394 OA
ATOM     32  H   UNL     1     -22.289 -16.127  -6.206  1.00  0.00     0.210 HD
ENDBRANCH  30  31
ENDBRANCH  24  30
BRANCH  25  33
ATOM     33  O   UNL     1     -19.835 -15.915  -7.012  1.00  0.00    -0.388 OA
ATOM     34  H   UNL     1     -18.928 -15.713  -7.363  1.00  0.00     0.211 HD
ENDBRANCH  25  33
ENDBRANCH  11  20
BRANCH  10  35
ATOM     35  O   UNL     1     -23.287 -12.675  -2.529  1.00  0.00    -0.507 OA
ATOM     36  H   UNL     1     -23.187 -13.590  -2.943  1.00  0.00     0.293 HD
ENDBRANCH  10  35
TORSDOF 9
ENDMDL
MODEL 4
REMARK VINA RESULT:    -5.725      3.018      5.588
REMARK INTER + INTRA:          -9.486
REMARK INTER:                  -7.818
REMARK INTRA:                  -1.668
REMARK UNBOUND:                -1.754
REMARK SMILES O=c1c(-c2ccc(O)cc2)coc2c([C@H]3O[C@@H](CO)[C@@H](O)[C@@H](O)[C@H]3O)c(O)ccc12
REMARK SMILES IDX 3 1 11 2 12 3 13 4 30 5 2 6 1 7 29 8 28 9 26 10 14 11 4 12
REMARK SMILES IDX 5 13 6 14 7 15 10 16 9 17 8 18 15 20 24 21 16 22 22 23 17 24
REMARK SMILES IDX 20 25 25 26 23 28 18 30 19 31 21 33 27 35
REMARK H PARENT 8 19 25 27 23 29 19 32 21 34 27 36
REMARK Flexibility Score: inf
ROOT
ATOM      1  C   UNL     1     -21.533  -4.698  -7.865  1.00  0.00     0.065 A 
ATOM      2  C   UNL     1     -22.322  -4.664  -6.705  1.00  0.00     0.208 A 
ATOM      3  O   UNL     1     -22.622  -5.769  -6.052  1.00  0.00    -0.463 OA
ATOM      4  C   UNL     1     -22.147  -6.964  -6.418  1.00  0.00     0.147 A 
ATOM      5  C   UNL     1     -21.453  -7.110  -7.645  1.00  0.00     0.066 A 
ATOM      6  C   UNL     1     -21.167  -5.946  -8.386  1.00  0.00     0.200 A 
ATOM      7  O   UNL     1     -20.552  -6.011  -9.489  1.00  0.00    -0.288 OA
ATOM      8  C   UNL     1     -20.985  -8.373  -8.022  1.00  0.00     0.020 A 
ATOM      9  C   UNL     1     -21.154  -9.461  -7.177  1.00  0.00     0.047 A 
ATOM     10  C   UNL     1     -21.798  -9.329  -5.946  1.00  0.00     0.125 A 
ATOM     11  C   UNL     1     -22.249  -8.053  -5.514  1.00  0.00     0.069 A 
ENDROOT
BRANCH   1  12
ATOM     12  C   UNL     1     -20.977  -3.423  -8.379  1.00  0.00    -0.011 A 
ATOM     13  C   UNL     1     -19.634  -3.048  -8.094  1.00  0.00     0.013 A 
ATOM     14  C   UNL     1     -18.956  -2.156  -8.949  1.00  0.00     0.047 A 
ATOM     15  C   UNL     1     -19.608  -1.615 -10.063  1.00  0.00     0.115 A 
ATOM     16  C   UNL     1     -21.667  -2.756  -9.421  1.00  0.00     0.013 A 
ATOM     17  C   UNL     1     -20.989  -1.855 -10.252  1.00  0.00     0.047 A 
BRANCH  15  18
ATOM     18  O   UNL     1     -18.884  -0.875 -10.999  1.00  0.00    -0.508 OA
ATOM     19  H   UNL     1     -17.933  -0.586 -10.820  1.00  0.00     0.293 HD
ENDBRANCH  15  18
ENDBRANCH   1  12
BRANCH  11  20
ATOM     20  C   UNL     1     -22.569  -7.687  -4.059  1.00  0.00     0.188 C 
ATOM     21  C   UNL     1     -21.453  -7.293  -3.054  1.00  0.00     0.179 C 
ATOM     22  O   UNL     1     -23.398  -8.657  -3.465  1.00  0.00    -0.362 OA
ATOM     23  C   UNL     1     -22.116  -6.458  -1.913  1.00  0.00     0.177 C 
ATOM     24  C   UNL     1     -24.041  -8.206  -2.260  1.00  0.00     0.176 C 
ATOM     25  C   UNL     1     -23.638  -6.763  -1.760  1.00  0.00     0.177 C 
BRANCH  21  26
ATOM     26  O   UNL     1     -20.864  -8.450  -2.483  1.00  0.00    -0.387 OA
ATOM     27  H   UNL     1     -20.246  -8.821  -3.179  1.00  0.00     0.211 HD
ENDBRANCH  21  26
BRANCH  23  28
ATOM     28  O   UNL     1     -21.426  -6.554  -0.690  1.00  0.00    -0.387 OA
ATOM     29  H   UNL     1     -20.642  -5.925  -0.695  1.00  0.00     0.211 HD
ENDBRANCH  23  28
BRANCH  24  30
ATOM     30  C   UNL     1     -23.907  -9.365  -1.229  1.00  0.00     0.191 C 
BRANCH  30  31
ATOM     31  O   UNL     1     -22.804  -9.244  -0.370  1.00  0.00    -0.394 OA
ATOM     32  H   UNL     1     -23.159  -8.969   0.527  1.00  0.00     0.210 HD
ENDBRANCH  30  31
ENDBRANCH  24  30
BRANCH  25  33
ATOM     33  O   UNL     1     -24.132  -6.481  -0.472  1.00  0.00    -0.388 OA
ATOM     34  H   UNL     1     -23.561  -5.779  -0.062  1.00  0.00     0.211 HD
ENDBRANCH  25  33
ENDBRANCH  11  20
BRANCH  10  35
ATOM     35  O   UNL     1     -21.979 -10.482  -5.187  1.00  0.00    -0.507 OA
ATOM     36  H   UNL     1     -22.723 -10.547  -4.507  1.00  0.00     0.293 HD
ENDBRANCH  10  35
TORSDOF 9
ENDMDL
MODEL 5
REMARK VINA RESULT:    -5.634      4.294      8.035
REMARK INTER + INTRA:          -9.363
REMARK INTER:                  -8.590
REMARK INTRA:                  -0.773
REMARK UNBOUND:                -1.754
REMARK SMILES O=c1c(-c2ccc(O)cc2)coc2c([C@H]3O[C@@H](CO)[C@@H](O)[C@@H](O)[C@H]3O)c(O)ccc12
REMARK SMILES IDX 3 1 11 2 12 3 13 4 30 5 2 6 1 7 29 8 28 9 26 10 14 11 4 12
REMARK SMILES IDX 5 13 6 14 7 15 10 16 9 17 8 18 15 20 24 21 16 22 22 23 17 24
REMARK SMILES IDX 20 25 25 26 23 28 18 30 19 31 21 33 27 35
REMARK H PARENT 8 19 25 27 23 29 19 32 21 34 27 36
REMARK Flexibility Score: inf
ROOT
ATOM      1  C   UNL     1     -22.572 -14.137  -5.855  1.00  0.00     0.065 A 
ATOM      2  C   UNL     1     -22.928 -14.473  -4.539  1.00  0.00     0.208 A 
ATOM      3  O   UNL     1     -23.035 -13.550  -3.605  1.00  0.00    -0.463 OA
ATOM      4  C   UNL     1     -22.871 -12.248  -3.866  1.00  0.00     0.147 A 
ATOM      5  C   UNL     1     -22.384 -11.831  -5.130  1.00  0.00     0.066 A 
ATOM      6  C   UNL     1     -22.213 -12.810  -6.130  1.00  0.00     0.200 A 
ATOM      7  O   UNL     1     -21.780 -12.501  -7.276  1.00  0.00    -0.288 OA
ATOM      8  C   UNL     1     -22.195 -10.467  -5.376  1.00  0.00     0.020 A 
ATOM      9  C   UNL     1     -22.532  -9.531  -4.409  1.00  0.00     0.047 A 
ATOM     10  C   UNL     1     -23.052  -9.920  -3.174  1.00  0.00     0.125 A 
ATOM     11  C   UNL     1     -23.294 -11.293  -2.907  1.00  0.00     0.069 A 
ENDROOT
BRANCH   1  12
ATOM     12  C   UNL     1     -22.762 -15.150  -6.920  1.00  0.00    -0.011 A 
ATOM     13  C   UNL     1     -22.997 -16.514  -6.590  1.00  0.00     0.013 A 
ATOM     14  C   UNL     1     -23.663 -17.354  -7.506  1.00  0.00     0.047 A 
ATOM     15  C   UNL     1     -24.070 -16.859  -8.750  1.00  0.00     0.115 A 
ATOM     16  C   UNL     1     -23.046 -14.705  -8.234  1.00  0.00     0.013 A 
ATOM     17  C   UNL     1     -23.689 -15.555  -9.143  1.00  0.00     0.047 A 
BRANCH  15  18
ATOM     18  O   UNL     1     -24.878 -17.640  -9.578  1.00  0.00    -0.508 OA
ATOM     19  H   UNL     1     -25.425 -18.405  -9.209  1.00  0.00     0.293 HD
ENDBRANCH  15  18
ENDBRANCH   1  12
BRANCH  11  20
ATOM     20  C   UNL     1     -24.230 -11.817  -1.809  1.00  0.00     0.188 C 
ATOM     21  C   UNL     1     -25.760 -11.952  -2.039  1.00  0.00     0.179 C 
ATOM     22  O   UNL     1     -24.007 -11.145  -0.593  1.00  0.00    -0.362 OA
ATOM     23  C   UNL     1     -26.301 -13.001  -1.017  1.00  0.00     0.177 C 
ATOM     24  C   UNL     1     -24.558 -11.824   0.550  1.00  0.00     0.176 C 
ATOM     25  C   UNL     1     -25.391 -13.130   0.243  1.00  0.00     0.177 C 
BRANCH  21  26
ATOM     26  O   UNL     1     -26.411 -10.715  -1.804  1.00  0.00    -0.387 OA
ATOM     27  H   UNL     1     -26.063 -10.080  -2.497  1.00  0.00     0.211 HD
ENDBRANCH  21  26
BRANCH  23  28
ATOM     28  O   UNL     1     -27.652 -12.794  -0.682  1.00  0.00    -0.387 OA
ATOM     29  H   UNL     1     -28.155 -12.470  -1.489  1.00  0.00     0.211 HD
ENDBRANCH  23  28
BRANCH  24  30
ATOM     30  C   UNL     1     -25.261 -10.734   1.412  1.00  0.00     0.191 C 
BRANCH  30  31
ATOM     31  O   UNL     1     -25.614  -9.578   0.699  1.00  0.00    -0.394 OA
ATOM     32  H   UNL     1     -26.616  -9.524   0.704  1.00  0.00     0.210 HD
ENDBRANCH  30  31
ENDBRANCH  24  30
BRANCH  25  33
ATOM     33  O   UNL     1     -26.077 -13.610   1.374  1.00  0.00    -0.388 OA
ATOM     34  H   UNL     1     -26.640 -12.877   1.737  1.00  0.00     0.211 HD
ENDBRANCH  25  33
ENDBRANCH  11  20
BRANCH  10  35
ATOM     35  O   UNL     1     -23.305  -8.920  -2.238  1.00  0.00    -0.507 OA
ATOM     36  H   UNL     1     -22.576  -8.288  -1.941  1.00  0.00     0.293 HD
ENDBRANCH  10  35
TORSDOF 9
ENDMDL
MODEL 6
REMARK VINA RESULT:    -5.454      2.203      7.962
REMARK INTER + INTRA:          -9.120
REMARK INTER:                  -8.450
REMARK INTRA:                  -0.670
REMARK UNBOUND:                -1.754
REMARK SMILES O=c1c(-c2ccc(O)cc2)coc2c([C@H]3O[C@@H](CO)[C@@H](O)[C@@H](O)[C@H]3O)c(O)ccc12
REMARK SMILES IDX 3 1 11 2 12 3 13 4 30 5 2 6 1 7 29 8 28 9 26 10 14 11 4 12
REMARK SMILES IDX 5 13 6 14 7 15 10 16 9 17 8 18 15 20 24 21 16 22 22 23 17 24
REMARK SMILES IDX 20 25 25 26 23 28 18 30 19 31 21 33 27 35
REMARK H PARENT 8 19 25 27 23 29 19 32 21 34 27 36
REMARK Flexibility Score: inf
ROOT
ATOM      1  C   UNL     1     -21.573 -10.462  -5.603  1.00  0.00     0.065 A 
ATOM      2  C   UNL     1     -22.242  -9.421  -6.268  1.00  0.00     0.208 A 
ATOM      3  O   UNL     1     -22.210  -8.187  -5.806  1.00  0.00    -0.463 OA
ATOM      4  C   UNL     1     -21.500  -7.848  -4.726  1.00  0.00     0.147 A 
ATOM      5  C   UNL     1     -20.904  -8.851  -3.921  1.00  0.00     0.066 A 
ATOM      6  C   UNL     1     -20.970 -10.185  -4.369  1.00  0.00     0.200 A 
ATOM      7  O   UNL     1     -20.459 -11.124  -3.695  1.00  0.00    -0.288 OA
ATOM      8  C   UNL     1     -20.185  -8.477  -2.780  1.00  0.00     0.020 A 
ATOM      9  C   UNL     1     -20.015  -7.135  -2.471  1.00  0.00     0.047 A 
ATOM     10  C   UNL     1     -20.559  -6.132  -3.275  1.00  0.00     0.125 A 
ATOM     11  C   UNL     1     -21.259  -6.475  -4.461  1.00  0.00     0.069 A 
ENDROOT
BRANCH   1  12
ATOM     12  C   UNL     1     -21.385 -11.748  -6.315  1.00  0.00    -0.011 A 
ATOM     13  C   UNL     1     -20.212 -12.528  -6.107  1.00  0.00     0.013 A 
ATOM     14  C   UNL     1     -20.239 -13.916  -6.349  1.00  0.00     0.047 A 
ATOM     15  C   UNL     1     -21.407 -14.528  -6.818  1.00  0.00     0.115 A 
ATOM     16  C   UNL     1     -22.509 -12.354  -6.928  1.00  0.00     0.013 A 
ATOM     17  C   UNL     1     -22.517 -13.731  -7.183  1.00  0.00     0.047 A 
BRANCH  15  18
ATOM     18  O   UNL     1     -21.483 -15.920  -6.888  1.00  0.00    -0.508 OA
ATOM     19  H   UNL     1     -22.091 -16.445  -6.277  1.00  0.00     0.293 HD
ENDBRANCH  15  18
ENDBRANCH   1  12
BRANCH  11  20
ATOM     20  C   UNL     1     -21.526  -5.512  -5.626  1.00  0.00     0.188 C 
ATOM     21  C   UNL     1     -22.902  -4.814  -5.807  1.00  0.00     0.179 C 
ATOM     22  O   UNL     1     -21.138  -6.084  -6.852  1.00  0.00    -0.362 OA
ATOM     23  C   UNL     1     -22.673  -3.534  -6.671  1.00  0.00     0.177 C 
ATOM     24  C   UNL     1     -21.000  -5.125  -7.916  1.00  0.00     0.176 C 
ATOM     25  C   UNL     1     -21.397  -3.638  -7.563  1.00  0.00     0.177 C 
BRANCH  21  26
ATOM     26  O   UNL     1     -23.807  -5.665  -6.490  1.00  0.00    -0.387 OA
ATOM     27  H   UNL     1     -24.415  -6.045  -5.791  1.00  0.00     0.211 HD
ENDBRANCH  21  26
BRANCH  23  28
ATOM     28  O   UNL     1     -23.812  -3.159  -7.408  1.00  0.00    -0.387 OA
ATOM     29  H   UNL     1     -24.157  -2.277  -7.071  1.00  0.00     0.211 HD
ENDBRANCH  23  28
BRANCH  24  30
ATOM     30  C   UNL     1     -21.684  -5.754  -9.165  1.00  0.00     0.191 C 
BRANCH  30  31
ATOM     31  O   UNL     1     -22.959  -5.235  -9.443  1.00  0.00    -0.394 OA
ATOM     32  H   UNL     1     -23.067  -5.238 -10.440  1.00  0.00     0.210 HD
ENDBRANCH  30  31
ENDBRANCH  24  30
BRANCH  25  33
ATOM     33  O   UNL     1     -21.448  -2.810  -8.700  1.00  0.00    -0.388 OA
ATOM     34  H   UNL     1     -22.107  -2.084  -8.533  1.00  0.00     0.211 HD
ENDBRANCH  25  33
ENDBRANCH  11  20
BRANCH  10  35
ATOM     35  O   UNL     1     -20.393  -4.814  -2.859  1.00  0.00    -0.507 OA
ATOM     36  H   UNL     1     -19.488  -4.367  -2.890  1.00  0.00     0.293 HD
ENDBRANCH  10  35
TORSDOF 9
ENDMDL
MODEL 7
REMARK VINA RESULT:    -5.441      2.352      3.955
REMARK INTER + INTRA:          -9.103
REMARK INTER:                  -8.587
REMARK INTRA:                  -0.516
REMARK UNBOUND:                -1.754
REMARK SMILES O=c1c(-c2ccc(O)cc2)coc2c([C@H]3O[C@@H](CO)[C@@H](O)[C@@H](O)[C@H]3O)c(O)ccc12
REMARK SMILES IDX 3 1 11 2 12 3 13 4 30 5 2 6 1 7 29 8 28 9 26 10 14 11 4 12
REMARK SMILES IDX 5 13 6 14 7 15 10 16 9 17 8 18 15 20 24 21 16 22 22 23 17 24
REMARK SMILES IDX 20 25 25 26 23 28 18 30 19 31 21 33 27 35
REMARK H PARENT 8 19 25 27 23 29 19 32 21 34 27 36
REMARK Flexibility Score: inf
ROOT
ATOM      1  C   UNL     1     -22.530  -9.465  -4.944  1.00  0.00     0.065 A 
ATOM      2  C   UNL     1     -21.849 -10.492  -5.617  1.00  0.00     0.208 A 
ATOM      3  O   UNL     1     -21.753 -11.700  -5.099  1.00  0.00    -0.463 OA
ATOM      4  C   UNL     1     -22.344 -12.030  -3.946  1.00  0.00     0.147 A 
ATOM      5  C   UNL     1     -22.939 -11.029  -3.138  1.00  0.00     0.066 A 
ATOM      6  C   UNL     1     -23.006  -9.718  -3.650  1.00  0.00     0.200 A 
ATOM      7  O   UNL     1     -23.523  -8.782  -2.977  1.00  0.00    -0.288 OA
ATOM      8  C   UNL     1     -23.530 -11.391  -1.923  1.00  0.00     0.020 A 
ATOM      9  C   UNL     1     -23.579 -12.723  -1.540  1.00  0.00     0.047 A 
ATOM     10  C   UNL     1     -23.035 -13.728  -2.341  1.00  0.00     0.125 A 
ATOM     11  C   UNL     1     -22.464 -13.401  -3.599  1.00  0.00     0.069 A 
ENDROOT
BRANCH   1  12
ATOM     12  C   UNL     1     -22.869  -8.233  -5.694  1.00  0.00    -0.011 A 
ATOM     13  C   UNL     1     -24.055  -7.504  -5.397  1.00  0.00     0.013 A 
ATOM     14  C   UNL     1     -24.135  -6.132  -5.709  1.00  0.00     0.047 A 
ATOM     15  C   UNL     1     -23.062  -5.488  -6.336  1.00  0.00     0.115 A 
ATOM     16  C   UNL     1     -21.854  -7.605  -6.458  1.00  0.00     0.013 A 
ATOM     17  C   UNL     1     -21.954  -6.246  -6.781  1.00  0.00     0.047 A 
BRANCH  15  18
ATOM     18  O   UNL     1     -23.075  -4.100  -6.483  1.00  0.00    -0.508 OA
ATOM     19  H   UNL     1     -22.675  -3.493  -5.783  1.00  0.00     0.293 HD
ENDBRANCH  15  18
ENDBRANCH   1  12
BRANCH  11  20
ATOM     20  C   UNL     1     -22.229 -14.402  -4.738  1.00  0.00     0.188 C 
ATOM     21  C   UNL     1     -20.800 -14.738  -5.245  1.00  0.00     0.179 C 
ATOM     22  O   UNL     1     -23.051 -14.111  -5.843  1.00  0.00    -0.362 OA
ATOM     23  C   UNL     1     -20.863 -16.133  -5.944  1.00  0.00     0.177 C 
ATOM     24  C   UNL     1     -23.168 -15.200  -6.776  1.00  0.00     0.176 C 
ATOM     25  C   UNL     1     -22.293 -16.476  -6.463  1.00  0.00     0.177 C 
BRANCH  21  26
ATOM     26  O   UNL     1     -20.368 -13.777  -6.193  1.00  0.00    -0.387 OA
ATOM     27  H   UNL     1     -19.610 -14.199  -6.694  1.00  0.00     0.211 HD
ENDBRANCH  21  26
BRANCH  23  28
ATOM     28  O   UNL     1     -19.880 -16.293  -6.939  1.00  0.00    -0.387 OA
ATOM     29  H   UNL     1     -20.311 -16.267  -7.847  1.00  0.00     0.211 HD
ENDBRANCH  23  28
BRANCH  24  30
ATOM     30  C   UNL     1     -23.016 -14.580  -8.196  1.00  0.00     0.191 C 
BRANCH  30  31
ATOM     31  O   UNL     1     -22.635 -13.229  -8.195  1.00  0.00    -0.394 OA
ATOM     32  H   UNL     1     -21.783 -13.164  -8.721  1.00  0.00     0.210 HD
ENDBRANCH  30  31
ENDBRANCH  24  30
BRANCH  25  33
ATOM     33  O   UNL     1     -22.289 -17.401  -7.524  1.00  0.00    -0.388 OA
ATOM     34  H   UNL     1     -21.347 -17.616  -7.753  1.00  0.00     0.211 HD
ENDBRANCH  25  33
ENDBRANCH  11  20
BRANCH  10  35
ATOM     35  O   UNL     1     -23.072 -15.031  -1.853  1.00  0.00    -0.507 OA
ATOM     36  H   UNL     1     -22.234 -15.489  -1.525  1.00  0.00     0.293 HD
ENDBRANCH  10  35
TORSDOF 9
ENDMDL
MODEL 8
REMARK VINA RESULT:    -5.412      2.455      4.947
REMARK INTER + INTRA:          -9.063
REMARK INTER:                  -7.459
REMARK INTRA:                  -1.604
REMARK UNBOUND:                -1.754
REMARK SMILES O=c1c(-c2ccc(O)cc2)coc2c([C@H]3O[C@@H](CO)[C@@H](O)[C@@H](O)[C@H]3O)c(O)ccc12
REMARK SMILES IDX 3 1 11 2 12 3 13 4 30 5 2 6 1 7 29 8 28 9 26 10 14 11 4 12
REMARK SMILES IDX 5 13 6 14 7 15 10 16 9 17 8 18 15 20 24 21 16 22 22 23 17 24
REMARK SMILES IDX 20 25 25 26 23 28 18 30 19 31 21 33 27 35
REMARK H PARENT 8 19 25 27 23 29 19 32 21 34 27 36
REMARK Flexibility Score: inf
ROOT
ATOM      1  C   UNL     1     -22.442  -6.783  -6.635  1.00  0.00     0.065 A 
ATOM      2  C   UNL     1     -23.490  -7.117  -5.762  1.00  0.00     0.208 A 
ATOM      3  O   UNL     1     -23.523  -8.287  -5.154  1.00  0.00    -0.463 OA
ATOM      4  C   UNL     1     -22.543  -9.187  -5.286  1.00  0.00     0.147 A 
ATOM      5  C   UNL     1     -21.517  -8.989  -6.243  1.00  0.00     0.066 A 
ATOM      6  C   UNL     1     -21.492  -7.766  -6.943  1.00  0.00     0.200 A 
ATOM      7  O   UNL     1     -20.603  -7.531  -7.811  1.00  0.00    -0.288 OA
ATOM      8  C   UNL     1     -20.515  -9.955  -6.383  1.00  0.00     0.020 A 
ATOM      9  C   UNL     1     -20.498 -11.068  -5.555  1.00  0.00     0.047 A 
ATOM     10  C   UNL     1     -21.476 -11.259  -4.578  1.00  0.00     0.125 A 
ATOM     11  C   UNL     1     -22.484 -10.279  -4.382  1.00  0.00     0.069 A 
ENDROOT
BRANCH   1  12
ATOM     12  C   UNL     1     -22.290  -5.368  -7.047  1.00  0.00    -0.011 A 
ATOM     13  C   UNL     1     -21.186  -4.593  -6.590  1.00  0.00     0.013 A 
ATOM     14  C   UNL     1     -20.756  -3.476  -7.334  1.00  0.00     0.047 A 
ATOM     15  C   UNL     1     -21.426  -3.108  -8.506  1.00  0.00     0.115 A 
ATOM     16  C   UNL     1     -23.046  -4.898  -8.149  1.00  0.00     0.013 A 
ATOM     17  C   UNL     1     -22.620  -3.774  -8.869  1.00  0.00     0.047 A 
BRANCH  15  18
ATOM     18  O   UNL     1     -20.893  -2.115  -9.329  1.00  0.00    -0.508 OA
ATOM     19  H   UNL     1     -19.903  -1.915  -9.339  1.00  0.00     0.293 HD
ENDBRANCH  15  18
ENDBRANCH   1  12
BRANCH  11  20
ATOM     20  C   UNL     1     -23.334 -10.143  -3.112  1.00  0.00     0.188 C 
ATOM     21  C   UNL     1     -22.817  -9.376  -1.864  1.00  0.00     0.179 C 
ATOM     22  O   UNL     1     -23.837 -11.393  -2.704  1.00  0.00    -0.362 OA
ATOM     23  C   UNL     1     -24.061  -8.937  -1.030  1.00  0.00     0.177 C 
ATOM     24  C   UNL     1     -24.928 -11.299  -1.772  1.00  0.00     0.176 C 
ATOM     25  C   UNL     1     -25.305  -9.842  -1.293  1.00  0.00     0.177 C 
BRANCH  21  26
ATOM     26  O   UNL     1     -22.008 -10.218  -1.061  1.00  0.00    -0.387 OA
ATOM     27  H   UNL     1     -21.605  -9.629  -0.357  1.00  0.00     0.211 HD
ENDBRANCH  21  26
BRANCH  23  28
ATOM     28  O   UNL     1     -23.781  -8.800   0.343  1.00  0.00    -0.387 OA
ATOM     29  H   UNL     1     -24.403  -9.383   0.875  1.00  0.00     0.211 HD
ENDBRANCH  23  28
BRANCH  24  30
ATOM     30  C   UNL     1     -24.646 -12.349  -0.658  1.00  0.00     0.191 C 
BRANCH  30  31
ATOM     31  O   UNL     1     -24.050 -11.817   0.496  1.00  0.00    -0.394 OA
ATOM     32  H   UNL     1     -23.796 -12.592   1.080  1.00  0.00     0.210 HD
ENDBRANCH  30  31
ENDBRANCH  24  30
BRANCH  25  33
ATOM     33  O   UNL     1     -26.222  -9.846  -0.225  1.00  0.00    -0.388 OA
ATOM     34  H   UNL     1     -25.714  -9.861   0.628  1.00  0.00     0.211 HD
ENDBRANCH  25  33
ENDBRANCH  11  20
BRANCH  10  35
ATOM     35  O   UNL     1     -21.419 -12.433  -3.832  1.00  0.00    -0.507 OA
ATOM     36  H   UNL     1     -21.001 -13.271  -4.210  1.00  0.00     0.293 HD
ENDBRANCH  10  35
TORSDOF 9
ENDMDL
MODEL 9
REMARK VINA RESULT:    -5.369      4.399      8.151
REMARK INTER + INTRA:          -9.006
REMARK INTER:                  -7.519
REMARK INTRA:                  -1.487
REMARK UNBOUND:                -1.754
REMARK SMILES O=c1c(-c2ccc(O)cc2)coc2c([C@H]3O[C@@H](CO)[C@@H](O)[C@@H](O)[C@H]3O)c(O)ccc12
REMARK SMILES IDX 3 1 11 2 12 3 13 4 30 5 2 6 1 7 29 8 28 9 26 10 14 11 4 12
REMARK SMILES IDX 5 13 6 14 7 15 10 16 9 17 8 18 15 20 24 21 16 22 22 23 17 24
REMARK SMILES IDX 20 25 25 26 23 28 18 30 19 31 21 33 27 35
REMARK H PARENT 8 19 25 27 23 29 19 32 21 34 27 36
REMARK Flexibility Score: inf
ROOT
ATOM      1  C   UNL     1     -22.261 -14.639  -5.737  1.00  0.00     0.065 A 
ATOM      2  C   UNL     1     -22.777 -14.371  -4.458  1.00  0.00     0.208 A 
ATOM      3  O   UNL     1     -22.314 -13.374  -3.732  1.00  0.00    -0.463 OA
ATOM      4  C   UNL     1     -21.381 -12.532  -4.188  1.00  0.00     0.147 A 
ATOM      5  C   UNL     1     -20.713 -12.802  -5.409  1.00  0.00     0.066 A 
ATOM      6  C   UNL     1     -21.158 -13.896  -6.178  1.00  0.00     0.200 A 
ATOM      7  O   UNL     1     -20.602 -14.189  -7.275  1.00  0.00    -0.288 OA
ATOM      8  C   UNL     1     -19.722 -11.923  -5.857  1.00  0.00     0.020 A 
ATOM      9  C   UNL     1     -19.434 -10.772  -5.139  1.00  0.00     0.047 A 
ATOM     10  C   UNL     1     -20.110 -10.467  -3.956  1.00  0.00     0.125 A 
ATOM     11  C   UNL     1     -21.149 -11.317  -3.494  1.00  0.00     0.069 A 
ENDROOT
BRANCH   1  12
ATOM     12  C   UNL     1     -23.011 -15.560  -6.622  1.00  0.00    -0.011 A 
ATOM     13  C   UNL     1     -23.690 -15.070  -7.773  1.00  0.00     0.013 A 
ATOM     14  C   UNL     1     -23.954 -15.934  -8.855  1.00  0.00     0.047 A 
ATOM     15  C   UNL     1     -23.576 -17.279  -8.792  1.00  0.00     0.115 A 
ATOM     16  C   UNL     1     -22.767 -16.951  -6.513  1.00  0.00     0.013 A 
ATOM     17  C   UNL     1     -23.054 -17.804  -7.586  1.00  0.00     0.047 A 
BRANCH  15  18
ATOM     18  O   UNL     1     -23.680 -18.085  -9.927  1.00  0.00    -0.508 OA
ATOM     19  H   UNL     1     -24.387 -17.917 -10.628  1.00  0.00     0.293 HD
ENDBRANCH  15  18
ENDBRANCH   1  12
BRANCH  11  20
ATOM     20  C   UNL     1     -22.232 -10.903  -2.489  1.00  0.00     0.188 C 
ATOM     21  C   UNL     1     -23.649 -10.468  -2.952  1.00  0.00     0.179 C 
ATOM     22  O   UNL     1     -21.737  -9.954  -1.576  1.00  0.00    -0.362 OA
ATOM     23  C   UNL     1     -24.624 -10.676  -1.751  1.00  0.00     0.177 C 
ATOM     24  C   UNL     1     -22.551  -9.809  -0.398  1.00  0.00     0.176 C 
ATOM     25  C   UNL     1     -23.890 -10.647  -0.375  1.00  0.00     0.177 C 
BRANCH  21  26
ATOM     26  O   UNL     1     -23.658  -9.096  -3.309  1.00  0.00    -0.387 OA
ATOM     27  H   UNL     1     -22.716  -8.773  -3.201  1.00  0.00     0.211 HD
ENDBRANCH  21  26
BRANCH  23  28
ATOM     28  O   UNL     1     -25.731  -9.807  -1.785  1.00  0.00    -0.387 OA
ATOM     29  H   UNL     1     -25.412  -8.854  -1.774  1.00  0.00     0.211 HD
ENDBRANCH  23  28
BRANCH  24  30
ATOM     30  C   UNL     1     -22.681  -8.279  -0.140  1.00  0.00     0.191 C 
BRANCH  30  31
ATOM     31  O   UNL     1     -23.875  -7.715  -0.614  1.00  0.00    -0.394 OA
ATOM     32  H   UNL     1     -24.590  -7.933   0.056  1.00  0.00     0.210 HD
ENDBRANCH  30  31
ENDBRANCH  24  30
BRANCH  25  33
ATOM     33  O   UNL     1     -24.732 -10.288   0.694  1.00  0.00    -0.388 OA
ATOM     34  H   UNL     1     -25.294  -9.519   0.410  1.00  0.00     0.211 HD
ENDBRANCH  25  33
ENDBRANCH  11  20
BRANCH  10  35
ATOM     35  O   UNL     1     -19.716  -9.324  -3.266  1.00  0.00    -0.507 OA
ATOM     36  H   UNL     1     -18.753  -9.019  -3.269  1.00  0.00     0.293 HD
ENDBRANCH  10  35
TORSDOF 9
ENDMDL
