MODEL 1
REMARK VINA RESULT:     6.427      0.000      0.000
REMARK INTER + INTRA:          11.678
REMARK INTER:                   8.869
REMARK INTRA:                   2.809
REMARK UNBOUND:                 2.809
REMARK SMILES C[C@H]1OC(=O)[C@H](C)[C@H]1C[C@H](O)[C@](C)(O)[C@H]1CC[C@@]2(O)C3=CC(=O)[C@@H]4C[C@H](O)[C@@H](O)C[C@]4(C)[C@H]3CC[C@]12C
REMARK SMILES IDX 12 1 13 2 10 3 9 4 8 5 7 6 6 7 4 8 2 9 3 10 5 11 1 12 11 13
REMARK SMILES IDX 15 15 16 16 36 17 17 18 18 19 35 20 37 21 20 22 34 23 33 24
REMARK SMILES IDX 21 25 31 26 22 27 24 28 30 29 32 30 23 31 25 32 28 33 26 34
REMARK SMILES IDX 19 35 29 37 27 39 14 41
REMARK H PARENT 11 14 19 36 29 38 27 40 14 42
REMARK Flexibility Score: inf
ROOT
ATOM      1  C   UNL     1      17.648  24.977   4.548  1.00  0.00     0.091 C 
ATOM      2  C   UNL     1      18.695  23.855   4.301  1.00  0.00     0.045 C 
ENDROOT
BRANCH   1   3
ATOM      3  C   UNL     1      18.277  26.352   4.113  1.00  0.00     0.146 C 
BRANCH   3   4
ATOM      4  C   UNL     1      19.426  26.827   5.053  1.00  0.00     0.043 C 
BRANCH   4   5
ATOM      5  C   UNL     1      20.708  27.273   4.304  1.00  0.00     0.046 C 
ATOM      6  C   UNL     1      20.207  29.036   2.462  1.00  0.00     0.020 C 
ATOM      7  C   UNL     1      20.523  27.571   2.788  1.00  0.00     0.103 C 
ATOM      8  C   UNL     1      21.853  27.179   2.256  1.00  0.00     0.309 C 
ATOM      9  C   UNL     1      21.860  26.222   4.349  1.00  0.00     0.177 C 
ATOM     10  O   UNL     1      22.603  26.469   3.167  1.00  0.00    -0.462 OA
ATOM     11  O   UNL     1      22.268  27.435   1.094  1.00  0.00    -0.252 OA
ATOM     12  C   UNL     1      21.382  24.759   4.298  1.00  0.00     0.053 C 
ENDBRANCH   4   5
ENDBRANCH   3   4
BRANCH   3  13
ATOM     13  O   UNL     1      17.282  27.346   4.062  1.00  0.00    -0.390 OA
ATOM     14  H   UNL     1      17.130  27.666   4.989  1.00  0.00     0.211 HD
ENDBRANCH   3  13
ENDBRANCH   1   3
BRANCH   1  15
ATOM     15  C   UNL     1      17.111  25.088   6.049  1.00  0.00     0.032 C 
ATOM     16  C   UNL     1      16.815  23.737   6.754  1.00  0.00     0.010 C 
ATOM     17  C   UNL     1      17.842  25.902   7.169  1.00  0.00     0.006 C 
ATOM     18  C   UNL     1      16.835  24.015   8.271  1.00  0.00     0.041 C 
ATOM     19  C   UNL     1      16.960  25.538   8.392  1.00  0.00     0.092 C 
ATOM     20  C   UNL     1      17.808  27.442   7.022  1.00  0.00     0.011 C 
ATOM     21  C   UNL     1      19.319  25.403   7.376  1.00  0.00     0.015 C 
ATOM     22  C   UNL     1      17.582  26.118   9.660  1.00  0.00    -0.031 C 
ATOM     23  C   UNL     1      18.436  28.127   8.253  1.00  0.00     0.009 C 
ATOM     24  C   UNL     1      17.902  27.619   9.636  1.00  0.00     0.025 C 
ATOM     25  C   UNL     1      17.529  25.434  10.817  1.00  0.00     0.050 C 
ATOM     26  C   UNL     1      18.830  28.039  10.849  1.00  0.00    -0.013 C 
ATOM     27  C   UNL     1      17.934  26.038  12.095  1.00  0.00     0.159 C 
ATOM     28  C   UNL     1      18.224  27.510  12.193  1.00  0.00     0.070 C 
ATOM     29  C   UNL     1      19.005  29.587  10.954  1.00  0.00     0.042 C 
ATOM     30  C   UNL     1      20.258  27.428  10.694  1.00  0.00     0.013 C 
ATOM     31  O   UNL     1      18.023  25.309  13.124  1.00  0.00    -0.295 OA
ATOM     32  C   UNL     1      16.941  28.260  12.612  1.00  0.00     0.047 C 
ATOM     33  C   UNL     1      17.720  30.328  11.370  1.00  0.00     0.143 C 
ATOM     34  C   UNL     1      17.204  29.771  12.710  1.00  0.00     0.143 C 
BRANCH  19  35
ATOM     35  O   UNL     1      15.671  26.093   8.247  1.00  0.00    -0.385 OA
ATOM     36  H   UNL     1      15.071  25.432   7.798  1.00  0.00     0.211 HD
ENDBRANCH  19  35
BRANCH  33  37
ATOM     37  O   UNL     1      17.990  31.698  11.519  1.00  0.00    -0.390 OA
ATOM     38  H   UNL     1      18.773  31.902  10.940  1.00  0.00     0.211 HD
ENDBRANCH  33  37
BRANCH  34  39
ATOM     39  O   UNL     1      16.047  30.446  13.124  1.00  0.00    -0.390 OA
ATOM     40  H   UNL     1      15.768  31.051  12.391  1.00  0.00     0.211 HD
ENDBRANCH  34  39
ENDBRANCH   1  15
BRANCH   1  41
ATOM     41  O   UNL     1      16.545  24.761   3.694  1.00  0.00    -0.387 OA
ATOM     42  H   UNL     1      16.444  23.791   3.514  1.00  0.00     0.211 HD
ENDBRANCH   1  41
TORSDOF 9
ENDMDL
MODEL 2
REMARK VINA RESULT:     6.746      1.649      8.471
REMARK INTER + INTRA:          12.118
REMARK INTER:                  12.494
REMARK INTRA:                  -0.376
REMARK UNBOUND:                 2.809
REMARK SMILES C[C@H]1OC(=O)[C@H](C)[C@H]1C[C@H](O)[C@](C)(O)[C@H]1CC[C@@]2(O)C3=CC(=O)[C@@H]4C[C@H](O)[C@@H](O)C[C@]4(C)[C@H]3CC[C@]12C
REMARK SMILES IDX 12 1 13 2 10 3 9 4 8 5 7 6 6 7 4 8 2 9 3 10 5 11 1 12 11 13
REMARK SMILES IDX 15 15 16 16 36 17 17 18 18 19 35 20 37 21 20 22 34 23 33 24
REMARK SMILES IDX 21 25 31 26 22 27 24 28 30 29 32 30 23 31 25 32 28 33 26 34
REMARK SMILES IDX 19 35 29 37 27 39 14 41
REMARK H PARENT 11 14 19 36 29 38 27 40 14 42
REMARK Flexibility Score: inf
ROOT
ATOM      1  C   UNL     1      18.943  26.228  11.579  1.00  0.00     0.091 C 
ATOM      2  C   UNL     1      19.035  25.214  12.754  1.00  0.00     0.045 C 
ENDROOT
BRANCH   1   3
ATOM      3  C   UNL     1      17.857  27.308  11.935  1.00  0.00     0.146 C 
BRANCH   3   4
ATOM      4  C   UNL     1      18.443  28.745  12.084  1.00  0.00     0.043 C 
BRANCH   4   5
ATOM      5  C   UNL     1      17.498  29.738  12.809  1.00  0.00     0.046 C 
ATOM      6  C   UNL     1      14.992  29.181  12.407  1.00  0.00     0.020 C 
ATOM      7  C   UNL     1      16.184  30.080  12.050  1.00  0.00     0.103 C 
ATOM      8  C   UNL     1      15.952  31.477  12.497  1.00  0.00     0.309 C 
ATOM      9  C   UNL     1      18.147  31.127  13.096  1.00  0.00     0.177 C 
ATOM     10  O   UNL     1      17.049  32.024  13.125  1.00  0.00    -0.462 OA
ATOM     11  O   UNL     1      14.887  32.125  12.314  1.00  0.00    -0.252 OA
ATOM     12  C   UNL     1      19.111  31.613  11.998  1.00  0.00     0.053 C 
ENDBRANCH   4   5
ENDBRANCH   3   4
BRANCH   3  13
ATOM     13  O   UNL     1      17.193  26.955  13.125  1.00  0.00    -0.390 OA
ATOM     14  H   UNL     1      17.835  27.077  13.872  1.00  0.00     0.211 HD
ENDBRANCH   3  13
ENDBRANCH   1   3
BRANCH   1  15
ATOM     15  C   UNL     1      18.609  25.587  10.153  1.00  0.00     0.032 C 
ATOM     16  C   UNL     1      17.142  25.120   9.959  1.00  0.00     0.010 C 
ATOM     17  C   UNL     1      18.923  26.296   8.793  1.00  0.00     0.006 C 
ATOM     18  C   UNL     1      16.899  25.045   8.437  1.00  0.00     0.041 C 
ATOM     19  C   UNL     1      18.273  25.292   7.804  1.00  0.00     0.092 C 
ATOM     20  C   UNL     1      20.420  26.408   8.414  1.00  0.00     0.011 C 
ATOM     21  C   UNL     1      18.227  27.703   8.700  1.00  0.00     0.015 C 
ATOM     22  C   UNL     1      18.330  25.861   6.389  1.00  0.00    -0.031 C 
ATOM     23  C   UNL     1      20.587  26.995   6.997  1.00  0.00     0.009 C 
ATOM     24  C   UNL     1      19.710  26.311   5.892  1.00  0.00     0.025 C 
ATOM     25  C   UNL     1      17.313  25.659   5.533  1.00  0.00     0.050 C 
ATOM     26  C   UNL     1      19.603  27.175   4.568  1.00  0.00    -0.013 C 
ATOM     27  C   UNL     1      17.412  26.013   4.111  1.00  0.00     0.159 C 
ATOM     28  C   UNL     1      18.728  26.421   3.510  1.00  0.00     0.070 C 
ATOM     29  C   UNL     1      21.001  27.475   3.940  1.00  0.00     0.042 C 
ATOM     30  C   UNL     1      18.927  28.552   4.856  1.00  0.00     0.013 C 
ATOM     31  O   UNL     1      16.380  25.957   3.384  1.00  0.00    -0.295 OA
ATOM     32  C   UNL     1      19.432  25.180   2.920  1.00  0.00     0.047 C 
ATOM     33  C   UNL     1      21.697  26.231   3.356  1.00  0.00     0.143 C 
ATOM     34  C   UNL     1      20.787  25.565   2.307  1.00  0.00     0.143 C 
BRANCH  19  35
ATOM     35  O   UNL     1      18.981  24.072   7.812  1.00  0.00    -0.385 OA
ATOM     36  H   UNL     1      18.555  23.434   7.174  1.00  0.00     0.211 HD
ENDBRANCH  19  35
BRANCH  33  37
ATOM     37  O   UNL     1      22.903  26.606   2.743  1.00  0.00    -0.390 OA
ATOM     38  H   UNL     1      22.881  26.241   1.817  1.00  0.00     0.211 HD
ENDBRANCH  33  37
BRANCH  34  39
ATOM     39  O   UNL     1      21.409  24.443   1.742  1.00  0.00    -0.390 OA
ATOM     40  H   UNL     1      20.992  24.275   0.858  1.00  0.00     0.211 HD
ENDBRANCH  34  39
ENDBRANCH   1  15
BRANCH   1  41
ATOM     41  O   UNL     1      20.169  26.920  11.482  1.00  0.00    -0.387 OA
ATOM     42  H   UNL     1      20.920  26.271  11.447  1.00  0.00     0.211 HD
ENDBRANCH   1  41
TORSDOF 9
ENDMDL
MODEL 3
REMARK VINA RESULT:     7.151      0.711      1.336
REMARK INTER + INTRA:          12.677
REMARK INTER:                  11.861
REMARK INTRA:                   0.816
REMARK UNBOUND:                 2.809
REMARK SMILES C[C@H]1OC(=O)[C@H](C)[C@H]1C[C@H](O)[C@](C)(O)[C@H]1CC[C@@]2(O)C3=CC(=O)[C@@H]4C[C@H](O)[C@@H](O)C[C@]4(C)[C@H]3CC[C@]12C
REMARK SMILES IDX 12 1 13 2 10 3 9 4 8 5 7 6 6 7 4 8 2 9 3 10 5 11 1 12 11 13
REMARK SMILES IDX 15 15 16 16 36 17 17 18 18 19 35 20 37 21 20 22 34 23 33 24
REMARK SMILES IDX 21 25 31 26 22 27 24 28 30 29 32 30 23 31 25 32 28 33 26 34
REMARK SMILES IDX 19 35 29 37 27 39 14 41
REMARK H PARENT 11 14 19 36 29 38 27 40 14 42
REMARK Flexibility Score: inf
ROOT
ATOM      1  C   UNL     1      17.227  24.976   4.559  1.00  0.00     0.091 C 
ATOM      2  C   UNL     1      18.445  24.033   4.346  1.00  0.00     0.045 C 
ENDROOT
BRANCH   1   3
ATOM      3  C   UNL     1      17.585  26.392   3.975  1.00  0.00     0.146 C 
BRANCH   3   4
ATOM      4  C   UNL     1      18.939  26.953   4.505  1.00  0.00     0.043 C 
BRANCH   4   5
ATOM      5  C   UNL     1      20.011  27.155   3.403  1.00  0.00     0.046 C 
ATOM      6  C   UNL     1      21.288  24.957   2.861  1.00  0.00     0.020 C 
ATOM      7  C   UNL     1      21.309  26.315   3.576  1.00  0.00     0.103 C 
ATOM      8  C   UNL     1      22.319  27.222   2.972  1.00  0.00     0.309 C 
ATOM      9  C   UNL     1      20.520  28.624   3.282  1.00  0.00     0.177 C 
ATOM     10  O   UNL     1      21.836  28.496   2.771  1.00  0.00    -0.462 OA
ATOM     11  O   UNL     1      23.502  26.895   2.687  1.00  0.00    -0.252 OA
ATOM     12  C   UNL     1      20.617  29.371   4.625  1.00  0.00     0.053 C 
ENDBRANCH   4   5
ENDBRANCH   3   4
BRANCH   3  13
ATOM     13  O   UNL     1      16.559  27.311   4.267  1.00  0.00    -0.390 OA
ATOM     14  H   UNL     1      16.971  28.076   4.747  1.00  0.00     0.211 HD
ENDBRANCH   3  13
ENDBRANCH   1   3
BRANCH   1  15
ATOM     15  C   UNL     1      16.745  25.133   6.075  1.00  0.00     0.032 C 
ATOM     16  C   UNL     1      16.389  23.808   6.802  1.00  0.00     0.010 C 
ATOM     17  C   UNL     1      17.558  25.910   7.164  1.00  0.00     0.006 C 
ATOM     18  C   UNL     1      16.473  24.097   8.315  1.00  0.00     0.041 C 
ATOM     19  C   UNL     1      16.694  25.610   8.417  1.00  0.00     0.092 C 
ATOM     20  C   UNL     1      17.614  27.448   7.002  1.00  0.00     0.011 C 
ATOM     21  C   UNL     1      19.008  25.323   7.331  1.00  0.00     0.015 C 
ATOM     22  C   UNL     1      17.389  26.162   9.659  1.00  0.00    -0.031 C 
ATOM     23  C   UNL     1      18.320  28.104   8.207  1.00  0.00     0.009 C 
ATOM     24  C   UNL     1      17.798  27.640   9.610  1.00  0.00     0.025 C 
ATOM     25  C   UNL     1      17.331  25.493  10.825  1.00  0.00     0.050 C 
ATOM     26  C   UNL     1      18.787  28.014  10.790  1.00  0.00    -0.013 C 
ATOM     27  C   UNL     1      17.811  26.081  12.083  1.00  0.00     0.159 C 
ATOM     28  C   UNL     1      18.192  27.534  12.157  1.00  0.00     0.070 C 
ATOM     29  C   UNL     1      19.059  29.549  10.874  1.00  0.00     0.042 C 
ATOM     30  C   UNL     1      20.171  27.315  10.597  1.00  0.00     0.013 C 
ATOM     31  O   UNL     1      17.887  25.358  13.116  1.00  0.00    -0.295 OA
ATOM     32  C   UNL     1      16.971  28.365  12.607  1.00  0.00     0.047 C 
ATOM     33  C   UNL     1      17.835  30.371  11.321  1.00  0.00     0.143 C 
ATOM     34  C   UNL     1      17.327  29.857  12.682  1.00  0.00     0.143 C 
BRANCH  19  35
ATOM     35  O   UNL     1      15.437  26.242   8.305  1.00  0.00    -0.385 OA
ATOM     36  H   UNL     1      15.043  26.366   9.213  1.00  0.00     0.211 HD
ENDBRANCH  19  35
BRANCH  33  37
ATOM     37  O   UNL     1      18.192  31.723  11.448  1.00  0.00    -0.390 OA
ATOM     38  H   UNL     1      18.972  31.872  10.848  1.00  0.00     0.211 HD
ENDBRANCH  33  37
BRANCH  34  39
ATOM     39  O   UNL     1      16.228  30.605  13.124  1.00  0.00    -0.390 OA
ATOM     40  H   UNL     1      15.589  29.983  13.556  1.00  0.00     0.211 HD
ENDBRANCH  34  39
ENDBRANCH   1  15
BRANCH   1  41
ATOM     41  O   UNL     1      16.144  24.496   3.793  1.00  0.00    -0.387 OA
ATOM     42  H   UNL     1      16.415  24.415   2.842  1.00  0.00     0.211 HD
ENDBRANCH   1  41
TORSDOF 9
ENDMDL
MODEL 4
REMARK VINA RESULT:     7.743      1.815      2.713
REMARK INTER + INTRA:          13.494
REMARK INTER:                  13.589
REMARK INTRA:                  -0.096
REMARK UNBOUND:                 2.809
REMARK SMILES C[C@H]1OC(=O)[C@H](C)[C@H]1C[C@H](O)[C@](C)(O)[C@H]1CC[C@@]2(O)C3=CC(=O)[C@@H]4C[C@H](O)[C@@H](O)C[C@]4(C)[C@H]3CC[C@]12C
REMARK SMILES IDX 12 1 13 2 10 3 9 4 8 5 7 6 6 7 4 8 2 9 3 10 5 11 1 12 11 13
REMARK SMILES IDX 15 15 16 16 36 17 17 18 18 19 35 20 37 21 20 22 34 23 33 24
REMARK SMILES IDX 21 25 31 26 22 27 24 28 30 29 32 30 23 31 25 32 28 33 26 34
REMARK SMILES IDX 19 35 29 37 27 39 14 41
REMARK H PARENT 11 14 19 36 29 38 27 40 14 42
REMARK Flexibility Score: inf
ROOT
ATOM      1  C   UNL     1      17.782  24.217   5.230  1.00  0.00     0.091 C 
ATOM      2  C   UNL     1      17.162  22.905   5.788  1.00  0.00     0.045 C 
ENDROOT
BRANCH   1   3
ATOM      3  C   UNL     1      19.342  24.034   5.141  1.00  0.00     0.146 C 
BRANCH   3   4
ATOM      4  C   UNL     1      19.973  24.724   3.894  1.00  0.00     0.043 C 
BRANCH   4   5
ATOM      5  C   UNL     1      20.103  26.263   4.024  1.00  0.00     0.046 C 
ATOM      6  C   UNL     1      17.846  27.480   3.600  1.00  0.00     0.020 C 
ATOM      7  C   UNL     1      19.223  27.091   3.044  1.00  0.00     0.103 C 
ATOM      8  C   UNL     1      20.075  28.290   2.839  1.00  0.00     0.309 C 
ATOM      9  C   UNL     1      21.549  26.795   3.781  1.00  0.00     0.177 C 
ATOM     10  O   UNL     1      21.359  28.117   3.306  1.00  0.00    -0.462 OA
ATOM     11  O   UNL     1      19.698  29.355   2.280  1.00  0.00    -0.252 OA
ATOM     12  C   UNL     1      22.332  26.024   2.703  1.00  0.00     0.053 C 
ENDBRANCH   4   5
ENDBRANCH   3   4
BRANCH   3  13
ATOM     13  O   UNL     1      19.670  22.665   5.126  1.00  0.00    -0.390 OA
ATOM     14  H   UNL     1      20.409  22.528   5.774  1.00  0.00     0.211 HD
ENDBRANCH   3  13
ENDBRANCH   1   3
BRANCH   1  15
ATOM     15  C   UNL     1      17.448  25.536   6.069  1.00  0.00     0.032 C 
ATOM     16  C   UNL     1      16.011  26.093   5.892  1.00  0.00     0.010 C 
ATOM     17  C   UNL     1      17.672  25.658   7.613  1.00  0.00     0.006 C 
ATOM     18  C   UNL     1      15.726  26.984   7.119  1.00  0.00     0.041 C 
ATOM     19  C   UNL     1      17.061  27.060   7.870  1.00  0.00     0.092 C 
ATOM     20  C   UNL     1      19.145  25.707   8.085  1.00  0.00     0.011 C 
ATOM     21  C   UNL     1      16.880  24.550   8.400  1.00  0.00     0.015 C 
ATOM     22  C   UNL     1      17.037  27.340   9.370  1.00  0.00    -0.031 C 
ATOM     23  C   UNL     1      19.229  25.967   9.603  1.00  0.00     0.009 C 
ATOM     24  C   UNL     1      18.367  27.172  10.115  1.00  0.00     0.025 C 
ATOM     25  C   UNL     1      16.009  28.011   9.920  1.00  0.00     0.050 C 
ATOM     26  C   UNL     1      18.162  27.160  11.686  1.00  0.00    -0.013 C 
ATOM     27  C   UNL     1      16.041  28.473  11.315  1.00  0.00     0.159 C 
ATOM     28  C   UNL     1      17.308  28.399  12.121  1.00  0.00     0.070 C 
ATOM     29  C   UNL     1      19.516  27.188  12.463  1.00  0.00     0.042 C 
ATOM     30  C   UNL     1      17.404  25.872  12.138  1.00  0.00     0.013 C 
ATOM     31  O   UNL     1      14.993  28.952  11.834  1.00  0.00    -0.295 OA
ATOM     32  C   UNL     1      18.075  29.733  11.998  1.00  0.00     0.047 C 
ATOM     33  C   UNL     1      20.277  28.523  12.332  1.00  0.00     0.143 C 
ATOM     34  C   UNL     1      19.382  29.684  12.804  1.00  0.00     0.143 C 
BRANCH  19  35
ATOM     35  O   UNL     1      17.849  28.056   7.254  1.00  0.00    -0.385 OA
ATOM     36  H   UNL     1      18.022  27.805   6.304  1.00  0.00     0.211 HD
ENDBRANCH  19  35
BRANCH  33  37
ATOM     37  O   UNL     1      21.435  28.487  13.124  1.00  0.00    -0.390 OA
ATOM     38  H   UNL     1      22.024  29.224  12.807  1.00  0.00     0.211 HD
ENDBRANCH  33  37
BRANCH  34  39
ATOM     39  O   UNL     1      20.060  30.908  12.719  1.00  0.00    -0.390 OA
ATOM     40  H   UNL     1      20.204  31.242  13.641  1.00  0.00     0.211 HD
ENDBRANCH  34  39
ENDBRANCH   1  15
BRANCH   1  41
ATOM     41  O   UNL     1      17.332  24.403   3.906  1.00  0.00    -0.387 OA
ATOM     42  H   UNL     1      18.103  24.382   3.283  1.00  0.00     0.211 HD
ENDBRANCH   1  41
TORSDOF 9
ENDMDL
MODEL 5
REMARK VINA RESULT:     9.248      1.188      1.398
REMARK INTER + INTRA:          15.571
REMARK INTER:                  12.742
REMARK INTRA:                   2.829
REMARK UNBOUND:                 2.809
REMARK SMILES C[C@H]1OC(=O)[C@H](C)[C@H]1C[C@H](O)[C@](C)(O)[C@H]1CC[C@@]2(O)C3=CC(=O)[C@@H]4C[C@H](O)[C@@H](O)C[C@]4(C)[C@H]3CC[C@]12C
REMARK SMILES IDX 12 1 13 2 10 3 9 4 8 5 7 6 6 7 4 8 2 9 3 10 5 11 1 12 11 13
REMARK SMILES IDX 15 15 16 16 36 17 17 18 18 19 35 20 37 21 20 22 34 23 33 24
REMARK SMILES IDX 21 25 31 26 22 27 24 28 30 29 32 30 23 31 25 32 28 33 26 34
REMARK SMILES IDX 19 35 29 37 27 39 14 41
REMARK H PARENT 11 14 19 36 29 38 27 40 14 42
REMARK Flexibility Score: inf
ROOT
ATOM      1  C   UNL     1      17.140  25.177   4.174  1.00  0.00     0.091 C 
ATOM      2  C   UNL     1      17.859  23.813   3.973  1.00  0.00     0.045 C 
ENDROOT
BRANCH   1   3
ATOM      3  C   UNL     1      18.077  26.320   3.633  1.00  0.00     0.146 C 
BRANCH   3   4
ATOM      4  C   UNL     1      19.035  26.896   4.719  1.00  0.00     0.043 C 
BRANCH   4   5
ATOM      5  C   UNL     1      20.448  27.249   4.188  1.00  0.00     0.046 C 
ATOM      6  C   UNL     1      20.380  29.111   2.377  1.00  0.00     0.020 C 
ATOM      7  C   UNL     1      20.519  27.613   2.677  1.00  0.00     0.103 C 
ATOM      8  C   UNL     1      21.877  27.121   2.329  1.00  0.00     0.309 C 
ATOM      9  C   UNL     1      21.487  26.098   4.354  1.00  0.00     0.177 C 
ATOM     10  O   UNL     1      22.418  26.316   3.306  1.00  0.00    -0.462 OA
ATOM     11  O   UNL     1      22.482  27.377   1.254  1.00  0.00    -0.252 OA
ATOM     12  C   UNL     1      20.902  24.686   4.165  1.00  0.00     0.053 C 
ENDBRANCH   4   5
ENDBRANCH   3   4
BRANCH   3  13
ATOM     13  O   UNL     1      17.304  27.367   3.096  1.00  0.00    -0.390 OA
ATOM     14  H   UNL     1      16.932  27.052   2.231  1.00  0.00     0.211 HD
ENDBRANCH   3  13
ENDBRANCH   1   3
BRANCH   1  15
ATOM     15  C   UNL     1      16.715  25.506   5.679  1.00  0.00     0.032 C 
ATOM     16  C   UNL     1      15.626  24.579   6.282  1.00  0.00     0.010 C 
ATOM     17  C   UNL     1      17.738  25.640   6.856  1.00  0.00     0.006 C 
ATOM     18  C   UNL     1      15.742  24.699   7.816  1.00  0.00     0.041 C 
ATOM     19  C   UNL     1      16.762  25.820   8.048  1.00  0.00     0.092 C 
ATOM     20  C   UNL     1      18.654  26.887   6.821  1.00  0.00     0.011 C 
ATOM     21  C   UNL     1      18.596  24.333   7.027  1.00  0.00     0.015 C 
ATOM     22  C   UNL     1      17.550  25.827   9.356  1.00  0.00    -0.031 C 
ATOM     23  C   UNL     1      19.513  26.975   8.100  1.00  0.00     0.009 C 
ATOM     24  C   UNL     1      18.717  26.820   9.442  1.00  0.00     0.025 C 
ATOM     25  C   UNL     1      17.040  25.253  10.460  1.00  0.00     0.050 C 
ATOM     26  C   UNL     1      19.653  26.517  10.683  1.00  0.00    -0.013 C 
ATOM     27  C   UNL     1      17.670  25.410  11.778  1.00  0.00     0.159 C 
ATOM     28  C   UNL     1      18.790  26.391  11.984  1.00  0.00     0.070 C 
ATOM     29  C   UNL     1      20.729  27.628  10.901  1.00  0.00     0.042 C 
ATOM     30  C   UNL     1      20.421  25.172  10.485  1.00  0.00     0.013 C 
ATOM     31  O   UNL     1      17.251  24.721  12.751  1.00  0.00    -0.295 OA
ATOM     32  C   UNL     1      18.211  27.742  12.455  1.00  0.00     0.047 C 
ATOM     33  C   UNL     1      20.141  28.974  11.369  1.00  0.00     0.143 C 
ATOM     34  C   UNL     1      19.332  28.771  12.664  1.00  0.00     0.143 C 
BRANCH  19  35
ATOM     35  O   UNL     1      16.084  27.053   7.942  1.00  0.00    -0.385 OA
ATOM     36  H   UNL     1      15.860  27.230   6.986  1.00  0.00     0.211 HD
ENDBRANCH  19  35
BRANCH  33  37
ATOM     37  O   UNL     1      21.181  29.884  11.618  1.00  0.00    -0.390 OA
ATOM     38  H   UNL     1      21.953  29.354  11.956  1.00  0.00     0.211 HD
ENDBRANCH  33  37
BRANCH  34  39
ATOM     39  O   UNL     1      18.808  29.986  13.125  1.00  0.00    -0.390 OA
ATOM     40  H   UNL     1      18.719  30.595  12.348  1.00  0.00     0.211 HD
ENDBRANCH  34  39
ENDBRANCH   1  15
BRANCH   1  41
ATOM     41  O   UNL     1      15.983  25.202   3.366  1.00  0.00    -0.387 OA
ATOM     42  H   UNL     1      15.503  26.061   3.493  1.00  0.00     0.211 HD
ENDBRANCH   1  41
TORSDOF 9
ENDMDL
