MODEL 1
REMARK VINA RESULT:    -3.155      0.000      0.000
REMARK INTER + INTRA:          -3.889
REMARK INTER:                  -3.708
REMARK INTRA:                  -0.182
REMARK UNBOUND:                -0.182
REMARK SMILES CCC=Cc1oc(O)c2ccc(O)cc12
REMARK SMILES IDX 7 1 6 2 5 3 15 4 14 5 12 6 11 7 10 8 9 9 8 10 4 12 3 13 2 14
REMARK SMILES IDX 1 15 13 16
REMARK H PARENT 8 11 13 17
REMARK Flexibility Score: inf
ROOT
ATOM      1  C   UNL     1     -46.453 -26.477  43.583  1.00  0.00     0.290 A 
ATOM      2  O   UNL     1     -45.709 -25.849  44.472  1.00  0.00    -0.425 OA
ATOM      3  C   UNL     1     -45.239 -24.740  43.924  1.00  0.00     0.138 A 
ATOM      4  C   UNL     1     -45.702 -24.650  42.622  1.00  0.00     0.035 A 
ATOM      5  C   UNL     1     -45.502 -23.690  41.629  1.00  0.00     0.059 A 
ATOM      6  C   UNL     1     -46.127 -23.896  40.380  1.00  0.00     0.116 A 
ATOM      7  C   UNL     1     -46.924 -25.043  40.163  1.00  0.00     0.047 A 
ATOM      8  C   UNL     1     -47.107 -25.992  41.186  1.00  0.00     0.020 A 
ATOM      9  C   UNL     1     -46.476 -25.759  42.406  1.00  0.00     0.067 A 
ENDROOT
BRANCH   1  10
ATOM     10  O   UNL     1     -47.102 -27.682  43.830  1.00  0.00    -0.480 OA
ATOM     11  H   UNL     1     -46.687 -28.393  44.420  1.00  0.00     0.297 HD
ENDBRANCH   1  10
BRANCH   3  12
ATOM     12  C   UNL     1     -44.366 -23.774  44.610  1.00  0.00     0.043 C 
ATOM     13  C   UNL     1     -43.932 -23.986  45.856  1.00  0.00    -0.023 C 
BRANCH  13  14
ATOM     14  C   UNL     1     -43.052 -22.995  46.562  1.00  0.00     0.024 C 
ATOM     15  C   UNL     1     -42.036 -23.693  47.460  1.00  0.00     0.008 C 
ENDBRANCH  13  14
ENDBRANCH   3  12
BRANCH   6  16
ATOM     16  O   UNL     1     -45.963 -22.972  39.349  1.00  0.00    -0.508 OA
ATOM     17  H   UNL     1     -45.929 -23.262  38.379  1.00  0.00     0.293 HD
ENDBRANCH   6  16
TORSDOF 4
ENDMDL
MODEL 2
REMARK VINA RESULT:    -3.084     15.246     17.061
REMARK INTER + INTRA:          -3.806
REMARK INTER:                  -3.624
REMARK INTRA:                  -0.182
REMARK UNBOUND:                -0.182
REMARK SMILES CCC=Cc1oc(O)c2ccc(O)cc12
REMARK SMILES IDX 7 1 6 2 5 3 15 4 14 5 12 6 11 7 10 8 9 9 8 10 4 12 3 13 2 14
REMARK SMILES IDX 1 15 13 16
REMARK H PARENT 8 11 13 17
REMARK Flexibility Score: inf
ROOT
ATOM      1  C   UNL     1     -30.332 -23.649  43.611  1.00  0.00     0.290 A 
ATOM      2  O   UNL     1     -29.711 -24.371  44.523  1.00  0.00    -0.425 OA
ATOM      3  C   UNL     1     -28.617 -24.884  43.985  1.00  0.00     0.138 A 
ATOM      4  C   UNL     1     -28.529 -24.474  42.666  1.00  0.00     0.035 A 
ATOM      5  C   UNL     1     -27.582 -24.731  41.673  1.00  0.00     0.059 A 
ATOM      6  C   UNL     1     -27.786 -24.151  40.403  1.00  0.00     0.116 A 
ATOM      7  C   UNL     1     -28.920 -23.340  40.165  1.00  0.00     0.047 A 
ATOM      8  C   UNL     1     -29.856 -23.099  41.187  1.00  0.00     0.020 A 
ATOM      9  C   UNL     1     -29.625 -23.686  42.429  1.00  0.00     0.067 A 
ENDROOT
BRANCH   1  10
ATOM     10  O   UNL     1     -31.523 -22.967  43.842  1.00  0.00    -0.480 OA
ATOM     11  H   UNL     1     -32.034 -22.528  43.085  1.00  0.00     0.297 HD
ENDBRANCH   1  10
BRANCH   3  12
ATOM     12  C   UNL     1     -27.663 -25.749  44.698  1.00  0.00     0.043 C 
ATOM     13  C   UNL     1     -27.856 -26.103  45.971  1.00  0.00    -0.023 C 
BRANCH  13  14
ATOM     14  C   UNL     1     -26.876 -26.975  46.702  1.00  0.00     0.024 C 
ATOM     15  C   UNL     1     -27.079 -26.895  48.212  1.00  0.00     0.008 C 
ENDBRANCH  13  14
ENDBRANCH   3  12
BRANCH   6  16
ATOM     16  O   UNL     1     -26.875 -24.373  39.372  1.00  0.00    -0.508 OA
ATOM     17  H   UNL     1     -26.006 -24.869  39.532  1.00  0.00     0.293 HD
ENDBRANCH   6  16
TORSDOF 4
ENDMDL
MODEL 3
REMARK VINA RESULT:    -2.951     13.737     16.473
REMARK INTER + INTRA:          -3.650
REMARK INTER:                  -3.382
REMARK INTRA:                  -0.268
REMARK UNBOUND:                -0.182
REMARK SMILES CCC=Cc1oc(O)c2ccc(O)cc12
REMARK SMILES IDX 7 1 6 2 5 3 15 4 14 5 12 6 11 7 10 8 9 9 8 10 4 12 3 13 2 14
REMARK SMILES IDX 1 15 13 16
REMARK H PARENT 8 11 13 17
REMARK Flexibility Score: inf
ROOT
ATOM      1  C   UNL     1     -46.716 -37.642  45.988  1.00  0.00     0.290 A 
ATOM      2  O   UNL     1     -46.710 -38.343  44.871  1.00  0.00    -0.425 OA
ATOM      3  C   UNL     1     -46.801 -39.627  45.177  1.00  0.00     0.138 A 
ATOM      4  C   UNL     1     -46.869 -39.758  46.553  1.00  0.00     0.035 A 
ATOM      5  C   UNL     1     -46.974 -40.881  47.376  1.00  0.00     0.059 A 
ATOM      6  C   UNL     1     -47.021 -40.672  48.771  1.00  0.00     0.116 A 
ATOM      7  C   UNL     1     -46.964 -39.361  49.297  1.00  0.00     0.047 A 
ATOM      8  C   UNL     1     -46.860 -38.250  48.441  1.00  0.00     0.020 A 
ATOM      9  C   UNL     1     -46.814 -38.491  47.069  1.00  0.00     0.067 A 
ENDROOT
BRANCH   1  10
ATOM     10  O   UNL     1     -46.632 -36.253  46.030  1.00  0.00    -0.480 OA
ATOM     11  H   UNL     1     -46.423 -35.713  45.200  1.00  0.00     0.297 HD
ENDBRANCH   1  10
BRANCH   3  12
ATOM     12  C   UNL     1     -46.825 -40.720  44.191  1.00  0.00     0.043 C 
ATOM     13  C   UNL     1     -45.706 -41.348  43.817  1.00  0.00    -0.023 C 
BRANCH  13  14
ATOM     14  C   UNL     1     -45.729 -42.454  42.801  1.00  0.00     0.024 C 
ATOM     15  C   UNL     1     -47.125 -42.644  42.216  1.00  0.00     0.008 C 
ENDBRANCH  13  14
ENDBRANCH   3  12
BRANCH   6  16
ATOM     16  O   UNL     1     -47.124 -41.755  49.642  1.00  0.00    -0.508 OA
ATOM     17  H   UNL     1     -47.298 -41.623  50.632  1.00  0.00     0.293 HD
ENDBRANCH   6  16
TORSDOF 4
ENDMDL
MODEL 4
REMARK VINA RESULT:    -2.834     14.972     17.243
REMARK INTER + INTRA:          -3.512
REMARK INTER:                  -3.231
REMARK INTRA:                  -0.281
REMARK UNBOUND:                -0.182
REMARK SMILES CCC=Cc1oc(O)c2ccc(O)cc12
REMARK SMILES IDX 7 1 6 2 5 3 15 4 14 5 12 6 11 7 10 8 9 9 8 10 4 12 3 13 2 14
REMARK SMILES IDX 1 15 13 16
REMARK H PARENT 8 11 13 17
REMARK Flexibility Score: inf
ROOT
ATOM      1  C   UNL     1     -27.560 -24.270  41.428  1.00  0.00     0.290 A 
ATOM      2  O   UNL     1     -26.877 -25.030  42.261  1.00  0.00    -0.425 OA
ATOM      3  C   UNL     1     -27.569 -25.158  43.382  1.00  0.00     0.138 A 
ATOM      4  C   UNL     1     -28.751 -24.448  43.264  1.00  0.00     0.035 A 
ATOM      5  C   UNL     1     -29.815 -24.262  44.148  1.00  0.00     0.059 A 
ATOM      6  C   UNL     1     -30.897 -23.464  43.717  1.00  0.00     0.116 A 
ATOM      7  C   UNL     1     -30.882 -22.882  42.429  1.00  0.00     0.047 A 
ATOM      8  C   UNL     1     -29.795 -23.090  41.560  1.00  0.00     0.020 A 
ATOM      9  C   UNL     1     -28.744 -23.882  42.017  1.00  0.00     0.067 A 
ENDROOT
BRANCH   1  10
ATOM     10  O   UNL     1     -27.120 -23.930  40.152  1.00  0.00    -0.480 OA
ATOM     11  H   UNL     1     -26.872 -22.977  39.918  1.00  0.00     0.297 HD
ENDBRANCH   1  10
BRANCH   3  12
ATOM     12  C   UNL     1     -27.128 -25.937  44.551  1.00  0.00     0.043 C 
ATOM     13  C   UNL     1     -27.511 -27.204  44.732  1.00  0.00    -0.023 C 
BRANCH  13  14
ATOM     14  C   UNL     1     -27.072 -27.993  45.931  1.00  0.00     0.024 C 
ATOM     15  C   UNL     1     -27.287 -27.210  47.223  1.00  0.00     0.008 C 
ENDBRANCH  13  14
ENDBRANCH   3  12
BRANCH   6  16
ATOM     16  O   UNL     1     -31.986 -23.241  44.557  1.00  0.00    -0.508 OA
ATOM     17  H   UNL     1     -32.926 -23.141  44.189  1.00  0.00     0.293 HD
ENDBRANCH   6  16
TORSDOF 4
ENDMDL
MODEL 5
REMARK VINA RESULT:    -2.807     17.376     19.058
REMARK INTER + INTRA:          -3.481
REMARK INTER:                  -3.258
REMARK INTRA:                  -0.223
REMARK UNBOUND:                -0.182
REMARK SMILES CCC=Cc1oc(O)c2ccc(O)cc12
REMARK SMILES IDX 7 1 6 2 5 3 15 4 14 5 12 6 11 7 10 8 9 9 8 10 4 12 3 13 2 14
REMARK SMILES IDX 1 15 13 16
REMARK H PARENT 8 11 13 17
REMARK Flexibility Score: inf
ROOT
ATOM      1  C   UNL     1     -27.610 -28.721  46.519  1.00  0.00     0.290 A 
ATOM      2  O   UNL     1     -27.414 -28.111  45.367  1.00  0.00    -0.425 OA
ATOM      3  C   UNL     1     -27.150 -26.835  45.602  1.00  0.00     0.138 A 
ATOM      4  C   UNL     1     -27.178 -26.616  46.969  1.00  0.00     0.035 A 
ATOM      5  C   UNL     1     -26.970 -25.464  47.730  1.00  0.00     0.059 A 
ATOM      6  C   UNL     1     -27.072 -25.574  49.133  1.00  0.00     0.116 A 
ATOM      7  C   UNL     1     -27.376 -26.821  49.728  1.00  0.00     0.047 A 
ATOM      8  C   UNL     1     -27.579 -27.964  48.934  1.00  0.00     0.020 A 
ATOM      9  C   UNL     1     -27.471 -27.820  47.552  1.00  0.00     0.067 A 
ENDROOT
BRANCH   1  10
ATOM     10  O   UNL     1     -27.911 -30.075  46.636  1.00  0.00    -0.480 OA
ATOM     11  H   UNL     1     -28.786 -30.451  46.292  1.00  0.00     0.297 HD
ENDBRANCH   1  10
BRANCH   3  12
ATOM     12  C   UNL     1     -26.876 -25.833  44.560  1.00  0.00     0.043 C 
ATOM     13  C   UNL     1     -27.820 -25.443  43.699  1.00  0.00    -0.023 C 
BRANCH  13  14
ATOM     14  C   UNL     1     -27.536 -24.431  42.627  1.00  0.00     0.024 C 
ATOM     15  C   UNL     1     -28.730 -23.506  42.405  1.00  0.00     0.008 C 
ENDBRANCH  13  14
ENDBRANCH   3  12
BRANCH   6  16
ATOM     16  O   UNL     1     -26.875 -24.459  49.944  1.00  0.00    -0.508 OA
ATOM     17  H   UNL     1     -25.967 -24.245  50.339  1.00  0.00     0.293 HD
ENDBRANCH   6  16
TORSDOF 4
ENDMDL
MODEL 6
REMARK VINA RESULT:    -2.724      1.908      4.078
REMARK INTER + INTRA:          -3.384
REMARK INTER:                  -3.126
REMARK INTRA:                  -0.258
REMARK UNBOUND:                -0.182
REMARK SMILES CCC=Cc1oc(O)c2ccc(O)cc12
REMARK SMILES IDX 7 1 6 2 5 3 15 4 14 5 12 6 11 7 10 8 9 9 8 10 4 12 3 13 2 14
REMARK SMILES IDX 1 15 13 16
REMARK H PARENT 8 11 13 17
REMARK Flexibility Score: inf
ROOT
ATOM      1  C   UNL     1     -45.013 -23.992  44.148  1.00  0.00     0.290 A 
ATOM      2  O   UNL     1     -45.306 -25.186  44.625  1.00  0.00    -0.425 OA
ATOM      3  C   UNL     1     -45.872 -25.899  43.664  1.00  0.00     0.138 A 
ATOM      4  C   UNL     1     -45.946 -25.128  42.516  1.00  0.00     0.035 A 
ATOM      5  C   UNL     1     -46.447 -25.403  41.243  1.00  0.00     0.059 A 
ATOM      6  C   UNL     1     -46.374 -24.381  40.272  1.00  0.00     0.116 A 
ATOM      7  C   UNL     1     -45.808 -23.128  40.600  1.00  0.00     0.047 A 
ATOM      8  C   UNL     1     -45.310 -22.882  41.892  1.00  0.00     0.020 A 
ATOM      9  C   UNL     1     -45.398 -23.912  42.827  1.00  0.00     0.067 A 
ENDROOT
BRANCH   1  10
ATOM     10  O   UNL     1     -44.407 -22.987  44.896  1.00  0.00    -0.480 OA
ATOM     11  H   UNL     1     -43.802 -23.205  45.679  1.00  0.00     0.297 HD
ENDBRANCH   1  10
BRANCH   3  12
ATOM     12  C   UNL     1     -46.338 -27.286  43.819  1.00  0.00     0.043 C 
ATOM     13  C   UNL     1     -45.574 -28.324  43.467  1.00  0.00    -0.023 C 
BRANCH  13  14
ATOM     14  C   UNL     1     -46.055 -29.739  43.612  1.00  0.00     0.024 C 
ATOM     15  C   UNL     1     -46.922 -29.907  44.857  1.00  0.00     0.008 C 
ENDBRANCH  13  14
ENDBRANCH   3  12
BRANCH   6  16
ATOM     16  O   UNL     1     -46.859 -24.597  38.984  1.00  0.00    -0.508 OA
ATOM     17  H   UNL     1     -47.556 -23.987  38.571  1.00  0.00     0.293 HD
ENDBRANCH   6  16
TORSDOF 4
ENDMDL
MODEL 7
REMARK VINA RESULT:    -2.681      1.315      3.329
REMARK INTER + INTRA:          -3.333
REMARK INTER:                  -3.061
REMARK INTRA:                  -0.271
REMARK UNBOUND:                -0.182
REMARK SMILES CCC=Cc1oc(O)c2ccc(O)cc12
REMARK SMILES IDX 7 1 6 2 5 3 15 4 14 5 12 6 11 7 10 8 9 9 8 10 4 12 3 13 2 14
REMARK SMILES IDX 1 15 13 16
REMARK H PARENT 8 11 13 17
REMARK Flexibility Score: inf
ROOT
ATOM      1  C   UNL     1     -45.916 -23.495  41.855  1.00  0.00     0.290 A 
ATOM      2  O   UNL     1     -45.117 -22.875  42.701  1.00  0.00    -0.425 OA
ATOM      3  C   UNL     1     -44.885 -23.675  43.729  1.00  0.00     0.138 A 
ATOM      4  C   UNL     1     -45.566 -24.865  43.535  1.00  0.00     0.035 A 
ATOM      5  C   UNL     1     -45.654 -26.023  44.310  1.00  0.00     0.059 A 
ATOM      6  C   UNL     1     -46.449 -27.082  43.823  1.00  0.00     0.116 A 
ATOM      7  C   UNL     1     -47.125 -26.955  42.588  1.00  0.00     0.047 A 
ATOM      8  C   UNL     1     -47.015 -25.775  41.829  1.00  0.00     0.020 A 
ATOM      9  C   UNL     1     -46.223 -24.748  42.339  1.00  0.00     0.067 A 
ENDROOT
BRANCH   1  10
ATOM     10  O   UNL     1     -46.362 -22.937  40.661  1.00  0.00    -0.480 OA
ATOM     11  H   UNL     1     -47.299 -22.560  40.574  1.00  0.00     0.297 HD
ENDBRANCH   1  10
BRANCH   3  12
ATOM     12  C   UNL     1     -44.036 -23.331  44.881  1.00  0.00     0.043 C 
ATOM     13  C   UNL     1     -42.723 -23.582  44.881  1.00  0.00    -0.023 C 
BRANCH  13  14
ATOM     14  C   UNL     1     -41.859 -23.242  46.062  1.00  0.00     0.024 C 
ATOM     15  C   UNL     1     -42.044 -24.248  47.194  1.00  0.00     0.008 C 
ENDBRANCH  13  14
ENDBRANCH   3  12
BRANCH   6  16
ATOM     16  O   UNL     1     -46.575 -28.262  44.554  1.00  0.00    -0.508 OA
ATOM     17  H   UNL     1     -45.763 -28.764  44.892  1.00  0.00     0.293 HD
ENDBRANCH   6  16
TORSDOF 4
ENDMDL
MODEL 8
REMARK VINA RESULT:    -2.660     22.697     24.222
REMARK INTER + INTRA:          -3.308
REMARK INTER:                  -3.123
REMARK INTRA:                  -0.185
REMARK UNBOUND:                -0.182
REMARK SMILES CCC=Cc1oc(O)c2ccc(O)cc12
REMARK SMILES IDX 7 1 6 2 5 3 15 4 14 5 12 6 11 7 10 8 9 9 8 10 4 12 3 13 2 14
REMARK SMILES IDX 1 15 13 16
REMARK H PARENT 8 11 13 17
REMARK Flexibility Score: inf
ROOT
ATOM      1  C   UNL     1     -32.310 -43.023  45.375  1.00  0.00     0.290 A 
ATOM      2  O   UNL     1     -31.378 -43.125  44.448  1.00  0.00    -0.425 OA
ATOM      3  C   UNL     1     -30.192 -43.024  45.025  1.00  0.00     0.138 A 
ATOM      4  C   UNL     1     -30.369 -42.850  46.387  1.00  0.00     0.035 A 
ATOM      5  C   UNL     1     -29.454 -42.694  47.431  1.00  0.00     0.059 A 
ATOM      6  C   UNL     1     -29.966 -42.534  48.736  1.00  0.00     0.116 A 
ATOM      7  C   UNL     1     -31.363 -42.534  48.957  1.00  0.00     0.047 A 
ATOM      8  C   UNL     1     -32.259 -42.694  47.885  1.00  0.00     0.020 A 
ATOM      9  C   UNL     1     -31.720 -42.849  46.609  1.00  0.00     0.067 A 
ENDROOT
BRANCH   1  10
ATOM     10  O   UNL     1     -33.675 -43.086  45.112  1.00  0.00    -0.480 OA
ATOM     11  H   UNL     1     -34.238 -42.246  45.051  1.00  0.00     0.297 HD
ENDBRANCH   1  10
BRANCH   3  12
ATOM     12  C   UNL     1     -28.907 -43.090  44.311  1.00  0.00     0.043 C 
ATOM     13  C   UNL     1     -28.821 -42.834  43.002  1.00  0.00    -0.023 C 
BRANCH  13  14
ATOM     14  C   UNL     1     -27.512 -42.914  42.270  1.00  0.00     0.024 C 
ATOM     15  C   UNL     1     -27.633 -42.364  40.852  1.00  0.00     0.008 C 
ENDBRANCH  13  14
ENDBRANCH   3  12
BRANCH   6  16
ATOM     16  O   UNL     1     -29.102 -42.373  49.817  1.00  0.00    -0.508 OA
ATOM     17  H   UNL     1     -29.450 -42.174  50.748  1.00  0.00     0.293 HD
ENDBRANCH   6  16
TORSDOF 4
ENDMDL
