MODEL 1
REMARK VINA RESULT:    -7.131      0.000      0.000
REMARK INTER + INTRA:         -10.879
REMARK INTER:                  -9.840
REMARK INTRA:                  -1.039
REMARK UNBOUND:                -1.039
REMARK SMILES O=C([O-])[C@@H]1O[C@H](Oc2cc3oc(-c4ccccc4)cc(=O)c3c(O)c2O)[C@@H](O)[C@@H](O)[C@H]1O
REMARK SMILES IDX 7 1 6 2 4 3 31 4 5 5 29 6 27 7 2 8 1 9 3 10 32 11 30 13
REMARK SMILES IDX 28 15 8 17 25 18 9 19 23 20 10 21 22 22 11 23 20 24 12 25
REMARK SMILES IDX 19 26 21 27 26 28 24 30 13 32 14 33 18 34 15 35 17 36 16 37
REMARK H PARENT 32 12 30 14 28 16 26 29 24 31
REMARK Flexibility Score: inf
ROOT
ATOM      1  O   UNL     1      -1.735  48.837  82.873  1.00  0.00    -0.458 OA
ENDROOT
BRANCH   1   2
ATOM      2  C   UNL     1      -0.722  49.810  83.158  1.00  0.00     0.339 C 
ATOM      3  C   UNL     1      -2.208  51.359  84.204  1.00  0.00     0.199 C 
ATOM      4  C   UNL     1      -1.617  51.080  85.610  1.00  0.00     0.180 C 
ATOM      5  O   UNL     1      -1.270  51.125  83.157  1.00  0.00    -0.328 OA
ATOM      6  C   UNL     1      -0.972  49.677  85.667  1.00  0.00     0.181 C 
ATOM      7  C   UNL     1      -0.010  49.478  84.489  1.00  0.00     0.214 C 
BRANCH   3   8
ATOM      8  C   UNL     1      -3.532  50.683  83.933  1.00  0.00     0.073 C 
ATOM      9  O   UNL     1      -4.125  50.086  84.871  1.00  0.00    -0.547 OA
ATOM     10  O   UNL     1      -4.107  50.699  82.662  1.00  0.00    -0.547 OA
ENDBRANCH   3   8
BRANCH   4  11
ATOM     11  O   UNL     1      -0.659  52.069  85.905  1.00  0.00    -0.387 OA
ATOM     12  H   UNL     1       0.218  51.741  85.567  1.00  0.00     0.211 HD
ENDBRANCH   4  11
BRANCH   6  13
ATOM     13  O   UNL     1      -0.278  49.496  86.877  1.00  0.00    -0.387 OA
ATOM     14  H   UNL     1      -0.850  48.927  87.456  1.00  0.00     0.211 HD
ENDBRANCH   6  13
BRANCH   7  15
ATOM     15  O   UNL     1       1.122  50.299  84.648  1.00  0.00    -0.384 OA
ATOM     16  H   UNL     1       1.378  50.615  83.742  1.00  0.00     0.211 HD
ENDBRANCH   7  15
ENDBRANCH   1   2
BRANCH   1  17
ATOM     17  C   UNL     1      -1.602  47.774  81.966  1.00  0.00     0.172 A 
ATOM     18  C   UNL     1      -2.321  47.709  80.757  1.00  0.00     0.201 A 
ATOM     19  C   UNL     1      -0.702  46.760  82.288  1.00  0.00     0.098 A 
ATOM     20  C   UNL     1      -2.191  46.587  79.910  1.00  0.00     0.176 A 
ATOM     21  C   UNL     1      -0.526  45.662  81.445  1.00  0.00     0.146 A 
ATOM     22  C   UNL     1      -1.255  45.558  80.233  1.00  0.00     0.111 A 
ATOM     23  O   UNL     1       0.339  44.719  81.807  1.00  0.00    -0.456 OA
ATOM     24  C   UNL     1      -0.967  44.440  79.411  1.00  0.00     0.197 A 
ATOM     25  C   UNL     1       0.598  43.641  81.073  1.00  0.00     0.138 A 
ATOM     26  C   UNL     1      -0.058  43.474  79.845  1.00  0.00     0.100 A 
ATOM     27  O   UNL     1      -1.491  44.294  78.274  1.00  0.00    -0.289 OA
BRANCH  18  28
ATOM     28  O   UNL     1      -3.157  48.767  80.394  1.00  0.00    -0.502 OA
ATOM     29  H   UNL     1      -3.992  49.011  80.913  1.00  0.00     0.293 HD
ENDBRANCH  18  28
BRANCH  20  30
ATOM     30  O   UNL     1      -3.023  46.539  78.786  1.00  0.00    -0.504 OA
ATOM     31  H   UNL     1      -3.931  46.973  78.722  1.00  0.00     0.293 HD
ENDBRANCH  20  30
BRANCH  25  32
ATOM     32  C   UNL     1       1.570  42.641  81.592  1.00  0.00     0.017 A 
ATOM     33  C   UNL     1       1.658  41.339  81.058  1.00  0.00     0.012 A 
ATOM     34  C   UNL     1       2.443  43.005  82.636  1.00  0.00     0.012 A 
ATOM     35  C   UNL     1       2.580  40.422  81.576  1.00  0.00     0.001 A 
ATOM     36  C   UNL     1       3.367  42.086  83.144  1.00  0.00     0.001 A 
ATOM     37  C   UNL     1       3.430  40.794  82.618  1.00  0.00     0.000 A 
ENDBRANCH  25  32
ENDBRANCH   1  17
TORSDOF 9
ENDMDL
MODEL 2
REMARK VINA RESULT:    -6.931      2.846      8.356
REMARK INTER + INTRA:         -10.603
REMARK INTER:                  -9.444
REMARK INTRA:                  -1.159
REMARK UNBOUND:                -1.039
REMARK SMILES O=C([O-])[C@@H]1O[C@H](Oc2cc3oc(-c4ccccc4)cc(=O)c3c(O)c2O)[C@@H](O)[C@@H](O)[C@H]1O
REMARK SMILES IDX 7 1 6 2 4 3 31 4 5 5 29 6 27 7 2 8 1 9 3 10 32 11 30 13
REMARK SMILES IDX 28 15 8 17 25 18 9 19 23 20 10 21 22 22 11 23 20 24 12 25
REMARK SMILES IDX 19 26 21 27 26 28 24 30 13 32 14 33 18 34 15 35 17 36 16 37
REMARK H PARENT 32 12 30 14 28 16 26 29 24 31
REMARK Flexibility Score: inf
ROOT
ATOM      1  O   UNL     1       2.112  43.214  82.778  1.00  0.00    -0.458 OA
ENDROOT
BRANCH   1   2
ATOM      2  C   UNL     1       2.559  43.045  84.129  1.00  0.00     0.339 C 
ATOM      3  C   UNL     1       2.729  40.667  83.998  1.00  0.00     0.199 C 
ATOM      4  C   UNL     1       4.279  40.709  84.029  1.00  0.00     0.180 C 
ATOM      5  O   UNL     1       2.136  41.787  84.648  1.00  0.00    -0.328 OA
ATOM      6  C   UNL     1       4.803  42.067  83.510  1.00  0.00     0.181 C 
ATOM      7  C   UNL     1       4.091  43.226  84.221  1.00  0.00     0.214 C 
BRANCH   3   8
ATOM      8  C   UNL     1       2.134  40.432  82.629  1.00  0.00     0.073 C 
ATOM      9  O   UNL     1       2.898  40.197  81.654  1.00  0.00    -0.547 OA
ATOM     10  O   UNL     1       0.756  40.479  82.420  1.00  0.00    -0.547 OA
ENDBRANCH   3   8
BRANCH   4  11
ATOM     11  O   UNL     1       4.714  40.491  85.351  1.00  0.00    -0.387 OA
ATOM     12  H   UNL     1       3.953  40.085  85.848  1.00  0.00     0.211 HD
ENDBRANCH   4  11
BRANCH   6  13
ATOM     13  O   UNL     1       6.192  42.174  83.710  1.00  0.00    -0.387 OA
ATOM     14  H   UNL     1       6.600  42.331  82.818  1.00  0.00     0.211 HD
ENDBRANCH   6  13
BRANCH   7  15
ATOM     15  O   UNL     1       4.491  43.282  85.568  1.00  0.00    -0.384 OA
ATOM     16  H   UNL     1       3.720  42.967  86.110  1.00  0.00     0.211 HD
ENDBRANCH   7  15
ENDBRANCH   1   2
BRANCH   1  17
ATOM     17  C   UNL     1       1.266  44.240  82.329  1.00  0.00     0.172 A 
ATOM     18  C   UNL     1       0.453  44.113  81.186  1.00  0.00     0.201 A 
ATOM     19  C   UNL     1       1.233  45.419  83.071  1.00  0.00     0.098 A 
ATOM     20  C   UNL     1      -0.335  45.199  80.748  1.00  0.00     0.176 A 
ATOM     21  C   UNL     1       0.430  46.491  82.680  1.00  0.00     0.146 A 
ATOM     22  C   UNL     1      -0.381  46.400  81.520  1.00  0.00     0.111 A 
ATOM     23  O   UNL     1       0.444  47.596  83.419  1.00  0.00    -0.456 OA
ATOM     24  C   UNL     1      -1.210  47.513  81.233  1.00  0.00     0.197 A 
ATOM     25  C   UNL     1      -0.294  48.669  83.151  1.00  0.00     0.138 A 
ATOM     26  C   UNL     1      -1.146  48.652  82.038  1.00  0.00     0.100 A 
ATOM     27  O   UNL     1      -2.033  47.506  80.279  1.00  0.00    -0.289 OA
BRANCH  18  28
ATOM     28  O   UNL     1       0.421  42.900  80.495  1.00  0.00    -0.502 OA
ATOM     29  H   UNL     1       0.413  42.001  80.962  1.00  0.00     0.293 HD
ENDBRANCH  18  28
BRANCH  20  30
ATOM     30  O   UNL     1      -1.026  45.037  79.542  1.00  0.00    -0.504 OA
ATOM     31  H   UNL     1      -1.678  44.293  79.346  1.00  0.00     0.293 HD
ENDBRANCH  20  30
BRANCH  25  32
ATOM     32  C   UNL     1      -0.176  49.856  84.039  1.00  0.00     0.017 A 
ATOM     33  C   UNL     1      -0.943  51.021  83.831  1.00  0.00     0.012 A 
ATOM     34  C   UNL     1       0.712  49.815  85.132  1.00  0.00     0.012 A 
ATOM     35  C   UNL     1      -0.800  52.123  84.683  1.00  0.00     0.001 A 
ATOM     36  C   UNL     1       0.843  50.917  85.983  1.00  0.00     0.001 A 
ATOM     37  C   UNL     1       0.092  52.072  85.755  1.00  0.00     0.000 A 
ENDBRANCH  25  32
ENDBRANCH   1  17
TORSDOF 9
ENDMDL
MODEL 3
REMARK VINA RESULT:    -6.901      1.023      1.716
REMARK INTER + INTRA:         -10.562
REMARK INTER:                 -10.007
REMARK INTRA:                  -0.556
REMARK UNBOUND:                -1.039
REMARK SMILES O=C([O-])[C@@H]1O[C@H](Oc2cc3oc(-c4ccccc4)cc(=O)c3c(O)c2O)[C@@H](O)[C@@H](O)[C@H]1O
REMARK SMILES IDX 7 1 6 2 4 3 31 4 5 5 29 6 27 7 2 8 1 9 3 10 32 11 30 13
REMARK SMILES IDX 28 15 8 17 25 18 9 19 23 20 10 21 22 22 11 23 20 24 12 25
REMARK SMILES IDX 19 26 21 27 26 28 24 30 13 32 14 33 18 34 15 35 17 36 16 37
REMARK H PARENT 32 12 30 14 28 16 26 29 24 31
REMARK Flexibility Score: inf
ROOT
ATOM      1  O   UNL     1      -1.545  49.180  82.794  1.00  0.00    -0.458 OA
ENDROOT
BRANCH   1   2
ATOM      2  C   UNL     1      -0.620  50.181  83.236  1.00  0.00     0.339 C 
ATOM      3  C   UNL     1      -2.262  51.504  84.356  1.00  0.00     0.199 C 
ATOM      4  C   UNL     1      -1.719  51.112  85.755  1.00  0.00     0.180 C 
ATOM      5  O   UNL     1      -1.261  51.449  83.344  1.00  0.00    -0.328 OA
ATOM      6  C   UNL     1      -0.978  49.757  85.699  1.00  0.00     0.181 C 
ATOM      7  C   UNL     1       0.051  49.754  84.560  1.00  0.00     0.214 C 
BRANCH   3   8
ATOM      8  C   UNL     1      -3.519  50.775  83.943  1.00  0.00     0.073 C 
ATOM      9  O   UNL     1      -4.087  51.086  82.862  1.00  0.00    -0.547 OA
ATOM     10  O   UNL     1      -4.069  49.770  84.738  1.00  0.00    -0.547 OA
ENDBRANCH   3   8
BRANCH   4  11
ATOM     11  O   UNL     1      -0.850  52.125  86.206  1.00  0.00    -0.387 OA
ATOM     12  H   UNL     1      -0.428  52.531  85.402  1.00  0.00     0.211 HD
ENDBRANCH   4  11
BRANCH   6  13
ATOM     13  O   UNL     1      -0.332  49.492  86.919  1.00  0.00    -0.387 OA
ATOM     14  H   UNL     1      -0.494  50.274  87.508  1.00  0.00     0.211 HD
ENDBRANCH   6  13
BRANCH   7  15
ATOM     15  O   UNL     1       1.111  50.625  84.868  1.00  0.00    -0.384 OA
ATOM     16  H   UNL     1       1.918  50.061  85.003  1.00  0.00     0.211 HD
ENDBRANCH   7  15
ENDBRANCH   1   2
BRANCH   1  17
ATOM     17  C   UNL     1      -1.192  47.960  82.198  1.00  0.00     0.172 A 
ATOM     18  C   UNL     1      -1.797  47.482  81.020  1.00  0.00     0.201 A 
ATOM     19  C   UNL     1      -0.184  47.213  82.806  1.00  0.00     0.098 A 
ATOM     20  C   UNL     1      -1.443  46.219  80.497  1.00  0.00     0.176 A 
ATOM     21  C   UNL     1       0.212  45.982  82.283  1.00  0.00     0.146 A 
ATOM     22  C   UNL     1      -0.397  45.465  81.112  1.00  0.00     0.111 A 
ATOM     23  O   UNL     1       1.172  45.307  82.910  1.00  0.00    -0.456 OA
ATOM     24  C   UNL     1       0.110  44.236  80.618  1.00  0.00     0.197 A 
ATOM     25  C   UNL     1       1.639  44.135  82.491  1.00  0.00     0.138 A 
ATOM     26  C   UNL     1       1.111  43.565  81.323  1.00  0.00     0.100 A 
ATOM     27  O   UNL     1      -0.297  43.731  79.539  1.00  0.00    -0.289 OA
BRANCH  18  28
ATOM     28  O   UNL     1      -2.744  48.271  80.363  1.00  0.00    -0.502 OA
ATOM     29  H   UNL     1      -2.556  48.736  79.484  1.00  0.00     0.293 HD
ENDBRANCH  18  28
BRANCH  20  30
ATOM     30  O   UNL     1      -2.169  45.762  79.392  1.00  0.00    -0.504 OA
ATOM     31  H   UNL     1      -2.091  46.132  78.457  1.00  0.00     0.293 HD
ENDBRANCH  20  30
BRANCH  25  32
ATOM     32  C   UNL     1       2.699  43.463  83.288  1.00  0.00     0.017 A 
ATOM     33  C   UNL     1       3.074  43.921  84.568  1.00  0.00     0.012 A 
ATOM     34  C   UNL     1       3.340  42.322  82.763  1.00  0.00     0.012 A 
ATOM     35  C   UNL     1       4.082  43.268  85.287  1.00  0.00     0.001 A 
ATOM     36  C   UNL     1       4.340  41.671  83.491  1.00  0.00     0.001 A 
ATOM     37  C   UNL     1       4.715  42.147  84.749  1.00  0.00     0.000 A 
ENDBRANCH  25  32
ENDBRANCH   1  17
TORSDOF 9
ENDMDL
MODEL 4
REMARK VINA RESULT:    -6.729      3.654      8.329
REMARK INTER + INTRA:         -10.325
REMARK INTER:                  -9.426
REMARK INTRA:                  -0.899
REMARK UNBOUND:                -1.039
REMARK SMILES O=C([O-])[C@@H]1O[C@H](Oc2cc3oc(-c4ccccc4)cc(=O)c3c(O)c2O)[C@@H](O)[C@@H](O)[C@H]1O
REMARK SMILES IDX 7 1 6 2 4 3 31 4 5 5 29 6 27 7 2 8 1 9 3 10 32 11 30 13
REMARK SMILES IDX 28 15 8 17 25 18 9 19 23 20 10 21 22 22 11 23 20 24 12 25
REMARK SMILES IDX 19 26 21 27 26 28 24 30 13 32 14 33 18 34 15 35 17 36 16 37
REMARK H PARENT 32 12 30 14 28 16 26 29 24 31
REMARK Flexibility Score: inf
ROOT
ATOM      1  O   UNL     1       3.315  43.407  83.726  1.00  0.00    -0.458 OA
ENDROOT
BRANCH   1   2
ATOM      2  C   UNL     1       3.201  41.979  83.699  1.00  0.00     0.339 C 
ATOM      3  C   UNL     1       5.495  41.574  84.221  1.00  0.00     0.199 C 
ATOM      4  C   UNL     1       5.150  41.065  85.644  1.00  0.00     0.180 C 
ATOM      5  O   UNL     1       4.429  41.381  83.295  1.00  0.00    -0.328 OA
ATOM      6  C   UNL     1       3.804  41.651  86.128  1.00  0.00     0.181 C 
ATOM      7  C   UNL     1       2.715  41.447  85.065  1.00  0.00     0.214 C 
BRANCH   3   8
ATOM      8  C   UNL     1       6.032  42.985  84.172  1.00  0.00     0.073 C 
ATOM      9  O   UNL     1       6.340  43.492  83.059  1.00  0.00    -0.547 OA
ATOM     10  O   UNL     1       6.205  43.736  85.334  1.00  0.00    -0.547 OA
ENDBRANCH   3   8
BRANCH   4  11
ATOM     11  O   UNL     1       5.089  39.657  85.622  1.00  0.00    -0.387 OA
ATOM     12  H   UNL     1       5.818  39.340  85.024  1.00  0.00     0.211 HD
ENDBRANCH   4  11
BRANCH   6  13
ATOM     13  O   UNL     1       3.403  41.049  87.334  1.00  0.00    -0.387 OA
ATOM     14  H   UNL     1       3.777  40.129  87.336  1.00  0.00     0.211 HD
ENDBRANCH   6  13
BRANCH   7  15
ATOM     15  O   UNL     1       2.392  40.081  84.965  1.00  0.00    -0.384 OA
ATOM     16  H   UNL     1       1.872  39.848  85.779  1.00  0.00     0.211 HD
ENDBRANCH   7  15
ENDBRANCH   1   2
BRANCH   1  17
ATOM     17  C   UNL     1       2.282  44.307  83.422  1.00  0.00     0.172 A 
ATOM     18  C   UNL     1       1.758  45.214  84.364  1.00  0.00     0.201 A 
ATOM     19  C   UNL     1       1.779  44.297  82.122  1.00  0.00     0.098 A 
ATOM     20  C   UNL     1       0.679  46.056  84.019  1.00  0.00     0.176 A 
ATOM     21  C   UNL     1       0.741  45.150  81.747  1.00  0.00     0.146 A 
ATOM     22  C   UNL     1       0.178  46.056  82.681  1.00  0.00     0.111 A 
ATOM     23  O   UNL     1       0.294  45.092  80.496  1.00  0.00    -0.456 OA
ATOM     24  C   UNL     1      -0.830  46.927  82.197  1.00  0.00     0.197 A 
ATOM     25  C   UNL     1      -0.677  45.869  80.027  1.00  0.00     0.138 A 
ATOM     26  C   UNL     1      -1.269  46.814  80.876  1.00  0.00     0.100 A 
ATOM     27  O   UNL     1      -1.336  47.829  82.916  1.00  0.00    -0.289 OA
BRANCH  18  28
ATOM     28  O   UNL     1       2.321  45.283  85.640  1.00  0.00    -0.502 OA
ATOM     29  H   UNL     1       3.318  45.217  85.804  1.00  0.00     0.293 HD
ENDBRANCH  18  28
BRANCH  20  30
ATOM     30  O   UNL     1       0.138  46.845  85.040  1.00  0.00    -0.504 OA
ATOM     31  H   UNL     1      -0.296  47.745  84.904  1.00  0.00     0.293 HD
ENDBRANCH  20  30
BRANCH  25  32
ATOM     32  C   UNL     1      -1.109  45.696  78.614  1.00  0.00     0.017 A 
ATOM     33  C   UNL     1      -1.897  44.602  78.203  1.00  0.00     0.012 A 
ATOM     34  C   UNL     1      -0.739  46.661  77.656  1.00  0.00     0.012 A 
ATOM     35  C   UNL     1      -2.280  44.468  76.863  1.00  0.00     0.001 A 
ATOM     36  C   UNL     1      -1.131  46.524  76.320  1.00  0.00     0.001 A 
ATOM     37  C   UNL     1      -1.895  45.425  75.924  1.00  0.00     0.000 A 
ENDBRANCH  25  32
ENDBRANCH   1  17
TORSDOF 9
ENDMDL
MODEL 5
REMARK VINA RESULT:    -6.694      2.957      8.395
REMARK INTER + INTRA:         -10.277
REMARK INTER:                  -9.368
REMARK INTRA:                  -0.909
REMARK UNBOUND:                -1.039
REMARK SMILES O=C([O-])[C@@H]1O[C@H](Oc2cc3oc(-c4ccccc4)cc(=O)c3c(O)c2O)[C@@H](O)[C@@H](O)[C@H]1O
REMARK SMILES IDX 7 1 6 2 4 3 31 4 5 5 29 6 27 7 2 8 1 9 3 10 32 11 30 13
REMARK SMILES IDX 28 15 8 17 25 18 9 19 23 20 10 21 22 22 11 23 20 24 12 25
REMARK SMILES IDX 19 26 21 27 26 28 24 30 13 32 14 33 18 34 15 35 17 36 16 37
REMARK H PARENT 32 12 30 14 28 16 26 29 24 31
REMARK Flexibility Score: inf
ROOT
ATOM      1  O   UNL     1       1.623  42.920  83.257  1.00  0.00    -0.458 OA
ENDROOT
BRANCH   1   2
ATOM      2  C   UNL     1       2.815  42.315  82.743  1.00  0.00     0.339 C 
ATOM      3  C   UNL     1       3.900  42.150  84.863  1.00  0.00     0.199 C 
ATOM      4  C   UNL     1       3.743  40.608  84.899  1.00  0.00     0.180 C 
ATOM      5  O   UNL     1       3.945  42.668  83.537  1.00  0.00    -0.328 OA
ATOM      6  C   UNL     1       2.552  40.156  84.024  1.00  0.00     0.181 C 
ATOM      7  C   UNL     1       2.641  40.784  82.627  1.00  0.00     0.214 C 
BRANCH   3   8
ATOM      8  C   UNL     1       2.914  42.902  85.726  1.00  0.00     0.073 C 
ATOM      9  O   UNL     1       3.034  44.150  85.859  1.00  0.00    -0.547 OA
ATOM     10  O   UNL     1       1.878  42.242  86.387  1.00  0.00    -0.547 OA
ENDBRANCH   3   8
BRANCH   4  11
ATOM     11  O   UNL     1       4.937  40.018  84.439  1.00  0.00    -0.387 OA
ATOM     12  H   UNL     1       5.173  40.461  83.580  1.00  0.00     0.211 HD
ENDBRANCH   4  11
BRANCH   6  13
ATOM     13  O   UNL     1       2.522  38.754  83.909  1.00  0.00    -0.387 OA
ATOM     14  H   UNL     1       2.361  38.546  82.952  1.00  0.00     0.211 HD
ENDBRANCH   6  13
BRANCH   7  15
ATOM     15  O   UNL     1       3.720  40.227  81.917  1.00  0.00    -0.384 OA
ATOM     16  H   UNL     1       3.704  40.628  81.008  1.00  0.00     0.211 HD
ENDBRANCH   7  15
ENDBRANCH   1   2
BRANCH   1  17
ATOM     17  C   UNL     1       0.974  44.032  82.698  1.00  0.00     0.172 A 
ATOM     18  C   UNL     1       0.309  43.983  81.458  1.00  0.00     0.201 A 
ATOM     19  C   UNL     1       0.987  45.221  83.426  1.00  0.00     0.098 A 
ATOM     20  C   UNL     1      -0.277  45.147  80.916  1.00  0.00     0.176 A 
ATOM     21  C   UNL     1       0.379  46.373  82.930  1.00  0.00     0.146 A 
ATOM     22  C   UNL     1      -0.277  46.359  81.673  1.00  0.00     0.111 A 
ATOM     23  O   UNL     1       0.431  47.482  83.662  1.00  0.00    -0.456 OA
ATOM     24  C   UNL     1      -0.920  47.559  81.276  1.00  0.00     0.197 A 
ATOM     25  C   UNL     1      -0.130  48.631  83.296  1.00  0.00     0.138 A 
ATOM     26  C   UNL     1      -0.824  48.697  82.079  1.00  0.00     0.100 A 
ATOM     27  O   UNL     1      -1.606  47.633  80.222  1.00  0.00    -0.289 OA
BRANCH  18  28
ATOM     28  O   UNL     1       0.221  42.770  80.771  1.00  0.00    -0.502 OA
ATOM     29  H   UNL     1      -0.115  41.918  81.203  1.00  0.00     0.293 HD
ENDBRANCH  18  28
BRANCH  20  30
ATOM     30  O   UNL     1      -0.818  45.048  79.630  1.00  0.00    -0.504 OA
ATOM     31  H   UNL     1      -1.177  45.823  79.094  1.00  0.00     0.293 HD
ENDBRANCH  20  30
BRANCH  25  32
ATOM     32  C   UNL     1       0.014  49.812  84.188  1.00  0.00     0.017 A 
ATOM     33  C   UNL     1       0.905  49.817  85.281  1.00  0.00     0.012 A 
ATOM     34  C   UNL     1      -0.746  50.970  83.929  1.00  0.00     0.012 A 
ATOM     35  C   UNL     1       1.009  50.944  86.105  1.00  0.00     0.001 A 
ATOM     36  C   UNL     1      -0.631  52.094  84.752  1.00  0.00     0.001 A 
ATOM     37  C   UNL     1       0.241  52.078  85.843  1.00  0.00     0.000 A 
ENDBRANCH  25  32
ENDBRANCH   1  17
TORSDOF 9
ENDMDL
MODEL 6
REMARK VINA RESULT:    -6.556      3.383      8.041
REMARK INTER + INTRA:         -10.086
REMARK INTER:                  -8.920
REMARK INTRA:                  -1.166
REMARK UNBOUND:                -1.039
REMARK SMILES O=C([O-])[C@@H]1O[C@H](Oc2cc3oc(-c4ccccc4)cc(=O)c3c(O)c2O)[C@@H](O)[C@@H](O)[C@H]1O
REMARK SMILES IDX 7 1 6 2 4 3 31 4 5 5 29 6 27 7 2 8 1 9 3 10 32 11 30 13
REMARK SMILES IDX 28 15 8 17 25 18 9 19 23 20 10 21 22 22 11 23 20 24 12 25
REMARK SMILES IDX 19 26 21 27 26 28 24 30 13 32 14 33 18 34 15 35 17 36 16 37
REMARK H PARENT 32 12 30 14 28 16 26 29 24 31
REMARK Flexibility Score: inf
ROOT
ATOM      1  O   UNL     1       1.833  42.904  83.537  1.00  0.00    -0.458 OA
ENDROOT
BRANCH   1   2
ATOM      2  C   UNL     1       2.988  42.235  83.018  1.00  0.00     0.339 C 
ATOM      3  C   UNL     1       3.988  41.854  85.152  1.00  0.00     0.199 C 
ATOM      4  C   UNL     1       3.707  40.331  85.087  1.00  0.00     0.180 C 
ATOM      5  O   UNL     1       4.117  42.446  83.863  1.00  0.00    -0.328 OA
ATOM      6  C   UNL     1       2.512  40.032  84.154  1.00  0.00     0.181 C 
ATOM      7  C   UNL     1       2.696  40.734  82.802  1.00  0.00     0.214 C 
BRANCH   3   8
ATOM      8  C   UNL     1       3.038  42.632  86.034  1.00  0.00     0.073 C 
ATOM      9  O   UNL     1       3.171  43.881  86.136  1.00  0.00    -0.547 OA
ATOM     10  O   UNL     1       2.023  41.993  86.745  1.00  0.00    -0.547 OA
ENDBRANCH   3   8
BRANCH   4  11
ATOM     11  O   UNL     1       4.863  39.674  84.624  1.00  0.00    -0.387 OA
ATOM     12  H   UNL     1       4.813  38.732  84.940  1.00  0.00     0.211 HD
ENDBRANCH   4  11
BRANCH   6  13
ATOM     13  O   UNL     1       2.373  38.647  83.950  1.00  0.00    -0.387 OA
ATOM     14  H   UNL     1       2.227  38.511  82.978  1.00  0.00     0.211 HD
ENDBRANCH   6  13
BRANCH   7  15
ATOM     15  O   UNL     1       3.749  40.134  82.088  1.00  0.00    -0.384 OA
ATOM     16  H   UNL     1       3.364  39.798  81.235  1.00  0.00     0.211 HD
ENDBRANCH   7  15
ENDBRANCH   1   2
BRANCH   1  17
ATOM     17  C   UNL     1       1.102  43.896  82.864  1.00  0.00     0.172 A 
ATOM     18  C   UNL     1       0.906  45.188  83.389  1.00  0.00     0.201 A 
ATOM     19  C   UNL     1       0.571  43.572  81.617  1.00  0.00     0.098 A 
ATOM     20  C   UNL     1       0.113  46.127  82.695  1.00  0.00     0.176 A 
ATOM     21  C   UNL     1      -0.180  44.497  80.894  1.00  0.00     0.146 A 
ATOM     22  C   UNL     1      -0.414  45.798  81.409  1.00  0.00     0.111 A 
ATOM     23  O   UNL     1      -0.671  44.131  79.713  1.00  0.00    -0.456 OA
ATOM     24  C   UNL     1      -1.137  46.692  80.579  1.00  0.00     0.197 A 
ATOM     25  C   UNL     1      -1.385  44.937  78.933  1.00  0.00     0.138 A 
ATOM     26  C   UNL     1      -1.639  46.250  79.354  1.00  0.00     0.100 A 
ATOM     27  O   UNL     1      -1.326  47.896  80.899  1.00  0.00    -0.289 OA
BRANCH  18  28
ATOM     28  O   UNL     1       1.512  45.540  84.598  1.00  0.00    -0.502 OA
ATOM     29  H   UNL     1       2.516  45.550  84.725  1.00  0.00     0.293 HD
ENDBRANCH  18  28
BRANCH  20  30
ATOM     30  O   UNL     1      -0.132  47.348  83.333  1.00  0.00    -0.504 OA
ATOM     31  H   UNL     1       0.537  47.847  83.900  1.00  0.00     0.293 HD
ENDBRANCH  20  30
BRANCH  25  32
ATOM     32  C   UNL     1      -1.901  44.407  77.643  1.00  0.00     0.017 A 
ATOM     33  C   UNL     1      -2.083  45.234  76.515  1.00  0.00     0.012 A 
ATOM     34  C   UNL     1      -2.202  43.035  77.530  1.00  0.00     0.012 A 
ATOM     35  C   UNL     1      -2.578  44.702  75.319  1.00  0.00     0.001 A 
ATOM     36  C   UNL     1      -2.688  42.509  76.329  1.00  0.00     0.001 A 
ATOM     37  C   UNL     1      -2.882  43.344  75.227  1.00  0.00     0.000 A 
ENDBRANCH  25  32
ENDBRANCH   1  17
TORSDOF 9
ENDMDL
MODEL 7
REMARK VINA RESULT:    -6.528      3.250      8.528
REMARK INTER + INTRA:         -10.048
REMARK INTER:                  -9.163
REMARK INTRA:                  -0.885
REMARK UNBOUND:                -1.039
REMARK SMILES O=C([O-])[C@@H]1O[C@H](Oc2cc3oc(-c4ccccc4)cc(=O)c3c(O)c2O)[C@@H](O)[C@@H](O)[C@H]1O
REMARK SMILES IDX 7 1 6 2 4 3 31 4 5 5 29 6 27 7 2 8 1 9 3 10 32 11 30 13
REMARK SMILES IDX 28 15 8 17 25 18 9 19 23 20 10 21 22 22 11 23 20 24 12 25
REMARK SMILES IDX 19 26 21 27 26 28 24 30 13 32 14 33 18 34 15 35 17 36 16 37
REMARK H PARENT 32 12 30 14 28 16 26 29 24 31
REMARK Flexibility Score: inf
ROOT
ATOM      1  O   UNL     1       2.078  42.066  83.433  1.00  0.00    -0.458 OA
ENDROOT
BRANCH   1   2
ATOM      2  C   UNL     1       2.732  42.328  84.681  1.00  0.00     0.339 C 
ATOM      3  C   UNL     1       3.445  40.075  85.021  1.00  0.00     0.199 C 
ATOM      4  C   UNL     1       4.929  40.433  84.751  1.00  0.00     0.180 C 
ATOM      5  O   UNL     1       2.695  41.178  85.522  1.00  0.00    -0.328 OA
ATOM      6  C   UNL     1       5.039  41.698  83.870  1.00  0.00     0.181 C 
ATOM      7  C   UNL     1       4.174  42.829  84.443  1.00  0.00     0.214 C 
BRANCH   3   8
ATOM      8  C   UNL     1       2.742  39.396  83.869  1.00  0.00     0.073 C 
ATOM      9  O   UNL     1       1.562  38.980  84.022  1.00  0.00    -0.547 OA
ATOM     10  O   UNL     1       3.376  39.212  82.641  1.00  0.00    -0.547 OA
ENDBRANCH   3   8
BRANCH   4  11
ATOM     11  O   UNL     1       5.579  40.639  85.983  1.00  0.00    -0.387 OA
ATOM     12  H   UNL     1       5.642  41.622  86.122  1.00  0.00     0.211 HD
ENDBRANCH   4  11
BRANCH   6  13
ATOM     13  O   UNL     1       6.375  42.126  83.778  1.00  0.00    -0.387 OA
ATOM     14  H   UNL     1       6.848  41.474  83.197  1.00  0.00     0.211 HD
ENDBRANCH   6  13
BRANCH   7  15
ATOM     15  O   UNL     1       4.729  43.294  85.649  1.00  0.00    -0.384 OA
ATOM     16  H   UNL     1       5.503  43.869  85.407  1.00  0.00     0.211 HD
ENDBRANCH   7  15
ENDBRANCH   1   2
BRANCH   1  17
ATOM     17  C   UNL     1       1.387  43.018  82.668  1.00  0.00     0.172 A 
ATOM     18  C   UNL     1       0.877  42.741  81.384  1.00  0.00     0.201 A 
ATOM     19  C   UNL     1       1.193  44.280  83.228  1.00  0.00     0.098 A 
ATOM     20  C   UNL     1       0.241  43.754  80.636  1.00  0.00     0.176 A 
ATOM     21  C   UNL     1       0.530  45.284  82.523  1.00  0.00     0.146 A 
ATOM     22  C   UNL     1       0.028  45.041  81.219  1.00  0.00     0.111 A 
ATOM     23  O   UNL     1       0.382  46.472  83.102  1.00  0.00    -0.456 OA
ATOM     24  C   UNL     1      -0.685  46.099  80.603  1.00  0.00     0.197 A 
ATOM     25  C   UNL     1      -0.247  47.494  82.531  1.00  0.00     0.138 A 
ATOM     26  C   UNL     1      -0.800  47.330  81.253  1.00  0.00     0.100 A 
ATOM     27  O   UNL     1      -1.248  45.964  79.484  1.00  0.00    -0.289 OA
BRANCH  18  28
ATOM     28  O   UNL     1       0.995  41.452  80.860  1.00  0.00    -0.502 OA
ATOM     29  H   UNL     1       0.874  41.246  79.876  1.00  0.00     0.293 HD
ENDBRANCH  18  28
BRANCH  20  30
ATOM     30  O   UNL     1      -0.135  43.436  79.326  1.00  0.00    -0.504 OA
ATOM     31  H   UNL     1       0.403  42.863  78.695  1.00  0.00     0.293 HD
ENDBRANCH  20  30
BRANCH  25  32
ATOM     32  C   UNL     1      -0.330  48.783  83.268  1.00  0.00     0.017 A 
ATOM     33  C   UNL     1      -1.109  49.862  82.799  1.00  0.00     0.012 A 
ATOM     34  C   UNL     1       0.372  48.932  84.480  1.00  0.00     0.012 A 
ATOM     35  C   UNL     1      -1.158  51.063  83.516  1.00  0.00     0.001 A 
ATOM     36  C   UNL     1       0.313  50.133  85.194  1.00  0.00     0.001 A 
ATOM     37  C   UNL     1      -0.447  51.200  84.708  1.00  0.00     0.000 A 
ENDBRANCH  25  32
ENDBRANCH   1  17
TORSDOF 9
ENDMDL
MODEL 8
REMARK VINA RESULT:    -6.486      2.195      3.604
REMARK INTER + INTRA:          -9.990
REMARK INTER:                  -8.850
REMARK INTRA:                  -1.140
REMARK UNBOUND:                -1.039
REMARK SMILES O=C([O-])[C@@H]1O[C@H](Oc2cc3oc(-c4ccccc4)cc(=O)c3c(O)c2O)[C@@H](O)[C@@H](O)[C@H]1O
REMARK SMILES IDX 7 1 6 2 4 3 31 4 5 5 29 6 27 7 2 8 1 9 3 10 32 11 30 13
REMARK SMILES IDX 28 15 8 17 25 18 9 19 23 20 10 21 22 22 11 23 20 24 12 25
REMARK SMILES IDX 19 26 21 27 26 28 24 30 13 32 14 33 18 34 15 35 17 36 16 37
REMARK H PARENT 32 12 30 14 28 16 26 29 24 31
REMARK Flexibility Score: inf
ROOT
ATOM      1  O   UNL     1      -0.386  46.761  83.024  1.00  0.00    -0.458 OA
ENDROOT
BRANCH   1   2
ATOM      2  C   UNL     1       0.373  47.888  83.477  1.00  0.00     0.339 C 
ATOM      3  C   UNL     1      -1.328  49.493  82.997  1.00  0.00     0.199 C 
ATOM      4  C   UNL     1      -1.621  49.732  84.501  1.00  0.00     0.180 C 
ATOM      5  O   UNL     1       0.010  49.064  82.759  1.00  0.00    -0.328 OA
ATOM      6  C   UNL     1      -1.213  48.502  85.343  1.00  0.00     0.181 C 
ATOM      7  C   UNL     1       0.220  48.068  85.004  1.00  0.00     0.214 C 
BRANCH   3   8
ATOM      8  C   UNL     1      -2.334  48.613  82.293  1.00  0.00     0.073 C 
ATOM      9  O   UNL     1      -2.174  48.346  81.071  1.00  0.00    -0.547 OA
ATOM     10  O   UNL     1      -3.441  48.098  82.965  1.00  0.00    -0.547 OA
ENDBRANCH   3   8
BRANCH   4  11
ATOM     11  O   UNL     1      -0.911  50.871  84.928  1.00  0.00    -0.387 OA
ATOM     12  H   UNL     1      -0.818  51.472  84.140  1.00  0.00     0.211 HD
ENDBRANCH   4  11
BRANCH   6  13
ATOM     13  O   UNL     1      -1.306  48.785  86.717  1.00  0.00    -0.387 OA
ATOM     14  H   UNL     1      -2.170  49.254  86.857  1.00  0.00     0.211 HD
ENDBRANCH   6  13
BRANCH   7  15
ATOM     15  O   UNL     1       1.136  49.028  85.472  1.00  0.00    -0.384 OA
ATOM     16  H   UNL     1       0.947  49.158  86.439  1.00  0.00     0.211 HD
ENDBRANCH   7  15
ENDBRANCH   1   2
BRANCH   1  17
ATOM     17  C   UNL     1       0.157  45.539  82.598  1.00  0.00     0.172 A 
ATOM     18  C   UNL     1      -0.118  44.980  81.335  1.00  0.00     0.201 A 
ATOM     19  C   UNL     1       1.018  44.875  83.471  1.00  0.00     0.098 A 
ATOM     20  C   UNL     1       0.410  43.720  80.982  1.00  0.00     0.176 A 
ATOM     21  C   UNL     1       1.585  43.649  83.127  1.00  0.00     0.146 A 
ATOM     22  C   UNL     1       1.305  43.051  81.872  1.00  0.00     0.111 A 
ATOM     23  O   UNL     1       2.391  43.055  84.003  1.00  0.00    -0.456 OA
ATOM     24  C   UNL     1       1.973  41.834  81.582  1.00  0.00     0.197 A 
ATOM     25  C   UNL     1       2.998  41.895  83.773  1.00  0.00     0.138 A 
ATOM     26  C   UNL     1       2.800  41.250  82.544  1.00  0.00     0.100 A 
ATOM     27  O   UNL     1       1.867  41.263  80.465  1.00  0.00    -0.289 OA
BRANCH  18  28
ATOM     28  O   UNL     1      -0.910  45.687  80.427  1.00  0.00    -0.502 OA
ATOM     29  H   UNL     1      -1.134  46.668  80.541  1.00  0.00     0.293 HD
ENDBRANCH  18  28
BRANCH  20  30
ATOM     30  O   UNL     1      -0.001  43.177  79.760  1.00  0.00    -0.504 OA
ATOM     31  H   UNL     1      -0.253  43.716  78.945  1.00  0.00     0.293 HD
ENDBRANCH  20  30
BRANCH  25  32
ATOM     32  C   UNL     1       3.860  41.318  84.838  1.00  0.00     0.017 A 
ATOM     33  C   UNL     1       4.115  42.002  86.045  1.00  0.00     0.012 A 
ATOM     34  C   UNL     1       4.427  40.041  84.652  1.00  0.00     0.012 A 
ATOM     35  C   UNL     1       4.937  41.430  87.023  1.00  0.00     0.001 A 
ATOM     36  C   UNL     1       5.241  39.473  85.637  1.00  0.00     0.001 A 
ATOM     37  C   UNL     1       5.500  40.171  86.819  1.00  0.00     0.000 A 
ENDBRANCH  25  32
ENDBRANCH   1  17
TORSDOF 9
ENDMDL
MODEL 9
REMARK VINA RESULT:    -6.426      3.607      8.729
REMARK INTER + INTRA:          -9.906
REMARK INTER:                  -8.692
REMARK INTRA:                  -1.215
REMARK UNBOUND:                -1.039
REMARK SMILES O=C([O-])[C@@H]1O[C@H](Oc2cc3oc(-c4ccccc4)cc(=O)c3c(O)c2O)[C@@H](O)[C@@H](O)[C@H]1O
REMARK SMILES IDX 7 1 6 2 4 3 31 4 5 5 29 6 27 7 2 8 1 9 3 10 32 11 30 13
REMARK SMILES IDX 28 15 8 17 25 18 9 19 23 20 10 21 22 22 11 23 20 24 12 25
REMARK SMILES IDX 19 26 21 27 26 28 24 30 13 32 14 33 18 34 15 35 17 36 16 37
REMARK H PARENT 32 12 30 14 28 16 26 29 24 31
REMARK Flexibility Score: inf
ROOT
ATOM      1  O   UNL     1       2.456  43.010  84.547  1.00  0.00    -0.458 OA
ENDROOT
BRANCH   1   2
ATOM      2  C   UNL     1       1.888  42.089  85.486  1.00  0.00     0.339 C 
ATOM      3  C   UNL     1       3.462  40.347  85.052  1.00  0.00     0.199 C 
ATOM      4  C   UNL     1       4.150  40.535  86.428  1.00  0.00     0.180 C 
ATOM      5  O   UNL     1       2.093  40.744  85.063  1.00  0.00    -0.328 OA
ATOM      6  C   UNL     1       3.933  41.969  86.961  1.00  0.00     0.181 C 
ATOM      7  C   UNL     1       2.446  42.345  86.903  1.00  0.00     0.214 C 
BRANCH   3   8
ATOM      8  C   UNL     1       4.211  40.949  83.886  1.00  0.00     0.073 C 
ATOM      9  O   UNL     1       3.745  40.827  82.721  1.00  0.00    -0.547 OA
ATOM     10  O   UNL     1       5.414  41.630  84.073  1.00  0.00    -0.547 OA
ENDBRANCH   3   8
BRANCH   4  11
ATOM     11  O   UNL     1       3.623  39.593  87.334  1.00  0.00    -0.387 OA
ATOM     12  H   UNL     1       3.894  38.691  87.012  1.00  0.00     0.211 HD
ENDBRANCH   4  11
BRANCH   6  13
ATOM     13  O   UNL     1       4.397  42.085  88.284  1.00  0.00    -0.387 OA
ATOM     14  H   UNL     1       3.802  41.524  88.849  1.00  0.00     0.211 HD
ENDBRANCH   6  13
BRANCH   7  15
ATOM     15  O   UNL     1       1.723  41.596  87.850  1.00  0.00    -0.384 OA
ATOM     16  H   UNL     1       2.154  41.753  88.731  1.00  0.00     0.211 HD
ENDBRANCH   7  15
ENDBRANCH   1   2
BRANCH   1  17
ATOM     17  C   UNL     1       1.732  43.945  83.792  1.00  0.00     0.172 A 
ATOM     18  C   UNL     1       1.207  43.655  82.517  1.00  0.00     0.201 A 
ATOM     19  C   UNL     1       1.521  45.203  84.353  1.00  0.00     0.098 A 
ATOM     20  C   UNL     1       0.537  44.653  81.779  1.00  0.00     0.176 A 
ATOM     21  C   UNL     1       0.825  46.192  83.659  1.00  0.00     0.146 A 
ATOM     22  C   UNL     1       0.306  45.936  82.364  1.00  0.00     0.111 A 
ATOM     23  O   UNL     1       0.662  47.378  84.239  1.00  0.00    -0.456 OA
ATOM     24  C   UNL     1      -0.440  46.978  81.758  1.00  0.00     0.197 A 
ATOM     25  C   UNL     1       0.001  48.385  83.676  1.00  0.00     0.138 A 
ATOM     26  C   UNL     1      -0.570  48.207  82.408  1.00  0.00     0.100 A 
ATOM     27  O   UNL     1      -1.019  46.829  80.650  1.00  0.00    -0.289 OA
BRANCH  18  28
ATOM     28  O   UNL     1       1.343  42.368  81.993  1.00  0.00    -0.502 OA
ATOM     29  H   UNL     1       2.237  41.898  81.916  1.00  0.00     0.293 HD
ENDBRANCH  18  28
BRANCH  20  30
ATOM     30  O   UNL     1       0.145  44.325  80.476  1.00  0.00    -0.504 OA
ATOM     31  H   UNL     1      -0.721  43.871  80.231  1.00  0.00     0.293 HD
ENDBRANCH  20  30
BRANCH  25  32
ATOM     32  C   UNL     1      -0.097  49.674  84.413  1.00  0.00     0.017 A 
ATOM     33  C   UNL     1       0.892  50.087  85.328  1.00  0.00     0.012 A 
ATOM     34  C   UNL     1      -1.200  50.520  84.181  1.00  0.00     0.012 A 
ATOM     35  C   UNL     1       0.764  51.303  86.009  1.00  0.00     0.001 A 
ATOM     36  C   UNL     1      -1.318  51.737  84.859  1.00  0.00     0.001 A 
ATOM     37  C   UNL     1      -0.340  52.125  85.777  1.00  0.00     0.000 A 
ENDBRANCH  25  32
ENDBRANCH   1  17
TORSDOF 9
ENDMDL
