MODEL 1
REMARK VINA RESULT:    -4.804      0.000      0.000
REMARK INTER + INTRA:          -8.488
REMARK INTER:                  -7.331
REMARK INTRA:                  -1.157
REMARK UNBOUND:                -1.157
REMARK SMILES OC[C@@H]1O[C@](CO)(O[C@H]2O[C@H](CO)[C@H](O)[C@H](O)[C@H]2O)[C@H](O)[C@@H]1O
REMARK SMILES IDX 8 1 9 2 11 3 14 4 10 5 16 6 18 7 12 8 13 9 15 11 17 13 19 15
REMARK SMILES IDX 5 17 20 18 4 19 22 20 3 21 6 22 7 23 21 25 23 27 2 29 1 30
REMARK H PARENT 13 10 15 12 17 14 19 16 7 24 21 26 23 28 1 31
REMARK Flexibility Score: inf
ROOT
ATOM      1  O   UNL     1      20.267  24.180   9.197  1.00  0.00    -0.313 OA
ENDROOT
BRANCH   1   2
ATOM      2  C   UNL     1      20.235  23.874   7.811  1.00  0.00     0.285 C 
ATOM      3  C   UNL     1      21.417  22.566   6.205  1.00  0.00     0.178 C 
ATOM      4  C   UNL     1      20.319  21.463   6.099  1.00  0.00     0.177 C 
ATOM      5  O   UNL     1      21.435  23.176   7.487  1.00  0.00    -0.341 OA
ATOM      6  C   UNL     1      19.277  21.584   7.234  1.00  0.00     0.179 C 
ATOM      7  C   UNL     1      18.943  23.059   7.498  1.00  0.00     0.202 C 
BRANCH   3   8
ATOM      8  C   UNL     1      21.495  23.596   5.053  1.00  0.00     0.191 C 
BRANCH   8   9
ATOM      9  O   UNL     1      22.606  24.440   5.169  1.00  0.00    -0.394 OA
ATOM     10  H   UNL     1      23.078  24.162   5.997  1.00  0.00     0.210 HD
ENDBRANCH   8   9
ENDBRANCH   3   8
BRANCH   4  11
ATOM     11  O   UNL     1      19.733  21.413   4.817  1.00  0.00    -0.387 OA
ATOM     12  H   UNL     1      20.245  20.773   4.260  1.00  0.00     0.211 HD
ENDBRANCH   4  11
BRANCH   6  13
ATOM     13  O   UNL     1      18.119  20.860   6.898  1.00  0.00    -0.387 OA
ATOM     14  H   UNL     1      18.133  20.025   7.435  1.00  0.00     0.211 HD
ENDBRANCH   6  13
BRANCH   7  15
ATOM     15  O   UNL     1      18.030  23.160   8.564  1.00  0.00    -0.385 OA
ATOM     16  H   UNL     1      18.219  22.408   9.185  1.00  0.00     0.211 HD
ENDBRANCH   7  15
ENDBRANCH   1   2
BRANCH   1  17
ATOM     17  C   UNL     1      20.776  25.479   9.506  1.00  0.00     0.224 C 
ATOM     18  C   UNL     1      22.259  25.402   9.907  1.00  0.00     0.208 C 
ATOM     19  O   UNL     1      20.070  26.113  10.560  1.00  0.00    -0.337 OA
ATOM     20  C   UNL     1      22.417  26.607  10.810  1.00  0.00     0.180 C 
ATOM     21  C   UNL     1      20.989  26.877  11.317  1.00  0.00     0.179 C 
BRANCH  17  22
ATOM     22  C   UNL     1      20.594  26.343   8.240  1.00  0.00     0.225 C 
BRANCH  22  23
ATOM     23  O   UNL     1      21.772  26.354   7.478  1.00  0.00    -0.391 OA
ATOM     24  H   UNL     1      21.741  25.539   6.914  1.00  0.00     0.210 HD
ENDBRANCH  22  23
ENDBRANCH  17  22
BRANCH  18  25
ATOM     25  O   UNL     1      22.515  24.212  10.612  1.00  0.00    -0.385 OA
ATOM     26  H   UNL     1      21.963  23.502  10.191  1.00  0.00     0.211 HD
ENDBRANCH  18  25
BRANCH  20  27
ATOM     27  O   UNL     1      23.337  26.384  11.850  1.00  0.00    -0.387 OA
ATOM     28  H   UNL     1      23.359  25.403  12.000  1.00  0.00     0.211 HD
ENDBRANCH  20  27
BRANCH  21  29
ATOM     29  C   UNL     1      20.775  26.599  12.812  1.00  0.00     0.191 C 
BRANCH  29  30
ATOM     30  O   UNL     1      21.012  25.250  13.102  1.00  0.00    -0.394 OA
ATOM     31  H   UNL     1      21.991  25.119  13.019  1.00  0.00     0.210 HD
ENDBRANCH  29  30
ENDBRANCH  21  29
ENDBRANCH   1  17
TORSDOF 13
ENDMDL
MODEL 2
REMARK VINA RESULT:    -4.786      1.454      2.440
REMARK INTER + INTRA:          -8.462
REMARK INTER:                  -6.719
REMARK INTRA:                  -1.743
REMARK UNBOUND:                -1.157
REMARK SMILES OC[C@@H]1O[C@](CO)(O[C@H]2O[C@H](CO)[C@H](O)[C@H](O)[C@H]2O)[C@H](O)[C@@H]1O
REMARK SMILES IDX 8 1 9 2 11 3 14 4 10 5 16 6 18 7 12 8 13 9 15 11 17 13 19 15
REMARK SMILES IDX 5 17 20 18 4 19 22 20 3 21 6 22 7 23 21 25 23 27 2 29 1 30
REMARK H PARENT 13 10 15 12 17 14 19 16 7 24 21 26 23 28 1 31
REMARK Flexibility Score: inf
ROOT
ATOM      1  O   UNL     1      20.719  24.028   9.333  1.00  0.00    -0.313 OA
ENDROOT
BRANCH   1   2
ATOM      2  C   UNL     1      20.537  23.834   7.938  1.00  0.00     0.285 C 
ATOM      3  C   UNL     1      21.516  22.643   6.119  1.00  0.00     0.178 C 
ATOM      4  C   UNL     1      20.389  21.568   6.043  1.00  0.00     0.177 C 
ATOM      5  O   UNL     1      21.680  23.148   7.436  1.00  0.00    -0.341 OA
ATOM      6  C   UNL     1      19.474  21.611   7.288  1.00  0.00     0.179 C 
ATOM      7  C   UNL     1      19.201  23.065   7.700  1.00  0.00     0.202 C 
BRANCH   3   8
ATOM      8  C   UNL     1      21.496  23.761   5.049  1.00  0.00     0.191 C 
BRANCH   8   9
ATOM      9  O   UNL     1      22.698  24.479   5.010  1.00  0.00    -0.394 OA
ATOM     10  H   UNL     1      23.365  23.879   4.585  1.00  0.00     0.210 HD
ENDBRANCH   8   9
ENDBRANCH   3   8
BRANCH   4  11
ATOM     11  O   UNL     1      19.672  21.629   4.831  1.00  0.00    -0.387 OA
ATOM     12  H   UNL     1      19.113  22.448   4.835  1.00  0.00     0.211 HD
ENDBRANCH   4  11
BRANCH   6  13
ATOM     13  O   UNL     1      18.271  20.933   7.020  1.00  0.00    -0.387 OA
ATOM     14  H   UNL     1      18.006  20.471   7.858  1.00  0.00     0.211 HD
ENDBRANCH   6  13
BRANCH   7  15
ATOM     15  O   UNL     1      18.406  23.093   8.861  1.00  0.00    -0.385 OA
ATOM     16  H   UNL     1      17.506  22.758   8.608  1.00  0.00     0.211 HD
ENDBRANCH   7  15
ENDBRANCH   1   2
BRANCH   1  17
ATOM     17  C   UNL     1      20.532  25.375   9.773  1.00  0.00     0.224 C 
ATOM     18  C   UNL     1      19.943  25.405  11.194  1.00  0.00     0.208 C 
ATOM     19  O   UNL     1      19.669  26.118   8.927  1.00  0.00    -0.337 OA
ATOM     20  C   UNL     1      19.202  26.725  11.214  1.00  0.00     0.180 C 
ATOM     21  C   UNL     1      18.917  27.008   9.728  1.00  0.00     0.179 C 
BRANCH  17  22
ATOM     22  C   UNL     1      21.917  26.054   9.739  1.00  0.00     0.225 C 
BRANCH  22  23
ATOM     23  O   UNL     1      22.890  25.216  10.302  1.00  0.00    -0.391 OA
ATOM     24  H   UNL     1      23.418  24.859   9.542  1.00  0.00     0.210 HD
ENDBRANCH  22  23
ENDBRANCH  17  22
BRANCH  18  25
ATOM     25  O   UNL     1      19.055  24.330  11.381  1.00  0.00    -0.385 OA
ATOM     26  H   UNL     1      19.574  23.497  11.227  1.00  0.00     0.211 HD
ENDBRANCH  18  25
BRANCH  20  27
ATOM     27  O   UNL     1      18.035  26.677  11.997  1.00  0.00    -0.387 OA
ATOM     28  H   UNL     1      18.066  25.818  12.494  1.00  0.00     0.211 HD
ENDBRANCH  20  27
BRANCH  21  29
ATOM     29  C   UNL     1      17.436  26.926   9.330  1.00  0.00     0.191 C 
BRANCH  29  30
ATOM     30  O   UNL     1      16.965  25.612   9.449  1.00  0.00    -0.394 OA
ATOM     31  H   UNL     1      17.721  25.082   9.811  1.00  0.00     0.210 HD
ENDBRANCH  29  30
ENDBRANCH  21  29
ENDBRANCH   1  17
TORSDOF 13
ENDMDL
MODEL 3
REMARK VINA RESULT:    -4.747      1.727      5.693
REMARK INTER + INTRA:          -8.401
REMARK INTER:                  -7.462
REMARK INTRA:                  -0.939
REMARK UNBOUND:                -1.157
REMARK SMILES OC[C@@H]1O[C@](CO)(O[C@H]2O[C@H](CO)[C@H](O)[C@H](O)[C@H]2O)[C@H](O)[C@@H]1O
REMARK SMILES IDX 8 1 9 2 11 3 14 4 10 5 16 6 18 7 12 8 13 9 15 11 17 13 19 15
REMARK SMILES IDX 5 17 20 18 4 19 22 20 3 21 6 22 7 23 21 25 23 27 2 29 1 30
REMARK H PARENT 13 10 15 12 17 14 19 16 7 24 21 26 23 28 1 31
REMARK Flexibility Score: inf
ROOT
ATOM      1  O   UNL     1      19.636  25.716   7.403  1.00  0.00    -0.313 OA
ENDROOT
BRANCH   1   2
ATOM      2  C   UNL     1      20.432  25.527   8.564  1.00  0.00     0.285 C 
ATOM      3  C   UNL     1      21.062  26.686  10.551  1.00  0.00     0.178 C 
ATOM      4  C   UNL     1      20.145  25.845  11.491  1.00  0.00     0.177 C 
ATOM      5  O   UNL     1      20.532  26.779   9.237  1.00  0.00    -0.341 OA
ATOM      6  C   UNL     1      19.130  24.998  10.691  1.00  0.00     0.179 C 
ATOM      7  C   UNL     1      19.797  24.404   9.441  1.00  0.00     0.202 C 
BRANCH   3   8
ATOM      8  C   UNL     1      22.574  26.356  10.563  1.00  0.00     0.191 C 
BRANCH   8   9
ATOM      9  O   UNL     1      22.818  24.980  10.465  1.00  0.00    -0.394 OA
ATOM     10  H   UNL     1      23.719  24.888  10.059  1.00  0.00     0.210 HD
ENDBRANCH   8   9
ENDBRANCH   3   8
BRANCH   4  11
ATOM     11  O   UNL     1      20.884  25.084  12.420  1.00  0.00    -0.387 OA
ATOM     12  H   UNL     1      21.541  24.532  11.924  1.00  0.00     0.211 HD
ENDBRANCH   4  11
BRANCH   6  13
ATOM     13  O   UNL     1      18.605  23.981  11.509  1.00  0.00    -0.387 OA
ATOM     14  H   UNL     1      18.031  24.423  12.187  1.00  0.00     0.211 HD
ENDBRANCH   6  13
BRANCH   7  15
ATOM     15  O   UNL     1      18.853  23.674   8.695  1.00  0.00    -0.385 OA
ATOM     16  H   UNL     1      19.182  22.739   8.640  1.00  0.00     0.211 HD
ENDBRANCH   7  15
ENDBRANCH   1   2
BRANCH   1  17
ATOM     17  C   UNL     1      20.308  25.440   6.173  1.00  0.00     0.224 C 
ATOM     18  C   UNL     1      19.359  24.752   5.177  1.00  0.00     0.208 C 
ATOM     19  O   UNL     1      21.446  24.609   6.339  1.00  0.00    -0.337 OA
ATOM     20  C   UNL     1      20.314  23.955   4.312  1.00  0.00     0.180 C 
ATOM     21  C   UNL     1      21.550  23.765   5.209  1.00  0.00     0.179 C 
BRANCH  17  22
ATOM     22  C   UNL     1      20.798  26.794   5.618  1.00  0.00     0.225 C 
BRANCH  22  23
ATOM     23  O   UNL     1      22.120  27.040   6.016  1.00  0.00    -0.391 OA
ATOM     24  H   UNL     1      22.568  27.458   5.236  1.00  0.00     0.210 HD
ENDBRANCH  22  23
ENDBRANCH  17  22
BRANCH  18  25
ATOM     25  O   UNL     1      18.469  23.899   5.856  1.00  0.00    -0.385 OA
ATOM     26  H   UNL     1      18.165  23.218   5.200  1.00  0.00     0.211 HD
ENDBRANCH  18  25
BRANCH  20  27
ATOM     27  O   UNL     1      19.759  22.739   3.876  1.00  0.00    -0.387 OA
ATOM     28  H   UNL     1      20.283  22.018   4.314  1.00  0.00     0.211 HD
ENDBRANCH  20  27
BRANCH  21  29
ATOM     29  C   UNL     1      21.792  22.320   5.672  1.00  0.00     0.191 C 
BRANCH  29  30
ATOM     30  O   UNL     1      23.000  22.224   6.375  1.00  0.00    -0.394 OA
ATOM     31  H   UNL     1      23.231  21.259   6.391  1.00  0.00     0.210 HD
ENDBRANCH  29  30
ENDBRANCH  21  29
ENDBRANCH   1  17
TORSDOF 13
ENDMDL
MODEL 4
REMARK VINA RESULT:    -4.518      1.608      6.117
REMARK INTER + INTRA:          -8.052
REMARK INTER:                  -6.336
REMARK INTRA:                  -1.716
REMARK UNBOUND:                -1.157
REMARK SMILES OC[C@@H]1O[C@](CO)(O[C@H]2O[C@H](CO)[C@H](O)[C@H](O)[C@H]2O)[C@H](O)[C@@H]1O
REMARK SMILES IDX 8 1 9 2 11 3 14 4 10 5 16 6 18 7 12 8 13 9 15 11 17 13 19 15
REMARK SMILES IDX 5 17 20 18 4 19 22 20 3 21 6 22 7 23 21 25 23 27 2 29 1 30
REMARK H PARENT 13 10 15 12 17 14 19 16 7 24 21 26 23 28 1 31
REMARK Flexibility Score: inf
ROOT
ATOM      1  O   UNL     1      20.114  24.107   6.632  1.00  0.00    -0.313 OA
ENDROOT
BRANCH   1   2
ATOM      2  C   UNL     1      20.404  24.052   8.021  1.00  0.00     0.285 C 
ATOM      3  C   UNL     1      21.206  25.456   9.773  1.00  0.00     0.178 C 
ATOM      4  C   UNL     1      19.811  25.640  10.446  1.00  0.00     0.177 C 
ATOM      5  O   UNL     1      21.098  25.245   8.373  1.00  0.00    -0.341 OA
ATOM      6  C   UNL     1      18.667  25.150   9.529  1.00  0.00     0.179 C 
ATOM      7  C   UNL     1      19.074  23.854   8.812  1.00  0.00     0.202 C 
BRANCH   3   8
ATOM      8  C   UNL     1      22.190  24.471  10.450  1.00  0.00     0.191 C 
BRANCH   8   9
ATOM      9  O   UNL     1      22.497  24.847  11.764  1.00  0.00    -0.394 OA
ATOM     10  H   UNL     1      23.459  25.093  11.764  1.00  0.00     0.210 HD
ENDBRANCH   8   9
ENDBRANCH   3   8
BRANCH   4  11
ATOM     11  O   UNL     1      19.761  25.075  11.737  1.00  0.00    -0.387 OA
ATOM     12  H   UNL     1      20.471  25.489  12.291  1.00  0.00     0.211 HD
ENDBRANCH   4  11
BRANCH   6  13
ATOM     13  O   UNL     1      17.497  24.957  10.286  1.00  0.00    -0.387 OA
ATOM     14  H   UNL     1      17.765  24.976  11.242  1.00  0.00     0.211 HD
ENDBRANCH   6  13
BRANCH   7  15
ATOM     15  O   UNL     1      18.044  23.444   7.945  1.00  0.00    -0.385 OA
ATOM     16  H   UNL     1      17.512  24.251   7.717  1.00  0.00     0.211 HD
ENDBRANCH   7  15
ENDBRANCH   1   2
BRANCH   1  17
ATOM     17  C   UNL     1      20.364  22.890   5.926  1.00  0.00     0.224 C 
ATOM     18  C   UNL     1      19.404  22.745   4.733  1.00  0.00     0.208 C 
ATOM     19  O   UNL     1      20.225  21.739   6.743  1.00  0.00    -0.337 OA
ATOM     20  C   UNL     1      19.315  21.243   4.564  1.00  0.00     0.180 C 
ATOM     21  C   UNL     1      19.688  20.695   5.953  1.00  0.00     0.179 C 
BRANCH  17  22
ATOM     22  C   UNL     1      21.830  22.945   5.446  1.00  0.00     0.225 C 
BRANCH  22  23
ATOM     23  O   UNL     1      22.653  22.185   6.290  1.00  0.00    -0.391 OA
ATOM     24  H   UNL     1      23.497  22.697   6.384  1.00  0.00     0.210 HD
ENDBRANCH  22  23
ENDBRANCH  17  22
BRANCH  18  25
ATOM     25  O   UNL     1      18.145  23.288   5.048  1.00  0.00    -0.385 OA
ATOM     26  H   UNL     1      18.026  24.094   4.479  1.00  0.00     0.211 HD
ENDBRANCH  18  25
BRANCH  20  27
ATOM     27  O   UNL     1      18.045  20.824   4.131  1.00  0.00    -0.387 OA
ATOM     28  H   UNL     1      17.902  19.919   4.514  1.00  0.00     0.211 HD
ENDBRANCH  20  27
BRANCH  21  29
ATOM     29  C   UNL     1      18.532  20.024   6.711  1.00  0.00     0.191 C 
BRANCH  29  30
ATOM     30  O   UNL     1      17.496  20.939   6.940  1.00  0.00    -0.394 OA
ATOM     31  H   UNL     1      17.445  21.055   7.923  1.00  0.00     0.210 HD
ENDBRANCH  29  30
ENDBRANCH  21  29
ENDBRANCH   1  17
TORSDOF 13
ENDMDL
MODEL 5
REMARK VINA RESULT:    -4.512      1.400      1.487
REMARK INTER + INTRA:          -8.043
REMARK INTER:                  -6.846
REMARK INTRA:                  -1.198
REMARK UNBOUND:                -1.157
REMARK SMILES OC[C@@H]1O[C@](CO)(O[C@H]2O[C@H](CO)[C@H](O)[C@H](O)[C@H]2O)[C@H](O)[C@@H]1O
REMARK SMILES IDX 8 1 9 2 11 3 14 4 10 5 16 6 18 7 12 8 13 9 15 11 17 13 19 15
REMARK SMILES IDX 5 17 20 18 4 19 22 20 3 21 6 22 7 23 21 25 23 27 2 29 1 30
REMARK H PARENT 13 10 15 12 17 14 19 16 7 24 21 26 23 28 1 31
REMARK Flexibility Score: inf
ROOT
ATOM      1  O   UNL     1      19.458  23.406   9.099  1.00  0.00    -0.313 OA
ENDROOT
BRANCH   1   2
ATOM      2  C   UNL     1      19.141  22.939   7.795  1.00  0.00     0.285 C 
ATOM      3  C   UNL     1      20.129  21.702   6.012  1.00  0.00     0.178 C 
ATOM      4  C   UNL     1      19.305  20.405   6.277  1.00  0.00     0.177 C 
ATOM      5  O   UNL     1      20.340  22.450   7.200  1.00  0.00    -0.341 OA
ATOM      6  C   UNL     1      18.585  20.456   7.644  1.00  0.00     0.179 C 
ATOM      7  C   UNL     1      18.018  21.861   7.898  1.00  0.00     0.202 C 
BRANCH   3   8
ATOM      8  C   UNL     1      19.686  22.586   4.821  1.00  0.00     0.191 C 
BRANCH   8   9
ATOM      9  O   UNL     1      20.506  23.710   4.661  1.00  0.00    -0.394 OA
ATOM     10  H   UNL     1      20.863  23.662   3.736  1.00  0.00     0.210 HD
ENDBRANCH   8   9
ENDBRANCH   3   8
BRANCH   4  11
ATOM     11  O   UNL     1      18.437  20.094   5.211  1.00  0.00    -0.387 OA
ATOM     12  H   UNL     1      18.980  19.783   4.442  1.00  0.00     0.211 HD
ENDBRANCH   4  11
BRANCH   6  13
ATOM     13  O   UNL     1      17.564  19.490   7.683  1.00  0.00    -0.387 OA
ATOM     14  H   UNL     1      17.794  18.798   7.009  1.00  0.00     0.211 HD
ENDBRANCH   6  13
BRANCH   7  15
ATOM     15  O   UNL     1      17.407  21.909   9.165  1.00  0.00    -0.385 OA
ATOM     16  H   UNL     1      16.436  21.755   9.028  1.00  0.00     0.211 HD
ENDBRANCH   7  15
ENDBRANCH   1   2
BRANCH   1  17
ATOM     17  C   UNL     1      19.907  24.761   9.149  1.00  0.00     0.224 C 
ATOM     18  C   UNL     1      21.435  24.834   8.996  1.00  0.00     0.208 C 
ATOM     19  O   UNL     1      19.556  25.414  10.359  1.00  0.00    -0.337 OA
ATOM     20  C   UNL     1      21.778  26.113   9.731  1.00  0.00     0.180 C 
ATOM     21  C   UNL     1      20.601  26.304  10.703  1.00  0.00     0.179 C 
BRANCH  17  22
ATOM     22  C   UNL     1      19.204  25.509   7.997  1.00  0.00     0.225 C 
BRANCH  22  23
ATOM     23  O   UNL     1      20.064  25.639   6.897  1.00  0.00    -0.391 OA
ATOM     24  H   UNL     1      19.942  24.818   6.355  1.00  0.00     0.210 HD
ENDBRANCH  22  23
ENDBRANCH  17  22
BRANCH  18  25
ATOM     25  O   UNL     1      22.044  23.725   9.613  1.00  0.00    -0.385 OA
ATOM     26  H   UNL     1      22.916  24.037   9.972  1.00  0.00     0.211 HD
ENDBRANCH  18  25
BRANCH  20  27
ATOM     27  O   UNL     1      23.022  26.044  10.382  1.00  0.00    -0.387 OA
ATOM     28  H   UNL     1      23.292  25.088  10.372  1.00  0.00     0.211 HD
ENDBRANCH  20  27
BRANCH  21  29
ATOM     29  C   UNL     1      20.956  26.124  12.187  1.00  0.00     0.191 C 
BRANCH  29  30
ATOM     30  O   UNL     1      21.455  24.837  12.422  1.00  0.00    -0.394 OA
ATOM     31  H   UNL     1      22.388  24.839  12.086  1.00  0.00     0.210 HD
ENDBRANCH  29  30
ENDBRANCH  21  29
ENDBRANCH   1  17
TORSDOF 13
ENDMDL
MODEL 6
REMARK VINA RESULT:    -4.234      1.879      6.452
REMARK INTER + INTRA:          -7.619
REMARK INTER:                  -5.729
REMARK INTRA:                  -1.890
REMARK UNBOUND:                -1.157
REMARK SMILES OC[C@@H]1O[C@](CO)(O[C@H]2O[C@H](CO)[C@H](O)[C@H](O)[C@H]2O)[C@H](O)[C@@H]1O
REMARK SMILES IDX 8 1 9 2 11 3 14 4 10 5 16 6 18 7 12 8 13 9 15 11 17 13 19 15
REMARK SMILES IDX 5 17 20 18 4 19 22 20 3 21 6 22 7 23 21 25 23 27 2 29 1 30
REMARK H PARENT 13 10 15 12 17 14 19 16 7 24 21 26 23 28 1 31
REMARK Flexibility Score: inf
ROOT
ATOM      1  O   UNL     1      19.401  22.468   8.339  1.00  0.00    -0.313 OA
ENDROOT
BRANCH   1   2
ATOM      2  C   UNL     1      19.142  23.793   8.782  1.00  0.00     0.285 C 
ATOM      3  C   UNL     1      18.693  24.986  10.797  1.00  0.00     0.178 C 
ATOM      4  C   UNL     1      20.113  25.625  10.892  1.00  0.00     0.177 C 
ATOM      5  O   UNL     1      18.720  23.727  10.141  1.00  0.00    -0.341 OA
ATOM      6  C   UNL     1      21.107  24.954   9.916  1.00  0.00     0.179 C 
ATOM      7  C   UNL     1      20.422  24.660   8.574  1.00  0.00     0.202 C 
BRANCH   3   8
ATOM      8  C   UNL     1      17.544  25.894  10.298  1.00  0.00     0.191 C 
BRANCH   8   9
ATOM      9  O   UNL     1      17.177  26.856  11.247  1.00  0.00    -0.394 OA
ATOM     10  H   UNL     1      18.020  27.288  11.543  1.00  0.00     0.210 HD
ENDBRANCH   8   9
ENDBRANCH   3   8
BRANCH   4  11
ATOM     11  O   UNL     1      20.078  27.028  10.762  1.00  0.00    -0.387 OA
ATOM     12  H   UNL     1      19.160  27.299  10.503  1.00  0.00     0.211 HD
ENDBRANCH   4  11
BRANCH   6  13
ATOM     13  O   UNL     1      22.230  25.781   9.735  1.00  0.00    -0.387 OA
ATOM     14  H   UNL     1      21.978  26.467   9.063  1.00  0.00     0.211 HD
ENDBRANCH   6  13
BRANCH   7  15
ATOM     15  O   UNL     1      21.321  24.007   7.710  1.00  0.00    -0.385 OA
ATOM     16  H   UNL     1      20.788  23.633   6.960  1.00  0.00     0.211 HD
ENDBRANCH   7  15
ENDBRANCH   1   2
BRANCH   1  17
ATOM     17  C   UNL     1      18.747  22.113   7.119  1.00  0.00     0.224 C 
ATOM     18  C   UNL     1      19.650  21.211   6.260  1.00  0.00     0.208 C 
ATOM     19  O   UNL     1      18.385  23.241   6.337  1.00  0.00    -0.337 OA
ATOM     20  C   UNL     1      19.167  21.505   4.856  1.00  0.00     0.180 C 
ATOM     21  C   UNL     1      18.529  22.901   4.972  1.00  0.00     0.179 C 
BRANCH  17  22
ATOM     22  C   UNL     1      17.447  21.379   7.506  1.00  0.00     0.225 C 
BRANCH  22  23
ATOM     23  O   UNL     1      17.666  20.533   8.603  1.00  0.00    -0.391 OA
ATOM     24  H   UNL     1      17.440  19.619   8.294  1.00  0.00     0.210 HD
ENDBRANCH  22  23
ENDBRANCH  17  22
BRANCH  18  25
ATOM     25  O   UNL     1      20.999  21.580   6.412  1.00  0.00    -0.385 OA
ATOM     26  H   UNL     1      21.533  20.962   5.846  1.00  0.00     0.211 HD
ENDBRANCH  18  25
BRANCH  20  27
ATOM     27  O   UNL     1      20.203  21.452   3.907  1.00  0.00    -0.387 OA
ATOM     28  H   UNL     1      19.923  22.034   3.153  1.00  0.00     0.211 HD
ENDBRANCH  20  27
BRANCH  21  29
ATOM     29  C   UNL     1      19.291  24.019   4.245  1.00  0.00     0.191 C 
BRANCH  29  30
ATOM     30  O   UNL     1      20.534  24.243   4.851  1.00  0.00    -0.394 OA
ATOM     31  H   UNL     1      20.637  25.228   4.908  1.00  0.00     0.210 HD
ENDBRANCH  29  30
ENDBRANCH  21  29
ENDBRANCH   1  17
TORSDOF 13
ENDMDL
MODEL 7
REMARK VINA RESULT:    -4.135      2.012      5.762
REMARK INTER + INTRA:          -7.468
REMARK INTER:                  -5.841
REMARK INTRA:                  -1.628
REMARK UNBOUND:                -1.157
REMARK SMILES OC[C@@H]1O[C@](CO)(O[C@H]2O[C@H](CO)[C@H](O)[C@H](O)[C@H]2O)[C@H](O)[C@@H]1O
REMARK SMILES IDX 8 1 9 2 11 3 14 4 10 5 16 6 18 7 12 8 13 9 15 11 17 13 19 15
REMARK SMILES IDX 5 17 20 18 4 19 22 20 3 21 6 22 7 23 21 25 23 27 2 29 1 30
REMARK H PARENT 13 10 15 12 17 14 19 16 7 24 21 26 23 28 1 31
REMARK Flexibility Score: inf
ROOT
ATOM      1  O   UNL     1      18.347  24.457   7.137  1.00  0.00    -0.313 OA
ENDROOT
BRANCH   1   2
ATOM      2  C   UNL     1      19.335  24.540   8.154  1.00  0.00     0.285 C 
ATOM      3  C   UNL     1      20.203  26.105   9.729  1.00  0.00     0.178 C 
ATOM      4  C   UNL     1      19.514  25.447  10.964  1.00  0.00     0.177 C 
ATOM      5  O   UNL     1      19.458  25.907   8.537  1.00  0.00    -0.341 OA
ATOM      6  C   UNL     1      18.442  24.419  10.538  1.00  0.00     0.179 C 
ATOM      7  C   UNL     1      18.933  23.602   9.334  1.00  0.00     0.202 C 
BRANCH   3   8
ATOM      8  C   UNL     1      21.716  25.836   9.540  1.00  0.00     0.191 C 
BRANCH   8   9
ATOM      9  O   UNL     1      22.047  24.492   9.755  1.00  0.00    -0.394 OA
ATOM     10  H   UNL     1      21.664  24.251  10.638  1.00  0.00     0.210 HD
ENDBRANCH   8   9
ENDBRANCH   3   8
BRANCH   4  11
ATOM     11  O   UNL     1      20.448  24.920  11.881  1.00  0.00    -0.387 OA
ATOM     12  H   UNL     1      21.130  24.408  11.377  1.00  0.00     0.211 HD
ENDBRANCH   4  11
BRANCH   6  13
ATOM     13  O   UNL     1      18.131  23.576  11.621  1.00  0.00    -0.387 OA
ATOM     14  H   UNL     1      18.873  22.921  11.701  1.00  0.00     0.211 HD
ENDBRANCH   6  13
BRANCH   7  15
ATOM     15  O   UNL     1      17.932  22.702   8.925  1.00  0.00    -0.385 OA
ATOM     16  H   UNL     1      18.375  21.992   8.390  1.00  0.00     0.211 HD
ENDBRANCH   7  15
ENDBRANCH   1   2
BRANCH   1  17
ATOM     17  C   UNL     1      18.869  24.374   5.810  1.00  0.00     0.224 C 
ATOM     18  C   UNL     1      18.403  23.079   5.122  1.00  0.00     0.208 C 
ATOM     19  O   UNL     1      20.287  24.405   5.771  1.00  0.00    -0.337 OA
ATOM     20  C   UNL     1      19.513  22.821   4.125  1.00  0.00     0.180 C 
ATOM     21  C   UNL     1      20.722  23.565   4.719  1.00  0.00     0.179 C 
BRANCH  17  22
ATOM     22  C   UNL     1      18.355  25.614   5.049  1.00  0.00     0.225 C 
BRANCH  22  23
ATOM     23  O   UNL     1      18.779  26.791   5.683  1.00  0.00    -0.391 OA
ATOM     24  H   UNL     1      19.723  26.636   5.946  1.00  0.00     0.210 HD
ENDBRANCH  22  23
ENDBRANCH  17  22
BRANCH  18  25
ATOM     25  O   UNL     1      18.317  22.031   6.057  1.00  0.00    -0.385 OA
ATOM     26  H   UNL     1      18.131  22.445   6.940  1.00  0.00     0.211 HD
ENDBRANCH  18  25
BRANCH  20  27
ATOM     27  O   UNL     1      19.754  21.449   3.929  1.00  0.00    -0.387 OA
ATOM     28  H   UNL     1      18.886  20.988   4.071  1.00  0.00     0.211 HD
ENDBRANCH  20  27
BRANCH  21  29
ATOM     29  C   UNL     1      21.851  22.655   5.226  1.00  0.00     0.191 C 
BRANCH  29  30
ATOM     30  O   UNL     1      21.414  21.883   6.310  1.00  0.00    -0.394 OA
ATOM     31  H   UNL     1      22.163  21.273   6.531  1.00  0.00     0.210 HD
ENDBRANCH  29  30
ENDBRANCH  21  29
ENDBRANCH   1  17
TORSDOF 13
ENDMDL
MODEL 8
REMARK VINA RESULT:    -4.099      1.575      2.897
REMARK INTER + INTRA:          -7.413
REMARK INTER:                  -6.461
REMARK INTRA:                  -0.951
REMARK UNBOUND:                -1.157
REMARK SMILES OC[C@@H]1O[C@](CO)(O[C@H]2O[C@H](CO)[C@H](O)[C@H](O)[C@H]2O)[C@H](O)[C@@H]1O
REMARK SMILES IDX 8 1 9 2 11 3 14 4 10 5 16 6 18 7 12 8 13 9 15 11 17 13 19 15
REMARK SMILES IDX 5 17 20 18 4 19 22 20 3 21 6 22 7 23 21 25 23 27 2 29 1 30
REMARK H PARENT 13 10 15 12 17 14 19 16 7 24 21 26 23 28 1 31
REMARK Flexibility Score: inf
ROOT
ATOM      1  O   UNL     1      21.324  24.711   7.598  1.00  0.00    -0.313 OA
ENDROOT
BRANCH   1   2
ATOM      2  C   UNL     1      20.261  23.896   7.128  1.00  0.00     0.285 C 
ATOM      3  C   UNL     1      18.447  23.978   5.582  1.00  0.00     0.178 C 
ATOM      4  C   UNL     1      19.131  23.057   4.526  1.00  0.00     0.177 C 
ATOM      5  O   UNL     1      19.396  24.711   6.342  1.00  0.00    -0.341 OA
ATOM      6  C   UNL     1      20.633  22.857   4.831  1.00  0.00     0.179 C 
ATOM      7  C   UNL     1      20.854  22.687   6.341  1.00  0.00     0.202 C 
BRANCH   3   8
ATOM      8  C   UNL     1      17.342  23.342   6.461  1.00  0.00     0.191 C 
BRANCH   8   9
ATOM      9  O   UNL     1      17.064  24.108   7.600  1.00  0.00    -0.394 OA
ATOM     10  H   UNL     1      16.816  23.463   8.313  1.00  0.00     0.210 HD
ENDBRANCH   8   9
ENDBRANCH   3   8
BRANCH   4  11
ATOM     11  O   UNL     1      18.440  21.841   4.348  1.00  0.00    -0.387 OA
ATOM     12  H   UNL     1      18.246  21.454   5.240  1.00  0.00     0.211 HD
ENDBRANCH   4  11
BRANCH   6  13
ATOM     13  O   UNL     1      21.119  21.742   4.125  1.00  0.00    -0.387 OA
ATOM     14  H   UNL     1      21.907  21.403   4.626  1.00  0.00     0.211 HD
ENDBRANCH   6  13
BRANCH   7  15
ATOM     15  O   UNL     1      22.229  22.553   6.612  1.00  0.00    -0.385 OA
ATOM     16  H   UNL     1      22.680  23.359   6.246  1.00  0.00     0.211 HD
ENDBRANCH   7  15
ENDBRANCH   1   2
BRANCH   1  17
ATOM     17  C   UNL     1      20.967  25.595   8.663  1.00  0.00     0.224 C 
ATOM     18  C   UNL     1      21.803  25.298   9.920  1.00  0.00     0.208 C 
ATOM     19  O   UNL     1      19.596  25.506   9.018  1.00  0.00    -0.337 OA
ATOM     20  C   UNL     1      20.892  25.762  11.036  1.00  0.00     0.180 C 
ATOM     21  C   UNL     1      19.485  25.693  10.416  1.00  0.00     0.179 C 
BRANCH  17  22
ATOM     22  C   UNL     1      21.226  27.030   8.159  1.00  0.00     0.225 C 
BRANCH  22  23
ATOM     23  O   UNL     1      22.071  27.014   7.041  1.00  0.00    -0.391 OA
ATOM     24  H   UNL     1      22.476  26.109   7.016  1.00  0.00     0.210 HD
ENDBRANCH  22  23
ENDBRANCH  17  22
BRANCH  18  25
ATOM     25  O   UNL     1      22.059  23.918  10.025  1.00  0.00    -0.385 OA
ATOM     26  H   UNL     1      21.786  23.642  10.939  1.00  0.00     0.211 HD
ENDBRANCH  18  25
BRANCH  20  27
ATOM     27  O   UNL     1      21.019  24.979  12.197  1.00  0.00    -0.387 OA
ATOM     28  H   UNL     1      21.490  25.542  12.866  1.00  0.00     0.211 HD
ENDBRANCH  20  27
BRANCH  21  29
ATOM     29  C   UNL     1      18.575  24.605  11.005  1.00  0.00     0.191 C 
BRANCH  29  30
ATOM     30  O   UNL     1      18.500  23.504  10.142  1.00  0.00    -0.394 OA
ATOM     31  H   UNL     1      19.436  23.226   9.971  1.00  0.00     0.210 HD
ENDBRANCH  29  30
ENDBRANCH  21  29
ENDBRANCH   1  17
TORSDOF 13
ENDMDL
