MODEL 1
REMARK VINA RESULT:    -8.611      0.000      0.000
REMARK INTER + INTRA:          -9.940
REMARK INTER:                  -9.366
REMARK INTRA:                  -0.573
REMARK UNBOUND:                -0.573
REMARK SMILES C=C(C)[C@H]1CC[C@]2(C)CC[C@@]3(C)[C@@H](CC[C@H]4[C@]5(C)CC[C@H](O)C(C)(C)[C@@H]5CC[C@]43C)[C@H]12
REMARK SMILES IDX 4 1 5 2 6 3 7 4 31 5 13 6 14 7 15 8 16 9 17 10 19 11 20 12
REMARK SMILES IDX 21 13 23 14 26 15 27 16 28 17 29 18 11 19 10 20 9 21 12 22
REMARK SMILES IDX 30 23 24 24 25 25 18 26 8 27 2 28 3 29 1 30 22 31
REMARK H PARENT 22 32
REMARK Flexibility Score: inf
ROOT
ATOM      1  C   UNL     1      -1.823  24.622  52.170  1.00  0.00     0.018 C 
ATOM      2  C   UNL     1      -3.303  24.576  51.772  1.00  0.00     0.009 C 
ATOM      3  C   UNL     1      -3.469  25.482  50.556  1.00  0.00     0.008 C 
ATOM      4  C   UNL     1      -2.053  25.878  50.061  1.00  0.00    -0.029 C 
ATOM      5  C   UNL     1      -1.064  24.951  50.851  1.00  0.00     0.006 C 
ATOM      6  C   UNL     1      -0.703  23.617  50.100  1.00  0.00    -0.000 C 
ATOM      7  C   UNL     1       0.405  22.813  50.797  1.00  0.00     0.005 C 
ATOM      8  C   UNL     1       0.222  21.340  50.470  1.00  0.00     0.005 C 
ATOM      9  C   UNL     1      -0.070  21.026  48.961  1.00  0.00     0.002 C 
ATOM     10  C   UNL     1      -1.278  20.020  48.733  1.00  0.00    -0.026 C 
ATOM     11  C   UNL     1      -1.165  18.798  49.714  1.00  0.00     0.010 C 
ATOM     12  C   UNL     1      -1.943  17.571  49.239  1.00  0.00     0.033 C 
ATOM     13  C   UNL     1      -1.437  17.005  47.900  1.00  0.00     0.120 C 
ATOM     14  C   UNL     1      -0.687  18.048  46.988  1.00  0.00    -0.006 C 
ATOM     15  C   UNL     1      -1.286  19.503  47.223  1.00  0.00     0.003 C 
ATOM     16  C   UNL     1      -0.742  20.531  46.183  1.00  0.00     0.005 C 
ATOM     17  C   UNL     1      -0.797  21.981  46.649  1.00  0.00     0.008 C 
ATOM     18  C   UNL     1       0.042  22.280  47.946  1.00  0.00    -0.024 C 
ATOM     19  C   UNL     1      -0.352  23.758  48.592  1.00  0.00    -0.024 C 
ATOM     20  C   UNL     1      -1.625  24.404  47.950  1.00  0.00     0.008 C 
ATOM     21  C   UNL     1      -1.969  25.790  48.504  1.00  0.00     0.007 C 
ATOM     22  C   UNL     1       0.810  24.808  48.412  1.00  0.00     0.012 C 
ATOM     23  C   UNL     1       1.538  22.276  47.465  1.00  0.00     0.012 C 
ATOM     24  C   UNL     1       0.855  17.973  47.221  1.00  0.00     0.014 C 
ATOM     25  C   UNL     1      -0.931  17.626  45.512  1.00  0.00     0.014 C 
ATOM     26  C   UNL     1      -2.636  20.705  49.076  1.00  0.00     0.012 C 
ATOM     27  C   UNL     1      -1.780  27.363  50.422  1.00  0.00     0.011 C 
ENDROOT
BRANCH   1  28
ATOM     28  C   UNL     1      -1.455  25.573  53.317  1.00  0.00    -0.077 C 
ATOM     29  C   UNL     1       0.001  25.873  53.561  1.00  0.00     0.039 C 
ATOM     30  C   UNL     1      -2.356  26.163  54.125  1.00  0.00     0.008 C 
ENDBRANCH   1  28
BRANCH  13  31
ATOM     31  O   UNL     1      -0.637  15.875  48.160  1.00  0.00    -0.393 OA
ATOM     32  H   UNL     1      -0.225  16.006  49.053  1.00  0.00     0.210 HD
ENDBRANCH  13  31
TORSDOF 2
ENDMDL
MODEL 2
REMARK VINA RESULT:    -7.069      6.291      9.115
REMARK INTER + INTRA:          -8.262
REMARK INTER:                  -7.690
REMARK INTRA:                  -0.572
REMARK UNBOUND:                -0.573
REMARK SMILES C=C(C)[C@H]1CC[C@]2(C)CC[C@@]3(C)[C@@H](CC[C@H]4[C@]5(C)CC[C@H](O)C(C)(C)[C@@H]5CC[C@]43C)[C@H]12
REMARK SMILES IDX 4 1 5 2 6 3 7 4 31 5 13 6 14 7 15 8 16 9 17 10 19 11 20 12
REMARK SMILES IDX 21 13 23 14 26 15 27 16 28 17 29 18 11 19 10 20 9 21 12 22
REMARK SMILES IDX 30 23 24 24 25 25 18 26 8 27 2 28 3 29 1 30 22 31
REMARK H PARENT 22 32
REMARK Flexibility Score: inf
ROOT
ATOM      1  C   UNL     1       1.883  20.473  46.609  1.00  0.00     0.018 C 
ATOM      2  C   UNL     1       2.028  21.957  46.251  1.00  0.00     0.009 C 
ATOM      3  C   UNL     1       2.712  22.637  47.432  1.00  0.00     0.008 C 
ATOM      4  C   UNL     1       3.211  21.530  48.397  1.00  0.00    -0.029 C 
ATOM      5  C   UNL     1       3.044  20.185  47.605  1.00  0.00     0.006 C 
ATOM      6  C   UNL     1       4.329  19.751  46.810  1.00  0.00    -0.000 C 
ATOM      7  C   UNL     1       4.214  18.347  46.197  1.00  0.00     0.005 C 
ATOM      8  C   UNL     1       5.093  18.279  44.959  1.00  0.00     0.005 C 
ATOM      9  C   UNL     1       6.529  18.884  45.130  1.00  0.00     0.002 C 
ATOM     10  C   UNL     1       6.966  19.855  43.951  1.00  0.00    -0.026 C 
ATOM     11  C   UNL     1       6.616  19.215  42.559  1.00  0.00     0.010 C 
ATOM     12  C   UNL     1       7.432  19.799  41.406  1.00  0.00     0.033 C 
ATOM     13  C   UNL     1       8.946  19.556  41.542  1.00  0.00     0.120 C 
ATOM     14  C   UNL     1       9.443  19.328  43.020  1.00  0.00    -0.006 C 
ATOM     15  C   UNL     1       8.533  20.150  44.032  1.00  0.00     0.003 C 
ATOM     16  C   UNL     1       9.119  20.146  45.477  1.00  0.00     0.005 C 
ATOM     17  C   UNL     1       8.087  20.395  46.572  1.00  0.00     0.008 C 
ATOM     18  C   UNL     1       6.932  19.329  46.633  1.00  0.00    -0.024 C 
ATOM     19  C   UNL     1       5.675  19.855  47.582  1.00  0.00    -0.024 C 
ATOM     20  C   UNL     1       5.782  21.363  47.985  1.00  0.00     0.008 C 
ATOM     21  C   UNL     1       4.654  21.846  48.902  1.00  0.00     0.007 C 
ATOM     22  C   UNL     1       5.578  19.047  48.932  1.00  0.00     0.012 C 
ATOM     23  C   UNL     1       7.597  18.053  47.265  1.00  0.00     0.012 C 
ATOM     24  C   UNL     1       9.506  17.802  43.349  1.00  0.00     0.014 C 
ATOM     25  C   UNL     1      10.903  19.856  43.099  1.00  0.00     0.014 C 
ATOM     26  C   UNL     1       6.162  21.189  44.011  1.00  0.00     0.012 C 
ATOM     27  C   UNL     1       2.309  21.508  49.661  1.00  0.00     0.011 C 
ENDROOT
BRANCH   1  28
ATOM     28  C   UNL     1       0.516  20.034  47.151  1.00  0.00    -0.077 C 
ATOM     29  C   UNL     1       0.390  18.656  47.750  1.00  0.00     0.039 C 
ATOM     30  C   UNL     1      -0.587  20.805  47.129  1.00  0.00     0.008 C 
ENDBRANCH   1  28
BRANCH  13  31
ATOM     31  O   UNL     1       9.310  18.485  40.703  1.00  0.00    -0.393 OA
ATOM     32  H   UNL     1       8.483  17.972  40.505  1.00  0.00     0.210 HD
ENDBRANCH  13  31
TORSDOF 2
ENDMDL
MODEL 3
REMARK VINA RESULT:    -6.978      4.029      8.152
REMARK INTER + INTRA:          -8.163
REMARK INTER:                  -7.634
REMARK INTRA:                  -0.529
REMARK UNBOUND:                -0.573
REMARK SMILES C=C(C)[C@H]1CC[C@]2(C)CC[C@@]3(C)[C@@H](CC[C@H]4[C@]5(C)CC[C@H](O)C(C)(C)[C@@H]5CC[C@]43C)[C@H]12
REMARK SMILES IDX 4 1 5 2 6 3 7 4 31 5 13 6 14 7 15 8 16 9 17 10 19 11 20 12
REMARK SMILES IDX 21 13 23 14 26 15 27 16 28 17 29 18 11 19 10 20 9 21 12 22
REMARK SMILES IDX 30 23 24 24 25 25 18 26 8 27 2 28 3 29 1 30 22 31
REMARK H PARENT 22 32
REMARK Flexibility Score: inf
ROOT
ATOM      1  C   UNL     1      -1.992  22.609  49.642  1.00  0.00     0.018 C 
ATOM      2  C   UNL     1      -3.015  22.558  50.782  1.00  0.00     0.009 C 
ATOM      3  C   UNL     1      -2.346  23.168  52.011  1.00  0.00     0.008 C 
ATOM      4  C   UNL     1      -1.013  23.817  51.556  1.00  0.00    -0.029 C 
ATOM      5  C   UNL     1      -1.066  23.812  49.987  1.00  0.00     0.006 C 
ATOM      6  C   UNL     1      -1.655  25.130  49.364  1.00  0.00    -0.000 C 
ATOM      7  C   UNL     1      -1.525  25.186  47.835  1.00  0.00     0.005 C 
ATOM      8  C   UNL     1      -2.647  26.049  47.279  1.00  0.00     0.005 C 
ATOM      9  C   UNL     1      -2.886  27.398  48.041  1.00  0.00     0.002 C 
ATOM     10  C   UNL     1      -4.412  27.691  48.373  1.00  0.00    -0.026 C 
ATOM     11  C   UNL     1      -5.310  27.404  47.115  1.00  0.00     0.010 C 
ATOM     12  C   UNL     1      -6.658  28.123  47.163  1.00  0.00     0.033 C 
ATOM     13  C   UNL     1      -6.535  29.657  47.175  1.00  0.00     0.120 C 
ATOM     14  C   UNL     1      -5.164  30.201  47.731  1.00  0.00    -0.006 C 
ATOM     15  C   UNL     1      -4.595  29.208  48.835  1.00  0.00     0.003 C 
ATOM     16  C   UNL     1      -3.364  29.811  49.580  1.00  0.00     0.005 C 
ATOM     17  C   UNL     1      -2.443  28.772  50.210  1.00  0.00     0.008 C 
ATOM     18  C   UNL     1      -1.804  27.763  49.186  1.00  0.00    -0.024 C 
ATOM     19  C   UNL     1      -1.124  26.463  49.965  1.00  0.00    -0.024 C 
ATOM     20  C   UNL     1      -1.486  26.383  51.485  1.00  0.00     0.008 C 
ATOM     21  C   UNL     1      -0.825  25.216  52.224  1.00  0.00     0.007 C 
ATOM     22  C   UNL     1       0.451  26.490  49.891  1.00  0.00     0.012 C 
ATOM     23  C   UNL     1      -0.696  28.595  48.443  1.00  0.00     0.012 C 
ATOM     24  C   UNL     1      -4.162  30.463  46.562  1.00  0.00     0.014 C 
ATOM     25  C   UNL     1      -5.451  31.582  48.384  1.00  0.00     0.014 C 
ATOM     26  C   UNL     1      -4.928  26.724  49.482  1.00  0.00     0.012 C 
ATOM     27  C   UNL     1       0.175  22.944  52.043  1.00  0.00     0.011 C 
ENDROOT
BRANCH   1  28
ATOM     28  C   UNL     1      -1.208  21.318  49.372  1.00  0.00    -0.077 C 
ATOM     29  C   UNL     1       0.173  21.427  48.778  1.00  0.00     0.039 C 
ATOM     30  C   UNL     1      -1.676  20.083  49.635  1.00  0.00     0.008 C 
ENDBRANCH   1  28
BRANCH  13  31
ATOM     31  O   UNL     1      -6.796  30.142  45.878  1.00  0.00    -0.393 OA
ATOM     32  H   UNL     1      -7.479  29.546  45.473  1.00  0.00     0.210 HD
ENDBRANCH  13  31
TORSDOF 2
ENDMDL
MODEL 4
REMARK VINA RESULT:    -6.808      4.459      9.081
REMARK INTER + INTRA:          -7.978
REMARK INTER:                  -7.445
REMARK INTRA:                  -0.533
REMARK UNBOUND:                -0.573
REMARK SMILES C=C(C)[C@H]1CC[C@]2(C)CC[C@@]3(C)[C@@H](CC[C@H]4[C@]5(C)CC[C@H](O)C(C)(C)[C@@H]5CC[C@]43C)[C@H]12
REMARK SMILES IDX 4 1 5 2 6 3 7 4 31 5 13 6 14 7 15 8 16 9 17 10 19 11 20 12
REMARK SMILES IDX 21 13 23 14 26 15 27 16 28 17 29 18 11 19 10 20 9 21 12 22
REMARK SMILES IDX 30 23 24 24 25 25 18 26 8 27 2 28 3 29 1 30 22 31
REMARK H PARENT 22 32
REMARK Flexibility Score: inf
ROOT
ATOM      1  C   UNL     1       5.680  17.974  44.617  1.00  0.00     0.018 C 
ATOM      2  C   UNL     1       5.015  16.742  45.241  1.00  0.00     0.009 C 
ATOM      3  C   UNL     1       5.703  16.491  46.579  1.00  0.00     0.008 C 
ATOM      4  C   UNL     1       6.609  17.712  46.885  1.00  0.00    -0.029 C 
ATOM      5  C   UNL     1       6.210  18.799  45.826  1.00  0.00     0.006 C 
ATOM      6  C   UNL     1       5.096  19.792  46.320  1.00  0.00    -0.000 C 
ATOM      7  C   UNL     1       4.852  20.958  45.349  1.00  0.00     0.005 C 
ATOM      8  C   UNL     1       3.415  21.429  45.499  1.00  0.00     0.005 C 
ATOM      9  C   UNL     1       2.922  21.595  46.978  1.00  0.00     0.002 C 
ATOM     10  C   UNL     1       1.501  20.944  47.264  1.00  0.00    -0.026 C 
ATOM     11  C   UNL     1       0.489  21.318  46.120  1.00  0.00     0.010 C 
ATOM     12  C   UNL     1      -0.973  21.189  46.545  1.00  0.00     0.033 C 
ATOM     13  C   UNL     1      -1.363  22.136  47.695  1.00  0.00     0.120 C 
ATOM     14  C   UNL     1      -0.161  22.593  48.605  1.00  0.00    -0.006 C 
ATOM     15  C   UNL     1       0.937  21.445  48.670  1.00  0.00     0.003 C 
ATOM     16  C   UNL     1       2.035  21.749  49.736  1.00  0.00     0.005 C 
ATOM     17  C   UNL     1       3.363  21.044  49.486  1.00  0.00     0.008 C 
ATOM     18  C   UNL     1       4.052  21.418  48.122  1.00  0.00    -0.024 C 
ATOM     19  C   UNL     1       5.279  20.361  47.756  1.00  0.00    -0.024 C 
ATOM     20  C   UNL     1       5.314  19.098  48.678  1.00  0.00     0.008 C 
ATOM     21  C   UNL     1       6.472  18.140  48.381  1.00  0.00     0.007 C 
ATOM     22  C   UNL     1       6.697  21.037  47.884  1.00  0.00     0.012 C 
ATOM     23  C   UNL     1       4.626  22.864  48.347  1.00  0.00     0.012 C 
ATOM     24  C   UNL     1       0.410  23.962  48.115  1.00  0.00     0.014 C 
ATOM     25  C   UNL     1      -0.731  22.838  50.030  1.00  0.00     0.014 C 
ATOM     26  C   UNL     1       1.596  19.388  47.243  1.00  0.00     0.012 C 
ATOM     27  C   UNL     1       8.096  17.310  46.688  1.00  0.00     0.011 C 
ENDROOT
BRANCH   1  28
ATOM     28  C   UNL     1       6.763  17.704  43.564  1.00  0.00    -0.077 C 
ATOM     29  C   UNL     1       7.430  18.882  42.901  1.00  0.00     0.039 C 
ATOM     30  C   UNL     1       7.163  16.473  43.193  1.00  0.00     0.008 C 
ENDBRANCH   1  28
BRANCH  13  31
ATOM     31  O   UNL     1      -2.054  23.240  47.157  1.00  0.00    -0.393 OA
ATOM     32  H   UNL     1      -2.877  22.890  46.726  1.00  0.00     0.210 HD
ENDBRANCH  13  31
TORSDOF 2
ENDMDL
MODEL 5
REMARK VINA RESULT:    -6.602      3.641      5.301
REMARK INTER + INTRA:          -7.754
REMARK INTER:                  -7.187
REMARK INTRA:                  -0.567
REMARK UNBOUND:                -0.573
REMARK SMILES C=C(C)[C@H]1CC[C@]2(C)CC[C@@]3(C)[C@@H](CC[C@H]4[C@]5(C)CC[C@H](O)C(C)(C)[C@@H]5CC[C@]43C)[C@H]12
REMARK SMILES IDX 4 1 5 2 6 3 7 4 31 5 13 6 14 7 15 8 16 9 17 10 19 11 20 12
REMARK SMILES IDX 21 13 23 14 26 15 27 16 28 17 29 18 11 19 10 20 9 21 12 22
REMARK SMILES IDX 30 23 24 24 25 25 18 26 8 27 2 28 3 29 1 30 22 31
REMARK H PARENT 22 32
REMARK Flexibility Score: inf
ROOT
ATOM      1  C   UNL     1      -0.293  21.904  49.810  1.00  0.00     0.018 C 
ATOM      2  C   UNL     1      -1.108  20.814  49.105  1.00  0.00     0.009 C 
ATOM      3  C   UNL     1      -1.469  21.348  47.723  1.00  0.00     0.008 C 
ATOM      4  C   UNL     1      -0.664  22.653  47.491  1.00  0.00    -0.029 C 
ATOM      5  C   UNL     1       0.382  22.707  48.660  1.00  0.00     0.006 C 
ATOM      6  C   UNL     1       1.770  22.059  48.305  1.00  0.00    -0.000 C 
ATOM      7  C   UNL     1       2.837  22.287  49.386  1.00  0.00     0.005 C 
ATOM      8  C   UNL     1       3.835  21.142  49.340  1.00  0.00     0.005 C 
ATOM      9  C   UNL     1       4.324  20.745  47.903  1.00  0.00     0.002 C 
ATOM     10  C   UNL     1       4.298  19.183  47.620  1.00  0.00    -0.026 C 
ATOM     11  C   UNL     1       4.915  18.397  48.833  1.00  0.00     0.010 C 
ATOM     12  C   UNL     1       5.399  16.997  48.459  1.00  0.00     0.033 C 
ATOM     13  C   UNL     1       6.533  16.997  47.418  1.00  0.00     0.120 C 
ATOM     14  C   UNL     1       6.583  18.280  46.503  1.00  0.00    -0.006 C 
ATOM     15  C   UNL     1       5.114  18.850  46.289  1.00  0.00     0.003 C 
ATOM     16  C   UNL     1       5.079  19.976  45.210  1.00  0.00     0.005 C 
ATOM     17  C   UNL     1       3.898  20.931  45.339  1.00  0.00     0.008 C 
ATOM     18  C   UNL     1       3.842  21.716  46.702  1.00  0.00    -0.024 C 
ATOM     19  C   UNL     1       2.365  22.442  46.920  1.00  0.00    -0.024 C 
ATOM     20  C   UNL     1       1.283  21.985  45.886  1.00  0.00     0.008 C 
ATOM     21  C   UNL     1      -0.069  22.686  46.047  1.00  0.00     0.007 C 
ATOM     22  C   UNL     1       2.456  24.011  46.795  1.00  0.00     0.012 C 
ATOM     23  C   UNL     1       4.973  22.802  46.585  1.00  0.00     0.012 C 
ATOM     24  C   UNL     1       7.573  19.335  47.091  1.00  0.00     0.014 C 
ATOM     25  C   UNL     1       7.168  17.842  45.132  1.00  0.00     0.014 C 
ATOM     26  C   UNL     1       2.831  18.671  47.495  1.00  0.00     0.012 C 
ATOM     27  C   UNL     1      -1.622  23.870  47.588  1.00  0.00     0.011 C 
ENDROOT
BRANCH   1  28
ATOM     28  C   UNL     1      -1.061  22.804  50.788  1.00  0.00    -0.077 C 
ATOM     29  C   UNL     1      -0.346  23.987  51.389  1.00  0.00     0.039 C 
ATOM     30  C   UNL     1      -2.344  22.606  51.146  1.00  0.00     0.008 C 
ENDBRANCH   1  28
BRANCH  13  31
ATOM     31  O   UNL     1       7.757  16.786  48.081  1.00  0.00    -0.393 OA
ATOM     32  H   UNL     1       8.131  15.931  47.744  1.00  0.00     0.210 HD
ENDBRANCH  13  31
TORSDOF 2
ENDMDL
MODEL 6
REMARK VINA RESULT:    -6.560      1.897      3.053
REMARK INTER + INTRA:          -7.709
REMARK INTER:                  -7.149
REMARK INTRA:                  -0.559
REMARK UNBOUND:                -0.573
REMARK SMILES C=C(C)[C@H]1CC[C@]2(C)CC[C@@]3(C)[C@@H](CC[C@H]4[C@]5(C)CC[C@H](O)C(C)(C)[C@@H]5CC[C@]43C)[C@H]12
REMARK SMILES IDX 4 1 5 2 6 3 7 4 31 5 13 6 14 7 15 8 16 9 17 10 19 11 20 12
REMARK SMILES IDX 21 13 23 14 26 15 27 16 28 17 29 18 11 19 10 20 9 21 12 22
REMARK SMILES IDX 30 23 24 24 25 25 18 26 8 27 2 28 3 29 1 30 22 31
REMARK H PARENT 22 32
REMARK Flexibility Score: inf
ROOT
ATOM      1  C   UNL     1      -2.589  26.288  48.348  1.00  0.00     0.018 C 
ATOM      2  C   UNL     1      -2.728  26.149  46.828  1.00  0.00     0.009 C 
ATOM      3  C   UNL     1      -1.347  26.389  46.227  1.00  0.00     0.008 C 
ATOM      4  C   UNL     1      -0.321  26.424  47.390  1.00  0.00    -0.029 C 
ATOM      5  C   UNL     1      -1.107  25.917  48.650  1.00  0.00     0.006 C 
ATOM      6  C   UNL     1      -0.988  24.368  48.896  1.00  0.00    -0.000 C 
ATOM      7  C   UNL     1      -1.603  23.919  50.230  1.00  0.00     0.005 C 
ATOM      8  C   UNL     1      -2.067  22.478  50.096  1.00  0.00     0.005 C 
ATOM      9  C   UNL     1      -1.044  21.513  49.403  1.00  0.00     0.002 C 
ATOM     10  C   UNL     1      -1.685  20.590  48.280  1.00  0.00    -0.026 C 
ATOM     11  C   UNL     1      -3.033  19.964  48.792  1.00  0.00     0.010 C 
ATOM     12  C   UNL     1      -3.440  18.706  48.026  1.00  0.00     0.033 C 
ATOM     13  C   UNL     1      -2.432  17.551  48.164  1.00  0.00     0.120 C 
ATOM     14  C   UNL     1      -0.962  18.001  48.510  1.00  0.00    -0.006 C 
ATOM     15  C   UNL     1      -0.668  19.428  47.875  1.00  0.00     0.003 C 
ATOM     16  C   UNL     1       0.838  19.817  47.989  1.00  0.00     0.005 C 
ATOM     17  C   UNL     1       1.103  21.317  47.939  1.00  0.00     0.008 C 
ATOM     18  C   UNL     1       0.416  22.138  49.092  1.00  0.00    -0.024 C 
ATOM     19  C   UNL     1       0.441  23.767  48.771  1.00  0.00    -0.024 C 
ATOM     20  C   UNL     1       0.887  24.111  47.311  1.00  0.00     0.008 C 
ATOM     21  C   UNL     1       0.961  25.613  47.018  1.00  0.00     0.007 C 
ATOM     22  C   UNL     1       1.429  24.541  49.725  1.00  0.00     0.012 C 
ATOM     23  C   UNL     1       1.270  21.821  50.373  1.00  0.00     0.012 C 
ATOM     24  C   UNL     1      -0.722  17.952  50.053  1.00  0.00     0.014 C 
ATOM     25  C   UNL     1      -0.002  16.952  47.882  1.00  0.00     0.014 C 
ATOM     26  C   UNL     1      -2.067  21.435  47.027  1.00  0.00     0.012 C 
ATOM     27  C   UNL     1       0.147  27.886  47.617  1.00  0.00     0.011 C 
ENDROOT
BRANCH   1  28
ATOM     28  C   UNL     1      -2.993  27.641  48.948  1.00  0.00    -0.077 C 
ATOM     29  C   UNL     1      -2.408  28.040  50.279  1.00  0.00     0.039 C 
ATOM     30  C   UNL     1      -3.842  28.504  48.358  1.00  0.00     0.008 C 
ENDBRANCH   1  28
BRANCH  13  31
ATOM     31  O   UNL     1      -2.927  16.629  49.107  1.00  0.00    -0.393 OA
ATOM     32  H   UNL     1      -3.914  16.734  49.131  1.00  0.00     0.210 HD
ENDBRANCH  13  31
TORSDOF 2
ENDMDL
MODEL 7
REMARK VINA RESULT:    -6.479      1.938      4.611
REMARK INTER + INTRA:          -7.620
REMARK INTER:                  -7.070
REMARK INTRA:                  -0.550
REMARK UNBOUND:                -0.573
REMARK SMILES C=C(C)[C@H]1CC[C@]2(C)CC[C@@]3(C)[C@@H](CC[C@H]4[C@]5(C)CC[C@H](O)C(C)(C)[C@@H]5CC[C@]43C)[C@H]12
REMARK SMILES IDX 4 1 5 2 6 3 7 4 31 5 13 6 14 7 15 8 16 9 17 10 19 11 20 12
REMARK SMILES IDX 21 13 23 14 26 15 27 16 28 17 29 18 11 19 10 20 9 21 12 22
REMARK SMILES IDX 30 23 24 24 25 25 18 26 8 27 2 28 3 29 1 30 22 31
REMARK H PARENT 22 32
REMARK Flexibility Score: inf
ROOT
ATOM      1  C   UNL     1      -0.615  28.628  50.166  1.00  0.00     0.018 C 
ATOM      2  C   UNL     1       0.913  28.512  50.132  1.00  0.00     0.009 C 
ATOM      3  C   UNL     1       1.365  28.136  51.539  1.00  0.00     0.008 C 
ATOM      4  C   UNL     1       0.103  27.776  52.366  1.00  0.00    -0.029 C 
ATOM      5  C   UNL     1      -1.063  27.683  51.319  1.00  0.00     0.006 C 
ATOM      6  C   UNL     1      -1.300  26.234  50.755  1.00  0.00    -0.000 C 
ATOM      7  C   UNL     1      -2.558  26.125  49.880  1.00  0.00     0.005 C 
ATOM      8  C   UNL     1      -2.359  25.005  48.872  1.00  0.00     0.005 C 
ATOM      9  C   UNL     1      -1.762  23.680  49.461  1.00  0.00     0.002 C 
ATOM     10  C   UNL     1      -0.567  23.074  48.607  1.00  0.00    -0.026 C 
ATOM     11  C   UNL     1      -0.929  23.083  47.078  1.00  0.00     0.010 C 
ATOM     12  C   UNL     1      -0.109  22.086  46.260  1.00  0.00     0.033 C 
ATOM     13  C   UNL     1      -0.335  20.621  46.673  1.00  0.00     0.120 C 
ATOM     14  C   UNL     1      -0.837  20.427  48.155  1.00  0.00    -0.006 C 
ATOM     15  C   UNL     1      -0.254  21.582  49.080  1.00  0.00     0.003 C 
ATOM     16  C   UNL     1      -0.528  21.310  50.591  1.00  0.00     0.005 C 
ATOM     17  C   UNL     1      -0.525  22.561  51.463  1.00  0.00     0.008 C 
ATOM     18  C   UNL     1      -1.611  23.629  51.071  1.00  0.00    -0.024 C 
ATOM     19  C   UNL     1      -1.315  25.088  51.806  1.00  0.00    -0.024 C 
ATOM     20  C   UNL     1       0.086  25.169  52.497  1.00  0.00     0.008 C 
ATOM     21  C   UNL     1       0.350  26.493  53.221  1.00  0.00     0.007 C 
ATOM     22  C   UNL     1      -2.376  25.409  52.928  1.00  0.00     0.012 C 
ATOM     23  C   UNL     1      -2.970  23.026  51.583  1.00  0.00     0.012 C 
ATOM     24  C   UNL     1      -2.396  20.332  48.198  1.00  0.00     0.014 C 
ATOM     25  C   UNL     1      -0.298  19.055  48.646  1.00  0.00     0.014 C 
ATOM     26  C   UNL     1       0.708  23.961  48.739  1.00  0.00     0.012 C 
ATOM     27  C   UNL     1      -0.191  28.917  53.377  1.00  0.00     0.011 C 
ENDROOT
BRANCH   1  28
ATOM     28  C   UNL     1      -1.187  30.045  50.307  1.00  0.00    -0.077 C 
ATOM     29  C   UNL     1      -2.683  30.209  50.399  1.00  0.00     0.039 C 
ATOM     30  C   UNL     1      -0.435  31.161  50.356  1.00  0.00     0.008 C 
ENDBRANCH   1  28
BRANCH  13  31
ATOM     31  O   UNL     1      -1.210  20.019  45.748  1.00  0.00    -0.393 OA
ATOM     32  H   UNL     1      -0.670  19.397  45.194  1.00  0.00     0.210 HD
ENDBRANCH  13  31
TORSDOF 2
ENDMDL
MODEL 8
REMARK VINA RESULT:    -6.377      4.666      6.918
REMARK INTER + INTRA:          -7.509
REMARK INTER:                  -6.951
REMARK INTRA:                  -0.558
REMARK UNBOUND:                -0.573
REMARK SMILES C=C(C)[C@H]1CC[C@]2(C)CC[C@@]3(C)[C@@H](CC[C@H]4[C@]5(C)CC[C@H](O)C(C)(C)[C@@H]5CC[C@]43C)[C@H]12
REMARK SMILES IDX 4 1 5 2 6 3 7 4 31 5 13 6 14 7 15 8 16 9 17 10 19 11 20 12
REMARK SMILES IDX 21 13 23 14 26 15 27 16 28 17 29 18 11 19 10 20 9 21 12 22
REMARK SMILES IDX 30 23 24 24 25 25 18 26 8 27 2 28 3 29 1 30 22 31
REMARK H PARENT 22 32
REMARK Flexibility Score: inf
ROOT
ATOM      1  C   UNL     1       0.545  20.376  48.546  1.00  0.00     0.018 C 
ATOM      2  C   UNL     1      -0.037  19.730  47.284  1.00  0.00     0.009 C 
ATOM      3  C   UNL     1      -0.195  20.837  46.246  1.00  0.00     0.008 C 
ATOM      4  C   UNL     1       0.522  22.102  46.785  1.00  0.00    -0.029 C 
ATOM      5  C   UNL     1       1.339  21.614  48.033  1.00  0.00     0.006 C 
ATOM      6  C   UNL     1       2.818  21.195  47.703  1.00  0.00    -0.000 C 
ATOM      7  C   UNL     1       3.657  20.901  48.957  1.00  0.00     0.005 C 
ATOM      8  C   UNL     1       4.742  19.900  48.597  1.00  0.00     0.005 C 
ATOM      9  C   UNL     1       5.507  20.201  47.261  1.00  0.00     0.002 C 
ATOM     10  C   UNL     1       5.666  18.940  46.309  1.00  0.00    -0.026 C 
ATOM     11  C   UNL     1       6.127  17.686  47.136  1.00  0.00     0.010 C 
ATOM     12  C   UNL     1       6.787  16.608  46.276  1.00  0.00     0.033 C 
ATOM     13  C   UNL     1       8.081  17.081  45.588  1.00  0.00     0.120 C 
ATOM     14  C   UNL     1       8.179  18.639  45.375  1.00  0.00    -0.006 C 
ATOM     15  C   UNL     1       6.727  19.249  45.157  1.00  0.00     0.003 C 
ATOM     16  C   UNL     1       6.784  20.744  44.714  1.00  0.00     0.005 C 
ATOM     17  C   UNL     1       5.521  21.538  45.025  1.00  0.00     0.008 C 
ATOM     18  C   UNL     1       5.161  21.615  46.554  1.00  0.00    -0.024 C 
ATOM     19  C   UNL     1       3.611  22.166  46.782  1.00  0.00    -0.024 C 
ATOM     20  C   UNL     1       2.770  22.234  45.465  1.00  0.00     0.008 C 
ATOM     21  C   UNL     1       1.355  22.788  45.656  1.00  0.00     0.007 C 
ATOM     22  C   UNL     1       3.586  23.619  47.394  1.00  0.00     0.012 C 
ATOM     23  C   UNL     1       6.196  22.631  47.159  1.00  0.00     0.012 C 
ATOM     24  C   UNL     1       8.957  19.307  46.553  1.00  0.00     0.014 C 
ATOM     25  C   UNL     1       9.031  18.874  44.096  1.00  0.00     0.014 C 
ATOM     26  C   UNL     1       4.292  18.546  45.686  1.00  0.00     0.012 C 
ATOM     27  C   UNL     1      -0.540  23.144  47.229  1.00  0.00     0.011 C 
ENDROOT
BRANCH   1  28
ATOM     28  C   UNL     1      -0.456  20.733  49.653  1.00  0.00    -0.077 C 
ATOM     29  C   UNL     1      -1.867  20.216  49.538  1.00  0.00     0.039 C 
ATOM     30  C   UNL     1      -0.154  21.483  50.730  1.00  0.00     0.008 C 
ENDBRANCH   1  28
BRANCH  13  31
ATOM     31  O   UNL     1       9.184  16.587  46.311  1.00  0.00    -0.393 OA
ATOM     32  H   UNL     1       8.911  15.720  46.709  1.00  0.00     0.210 HD
ENDBRANCH  13  31
TORSDOF 2
ENDMDL
MODEL 9
REMARK VINA RESULT:    -6.340      2.946      7.550
REMARK INTER + INTRA:          -7.470
REMARK INTER:                  -6.923
REMARK INTRA:                  -0.546
REMARK UNBOUND:                -0.573
REMARK SMILES C=C(C)[C@H]1CC[C@]2(C)CC[C@@]3(C)[C@@H](CC[C@H]4[C@]5(C)CC[C@H](O)C(C)(C)[C@@H]5CC[C@]43C)[C@H]12
REMARK SMILES IDX 4 1 5 2 6 3 7 4 31 5 13 6 14 7 15 8 16 9 17 10 19 11 20 12
REMARK SMILES IDX 21 13 23 14 26 15 27 16 28 17 29 18 11 19 10 20 9 21 12 22
REMARK SMILES IDX 30 23 24 24 25 25 18 26 8 27 2 28 3 29 1 30 22 31
REMARK H PARENT 22 32
REMARK Flexibility Score: inf
ROOT
ATOM      1  C   UNL     1       0.631  18.936  46.973  1.00  0.00     0.018 C 
ATOM      2  C   UNL     1      -0.704  18.774  46.237  1.00  0.00     0.009 C 
ATOM      3  C   UNL     1      -1.770  18.510  47.295  1.00  0.00     0.008 C 
ATOM      4  C   UNL     1      -1.134  18.762  48.687  1.00  0.00    -0.029 C 
ATOM      5  C   UNL     1       0.246  19.450  48.392  1.00  0.00     0.006 C 
ATOM      6  C   UNL     1       0.187  21.021  48.389  1.00  0.00    -0.000 C 
ATOM      7  C   UNL     1       1.573  21.677  48.286  1.00  0.00     0.005 C 
ATOM      8  C   UNL     1       1.424  23.035  47.619  1.00  0.00     0.005 C 
ATOM      9  C   UNL     1       0.239  23.911  48.154  1.00  0.00     0.002 C 
ATOM     10  C   UNL     1      -0.651  24.561  47.009  1.00  0.00    -0.026 C 
ATOM     11  C   UNL     1       0.264  25.188  45.895  1.00  0.00     0.010 C 
ATOM     12  C   UNL     1      -0.450  26.249  45.058  1.00  0.00     0.033 C 
ATOM     13  C   UNL     1      -0.908  27.470  45.877  1.00  0.00     0.120 C 
ATOM     14  C   UNL     1      -1.125  27.187  47.412  1.00  0.00    -0.006 C 
ATOM     15  C   UNL     1      -1.603  25.685  47.624  1.00  0.00     0.003 C 
ATOM     16  C   UNL     1      -2.053  25.420  49.094  1.00  0.00     0.005 C 
ATOM     17  C   UNL     1      -1.981  23.958  49.517  1.00  0.00     0.008 C 
ATOM     18  C   UNL     1      -0.540  23.331  49.447  1.00  0.00    -0.024 C 
ATOM     19  C   UNL     1      -0.596  21.675  49.563  1.00  0.00    -0.024 C 
ATOM     20  C   UNL     1      -2.041  21.087  49.448  1.00  0.00     0.008 C 
ATOM     21  C   UNL     1      -2.110  19.565  49.603  1.00  0.00     0.007 C 
ATOM     22  C   UNL     1      -0.021  21.161  50.938  1.00  0.00     0.012 C 
ATOM     23  C   UNL     1       0.221  23.939  50.681  1.00  0.00     0.012 C 
ATOM     24  C   UNL     1       0.161  27.544  48.223  1.00  0.00     0.014 C 
ATOM     25  C   UNL     1      -2.238  28.154  47.903  1.00  0.00     0.014 C 
ATOM     26  C   UNL     1      -1.499  23.471  46.287  1.00  0.00     0.012 C 
ATOM     27  C   UNL     1      -0.899  17.401  49.397  1.00  0.00     0.011 C 
ENDROOT
BRANCH   1  28
ATOM     28  C   UNL     1       1.539  17.700  47.018  1.00  0.00    -0.077 C 
ATOM     29  C   UNL     1       2.848  17.797  47.759  1.00  0.00     0.039 C 
ATOM     30  C   UNL     1       1.239  16.523  46.437  1.00  0.00     0.008 C 
ENDBRANCH   1  28
BRANCH  13  31
ATOM     31  O   UNL     1       0.005  28.522  45.668  1.00  0.00    -0.393 OA
ATOM     32  H   UNL     1      -0.515  29.303  45.343  1.00  0.00     0.210 HD
ENDBRANCH  13  31
TORSDOF 2
ENDMDL
