MODEL 1
REMARK VINA RESULT:    -4.581      0.000      0.000
REMARK INTER + INTRA:          -6.984
REMARK INTER:                  -6.456
REMARK INTRA:                  -0.529
REMARK UNBOUND:                -0.529
REMARK SMILES CCCCCCCCC(=O)[O-]
REMARK SMILES IDX 6 1 7 2 8 3 9 4 10 5 11 6 5 7 4 8 3 9 2 10 1 11
REMARK H PARENT
REMARK Flexibility Score: inf
ROOT
ATOM      1  C   UNL     1      -7.723  61.496  53.617  1.00  0.00     0.000 C 
ENDROOT
BRANCH   1   2
ATOM      2  C   UNL     1      -6.412  60.777  53.976  1.00  0.00     0.006 C 
BRANCH   2   3
ATOM      3  C   UNL     1      -5.995  61.026  55.432  1.00  0.00     0.053 C 
BRANCH   3   4
ATOM      4  C   UNL     1      -5.768  59.743  56.170  1.00  0.00     0.041 C 
ATOM      5  O   UNL     1      -6.631  58.826  56.129  1.00  0.00    -0.550 OA
ATOM      6  O   UNL     1      -4.620  59.572  56.933  1.00  0.00    -0.550 OA
ENDBRANCH   3   4
ENDBRANCH   2   3
ENDBRANCH   1   2
BRANCH   1   7
ATOM      7  C   UNL     1      -7.922  62.797  54.413  1.00  0.00     0.000 C 
BRANCH   7   8
ATOM      8  C   UNL     1      -7.942  64.043  53.514  1.00  0.00    -0.000 C 
BRANCH   8   9
ATOM      9  C   UNL     1      -6.519  64.435  53.091  1.00  0.00    -0.000 C 
BRANCH   9  10
ATOM     10  C   UNL     1      -6.280  64.258  51.584  1.00  0.00    -0.003 C 
ATOM     11  C   UNL     1      -7.417  64.825  50.735  1.00  0.00     0.004 C 
ENDBRANCH   9  10
ENDBRANCH   8   9
ENDBRANCH   7   8
ENDBRANCH   1   7
TORSDOF 7
ENDMDL
MODEL 2
REMARK VINA RESULT:    -4.580      3.584      5.811
REMARK INTER + INTRA:          -6.983
REMARK INTER:                  -6.560
REMARK INTRA:                  -0.423
REMARK UNBOUND:                -0.529
REMARK SMILES CCCCCCCCC(=O)[O-]
REMARK SMILES IDX 6 1 7 2 8 3 9 4 10 5 11 6 5 7 4 8 3 9 2 10 1 11
REMARK H PARENT
REMARK Flexibility Score: inf
ROOT
ATOM      1  C   UNL     1      -7.948  64.027  53.643  1.00  0.00     0.000 C 
ENDROOT
BRANCH   1   2
ATOM      2  C   UNL     1      -6.593  64.369  53.000  1.00  0.00     0.006 C 
BRANCH   2   3
ATOM      3  C   UNL     1      -6.742  65.323  51.808  1.00  0.00     0.053 C 
BRANCH   3   4
ATOM      4  C   UNL     1      -7.098  64.590  50.551  1.00  0.00     0.041 C 
ATOM      5  O   UNL     1      -6.274  63.797  50.024  1.00  0.00    -0.550 OA
ATOM      6  O   UNL     1      -8.328  64.809  49.942  1.00  0.00    -0.550 OA
ENDBRANCH   3   4
ENDBRANCH   2   3
ENDBRANCH   1   2
BRANCH   1   7
ATOM      7  C   UNL     1      -7.923  62.690  54.402  1.00  0.00     0.000 C 
BRANCH   7   8
ATOM      8  C   UNL     1      -7.558  61.504  53.496  1.00  0.00    -0.000 C 
BRANCH   8   9
ATOM      9  C   UNL     1      -6.318  60.770  54.028  1.00  0.00    -0.000 C 
BRANCH   9  10
ATOM     10  C   UNL     1      -6.258  60.746  55.563  1.00  0.00    -0.003 C 
ATOM     11  C   UNL     1      -6.223  59.326  56.130  1.00  0.00     0.004 C 
ENDBRANCH   9  10
ENDBRANCH   8   9
ENDBRANCH   7   8
ENDBRANCH   1   7
TORSDOF 7
ENDMDL
MODEL 3
REMARK VINA RESULT:    -4.550     13.848     15.667
REMARK INTER + INTRA:          -6.941
REMARK INTER:                  -6.176
REMARK INTRA:                  -0.765
REMARK UNBOUND:                -0.529
REMARK SMILES CCCCCCCCC(=O)[O-]
REMARK SMILES IDX 6 1 7 2 8 3 9 4 10 5 11 6 5 7 4 8 3 9 2 10 1 11
REMARK H PARENT
REMARK Flexibility Score: inf
ROOT
ATOM      1  C   UNL     1     -12.246  63.260  39.435  1.00  0.00     0.000 C 
ENDROOT
BRANCH   1   2
ATOM      2  C   UNL     1     -10.978  62.893  38.645  1.00  0.00     0.006 C 
BRANCH   2   3
ATOM      3  C   UNL     1     -10.044  61.975  39.444  1.00  0.00     0.053 C 
BRANCH   3   4
ATOM      4  C   UNL     1      -9.533  62.646  40.681  1.00  0.00     0.041 C 
ATOM      5  O   UNL     1      -8.732  63.614  40.593  1.00  0.00    -0.550 OA
ATOM      6  O   UNL     1      -9.912  62.179  41.934  1.00  0.00    -0.550 OA
ENDBRANCH   3   4
ENDBRANCH   2   3
ENDBRANCH   1   2
BRANCH   1   7
ATOM      7  C   UNL     1     -13.538  62.912  38.676  1.00  0.00     0.000 C 
BRANCH   7   8
ATOM      8  C   UNL     1     -14.275  61.709  39.286  1.00  0.00    -0.000 C 
BRANCH   8   9
ATOM      9  C   UNL     1     -13.716  60.388  38.737  1.00  0.00    -0.000 C 
BRANCH   9  10
ATOM     10  C   UNL     1     -12.850  59.641  39.763  1.00  0.00    -0.003 C 
ATOM     11  C   UNL     1     -13.089  60.117  41.196  1.00  0.00     0.004 C 
ENDBRANCH   9  10
ENDBRANCH   8   9
ENDBRANCH   7   8
ENDBRANCH   1   7
TORSDOF 7
ENDMDL
MODEL 4
REMARK VINA RESULT:    -4.530      3.634      5.890
REMARK INTER + INTRA:          -6.912
REMARK INTER:                  -6.597
REMARK INTRA:                  -0.316
REMARK UNBOUND:                -0.529
REMARK SMILES CCCCCCCCC(=O)[O-]
REMARK SMILES IDX 6 1 7 2 8 3 9 4 10 5 11 6 5 7 4 8 3 9 2 10 1 11
REMARK H PARENT
REMARK Flexibility Score: inf
ROOT
ATOM      1  C   UNL     1      -7.876  62.806  54.400  1.00  0.00     0.000 C 
ENDROOT
BRANCH   1   2
ATOM      2  C   UNL     1      -7.999  64.065  53.524  1.00  0.00     0.006 C 
BRANCH   2   3
ATOM      3  C   UNL     1      -6.639  64.533  52.990  1.00  0.00     0.053 C 
BRANCH   3   4
ATOM      4  C   UNL     1      -6.764  65.167  51.638  1.00  0.00     0.041 C 
ATOM      5  O   UNL     1      -7.812  65.008  50.957  1.00  0.00    -0.550 OA
ATOM      6  O   UNL     1      -5.710  65.906  51.115  1.00  0.00    -0.550 OA
ENDBRANCH   3   4
ENDBRANCH   2   3
ENDBRANCH   1   2
BRANCH   1   7
ATOM      7  C   UNL     1      -7.595  61.538  53.578  1.00  0.00     0.000 C 
BRANCH   7   8
ATOM      8  C   UNL     1      -6.367  60.766  54.083  1.00  0.00    -0.000 C 
BRANCH   8   9
ATOM      9  C   UNL     1      -6.359  60.693  55.618  1.00  0.00    -0.000 C 
BRANCH   9  10
ATOM     10  C   UNL     1      -6.114  59.269  56.141  1.00  0.00    -0.003 C 
ATOM     11  C   UNL     1      -4.631  58.902  56.181  1.00  0.00     0.004 C 
ENDBRANCH   9  10
ENDBRANCH   8   9
ENDBRANCH   7   8
ENDBRANCH   1   7
TORSDOF 7
ENDMDL
MODEL 5
REMARK VINA RESULT:    -4.476     14.327     15.935
REMARK INTER + INTRA:          -6.837
REMARK INTER:                  -6.325
REMARK INTRA:                  -0.512
REMARK UNBOUND:                -0.529
REMARK SMILES CCCCCCCCC(=O)[O-]
REMARK SMILES IDX 6 1 7 2 8 3 9 4 10 5 11 6 5 7 4 8 3 9 2 10 1 11
REMARK H PARENT
REMARK Flexibility Score: inf
ROOT
ATOM      1  C   UNL     1     -11.894  60.789  40.541  1.00  0.00     0.000 C 
ENDROOT
BRANCH   1   2
ATOM      2  C   UNL     1     -11.015  61.587  39.564  1.00  0.00     0.006 C 
BRANCH   2   3
ATOM      3  C   UNL     1      -9.625  61.881  40.144  1.00  0.00     0.053 C 
BRANCH   3   4
ATOM      4  C   UNL     1      -9.436  63.342  40.415  1.00  0.00     0.041 C 
ATOM      5  O   UNL     1     -10.290  63.978  41.089  1.00  0.00    -0.550 OA
ATOM      6  O   UNL     1      -8.334  64.010  39.896  1.00  0.00    -0.550 OA
ENDBRANCH   3   4
ENDBRANCH   2   3
ENDBRANCH   1   2
BRANCH   1   7
ATOM      7  C   UNL     1     -12.632  59.625  39.858  1.00  0.00     0.000 C 
BRANCH   7   8
ATOM      8  C   UNL     1     -13.410  60.070  38.611  1.00  0.00    -0.000 C 
BRANCH   8   9
ATOM      9  C   UNL     1     -14.852  60.455  38.973  1.00  0.00    -0.000 C 
BRANCH   9  10
ATOM     10  C   UNL     1     -15.319  61.734  38.261  1.00  0.00    -0.003 C 
ATOM     11  C   UNL     1     -14.442  62.944  38.585  1.00  0.00     0.004 C 
ENDBRANCH   9  10
ENDBRANCH   8   9
ENDBRANCH   7   8
ENDBRANCH   1   7
TORSDOF 7
ENDMDL
MODEL 6
REMARK VINA RESULT:    -4.473     13.320     15.459
REMARK INTER + INTRA:          -6.832
REMARK INTER:                  -6.412
REMARK INTRA:                  -0.420
REMARK UNBOUND:                -0.529
REMARK SMILES CCCCCCCCC(=O)[O-]
REMARK SMILES IDX 6 1 7 2 8 3 9 4 10 5 11 6 5 7 4 8 3 9 2 10 1 11
REMARK H PARENT
REMARK Flexibility Score: inf
ROOT
ATOM      1  C   UNL     1     -10.434  62.511  38.614  1.00  0.00     0.000 C 
ENDROOT
BRANCH   1   2
ATOM      2  C   UNL     1      -9.901  63.893  39.029  1.00  0.00     0.006 C 
BRANCH   2   3
ATOM      3  C   UNL     1      -8.858  63.799  40.150  1.00  0.00     0.053 C 
BRANCH   3   4
ATOM      4  C   UNL     1      -9.375  64.367  41.437  1.00  0.00     0.041 C 
ATOM      5  O   UNL     1      -9.306  65.605  41.656  1.00  0.00    -0.550 OA
ATOM      6  O   UNL     1      -9.901  63.524  42.408  1.00  0.00    -0.550 OA
ENDBRANCH   3   4
ENDBRANCH   2   3
ENDBRANCH   1   2
BRANCH   1   7
ATOM      7  C   UNL     1     -11.698  62.107  39.389  1.00  0.00     0.000 C 
BRANCH   7   8
ATOM      8  C   UNL     1     -11.513  60.805  40.184  1.00  0.00    -0.000 C 
BRANCH   8   9
ATOM      9  C   UNL     1     -12.709  59.863  39.978  1.00  0.00    -0.000 C 
BRANCH   9  10
ATOM     10  C   UNL     1     -13.317  59.978  38.572  1.00  0.00    -0.003 C 
ATOM     11  C   UNL     1     -14.807  60.319  38.599  1.00  0.00     0.004 C 
ENDBRANCH   9  10
ENDBRANCH   8   9
ENDBRANCH   7   8
ENDBRANCH   1   7
TORSDOF 7
ENDMDL
MODEL 7
REMARK VINA RESULT:    -4.379     13.235     15.274
REMARK INTER + INTRA:          -6.700
REMARK INTER:                  -6.117
REMARK INTRA:                  -0.583
REMARK UNBOUND:                -0.529
REMARK SMILES CCCCCCCCC(=O)[O-]
REMARK SMILES IDX 6 1 7 2 8 3 9 4 10 5 11 6 5 7 4 8 3 9 2 10 1 11
REMARK H PARENT
REMARK Flexibility Score: inf
ROOT
ATOM      1  C   UNL     1     -10.213  62.604  38.589  1.00  0.00     0.000 C 
ENDROOT
BRANCH   1   2
ATOM      2  C   UNL     1     -11.537  62.277  39.300  1.00  0.00     0.006 C 
BRANCH   2   3
ATOM      3  C   UNL     1     -11.435  61.010  40.160  1.00  0.00     0.053 C 
BRANCH   3   4
ATOM      4  C   UNL     1     -12.658  60.155  40.033  1.00  0.00     0.041 C 
ATOM      5  O   UNL     1     -13.267  59.762  41.064  1.00  0.00    -0.550 OA
ATOM      6  O   UNL     1     -13.107  59.761  38.779  1.00  0.00    -0.550 OA
ENDBRANCH   3   4
ENDBRANCH   2   3
ENDBRANCH   1   2
BRANCH   1   7
ATOM      7  C   UNL     1      -9.949  64.115  38.495  1.00  0.00     0.000 C 
BRANCH   7   8
ATOM      8  C   UNL     1      -8.474  64.473  38.733  1.00  0.00    -0.000 C 
BRANCH   8   9
ATOM      9  C   UNL     1      -8.128  64.406  40.228  1.00  0.00    -0.000 C 
BRANCH   9  10
ATOM     10  C   UNL     1      -9.236  64.991  41.118  1.00  0.00    -0.003 C 
ATOM     11  C   UNL     1      -9.739  63.996  42.164  1.00  0.00     0.004 C 
ENDBRANCH   9  10
ENDBRANCH   8   9
ENDBRANCH   7   8
ENDBRANCH   1   7
TORSDOF 7
ENDMDL
MODEL 8
REMARK VINA RESULT:    -4.338     14.686     16.301
REMARK INTER + INTRA:          -6.641
REMARK INTER:                  -6.321
REMARK INTRA:                  -0.320
REMARK UNBOUND:                -0.529
REMARK SMILES CCCCCCCCC(=O)[O-]
REMARK SMILES IDX 6 1 7 2 8 3 9 4 10 5 11 6 5 7 4 8 3 9 2 10 1 11
REMARK H PARENT
REMARK Flexibility Score: inf
ROOT
ATOM      1  C   UNL     1     -11.691  60.746  40.295  1.00  0.00     0.000 C 
ENDROOT
BRANCH   1   2
ATOM      2  C   UNL     1     -13.001  59.968  40.081  1.00  0.00     0.006 C 
BRANCH   2   3
ATOM      3  C   UNL     1     -13.475  60.022  38.623  1.00  0.00     0.053 C 
BRANCH   3   4
ATOM      4  C   UNL     1     -14.833  60.642  38.505  1.00  0.00     0.041 C 
ATOM      5  O   UNL     1     -15.867  59.926  38.580  1.00  0.00    -0.550 OA
ATOM      6  O   UNL     1     -14.959  62.007  38.276  1.00  0.00    -0.550 OA
ENDBRANCH   3   4
ENDBRANCH   2   3
ENDBRANCH   1   2
BRANCH   1   7
ATOM      7  C   UNL     1     -11.492  61.864  39.259  1.00  0.00     0.000 C 
BRANCH   7   8
ATOM      8  C   UNL     1     -10.014  62.242  39.075  1.00  0.00    -0.000 C 
BRANCH   8   9
ATOM      9  C   UNL     1      -9.843  63.767  39.004  1.00  0.00    -0.000 C 
BRANCH   9  10
ATOM     10  C   UNL     1      -8.806  64.292  40.009  1.00  0.00    -0.003 C 
ATOM     11  C   UNL     1      -9.437  64.748  41.325  1.00  0.00     0.004 C 
ENDBRANCH   9  10
ENDBRANCH   8   9
ENDBRANCH   7   8
ENDBRANCH   1   7
TORSDOF 7
ENDMDL
MODEL 9
REMARK VINA RESULT:    -4.289     14.916     16.884
REMARK INTER + INTRA:          -6.573
REMARK INTER:                  -6.340
REMARK INTRA:                  -0.233
REMARK UNBOUND:                -0.529
REMARK SMILES CCCCCCCCC(=O)[O-]
REMARK SMILES IDX 6 1 7 2 8 3 9 4 10 5 11 6 5 7 4 8 3 9 2 10 1 11
REMARK H PARENT
REMARK Flexibility Score: inf
ROOT
ATOM      1  C   UNL     1     -13.725  60.335  40.083  1.00  0.00     0.000 C 
ENDROOT
BRANCH   1   2
ATOM      2  C   UNL     1     -14.232  60.293  38.631  1.00  0.00     0.006 C 
BRANCH   2   3
ATOM      3  C   UNL     1     -15.272  61.385  38.348  1.00  0.00     0.053 C 
BRANCH   3   4
ATOM      4  C   UNL     1     -16.670  60.852  38.420  1.00  0.00     0.041 C 
ATOM      5  O   UNL     1     -17.644  61.580  38.093  1.00  0.00    -0.550 OA
ATOM      6  O   UNL     1     -16.901  59.562  38.882  1.00  0.00    -0.550 OA
ENDBRANCH   3   4
ENDBRANCH   2   3
ENDBRANCH   1   2
BRANCH   1   7
ATOM      7  C   UNL     1     -12.192  60.264  40.176  1.00  0.00     0.000 C 
BRANCH   7   8
ATOM      8  C   UNL     1     -11.504  61.486  39.549  1.00  0.00    -0.000 C 
BRANCH   8   9
ATOM      9  C   UNL     1     -10.003  61.494  39.872  1.00  0.00    -0.000 C 
BRANCH   9  10
ATOM     10  C   UNL     1      -9.638  62.516  40.960  1.00  0.00    -0.003 C 
ATOM     11  C   UNL     1      -8.847  63.705  40.413  1.00  0.00     0.004 C 
ENDBRANCH   9  10
ENDBRANCH   8   9
ENDBRANCH   7   8
ENDBRANCH   1   7
TORSDOF 7
ENDMDL
