MODEL 1
REMARK VINA RESULT:    -4.099      0.000      0.000
REMARK INTER + INTRA:         -10.631
REMARK INTER:                  -7.932
REMARK INTRA:                  -2.699
REMARK UNBOUND:                -2.699
REMARK SMILES CCCCCCCCCCCCCCCCCC(=O)[O-]
REMARK SMILES IDX 10 1 11 2 12 3 13 4 14 5 15 6 16 7 17 8 18 9 19 10 20 11
REMARK SMILES IDX 9 12 8 13 7 14 6 15 5 16 4 17 3 18 2 19 1 20
REMARK H PARENT
REMARK Flexibility Score: inf
ROOT
ATOM      1  C   UNL     1     162.798 176.171 180.495  1.00  0.00     0.000 C 
ENDROOT
BRANCH   1   2
ATOM      2  C   UNL     1     164.007 176.836 181.175  1.00  0.00     0.000 C 
BRANCH   2   3
ATOM      3  C   UNL     1     163.650 178.184 181.826  1.00  0.00     0.000 C 
BRANCH   3   4
ATOM      4  C   UNL     1     164.359 179.373 181.156  1.00  0.00     0.000 C 
BRANCH   4   5
ATOM      5  C   UNL     1     163.794 179.689 179.760  1.00  0.00     0.000 C 
BRANCH   5   6
ATOM      6  C   UNL     1     162.285 179.986 179.788  1.00  0.00     0.000 C 
BRANCH   6   7
ATOM      7  C   UNL     1     161.522 179.276 178.657  1.00  0.00     0.006 C 
BRANCH   7   8
ATOM      8  C   UNL     1     162.466 178.560 177.682  1.00  0.00     0.053 C 
BRANCH   8   9
ATOM      9  C   UNL     1     161.804 177.388 177.025  1.00  0.00     0.041 C 
ATOM     10  O   UNL     1     160.844 176.802 177.591  1.00  0.00    -0.550 OA
ATOM     11  O   UNL     1     162.268 176.925 175.800  1.00  0.00    -0.550 OA
ENDBRANCH   8   9
ENDBRANCH   7   8
ENDBRANCH   6   7
ENDBRANCH   5   6
ENDBRANCH   4   5
ENDBRANCH   3   4
ENDBRANCH   2   3
ENDBRANCH   1   2
BRANCH   1  12
ATOM     12  C   UNL     1     161.465 176.555 181.163  1.00  0.00     0.000 C 
BRANCH  12  13
ATOM     13  C   UNL     1     160.468 175.385 181.211  1.00  0.00    -0.000 C 
BRANCH  13  14
ATOM     14  C   UNL     1     160.751 174.322 180.135  1.00  0.00    -0.000 C 
BRANCH  14  15
ATOM     15  C   UNL     1     161.065 172.943 180.738  1.00  0.00    -0.000 C 
BRANCH  15  16
ATOM     16  C   UNL     1     160.949 172.927 182.274  1.00  0.00    -0.000 C 
BRANCH  16  17
ATOM     17  C   UNL     1     162.264 172.519 182.958  1.00  0.00    -0.000 C 
BRANCH  17  18
ATOM     18  C   UNL     1     163.463 173.355 182.475  1.00  0.00    -0.000 C 
BRANCH  18  19
ATOM     19  C   UNL     1     164.493 172.515 181.705  1.00  0.00    -0.003 C 
ATOM     20  C   UNL     1     165.393 173.362 180.807  1.00  0.00     0.004 C 
ENDBRANCH  18  19
ENDBRANCH  17  18
ENDBRANCH  16  17
ENDBRANCH  15  16
ENDBRANCH  14  15
ENDBRANCH  13  14
ENDBRANCH  12  13
ENDBRANCH   1  12
TORSDOF 16
ENDMDL
MODEL 2
REMARK VINA RESULT:    -4.039      1.601      3.609
REMARK INTER + INTRA:         -10.516
REMARK INTER:                  -7.601
REMARK INTRA:                  -2.914
REMARK UNBOUND:                -2.699
REMARK SMILES CCCCCCCCCCCCCCCCCC(=O)[O-]
REMARK SMILES IDX 10 1 11 2 12 3 13 4 14 5 15 6 16 7 17 8 18 9 19 10 20 11
REMARK SMILES IDX 9 12 8 13 7 14 6 15 5 16 4 17 3 18 2 19 1 20
REMARK H PARENT
REMARK Flexibility Score: inf
ROOT
ATOM      1  C   UNL     1     164.607 179.771 180.631  1.00  0.00     0.000 C 
ENDROOT
BRANCH   1   2
ATOM      2  C   UNL     1     163.429 179.346 181.525  1.00  0.00     0.000 C 
BRANCH   2   3
ATOM      3  C   UNL     1     162.066 179.735 180.928  1.00  0.00     0.000 C 
BRANCH   3   4
ATOM      4  C   UNL     1     162.150 180.078 179.431  1.00  0.00     0.000 C 
BRANCH   4   5
ATOM      5  C   UNL     1     161.660 178.930 178.532  1.00  0.00     0.000 C 
BRANCH   5   6
ATOM      6  C   UNL     1     162.783 178.344 177.660  1.00  0.00     0.000 C 
BRANCH   6   7
ATOM      7  C   UNL     1     162.261 177.335 176.621  1.00  0.00     0.006 C 
BRANCH   7   8
ATOM      8  C   UNL     1     160.938 176.692 177.055  1.00  0.00     0.053 C 
BRANCH   8   9
ATOM      9  C   UNL     1     161.038 175.198 177.114  1.00  0.00     0.041 C 
ATOM     10  O   UNL     1     161.976 174.601 176.523  1.00  0.00    -0.550 OA
ATOM     11  O   UNL     1     160.077 174.464 177.798  1.00  0.00    -0.550 OA
ENDBRANCH   8   9
ENDBRANCH   7   8
ENDBRANCH   6   7
ENDBRANCH   5   6
ENDBRANCH   4   5
ENDBRANCH   3   4
ENDBRANCH   2   3
ENDBRANCH   1   2
BRANCH   1  12
ATOM     12  C   UNL     1     165.646 178.648 180.456  1.00  0.00     0.000 C 
BRANCH  12  13
ATOM     13  C   UNL     1     165.099 177.268 180.860  1.00  0.00    -0.000 C 
BRANCH  13  14
ATOM     14  C   UNL     1     165.076 176.273 179.686  1.00  0.00    -0.000 C 
BRANCH  14  15
ATOM     15  C   UNL     1     163.747 175.506 179.591  1.00  0.00    -0.000 C 
BRANCH  15  16
ATOM     16  C   UNL     1     163.021 175.408 180.946  1.00  0.00    -0.000 C 
BRANCH  16  17
ATOM     17  C   UNL     1     161.628 176.059 180.915  1.00  0.00    -0.000 C 
BRANCH  17  18
ATOM     18  C   UNL     1     160.500 175.050 181.198  1.00  0.00    -0.000 C 
BRANCH  18  19
ATOM     19  C   UNL     1     161.014 173.607 181.298  1.00  0.00    -0.003 C 
ATOM     20  C   UNL     1     160.671 172.948 182.634  1.00  0.00     0.004 C 
ENDBRANCH  18  19
ENDBRANCH  17  18
ENDBRANCH  16  17
ENDBRANCH  15  16
ENDBRANCH  14  15
ENDBRANCH  13  14
ENDBRANCH  12  13
ENDBRANCH   1  12
TORSDOF 16
ENDMDL
MODEL 3
REMARK VINA RESULT:    -4.029      2.352      6.246
REMARK INTER + INTRA:         -10.497
REMARK INTER:                  -8.072
REMARK INTRA:                  -2.425
REMARK UNBOUND:                -2.699
REMARK SMILES CCCCCCCCCCCCCCCCCC(=O)[O-]
REMARK SMILES IDX 10 1 11 2 12 3 13 4 14 5 15 6 16 7 17 8 18 9 19 10 20 11
REMARK SMILES IDX 9 12 8 13 7 14 6 15 5 16 4 17 3 18 2 19 1 20
REMARK H PARENT
REMARK Flexibility Score: inf
ROOT
ATOM      1  C   UNL     1     164.624 177.833 180.667  1.00  0.00     0.000 C 
ENDROOT
BRANCH   1   2
ATOM      2  C   UNL     1     163.760 176.881 181.512  1.00  0.00     0.000 C 
BRANCH   2   3
ATOM      3  C   UNL     1     162.787 176.052 180.656  1.00  0.00     0.000 C 
BRANCH   3   4
ATOM      4  C   UNL     1     161.313 176.352 180.974  1.00  0.00     0.000 C 
BRANCH   4   5
ATOM      5  C   UNL     1     160.526 175.094 181.382  1.00  0.00     0.000 C 
BRANCH   5   6
ATOM      6  C   UNL     1     161.281 173.795 181.051  1.00  0.00     0.000 C 
BRANCH   6   7
ATOM      7  C   UNL     1     161.391 172.850 182.260  1.00  0.00     0.006 C 
BRANCH   7   8
ATOM      8  C   UNL     1     162.721 172.087 182.278  1.00  0.00     0.053 C 
BRANCH   8   9
ATOM      9  C   UNL     1     163.896 173.016 182.299  1.00  0.00     0.041 C 
ATOM     10  O   UNL     1     164.089 173.773 183.287  1.00  0.00    -0.550 OA
ATOM     11  O   UNL     1     164.763 173.064 181.215  1.00  0.00    -0.550 OA
ENDBRANCH   8   9
ENDBRANCH   7   8
ENDBRANCH   6   7
ENDBRANCH   5   6
ENDBRANCH   4   5
ENDBRANCH   3   4
ENDBRANCH   2   3
ENDBRANCH   1   2
BRANCH   1  12
ATOM     12  C   UNL     1     164.281 179.314 180.915  1.00  0.00     0.000 C 
BRANCH  12  13
ATOM     13  C   UNL     1     162.983 179.493 181.721  1.00  0.00    -0.000 C 
BRANCH  13  14
ATOM     14  C   UNL     1     161.830 180.053 180.869  1.00  0.00    -0.000 C 
BRANCH  14  15
ATOM     15  C   UNL     1     162.184 180.123 179.374  1.00  0.00    -0.000 C 
BRANCH  15  16
ATOM     16  C   UNL     1     161.418 179.084 178.534  1.00  0.00    -0.000 C 
BRANCH  16  17
ATOM     17  C   UNL     1     162.353 178.219 177.672  1.00  0.00    -0.000 C 
BRANCH  17  18
ATOM     18  C   UNL     1     161.678 176.922 177.192  1.00  0.00    -0.000 C 
BRANCH  18  19
ATOM     19  C   UNL     1     161.869 176.682 175.687  1.00  0.00    -0.003 C 
ATOM     20  C   UNL     1     162.920 177.604 175.071  1.00  0.00     0.004 C 
ENDBRANCH  18  19
ENDBRANCH  17  18
ENDBRANCH  16  17
ENDBRANCH  15  16
ENDBRANCH  14  15
ENDBRANCH  13  14
ENDBRANCH  12  13
ENDBRANCH   1  12
TORSDOF 16
ENDMDL
MODEL 4
REMARK VINA RESULT:    -4.015      1.104      2.325
REMARK INTER + INTRA:         -10.470
REMARK INTER:                  -7.951
REMARK INTRA:                  -2.519
REMARK UNBOUND:                -2.699
REMARK SMILES CCCCCCCCCCCCCCCCCC(=O)[O-]
REMARK SMILES IDX 10 1 11 2 12 3 13 4 14 5 15 6 16 7 17 8 18 9 19 10 20 11
REMARK SMILES IDX 9 12 8 13 7 14 6 15 5 16 4 17 3 18 2 19 1 20
REMARK H PARENT
REMARK Flexibility Score: inf
ROOT
ATOM      1  C   UNL     1     164.755 177.328 180.512  1.00  0.00     0.000 C 
ENDROOT
BRANCH   1   2
ATOM      2  C   UNL     1     164.842 178.770 181.043  1.00  0.00     0.000 C 
BRANCH   2   3
ATOM      3  C   UNL     1     164.215 179.792 180.079  1.00  0.00     0.000 C 
BRANCH   3   4
ATOM      4  C   UNL     1     162.678 179.746 180.082  1.00  0.00     0.000 C 
BRANCH   4   5
ATOM      5  C   UNL     1     162.081 179.788 178.664  1.00  0.00     0.000 C 
BRANCH   5   6
ATOM      6  C   UNL     1     161.382 178.473 178.280  1.00  0.00     0.000 C 
BRANCH   6   7
ATOM      7  C   UNL     1     162.190 177.649 177.262  1.00  0.00     0.006 C 
BRANCH   7   8
ATOM      8  C   UNL     1     161.878 176.150 177.353  1.00  0.00     0.053 C 
BRANCH   8   9
ATOM      9  C   UNL     1     160.764 175.756 176.432  1.00  0.00     0.041 C 
ATOM     10  O   UNL     1     159.875 174.952 176.819  1.00  0.00    -0.550 OA
ATOM     11  O   UNL     1     160.724 176.255 175.136  1.00  0.00    -0.550 OA
ENDBRANCH   8   9
ENDBRANCH   7   8
ENDBRANCH   6   7
ENDBRANCH   5   6
ENDBRANCH   4   5
ENDBRANCH   3   4
ENDBRANCH   2   3
ENDBRANCH   1   2
BRANCH   1  12
ATOM     12  C   UNL     1     164.004 176.392 181.476  1.00  0.00     0.000 C 
BRANCH  12  13
ATOM     13  C   UNL     1     162.856 175.633 180.789  1.00  0.00    -0.000 C 
BRANCH  13  14
ATOM     14  C   UNL     1     161.471 176.192 181.159  1.00  0.00    -0.000 C 
BRANCH  14  15
ATOM     15  C   UNL     1     160.369 175.122 181.097  1.00  0.00    -0.000 C 
BRANCH  15  16
ATOM     16  C   UNL     1     160.707 173.977 180.125  1.00  0.00    -0.000 C 
BRANCH  16  17
ATOM     17  C   UNL     1     160.988 172.652 180.852  1.00  0.00    -0.000 C 
BRANCH  17  18
ATOM     18  C   UNL     1     160.903 172.790 182.382  1.00  0.00    -0.000 C 
BRANCH  18  19
ATOM     19  C   UNL     1     162.274 172.656 183.061  1.00  0.00    -0.003 C 
ATOM     20  C   UNL     1     163.388 172.299 182.078  1.00  0.00     0.004 C 
ENDBRANCH  18  19
ENDBRANCH  17  18
ENDBRANCH  16  17
ENDBRANCH  15  16
ENDBRANCH  14  15
ENDBRANCH  13  14
ENDBRANCH  12  13
ENDBRANCH   1  12
TORSDOF 16
ENDMDL
MODEL 5
REMARK VINA RESULT:    -3.941     10.509     12.515
REMARK INTER + INTRA:         -10.326
REMARK INTER:                  -7.894
REMARK INTRA:                  -2.432
REMARK UNBOUND:                -2.699
REMARK SMILES CCCCCCCCCCCCCCCCCC(=O)[O-]
REMARK SMILES IDX 10 1 11 2 12 3 13 4 14 5 15 6 16 7 17 8 18 9 19 10 20 11
REMARK SMILES IDX 9 12 8 13 7 14 6 15 5 16 4 17 3 18 2 19 1 20
REMARK H PARENT
REMARK Flexibility Score: inf
ROOT
ATOM      1  C   UNL     1     175.433 176.685 181.198  1.00  0.00     0.000 C 
ENDROOT
BRANCH   1   2
ATOM      2  C   UNL     1     176.370 177.686 181.896  1.00  0.00     0.000 C 
BRANCH   2   3
ATOM      3  C   UNL     1     177.437 178.255 180.945  1.00  0.00     0.000 C 
BRANCH   3   4
ATOM      4  C   UNL     1     177.191 179.732 180.593  1.00  0.00     0.000 C 
BRANCH   4   5
ATOM      5  C   UNL     1     177.219 179.992 179.077  1.00  0.00     0.000 C 
BRANCH   5   6
ATOM      6  C   UNL     1     175.820 179.926 178.442  1.00  0.00     0.000 C 
BRANCH   6   7
ATOM      7  C   UNL     1     175.750 178.937 177.265  1.00  0.00     0.006 C 
BRANCH   7   8
ATOM      8  C   UNL     1     176.853 177.873 177.338  1.00  0.00     0.053 C 
BRANCH   8   9
ATOM      9  C   UNL     1     176.306 176.528 177.705  1.00  0.00     0.041 C 
ATOM     10  O   UNL     1     177.040 175.678 178.275  1.00  0.00    -0.550 OA
ATOM     11  O   UNL     1     174.992 176.203 177.391  1.00  0.00    -0.550 OA
ENDBRANCH   8   9
ENDBRANCH   7   8
ENDBRANCH   6   7
ENDBRANCH   5   6
ENDBRANCH   4   5
ENDBRANCH   3   4
ENDBRANCH   2   3
ENDBRANCH   1   2
BRANCH   1  12
ATOM     12  C   UNL     1     173.947 176.996 181.453  1.00  0.00     0.000 C 
BRANCH  12  13
ATOM     13  C   UNL     1     173.354 177.951 180.403  1.00  0.00    -0.000 C 
BRANCH  13  14
ATOM     14  C   UNL     1     173.280 179.406 180.901  1.00  0.00    -0.000 C 
BRANCH  14  15
ATOM     15  C   UNL     1     171.848 179.829 181.268  1.00  0.00    -0.000 C 
BRANCH  15  16
ATOM     16  C   UNL     1     170.779 178.933 180.617  1.00  0.00    -0.000 C 
BRANCH  16  17
ATOM     17  C   UNL     1     169.618 178.613 181.573  1.00  0.00    -0.000 C 
BRANCH  17  18
ATOM     18  C   UNL     1     170.087 177.893 182.849  1.00  0.00    -0.000 C 
BRANCH  18  19
ATOM     19  C   UNL     1     170.453 176.423 182.594  1.00  0.00    -0.003 C 
ATOM     20  C   UNL     1     169.394 175.684 181.777  1.00  0.00     0.004 C 
ENDBRANCH  18  19
ENDBRANCH  17  18
ENDBRANCH  16  17
ENDBRANCH  15  16
ENDBRANCH  14  15
ENDBRANCH  13  14
ENDBRANCH  12  13
ENDBRANCH   1  12
TORSDOF 16
ENDMDL
MODEL 6
REMARK VINA RESULT:    -3.869      2.569      4.142
REMARK INTER + INTRA:         -10.186
REMARK INTER:                  -7.688
REMARK INTRA:                  -2.497
REMARK UNBOUND:                -2.699
REMARK SMILES CCCCCCCCCCCCCCCCCC(=O)[O-]
REMARK SMILES IDX 10 1 11 2 12 3 13 4 14 5 15 6 16 7 17 8 18 9 19 10 20 11
REMARK SMILES IDX 9 12 8 13 7 14 6 15 5 16 4 17 3 18 2 19 1 20
REMARK H PARENT
REMARK Flexibility Score: inf
ROOT
ATOM      1  C   UNL     1     162.529 179.148 177.820  1.00  0.00     0.000 C 
ENDROOT
BRANCH   1   2
ATOM      2  C   UNL     1     161.460 179.533 178.858  1.00  0.00     0.000 C 
BRANCH   2   3
ATOM      3  C   UNL     1     162.071 180.125 180.140  1.00  0.00     0.000 C 
BRANCH   3   4
ATOM      4  C   UNL     1     162.131 179.108 181.292  1.00  0.00     0.000 C 
BRANCH   4   5
ATOM      5  C   UNL     1     163.551 178.943 181.863  1.00  0.00     0.000 C 
BRANCH   5   6
ATOM      6  C   UNL     1     164.631 179.519 180.931  1.00  0.00     0.000 C 
BRANCH   6   7
ATOM      7  C   UNL     1     165.776 178.525 180.669  1.00  0.00     0.006 C 
BRANCH   7   8
ATOM      8  C   UNL     1     165.994 178.276 179.170  1.00  0.00     0.053 C 
BRANCH   8   9
ATOM      9  C   UNL     1     167.446 178.316 178.805  1.00  0.00     0.041 C 
ATOM     10  O   UNL     1     168.243 179.048 179.449  1.00  0.00    -0.550 OA
ATOM     11  O   UNL     1     167.913 177.566 177.733  1.00  0.00    -0.550 OA
ENDBRANCH   8   9
ENDBRANCH   7   8
ENDBRANCH   6   7
ENDBRANCH   5   6
ENDBRANCH   4   5
ENDBRANCH   3   4
ENDBRANCH   2   3
ENDBRANCH   1   2
BRANCH   1  12
ATOM     12  C   UNL     1     162.286 177.752 177.218  1.00  0.00     0.000 C 
BRANCH  12  13
ATOM     13  C   UNL     1     161.884 176.712 178.277  1.00  0.00    -0.000 C 
BRANCH  13  14
ATOM     14  C   UNL     1     163.100 176.085 178.982  1.00  0.00    -0.000 C 
BRANCH  14  15
ATOM     15  C   UNL     1     162.774 175.611 180.408  1.00  0.00    -0.000 C 
BRANCH  15  16
ATOM     16  C   UNL     1     161.279 175.751 180.752  1.00  0.00    -0.000 C 
BRANCH  16  17
ATOM     17  C   UNL     1     160.610 174.395 181.030  1.00  0.00    -0.000 C 
BRANCH  17  18
ATOM     18  C   UNL     1     161.482 173.476 181.904  1.00  0.00    -0.000 C 
BRANCH  18  19
ATOM     19  C   UNL     1     161.843 172.161 181.196  1.00  0.00    -0.003 C 
ATOM     20  C   UNL     1     160.613 171.362 180.770  1.00  0.00     0.004 C 
ENDBRANCH  18  19
ENDBRANCH  17  18
ENDBRANCH  16  17
ENDBRANCH  15  16
ENDBRANCH  14  15
ENDBRANCH  13  14
ENDBRANCH  12  13
ENDBRANCH   1  12
TORSDOF 16
ENDMDL
MODEL 7
REMARK VINA RESULT:    -3.848     10.508     12.696
REMARK INTER + INTRA:         -10.147
REMARK INTER:                  -7.401
REMARK INTRA:                  -2.745
REMARK UNBOUND:                -2.699
REMARK SMILES CCCCCCCCCCCCCCCCCC(=O)[O-]
REMARK SMILES IDX 10 1 11 2 12 3 13 4 14 5 15 6 16 7 17 8 18 9 19 10 20 11
REMARK SMILES IDX 9 12 8 13 7 14 6 15 5 16 4 17 3 18 2 19 1 20
REMARK H PARENT
REMARK Flexibility Score: inf
ROOT
ATOM      1  C   UNL     1     177.500 178.960 179.873  1.00  0.00     0.000 C 
ENDROOT
BRANCH   1   2
ATOM      2  C   UNL     1     176.915 179.204 181.275  1.00  0.00     0.000 C 
BRANCH   2   3
ATOM      3  C   UNL     1     176.126 177.993 181.803  1.00  0.00     0.000 C 
BRANCH   3   4
ATOM      4  C   UNL     1     174.663 177.985 181.329  1.00  0.00     0.000 C 
BRANCH   4   5
ATOM      5  C   UNL     1     174.083 179.402 181.175  1.00  0.00     0.000 C 
BRANCH   5   6
ATOM      6  C   UNL     1     172.659 179.396 180.593  1.00  0.00     0.000 C 
BRANCH   6   7
ATOM      7  C   UNL     1     171.807 178.232 181.130  1.00  0.00     0.006 C 
BRANCH   7   8
ATOM      8  C   UNL     1     170.482 178.716 181.733  1.00  0.00     0.053 C 
BRANCH   8   9
ATOM      9  C   UNL     1     169.309 178.323 180.888  1.00  0.00     0.041 C 
ATOM     10  O   UNL     1     168.674 177.265 181.138  1.00  0.00    -0.550 OA
ATOM     11  O   UNL     1     168.935 179.112 179.808  1.00  0.00    -0.550 OA
ENDBRANCH   8   9
ENDBRANCH   7   8
ENDBRANCH   6   7
ENDBRANCH   5   6
ENDBRANCH   4   5
ENDBRANCH   3   4
ENDBRANCH   2   3
ENDBRANCH   1   2
BRANCH   1  12
ATOM     12  C   UNL     1     177.029 180.010 178.849  1.00  0.00     0.000 C 
BRANCH  12  13
ATOM     13  C   UNL     1     176.482 179.374 177.560  1.00  0.00    -0.000 C 
BRANCH  13  14
ATOM     14  C   UNL     1     174.945 179.292 177.547  1.00  0.00    -0.000 C 
BRANCH  14  15
ATOM     15  C   UNL     1     174.432 177.849 177.689  1.00  0.00    -0.000 C 
BRANCH  15  16
ATOM     16  C   UNL     1     175.534 176.801 177.448  1.00  0.00    -0.000 C 
BRANCH  16  17
ATOM     17  C   UNL     1     175.640 175.784 178.597  1.00  0.00    -0.000 C 
BRANCH  17  18
ATOM     18  C   UNL     1     177.098 175.490 178.990  1.00  0.00    -0.000 C 
BRANCH  18  19
ATOM     19  C   UNL     1     177.211 174.801 180.359  1.00  0.00    -0.003 C 
ATOM     20  C   UNL     1     176.361 173.535 180.454  1.00  0.00     0.004 C 
ENDBRANCH  18  19
ENDBRANCH  17  18
ENDBRANCH  16  17
ENDBRANCH  15  16
ENDBRANCH  14  15
ENDBRANCH  13  14
ENDBRANCH  12  13
ENDBRANCH   1  12
TORSDOF 16
ENDMDL
MODEL 8
REMARK VINA RESULT:    -3.803      2.596      6.217
REMARK INTER + INTRA:         -10.058
REMARK INTER:                  -7.506
REMARK INTRA:                  -2.552
REMARK UNBOUND:                -2.699
REMARK SMILES CCCCCCCCCCCCCCCCCC(=O)[O-]
REMARK SMILES IDX 10 1 11 2 12 3 13 4 14 5 15 6 16 7 17 8 18 9 19 10 20 11
REMARK SMILES IDX 9 12 8 13 7 14 6 15 5 16 4 17 3 18 2 19 1 20
REMARK H PARENT
REMARK Flexibility Score: inf
ROOT
ATOM      1  C   UNL     1     163.022 176.095 178.817  1.00  0.00     0.000 C 
ENDROOT
BRANCH   1   2
ATOM      2  C   UNL     1     162.745 175.692 180.276  1.00  0.00     0.000 C 
BRANCH   2   3
ATOM      3  C   UNL     1     161.286 175.950 180.692  1.00  0.00     0.000 C 
BRANCH   3   4
ATOM      4  C   UNL     1     160.609 174.705 181.287  1.00  0.00     0.000 C 
BRANCH   4   5
ATOM      5  C   UNL     1     160.886 173.432 180.467  1.00  0.00     0.000 C 
BRANCH   5   6
ATOM      6  C   UNL     1     161.200 172.216 181.356  1.00  0.00     0.000 C 
BRANCH   6   7
ATOM      7  C   UNL     1     161.771 172.618 182.727  1.00  0.00     0.006 C 
BRANCH   7   8
ATOM      8  C   UNL     1     163.279 172.891 182.669  1.00  0.00     0.053 C 
BRANCH   8   9
ATOM      9  C   UNL     1     163.994 171.888 181.816  1.00  0.00     0.041 C 
ATOM     10  O   UNL     1     164.257 170.743 182.269  1.00  0.00    -0.550 OA
ATOM     11  O   UNL     1     164.395 172.228 180.530  1.00  0.00    -0.550 OA
ENDBRANCH   8   9
ENDBRANCH   7   8
ENDBRANCH   6   7
ENDBRANCH   5   6
ENDBRANCH   4   5
ENDBRANCH   3   4
ENDBRANCH   2   3
ENDBRANCH   1   2
BRANCH   1  12
ATOM     12  C   UNL     1     161.902 176.971 178.227  1.00  0.00     0.000 C 
BRANCH  12  13
ATOM     13  C   UNL     1     162.275 178.463 178.192  1.00  0.00    -0.000 C 
BRANCH  13  14
ATOM     14  C   UNL     1     161.350 179.325 179.069  1.00  0.00    -0.000 C 
BRANCH  14  15
ATOM     15  C   UNL     1     162.123 180.125 180.130  1.00  0.00    -0.000 C 
BRANCH  15  16
ATOM     16  C   UNL     1     162.429 179.296 181.392  1.00  0.00    -0.000 C 
BRANCH  16  17
ATOM     17  C   UNL     1     163.916 178.920 181.503  1.00  0.00    -0.000 C 
BRANCH  17  18
ATOM     18  C   UNL     1     164.808 179.768 180.580  1.00  0.00    -0.000 C 
BRANCH  18  19
ATOM     19  C   UNL     1     165.935 178.947 179.935  1.00  0.00    -0.003 C 
ATOM     20  C   UNL     1     166.016 177.523 180.483  1.00  0.00     0.004 C 
ENDBRANCH  18  19
ENDBRANCH  17  18
ENDBRANCH  16  17
ENDBRANCH  15  16
ENDBRANCH  14  15
ENDBRANCH  13  14
ENDBRANCH  12  13
ENDBRANCH   1  12
TORSDOF 16
ENDMDL
MODEL 9
REMARK VINA RESULT:    -3.801     10.223     12.642
REMARK INTER + INTRA:         -10.056
REMARK INTER:                  -7.887
REMARK INTRA:                  -2.169
REMARK UNBOUND:                -2.699
REMARK SMILES CCCCCCCCCCCCCCCCCC(=O)[O-]
REMARK SMILES IDX 10 1 11 2 12 3 13 4 14 5 15 6 16 7 17 8 18 9 19 10 20 11
REMARK SMILES IDX 9 12 8 13 7 14 6 15 5 16 4 17 3 18 2 19 1 20
REMARK H PARENT
REMARK Flexibility Score: inf
ROOT
ATOM      1  C   UNL     1     176.761 178.090 181.970  1.00  0.00     0.000 C 
ENDROOT
BRANCH   1   2
ATOM      2  C   UNL     1     175.968 177.132 181.063  1.00  0.00     0.000 C 
BRANCH   2   3
ATOM      3  C   UNL     1     174.469 177.098 181.410  1.00  0.00     0.000 C 
BRANCH   3   4
ATOM      4  C   UNL     1     173.618 177.944 180.448  1.00  0.00     0.000 C 
BRANCH   4   5
ATOM      5  C   UNL     1     173.356 179.364 180.981  1.00  0.00     0.000 C 
BRANCH   5   6
ATOM      6  C   UNL     1     171.856 179.699 181.050  1.00  0.00     0.000 C 
BRANCH   6   7
ATOM      7  C   UNL     1     170.964 178.460 180.867  1.00  0.00     0.006 C 
BRANCH   7   8
ATOM      8  C   UNL     1     169.619 178.603 181.591  1.00  0.00     0.053 C 
BRANCH   8   9
ATOM      9  C   UNL     1     168.463 178.311 180.684  1.00  0.00     0.041 C 
ATOM     10  O   UNL     1     167.930 177.170 180.683  1.00  0.00    -0.550 OA
ATOM     11  O   UNL     1     167.994 179.291 179.819  1.00  0.00    -0.550 OA
ENDBRANCH   8   9
ENDBRANCH   7   8
ENDBRANCH   6   7
ENDBRANCH   5   6
ENDBRANCH   4   5
ENDBRANCH   3   4
ENDBRANCH   2   3
ENDBRANCH   1   2
BRANCH   1  12
ATOM     12  C   UNL     1     176.791 179.528 181.422  1.00  0.00     0.000 C 
BRANCH  12  13
ATOM     13  C   UNL     1     177.486 179.625 180.053  1.00  0.00    -0.000 C 
BRANCH  13  14
ATOM     14  C   UNL     1     176.509 179.974 178.916  1.00  0.00    -0.000 C 
BRANCH  14  15
ATOM     15  C   UNL     1     177.000 179.479 177.546  1.00  0.00    -0.000 C 
BRANCH  15  16
ATOM     16  C   UNL     1     176.842 177.957 177.374  1.00  0.00    -0.000 C 
BRANCH  16  17
ATOM     17  C   UNL     1     175.369 177.520 177.326  1.00  0.00    -0.000 C 
BRANCH  17  18
ATOM     18  C   UNL     1     174.800 177.524 175.896  1.00  0.00    -0.000 C 
BRANCH  18  19
ATOM     19  C   UNL     1     173.551 178.408 175.763  1.00  0.00    -0.003 C 
ATOM     20  C   UNL     1     173.314 179.285 176.992  1.00  0.00     0.004 C 
ENDBRANCH  18  19
ENDBRANCH  17  18
ENDBRANCH  16  17
ENDBRANCH  15  16
ENDBRANCH  14  15
ENDBRANCH  13  14
ENDBRANCH  12  13
ENDBRANCH   1  12
TORSDOF 16
ENDMDL
