MODEL 1
REMARK VINA RESULT:    -2.343      0.000      0.000
REMARK INTER + INTRA:          -6.414
REMARK INTER:                  -5.356
REMARK INTRA:                  -1.059
REMARK UNBOUND:                -1.059
REMARK SMILES CCCCCCCCCCCCCCCCCCCCCCCC(=O)[O-]
REMARK SMILES IDX 13 1 14 2 15 3 16 4 17 5 18 6 19 7 20 8 21 9 22 10 23 11
REMARK SMILES IDX 24 12 25 13 26 14 12 15 11 16 10 17 9 18 8 19 7 20 6 21 5 22
REMARK SMILES IDX 4 23 3 24 2 25 1 26
REMARK H PARENT
REMARK Flexibility Score: inf
ROOT
ATOM      1  C   UNL     1       5.569 -22.005 -16.446  1.00  0.00     0.000 C 
ENDROOT
BRANCH   1   2
ATOM      2  C   UNL     1       6.601 -20.910 -16.775  1.00  0.00     0.000 C 
BRANCH   2   3
ATOM      3  C   UNL     1       7.132 -20.202 -15.520  1.00  0.00     0.000 C 
BRANCH   3   4
ATOM      4  C   UNL     1       8.180 -21.038 -14.766  1.00  0.00     0.000 C 
BRANCH   4   5
ATOM      5  C   UNL     1       9.500 -20.266 -14.619  1.00  0.00     0.000 C 
BRANCH   5   6
ATOM      6  C   UNL     1      10.566 -20.738 -15.620  1.00  0.00     0.000 C 
BRANCH   6   7
ATOM      7  C   UNL     1      10.008 -21.739 -16.647  1.00  0.00     0.000 C 
BRANCH   7   8
ATOM      8  C   UNL     1      11.060 -22.169 -17.681  1.00  0.00     0.000 C 
BRANCH   8   9
ATOM      9  C   UNL     1      10.710 -21.708 -19.108  1.00  0.00     0.000 C 
BRANCH   9  10
ATOM     10  C   UNL     1       9.193 -21.631 -19.360  1.00  0.00     0.006 C 
BRANCH  10  11
ATOM     11  C   UNL     1       8.764 -22.162 -20.740  1.00  0.00     0.053 C 
BRANCH  11  12
ATOM     12  C   UNL     1       9.293 -21.329 -21.869  1.00  0.00     0.041 C 
ATOM     13  O   UNL     1       9.886 -21.877 -22.837  1.00  0.00    -0.550 OA
ATOM     14  O   UNL     1       9.084 -19.955 -21.880  1.00  0.00    -0.550 OA
ENDBRANCH  11  12
ENDBRANCH  10  11
ENDBRANCH   9  10
ENDBRANCH   8   9
ENDBRANCH   7   8
ENDBRANCH   6   7
ENDBRANCH   5   6
ENDBRANCH   4   5
ENDBRANCH   3   4
ENDBRANCH   2   3
ENDBRANCH   1   2
BRANCH   1  15
ATOM     15  C   UNL     1       4.262 -21.427 -15.875  1.00  0.00     0.000 C 
BRANCH  15  16
ATOM     16  C   UNL     1       3.083 -22.404 -15.997  1.00  0.00     0.000 C 
BRANCH  16  17
ATOM     17  C   UNL     1       1.743 -21.650 -16.025  1.00  0.00     0.000 C 
BRANCH  17  18
ATOM     18  C   UNL     1       0.527 -22.600 -16.041  1.00  0.00    -0.000 C 
BRANCH  18  19
ATOM     19  C   UNL     1      -0.695 -22.070 -15.263  1.00  0.00    -0.000 C 
BRANCH  19  20
ATOM     20  C   UNL     1      -1.763 -23.124 -14.903  1.00  0.00    -0.000 C 
BRANCH  20  21
ATOM     21  C   UNL     1      -2.859 -22.629 -13.939  1.00  0.00    -0.000 C 
BRANCH  21  22
ATOM     22  C   UNL     1      -4.264 -23.113 -14.340  1.00  0.00    -0.000 C 
BRANCH  22  23
ATOM     23  C   UNL     1      -5.310 -22.838 -13.242  1.00  0.00    -0.000 C 
BRANCH  23  24
ATOM     24  C   UNL     1      -6.709 -22.476 -13.788  1.00  0.00    -0.000 C 
BRANCH  24  25
ATOM     25  C   UNL     1      -7.564 -21.621 -12.831  1.00  0.00    -0.003 C 
ATOM     26  C   UNL     1      -8.892 -21.178 -13.447  1.00  0.00     0.004 C 
ENDBRANCH  24  25
ENDBRANCH  23  24
ENDBRANCH  22  23
ENDBRANCH  21  22
ENDBRANCH  20  21
ENDBRANCH  19  20
ENDBRANCH  18  19
ENDBRANCH  17  18
ENDBRANCH  16  17
ENDBRANCH  15  16
ENDBRANCH   1  15
TORSDOF 22
ENDMDL
MODEL 2
REMARK VINA RESULT:    -2.307      5.750     14.158
REMARK INTER + INTRA:          -6.332
REMARK INTER:                  -5.135
REMARK INTRA:                  -1.197
REMARK UNBOUND:                -1.059
REMARK SMILES CCCCCCCCCCCCCCCCCCCCCCCC(=O)[O-]
REMARK SMILES IDX 13 1 14 2 15 3 16 4 17 5 18 6 19 7 20 8 21 9 22 10 23 11
REMARK SMILES IDX 24 12 25 13 26 14 12 15 11 16 10 17 9 18 8 19 7 20 6 21 5 22
REMARK SMILES IDX 4 23 3 24 2 25 1 26
REMARK H PARENT
REMARK Flexibility Score: inf
ROOT
ATOM      1  C   UNL     1       1.756 -21.685 -16.120  1.00  0.00     0.000 C 
ENDROOT
BRANCH   1   2
ATOM      2  C   UNL     1       0.613 -22.549 -15.558  1.00  0.00     0.000 C 
BRANCH   2   3
ATOM      3  C   UNL     1      -0.775 -22.041 -15.980  1.00  0.00     0.000 C 
BRANCH   3   4
ATOM      4  C   UNL     1      -1.878 -22.437 -14.985  1.00  0.00     0.000 C 
BRANCH   4   5
ATOM      5  C   UNL     1      -3.050 -23.123 -15.706  1.00  0.00     0.000 C 
BRANCH   5   6
ATOM      6  C   UNL     1      -4.390 -22.420 -15.439  1.00  0.00     0.000 C 
BRANCH   6   7
ATOM      7  C   UNL     1      -5.109 -22.010 -16.736  1.00  0.00     0.000 C 
BRANCH   7   8
ATOM      8  C   UNL     1      -6.283 -21.052 -16.480  1.00  0.00     0.000 C 
BRANCH   8   9
ATOM      9  C   UNL     1      -7.610 -21.573 -17.064  1.00  0.00     0.000 C 
BRANCH   9  10
ATOM     10  C   UNL     1      -8.643 -21.933 -15.980  1.00  0.00     0.006 C 
BRANCH  10  11
ATOM     11  C   UNL     1      -8.092 -21.847 -14.545  1.00  0.00     0.053 C 
BRANCH  11  12
ATOM     12  C   UNL     1      -8.643 -20.677 -13.784  1.00  0.00     0.041 C 
ATOM     13  O   UNL     1      -8.876 -19.589 -14.377  1.00  0.00    -0.550 OA
ATOM     14  O   UNL     1      -8.949 -20.804 -12.434  1.00  0.00    -0.550 OA
ENDBRANCH  11  12
ENDBRANCH  10  11
ENDBRANCH   9  10
ENDBRANCH   8   9
ENDBRANCH   7   8
ENDBRANCH   6   7
ENDBRANCH   5   6
ENDBRANCH   4   5
ENDBRANCH   3   4
ENDBRANCH   2   3
ENDBRANCH   1   2
BRANCH   1  15
ATOM     15  C   UNL     1       3.063 -21.850 -15.324  1.00  0.00     0.000 C 
BRANCH  15  16
ATOM     16  C   UNL     1       4.075 -22.760 -16.037  1.00  0.00     0.000 C 
BRANCH  16  17
ATOM     17  C   UNL     1       5.107 -21.930 -16.821  1.00  0.00     0.000 C 
BRANCH  17  18
ATOM     18  C   UNL     1       6.012 -21.086 -15.900  1.00  0.00    -0.000 C 
BRANCH  18  19
ATOM     19  C   UNL     1       7.486 -21.544 -15.876  1.00  0.00    -0.000 C 
BRANCH  19  20
ATOM     20  C   UNL     1       7.905 -22.497 -17.013  1.00  0.00    -0.000 C 
BRANCH  20  21
ATOM     21  C   UNL     1       9.277 -22.188 -17.642  1.00  0.00    -0.000 C 
BRANCH  21  22
ATOM     22  C   UNL     1       9.392 -22.689 -19.093  1.00  0.00    -0.000 C 
BRANCH  22  23
ATOM     23  C   UNL     1       8.015 -22.839 -19.768  1.00  0.00    -0.000 C 
BRANCH  23  24
ATOM     24  C   UNL     1       8.089 -23.082 -21.292  1.00  0.00    -0.000 C 
BRANCH  24  25
ATOM     25  C   UNL     1       8.142 -21.795 -22.140  1.00  0.00    -0.003 C 
ATOM     26  C   UNL     1       9.506 -21.563 -22.791  1.00  0.00     0.004 C 
ENDBRANCH  24  25
ENDBRANCH  23  24
ENDBRANCH  22  23
ENDBRANCH  21  22
ENDBRANCH  20  21
ENDBRANCH  19  20
ENDBRANCH  18  19
ENDBRANCH  17  18
ENDBRANCH  16  17
ENDBRANCH  15  16
ENDBRANCH   1  15
TORSDOF 22
ENDMDL
MODEL 3
REMARK VINA RESULT:    -2.013      1.931      5.056
REMARK INTER + INTRA:          -5.661
REMARK INTER:                  -4.558
REMARK INTRA:                  -1.103
REMARK UNBOUND:                -1.059
REMARK SMILES CCCCCCCCCCCCCCCCCCCCCCCC(=O)[O-]
REMARK SMILES IDX 13 1 14 2 15 3 16 4 17 5 18 6 19 7 20 8 21 9 22 10 23 11
REMARK SMILES IDX 24 12 25 13 26 14 12 15 11 16 10 17 9 18 8 19 7 20 6 21 5 22
REMARK SMILES IDX 4 23 3 24 2 25 1 26
REMARK H PARENT
REMARK Flexibility Score: inf
ROOT
ATOM      1  C   UNL     1      -1.310 -22.500 -15.936  1.00  0.00     0.000 C 
ENDROOT
BRANCH   1   2
ATOM      2  C   UNL     1      -0.098 -22.543 -14.988  1.00  0.00     0.000 C 
BRANCH   2   3
ATOM      3  C   UNL     1       1.213 -22.873 -15.720  1.00  0.00     0.000 C 
BRANCH   3   4
ATOM      4  C   UNL     1       2.053 -21.622 -16.024  1.00  0.00     0.000 C 
BRANCH   4   5
ATOM      5  C   UNL     1       3.445 -21.723 -15.381  1.00  0.00     0.000 C 
BRANCH   5   6
ATOM      6  C   UNL     1       4.421 -22.551 -16.231  1.00  0.00     0.000 C 
BRANCH   6   7
ATOM      7  C   UNL     1       5.763 -21.831 -16.455  1.00  0.00     0.000 C 
BRANCH   7   8
ATOM      8  C   UNL     1       6.818 -22.742 -17.103  1.00  0.00     0.000 C 
BRANCH   8   9
ATOM      9  C   UNL     1       7.653 -22.013 -18.172  1.00  0.00     0.000 C 
BRANCH   9  10
ATOM     10  C   UNL     1       8.233 -22.965 -19.234  1.00  0.00     0.006 C 
BRANCH  10  11
ATOM     11  C   UNL     1       7.630 -22.773 -20.637  1.00  0.00     0.053 C 
BRANCH  11  12
ATOM     12  C   UNL     1       8.463 -21.878 -21.506  1.00  0.00     0.041 C 
ATOM     13  O   UNL     1       8.251 -21.824 -22.747  1.00  0.00    -0.550 OA
ATOM     14  O   UNL     1       9.436 -21.063 -20.939  1.00  0.00    -0.550 OA
ENDBRANCH  11  12
ENDBRANCH  10  11
ENDBRANCH   9  10
ENDBRANCH   8   9
ENDBRANCH   7   8
ENDBRANCH   6   7
ENDBRANCH   5   6
ENDBRANCH   4   5
ENDBRANCH   3   4
ENDBRANCH   2   3
ENDBRANCH   1   2
BRANCH   1  15
ATOM     15  C   UNL     1      -2.618 -22.907 -15.235  1.00  0.00     0.000 C 
BRANCH  15  16
ATOM     16  C   UNL     1      -2.471 -22.976 -13.707  1.00  0.00     0.000 C 
BRANCH  16  17
ATOM     17  C   UNL     1      -3.848 -23.028 -13.022  1.00  0.00     0.000 C 
BRANCH  17  18
ATOM     18  C   UNL     1      -5.014 -22.892 -14.023  1.00  0.00    -0.000 C 
BRANCH  18  19
ATOM     19  C   UNL     1      -6.407 -23.125 -13.401  1.00  0.00    -0.000 C 
BRANCH  19  20
ATOM     20  C   UNL     1      -6.627 -22.500 -12.008  1.00  0.00    -0.000 C 
BRANCH  20  21
ATOM     21  C   UNL     1      -8.091 -22.147 -11.682  1.00  0.00    -0.000 C 
BRANCH  21  22
ATOM     22  C   UNL     1      -8.579 -20.892 -12.426  1.00  0.00    -0.000 C 
BRANCH  22  23
ATOM     23  C   UNL     1      -9.029 -21.206 -13.867  1.00  0.00    -0.000 C 
BRANCH  23  24
ATOM     24  C   UNL     1      -8.150 -20.549 -14.954  1.00  0.00    -0.000 C 
BRANCH  24  25
ATOM     25  C   UNL     1      -8.083 -21.336 -16.279  1.00  0.00    -0.003 C 
ATOM     26  C   UNL     1      -6.696 -21.308 -16.922  1.00  0.00     0.004 C 
ENDBRANCH  24  25
ENDBRANCH  23  24
ENDBRANCH  22  23
ENDBRANCH  21  22
ENDBRANCH  20  21
ENDBRANCH  19  20
ENDBRANCH  18  19
ENDBRANCH  17  18
ENDBRANCH  16  17
ENDBRANCH  15  16
ENDBRANCH   1  15
TORSDOF 22
ENDMDL
MODEL 4
REMARK VINA RESULT:    -1.938      1.749      3.930
REMARK INTER + INTRA:          -5.489
REMARK INTER:                  -4.558
REMARK INTRA:                  -0.931
REMARK UNBOUND:                -1.059
REMARK SMILES CCCCCCCCCCCCCCCCCCCCCCCC(=O)[O-]
REMARK SMILES IDX 13 1 14 2 15 3 16 4 17 5 18 6 19 7 20 8 21 9 22 10 23 11
REMARK SMILES IDX 24 12 25 13 26 14 12 15 11 16 10 17 9 18 8 19 7 20 6 21 5 22
REMARK SMILES IDX 4 23 3 24 2 25 1 26
REMARK H PARENT
REMARK Flexibility Score: inf
ROOT
ATOM      1  C   UNL     1       0.607 -22.443 -15.205  1.00  0.00     0.000 C 
ENDROOT
BRANCH   1   2
ATOM      2  C   UNL     1       1.731 -22.671 -16.232  1.00  0.00     0.000 C 
BRANCH   2   3
ATOM      3  C   UNL     1       3.090 -22.142 -15.748  1.00  0.00     0.000 C 
BRANCH   3   4
ATOM      4  C   UNL     1       4.276 -22.813 -16.461  1.00  0.00     0.000 C 
BRANCH   4   5
ATOM      5  C   UNL     1       5.543 -21.951 -16.353  1.00  0.00     0.000 C 
BRANCH   5   6
ATOM      6  C   UNL     1       6.816 -22.801 -16.209  1.00  0.00     0.000 C 
BRANCH   6   7
ATOM      7  C   UNL     1       7.465 -23.123 -17.567  1.00  0.00     0.000 C 
BRANCH   7   8
ATOM      8  C   UNL     1       8.983 -22.881 -17.565  1.00  0.00     0.000 C 
BRANCH   8   9
ATOM      9  C   UNL     1       9.441 -21.991 -18.735  1.00  0.00     0.000 C 
BRANCH   9  10
ATOM     10  C   UNL     1       8.526 -22.101 -19.969  1.00  0.00     0.006 C 
BRANCH  10  11
ATOM     11  C   UNL     1       9.227 -22.677 -21.212  1.00  0.00     0.053 C 
BRANCH  11  12
ATOM     12  C   UNL     1       8.925 -21.898 -22.458  1.00  0.00     0.041 C 
ATOM     13  O   UNL     1       8.733 -22.498 -23.550  1.00  0.00    -0.550 OA
ATOM     14  O   UNL     1       8.802 -20.514 -22.403  1.00  0.00    -0.550 OA
ENDBRANCH  11  12
ENDBRANCH  10  11
ENDBRANCH   9  10
ENDBRANCH   8   9
ENDBRANCH   7   8
ENDBRANCH   6   7
ENDBRANCH   5   6
ENDBRANCH   4   5
ENDBRANCH   3   4
ENDBRANCH   2   3
ENDBRANCH   1   2
BRANCH   1  15
ATOM     15  C   UNL     1      -0.784 -22.382 -15.861  1.00  0.00     0.000 C 
BRANCH  15  16
ATOM     16  C   UNL     1      -1.921 -22.361 -14.829  1.00  0.00     0.000 C 
BRANCH  16  17
ATOM     17  C   UNL     1      -3.169 -23.083 -15.368  1.00  0.00     0.000 C 
BRANCH  17  18
ATOM     18  C   UNL     1      -4.049 -22.170 -16.247  1.00  0.00    -0.000 C 
BRANCH  18  19
ATOM     19  C   UNL     1      -5.543 -22.177 -15.861  1.00  0.00    -0.000 C 
BRANCH  19  20
ATOM     20  C   UNL     1      -6.448 -21.239 -16.686  1.00  0.00    -0.000 C 
BRANCH  20  21
ATOM     21  C   UNL     1      -7.804 -21.846 -17.096  1.00  0.00    -0.000 C 
BRANCH  21  22
ATOM     22  C   UNL     1      -8.925 -21.528 -16.091  1.00  0.00    -0.000 C 
BRANCH  22  23
ATOM     23  C   UNL     1      -8.794 -22.350 -14.793  1.00  0.00    -0.000 C 
BRANCH  23  24
ATOM     24  C   UNL     1      -8.740 -21.489 -13.511  1.00  0.00    -0.000 C 
BRANCH  24  25
ATOM     25  C   UNL     1      -8.652 -19.971 -13.768  1.00  0.00    -0.003 C 
ATOM     26  C   UNL     1      -9.024 -19.134 -12.543  1.00  0.00     0.004 C 
ENDBRANCH  24  25
ENDBRANCH  23  24
ENDBRANCH  22  23
ENDBRANCH  21  22
ENDBRANCH  20  21
ENDBRANCH  19  20
ENDBRANCH  18  19
ENDBRANCH  17  18
ENDBRANCH  16  17
ENDBRANCH  15  16
ENDBRANCH   1  15
TORSDOF 22
ENDMDL
MODEL 5
REMARK VINA RESULT:    -1.800      5.729     14.081
REMARK INTER + INTRA:          -5.173
REMARK INTER:                  -4.215
REMARK INTRA:                  -0.959
REMARK UNBOUND:                -1.059
REMARK SMILES CCCCCCCCCCCCCCCCCCCCCCCC(=O)[O-]
REMARK SMILES IDX 13 1 14 2 15 3 16 4 17 5 18 6 19 7 20 8 21 9 22 10 23 11
REMARK SMILES IDX 24 12 25 13 26 14 12 15 11 16 10 17 9 18 8 19 7 20 6 21 5 22
REMARK SMILES IDX 4 23 3 24 2 25 1 26
REMARK H PARENT
REMARK Flexibility Score: inf
ROOT
ATOM      1  C   UNL     1       3.875 -21.327 -15.509  1.00  0.00     0.000 C 
ENDROOT
BRANCH   1   2
ATOM      2  C   UNL     1       2.863 -22.445 -15.821  1.00  0.00     0.000 C 
BRANCH   2   3
ATOM      3  C   UNL     1       1.427 -21.919 -15.968  1.00  0.00     0.000 C 
BRANCH   3   4
ATOM      4  C   UNL     1       0.369 -22.993 -15.665  1.00  0.00     0.000 C 
BRANCH   4   5
ATOM      5  C   UNL     1      -0.865 -22.376 -14.989  1.00  0.00     0.000 C 
BRANCH   5   6
ATOM      6  C   UNL     1      -2.160 -23.123 -15.345  1.00  0.00     0.000 C 
BRANCH   6   7
ATOM      7  C   UNL     1      -3.322 -22.771 -14.399  1.00  0.00     0.000 C 
BRANCH   7   8
ATOM      8  C   UNL     1      -4.687 -22.818 -15.102  1.00  0.00     0.000 C 
BRANCH   8   9
ATOM      9  C   UNL     1      -5.861 -22.915 -14.109  1.00  0.00     0.000 C 
BRANCH   9  10
ATOM     10  C   UNL     1      -6.991 -21.915 -14.416  1.00  0.00     0.006 C 
BRANCH  10  11
ATOM     11  C   UNL     1      -8.129 -21.928 -13.380  1.00  0.00     0.053 C 
BRANCH  11  12
ATOM     12  C   UNL     1      -8.252 -20.628 -12.641  1.00  0.00     0.041 C 
ATOM     13  O   UNL     1      -8.151 -20.602 -11.385  1.00  0.00    -0.550 OA
ATOM     14  O   UNL     1      -8.424 -19.440 -13.342  1.00  0.00    -0.550 OA
ENDBRANCH  11  12
ENDBRANCH  10  11
ENDBRANCH   9  10
ENDBRANCH   8   9
ENDBRANCH   7   8
ENDBRANCH   6   7
ENDBRANCH   5   6
ENDBRANCH   4   5
ENDBRANCH   3   4
ENDBRANCH   2   3
ENDBRANCH   1   2
BRANCH   1  15
ATOM     15  C   UNL     1       5.294 -21.665 -15.998  1.00  0.00     0.000 C 
BRANCH  15  16
ATOM     16  C   UNL     1       5.399 -23.090 -16.562  1.00  0.00     0.000 C 
BRANCH  16  17
ATOM     17  C   UNL     1       5.596 -23.067 -18.088  1.00  0.00     0.000 C 
BRANCH  17  18
ATOM     18  C   UNL     1       7.083 -23.107 -18.494  1.00  0.00    -0.000 C 
BRANCH  18  19
ATOM     19  C   UNL     1       8.062 -23.117 -17.301  1.00  0.00    -0.000 C 
BRANCH  19  20
ATOM     20  C   UNL     1       8.906 -21.838 -17.121  1.00  0.00    -0.000 C 
BRANCH  20  21
ATOM     21  C   UNL     1      10.388 -21.982 -17.518  1.00  0.00    -0.000 C 
BRANCH  21  22
ATOM     22  C   UNL     1      10.575 -22.714 -18.858  1.00  0.00    -0.000 C 
BRANCH  22  23
ATOM     23  C   UNL     1      10.722 -21.737 -20.041  1.00  0.00    -0.000 C 
BRANCH  23  24
ATOM     24  C   UNL     1       9.376 -21.239 -20.612  1.00  0.00    -0.000 C 
BRANCH  24  25
ATOM     25  C   UNL     1       9.474 -20.611 -22.017  1.00  0.00    -0.003 C 
ATOM     26  C   UNL     1      10.274 -21.466 -23.001  1.00  0.00     0.004 C 
ENDBRANCH  24  25
ENDBRANCH  23  24
ENDBRANCH  22  23
ENDBRANCH  21  22
ENDBRANCH  20  21
ENDBRANCH  19  20
ENDBRANCH  18  19
ENDBRANCH  17  18
ENDBRANCH  16  17
ENDBRANCH  15  16
ENDBRANCH   1  15
TORSDOF 22
ENDMDL
MODEL 6
REMARK VINA RESULT:    -1.558      1.551      1.965
REMARK INTER + INTRA:          -4.619
REMARK INTER:                  -3.833
REMARK INTRA:                  -0.786
REMARK UNBOUND:                -1.059
REMARK SMILES CCCCCCCCCCCCCCCCCCCCCCCC(=O)[O-]
REMARK SMILES IDX 13 1 14 2 15 3 16 4 17 5 18 6 19 7 20 8 21 9 22 10 23 11
REMARK SMILES IDX 24 12 25 13 26 14 12 15 11 16 10 17 9 18 8 19 7 20 6 21 5 22
REMARK SMILES IDX 4 23 3 24 2 25 1 26
REMARK H PARENT
REMARK Flexibility Score: inf
ROOT
ATOM      1  C   UNL     1       5.544 -21.586 -16.547  1.00  0.00     0.000 C 
ENDROOT
BRANCH   1   2
ATOM      2  C   UNL     1       6.330 -22.846 -16.955  1.00  0.00     0.000 C 
BRANCH   2   3
ATOM      3  C   UNL     1       7.626 -23.022 -16.147  1.00  0.00     0.000 C 
BRANCH   3   4
ATOM      4  C   UNL     1       7.703 -22.077 -14.937  1.00  0.00     0.000 C 
BRANCH   4   5
ATOM      5  C   UNL     1       8.120 -20.662 -15.368  1.00  0.00     0.000 C 
BRANCH   5   6
ATOM      6  C   UNL     1       9.365 -20.167 -14.616  1.00  0.00     0.000 C 
BRANCH   6   7
ATOM      7  C   UNL     1      10.621 -20.991 -14.949  1.00  0.00     0.000 C 
BRANCH   7   8
ATOM      8  C   UNL     1      11.115 -20.756 -16.385  1.00  0.00     0.000 C 
BRANCH   8   9
ATOM      9  C   UNL     1      10.898 -21.980 -17.294  1.00  0.00     0.000 C 
BRANCH   9  10
ATOM     10  C   UNL     1      11.115 -21.666 -18.785  1.00  0.00     0.006 C 
BRANCH  10  11
ATOM     11  C   UNL     1       9.808 -21.527 -19.587  1.00  0.00     0.053 C 
BRANCH  11  12
ATOM     12  C   UNL     1      10.017 -20.875 -20.922  1.00  0.00     0.041 C 
ATOM     13  O   UNL     1      11.089 -20.259 -21.165  1.00  0.00    -0.550 OA
ATOM     14  O   UNL     1       9.051 -20.993 -21.915  1.00  0.00    -0.550 OA
ENDBRANCH  11  12
ENDBRANCH  10  11
ENDBRANCH   9  10
ENDBRANCH   8   9
ENDBRANCH   7   8
ENDBRANCH   6   7
ENDBRANCH   5   6
ENDBRANCH   4   5
ENDBRANCH   3   4
ENDBRANCH   2   3
ENDBRANCH   1   2
BRANCH   1  15
ATOM     15  C   UNL     1       4.309 -21.917 -15.691  1.00  0.00     0.000 C 
BRANCH  15  16
ATOM     16  C   UNL     1       3.326 -22.852 -16.411  1.00  0.00     0.000 C 
BRANCH  16  17
ATOM     17  C   UNL     1       2.085 -23.122 -15.542  1.00  0.00     0.000 C 
BRANCH  17  18
ATOM     18  C   UNL     1       0.862 -22.290 -15.979  1.00  0.00    -0.000 C 
BRANCH  18  19
ATOM     19  C   UNL     1      -0.493 -22.892 -15.552  1.00  0.00    -0.000 C 
BRANCH  19  20
ATOM     20  C   UNL     1      -1.715 -21.965 -15.716  1.00  0.00    -0.000 C 
BRANCH  20  21
ATOM     21  C   UNL     1      -2.989 -22.441 -14.992  1.00  0.00    -0.000 C 
BRANCH  21  22
ATOM     22  C   UNL     1      -4.106 -22.856 -15.966  1.00  0.00    -0.000 C 
BRANCH  22  23
ATOM     23  C   UNL     1      -5.444 -22.161 -15.649  1.00  0.00    -0.000 C 
BRANCH  23  24
ATOM     24  C   UNL     1      -5.956 -21.244 -16.782  1.00  0.00    -0.000 C 
BRANCH  24  25
ATOM     25  C   UNL     1      -7.426 -21.488 -17.182  1.00  0.00    -0.003 C 
ATOM     26  C   UNL     1      -8.320 -21.839 -15.992  1.00  0.00     0.004 C 
ENDBRANCH  24  25
ENDBRANCH  23  24
ENDBRANCH  22  23
ENDBRANCH  21  22
ENDBRANCH  20  21
ENDBRANCH  19  20
ENDBRANCH  18  19
ENDBRANCH  17  18
ENDBRANCH  16  17
ENDBRANCH  15  16
ENDBRANCH   1  15
TORSDOF 22
ENDMDL
MODEL 7
REMARK VINA RESULT:    -1.545      5.829     14.146
REMARK INTER + INTRA:          -4.590
REMARK INTER:                  -3.187
REMARK INTRA:                  -1.403
REMARK UNBOUND:                -1.059
REMARK SMILES CCCCCCCCCCCCCCCCCCCCCCCC(=O)[O-]
REMARK SMILES IDX 13 1 14 2 15 3 16 4 17 5 18 6 19 7 20 8 21 9 22 10 23 11
REMARK SMILES IDX 24 12 25 13 26 14 12 15 11 16 10 17 9 18 8 19 7 20 6 21 5 22
REMARK SMILES IDX 4 23 3 24 2 25 1 26
REMARK H PARENT
REMARK Flexibility Score: inf
ROOT
ATOM      1  C   UNL     1      -0.491 -21.718 -16.578  1.00  0.00     0.000 C 
ENDROOT
BRANCH   1   2
ATOM      2  C   UNL     1      -1.661 -21.696 -15.577  1.00  0.00     0.000 C 
BRANCH   2   3
ATOM      3  C   UNL     1      -2.207 -23.101 -15.275  1.00  0.00     0.000 C 
BRANCH   3   4
ATOM      4  C   UNL     1      -3.739 -23.124 -15.139  1.00  0.00     0.000 C 
BRANCH   4   5
ATOM      5  C   UNL     1      -4.350 -21.778 -15.555  1.00  0.00     0.000 C 
BRANCH   5   6
ATOM      6  C   UNL     1      -4.658 -21.717 -17.060  1.00  0.00     0.000 C 
BRANCH   6   7
ATOM      7  C   UNL     1      -6.148 -21.950 -17.365  1.00  0.00     0.000 C 
BRANCH   7   8
ATOM      8  C   UNL     1      -7.070 -21.084 -16.492  1.00  0.00     0.000 C 
BRANCH   8   9
ATOM      9  C   UNL     1      -8.419 -21.766 -16.198  1.00  0.00     0.000 C 
BRANCH   9  10
ATOM     10  C   UNL     1      -8.616 -22.091 -14.706  1.00  0.00     0.006 C 
BRANCH  10  11
ATOM     11  C   UNL     1      -9.008 -20.872 -13.852  1.00  0.00     0.053 C 
BRANCH  11  12
ATOM     12  C   UNL     1      -8.529 -20.981 -12.435  1.00  0.00     0.041 C 
ATOM     13  O   UNL     1      -8.842 -20.099 -11.591  1.00  0.00    -0.550 OA
ATOM     14  O   UNL     1      -7.784 -22.084 -12.034  1.00  0.00    -0.550 OA
ENDBRANCH  11  12
ENDBRANCH  10  11
ENDBRANCH   9  10
ENDBRANCH   8   9
ENDBRANCH   7   8
ENDBRANCH   6   7
ENDBRANCH   5   6
ENDBRANCH   4   5
ENDBRANCH   3   4
ENDBRANCH   2   3
ENDBRANCH   1   2
BRANCH   1  15
ATOM     15  C   UNL     1       0.785 -22.331 -15.975  1.00  0.00     0.000 C 
BRANCH  15  16
ATOM     16  C   UNL     1       1.938 -21.321 -15.885  1.00  0.00     0.000 C 
BRANCH  16  17
ATOM     17  C   UNL     1       3.224 -21.995 -15.376  1.00  0.00     0.000 C 
BRANCH  17  18
ATOM     18  C   UNL     1       3.955 -22.789 -16.479  1.00  0.00    -0.000 C 
BRANCH  18  19
ATOM     19  C   UNL     1       5.463 -22.480 -16.582  1.00  0.00    -0.000 C 
BRANCH  19  20
ATOM     20  C   UNL     1       5.937 -21.218 -15.832  1.00  0.00    -0.000 C 
BRANCH  20  21
ATOM     21  C   UNL     1       7.312 -20.682 -16.273  1.00  0.00    -0.000 C 
BRANCH  21  22
ATOM     22  C   UNL     1       8.464 -21.638 -15.916  1.00  0.00    -0.000 C 
BRANCH  22  23
ATOM     23  C   UNL     1       9.323 -22.000 -17.144  1.00  0.00    -0.000 C 
BRANCH  23  24
ATOM     24  C   UNL     1       8.674 -23.051 -18.072  1.00  0.00    -0.000 C 
BRANCH  24  25
ATOM     25  C   UNL     1       8.123 -22.478 -19.394  1.00  0.00    -0.003 C 
ATOM     26  C   UNL     1       6.806 -23.125 -19.824  1.00  0.00     0.004 C 
ENDBRANCH  24  25
ENDBRANCH  23  24
ENDBRANCH  22  23
ENDBRANCH  21  22
ENDBRANCH  20  21
ENDBRANCH  19  20
ENDBRANCH  18  19
ENDBRANCH  17  18
ENDBRANCH  16  17
ENDBRANCH  15  16
ENDBRANCH   1  15
TORSDOF 22
ENDMDL
MODEL 8
REMARK VINA RESULT:    -1.538      1.871      5.618
REMARK INTER + INTRA:          -4.575
REMARK INTER:                  -3.261
REMARK INTRA:                  -1.314
REMARK UNBOUND:                -1.059
REMARK SMILES CCCCCCCCCCCCCCCCCCCCCCCC(=O)[O-]
REMARK SMILES IDX 13 1 14 2 15 3 16 4 17 5 18 6 19 7 20 8 21 9 22 10 23 11
REMARK SMILES IDX 24 12 25 13 26 14 12 15 11 16 10 17 9 18 8 19 7 20 6 21 5 22
REMARK SMILES IDX 4 23 3 24 2 25 1 26
REMARK H PARENT
REMARK Flexibility Score: inf
ROOT
ATOM      1  C   UNL     1      -1.676 -21.544 -16.062  1.00  0.00     0.000 C 
ENDROOT
BRANCH   1   2
ATOM      2  C   UNL     1      -1.190 -22.723 -15.200  1.00  0.00     0.000 C 
BRANCH   2   3
ATOM      3  C   UNL     1       0.281 -23.080 -15.462  1.00  0.00     0.000 C 
BRANCH   3   4
ATOM      4  C   UNL     1       1.038 -21.968 -16.205  1.00  0.00     0.000 C 
BRANCH   4   5
ATOM      5  C   UNL     1       2.374 -21.653 -15.513  1.00  0.00     0.000 C 
BRANCH   5   6
ATOM      6  C   UNL     1       3.475 -22.658 -15.885  1.00  0.00     0.000 C 
BRANCH   6   7
ATOM      7  C   UNL     1       4.865 -22.004 -15.973  1.00  0.00     0.000 C 
BRANCH   7   8
ATOM      8  C   UNL     1       5.802 -22.741 -16.942  1.00  0.00     0.000 C 
BRANCH   8   9
ATOM      9  C   UNL     1       6.999 -21.876 -17.381  1.00  0.00     0.000 C 
BRANCH   9  10
ATOM     10  C   UNL     1       7.721 -22.436 -18.620  1.00  0.00     0.006 C 
BRANCH  10  11
ATOM     11  C   UNL     1       9.002 -21.667 -18.993  1.00  0.00     0.053 C 
BRANCH  11  12
ATOM     12  C   UNL     1       9.223 -21.597 -20.474  1.00  0.00     0.041 C 
ATOM     13  O   UNL     1       9.842 -20.621 -20.977  1.00  0.00    -0.550 OA
ATOM     14  O   UNL     1       8.795 -22.635 -21.294  1.00  0.00    -0.550 OA
ENDBRANCH  11  12
ENDBRANCH  10  11
ENDBRANCH   9  10
ENDBRANCH   8   9
ENDBRANCH   7   8
ENDBRANCH   6   7
ENDBRANCH   5   6
ENDBRANCH   4   5
ENDBRANCH   3   4
ENDBRANCH   2   3
ENDBRANCH   1   2
BRANCH   1  15
ATOM     15  C   UNL     1      -3.181 -21.627 -16.376  1.00  0.00     0.000 C 
BRANCH  15  16
ATOM     16  C   UNL     1      -3.887 -22.736 -15.582  1.00  0.00     0.000 C 
BRANCH  16  17
ATOM     17  C   UNL     1      -5.404 -22.484 -15.513  1.00  0.00     0.000 C 
BRANCH  17  18
ATOM     18  C   UNL     1      -5.855 -21.325 -16.427  1.00  0.00    -0.000 C 
BRANCH  18  19
ATOM     19  C   UNL     1      -7.278 -21.494 -17.000  1.00  0.00    -0.000 C 
BRANCH  19  20
ATOM     20  C   UNL     1      -8.350 -21.957 -15.992  1.00  0.00    -0.000 C 
BRANCH  20  21
ATOM     21  C   UNL     1      -8.898 -20.846 -15.076  1.00  0.00    -0.000 C 
BRANCH  21  22
ATOM     22  C   UNL     1      -8.377 -20.956 -13.632  1.00  0.00    -0.000 C 
BRANCH  22  23
ATOM     23  C   UNL     1      -8.090 -22.415 -13.226  1.00  0.00    -0.000 C 
BRANCH  23  24
ATOM     24  C   UNL     1      -8.110 -22.654 -11.700  1.00  0.00    -0.000 C 
BRANCH  24  25
ATOM     25  C   UNL     1      -8.593 -21.445 -10.873  1.00  0.00    -0.003 C 
ATOM     26  C   UNL     1      -8.601 -21.714  -9.367  1.00  0.00     0.004 C 
ENDBRANCH  24  25
ENDBRANCH  23  24
ENDBRANCH  22  23
ENDBRANCH  21  22
ENDBRANCH  20  21
ENDBRANCH  19  20
ENDBRANCH  18  19
ENDBRANCH  17  18
ENDBRANCH  16  17
ENDBRANCH  15  16
ENDBRANCH   1  15
TORSDOF 22
ENDMDL
MODEL 9
REMARK VINA RESULT:    -1.224      4.870     13.838
REMARK INTER + INTRA:          -3.857
REMARK INTER:                  -3.214
REMARK INTRA:                  -0.643
REMARK UNBOUND:                -1.059
REMARK SMILES CCCCCCCCCCCCCCCCCCCCCCCC(=O)[O-]
REMARK SMILES IDX 13 1 14 2 15 3 16 4 17 5 18 6 19 7 20 8 21 9 22 10 23 11
REMARK SMILES IDX 24 12 25 13 26 14 12 15 11 16 10 17 9 18 8 19 7 20 6 21 5 22
REMARK SMILES IDX 4 23 3 24 2 25 1 26
REMARK H PARENT
REMARK Flexibility Score: inf
ROOT
ATOM      1  C   UNL     1       1.707 -21.836 -15.616  1.00  0.00     0.000 C 
ENDROOT
BRANCH   1   2
ATOM      2  C   UNL     1       0.536 -22.558 -16.307  1.00  0.00     0.000 C 
BRANCH   2   3
ATOM      3  C   UNL     1      -0.832 -21.984 -15.907  1.00  0.00     0.000 C 
BRANCH   3   4
ATOM      4  C   UNL     1      -1.374 -22.597 -14.605  1.00  0.00     0.000 C 
BRANCH   4   5
ATOM      5  C   UNL     1      -2.821 -23.082 -14.785  1.00  0.00     0.000 C 
BRANCH   5   6
ATOM      6  C   UNL     1      -3.803 -22.343 -13.863  1.00  0.00     0.000 C 
BRANCH   6   7
ATOM      7  C   UNL     1      -5.144 -23.085 -13.715  1.00  0.00     0.000 C 
BRANCH   7   8
ATOM      8  C   UNL     1      -6.081 -22.410 -12.702  1.00  0.00     0.000 C 
BRANCH   8   9
ATOM      9  C   UNL     1      -7.540 -22.883 -12.838  1.00  0.00     0.000 C 
BRANCH   9  10
ATOM     10  C   UNL     1      -8.088 -22.737 -14.269  1.00  0.00     0.006 C 
BRANCH  10  11
ATOM     11  C   UNL     1      -7.980 -21.309 -14.833  1.00  0.00     0.053 C 
BRANCH  11  12
ATOM     12  C   UNL     1      -7.397 -21.275 -16.214  1.00  0.00     0.041 C 
ATOM     13  O   UNL     1      -6.209 -20.892 -16.390  1.00  0.00    -0.550 OA
ATOM     14  O   UNL     1      -8.145 -21.718 -17.299  1.00  0.00    -0.550 OA
ENDBRANCH  11  12
ENDBRANCH  10  11
ENDBRANCH   9  10
ENDBRANCH   8   9
ENDBRANCH   7   8
ENDBRANCH   6   7
ENDBRANCH   5   6
ENDBRANCH   4   5
ENDBRANCH   3   4
ENDBRANCH   2   3
ENDBRANCH   1   2
BRANCH   1  15
ATOM     15  C   UNL     1       3.006 -21.905 -16.437  1.00  0.00     0.000 C 
BRANCH  15  16
ATOM     16  C   UNL     1       4.258 -21.665 -15.579  1.00  0.00     0.000 C 
BRANCH  16  17
ATOM     17  C   UNL     1       5.420 -22.565 -16.035  1.00  0.00     0.000 C 
BRANCH  17  18
ATOM     18  C   UNL     1       5.851 -22.285 -17.490  1.00  0.00    -0.000 C 
BRANCH  18  19
ATOM     19  C   UNL     1       7.122 -21.419 -17.614  1.00  0.00    -0.000 C 
BRANCH  19  20
ATOM     20  C   UNL     1       8.260 -21.763 -16.631  1.00  0.00    -0.000 C 
BRANCH  20  21
ATOM     21  C   UNL     1       9.622 -22.045 -17.294  1.00  0.00    -0.000 C 
BRANCH  21  22
ATOM     22  C   UNL     1       9.487 -22.777 -18.641  1.00  0.00    -0.000 C 
BRANCH  22  23
ATOM     23  C   UNL     1       9.105 -21.820 -19.788  1.00  0.00    -0.000 C 
BRANCH  23  24
ATOM     24  C   UNL     1       8.355 -22.506 -20.951  1.00  0.00    -0.000 C 
BRANCH  24  25
ATOM     25  C   UNL     1       8.772 -22.018 -22.353  1.00  0.00    -0.003 C 
ATOM     26  C   UNL     1       8.959 -20.502 -22.429  1.00  0.00     0.004 C 
ENDBRANCH  24  25
ENDBRANCH  23  24
ENDBRANCH  22  23
ENDBRANCH  21  22
ENDBRANCH  20  21
ENDBRANCH  19  20
ENDBRANCH  18  19
ENDBRANCH  17  18
ENDBRANCH  16  17
ENDBRANCH  15  16
ENDBRANCH   1  15
TORSDOF 22
ENDMDL
