MODEL 1
REMARK VINA RESULT:     7.791      0.000      0.000
REMARK INTER + INTRA:          16.090
REMARK INTER:                  15.078
REMARK INTRA:                   1.012
REMARK UNBOUND:                 1.012
REMARK SMILES CCCCCCCCCCCCCCCCCC(=O)[O-]
REMARK SMILES IDX 10 1 11 2 12 3 13 4 14 5 15 6 16 7 17 8 18 9 19 10 20 11
REMARK SMILES IDX 9 12 8 13 7 14 6 15 5 16 4 17 3 18 2 19 1 20
REMARK H PARENT
REMARK Flexibility Score: inf
ROOT
ATOM      1  C   UNL     1       3.931 -52.173   7.762  1.00  0.00     0.000 C 
ENDROOT
BRANCH   1   2
ATOM      2  C   UNL     1       4.956 -51.603   8.761  1.00  0.00     0.000 C 
BRANCH   2   3
ATOM      3  C   UNL     1       4.427 -51.397  10.193  1.00  0.00     0.000 C 
BRANCH   3   4
ATOM      4  C   UNL     1       4.663 -52.618  11.099  1.00  0.00     0.000 C 
BRANCH   4   5
ATOM      5  C   UNL     1       3.992 -53.892  10.562  1.00  0.00     0.000 C 
BRANCH   5   6
ATOM      6  C   UNL     1       5.005 -54.993  10.199  1.00  0.00     0.000 C 
BRANCH   6   7
ATOM      7  C   UNL     1       4.507 -56.403  10.567  1.00  0.00     0.006 C 
BRANCH   7   8
ATOM      8  C   UNL     1       3.040 -56.671  10.192  1.00  0.00     0.053 C 
BRANCH   8   9
ATOM      9  C   UNL     1       2.566 -58.002  10.693  1.00  0.00     0.041 C 
ATOM     10  O   UNL     1       1.335 -58.223  10.842  1.00  0.00    -0.550 OA
ATOM     11  O   UNL     1       3.484 -59.011  10.963  1.00  0.00    -0.550 OA
ENDBRANCH   8   9
ENDBRANCH   7   8
ENDBRANCH   6   7
ENDBRANCH   5   6
ENDBRANCH   4   5
ENDBRANCH   3   4
ENDBRANCH   2   3
ENDBRANCH   1   2
BRANCH   1  12
ATOM     12  C   UNL     1       2.587 -51.423   7.792  1.00  0.00     0.000 C 
BRANCH  12  13
ATOM     13  C   UNL     1       2.507 -50.397   8.935  1.00  0.00    -0.000 C 
BRANCH  13  14
ATOM     14  C   UNL     1       1.131 -49.715   9.022  1.00  0.00    -0.000 C 
BRANCH  14  15
ATOM     15  C   UNL     1       0.950 -48.902  10.317  1.00  0.00    -0.000 C 
BRANCH  15  16
ATOM     16  C   UNL     1      -0.485 -48.878  10.878  1.00  0.00    -0.000 C 
BRANCH  16  17
ATOM     17  C   UNL     1      -1.120 -50.264  11.100  1.00  0.00    -0.000 C 
BRANCH  17  18
ATOM     18  C   UNL     1      -0.674 -51.322  10.069  1.00  0.00    -0.000 C 
BRANCH  18  19
ATOM     19  C   UNL     1      -0.530 -52.720  10.689  1.00  0.00    -0.003 C 
ATOM     20  C   UNL     1       0.898 -53.241  10.552  1.00  0.00     0.004 C 
ENDBRANCH  18  19
ENDBRANCH  17  18
ENDBRANCH  16  17
ENDBRANCH  15  16
ENDBRANCH  14  15
ENDBRANCH  13  14
ENDBRANCH  12  13
ENDBRANCH   1  12
TORSDOF 16
ENDMDL
