MODEL 1
REMARK VINA RESULT:    -3.204      0.000      0.000
REMARK INTER + INTRA:          -6.326
REMARK INTER:                  -4.890
REMARK INTRA:                  -1.436
REMARK UNBOUND:                -1.436
REMARK SMILES CCCCCCCCCCC(=O)[O-]
REMARK SMILES IDX 7 1 8 2 9 3 10 4 11 5 12 6 13 7 6 8 5 9 4 10 3 11 2 12 1 13
REMARK H PARENT
REMARK Flexibility Score: inf
ROOT
ATOM      1  C   UNL     1      38.393  25.945 225.608  1.00  0.00     0.000 C 
ENDROOT
BRANCH   1   2
ATOM      2  C   UNL     1      38.103  26.291 224.143  1.00  0.00     0.000 C 
BRANCH   2   3
ATOM      3  C   UNL     1      37.008  25.384 223.569  1.00  0.00     0.006 C 
BRANCH   3   4
ATOM      4  C   UNL     1      36.719  24.210 224.510  1.00  0.00     0.053 C 
BRANCH   4   5
ATOM      5  C   UNL     1      36.793  22.913 223.767  1.00  0.00     0.041 C 
ATOM      6  O   UNL     1      37.154  21.863 224.360  1.00  0.00    -0.550 OA
ATOM      7  O   UNL     1      36.510  22.873 222.408  1.00  0.00    -0.550 OA
ENDBRANCH   4   5
ENDBRANCH   3   4
ENDBRANCH   2   3
ENDBRANCH   1   2
BRANCH   1   8
ATOM      8  C   UNL     1      39.783  26.441 226.026  1.00  0.00     0.000 C 
BRANCH   8   9
ATOM      9  C   UNL     1      40.793  25.289 226.053  1.00  0.00    -0.000 C 
BRANCH   9  10
ATOM     10  C   UNL     1      40.082  23.936 226.158  1.00  0.00    -0.000 C 
BRANCH  10  11
ATOM     11  C   UNL     1      40.561  22.974 225.065  1.00  0.00    -0.000 C 
BRANCH  11  12
ATOM     12  C   UNL     1      41.119  23.742 223.861  1.00  0.00    -0.003 C 
ATOM     13  C   UNL     1      40.193  23.620 222.654  1.00  0.00     0.004 C 
ENDBRANCH  11  12
ENDBRANCH  10  11
ENDBRANCH   9  10
ENDBRANCH   8   9
ENDBRANCH   1   8
TORSDOF 9
ENDMDL
MODEL 2
REMARK VINA RESULT:    -3.200      3.200      5.384
REMARK INTER + INTRA:          -6.320
REMARK INTER:                  -5.720
REMARK INTRA:                  -0.600
REMARK UNBOUND:                -1.436
REMARK SMILES CCCCCCCCCCC(=O)[O-]
REMARK SMILES IDX 7 1 8 2 9 3 10 4 11 5 12 6 13 7 6 8 5 9 4 10 3 11 2 12 1 13
REMARK H PARENT
REMARK Flexibility Score: inf
ROOT
ATOM      1  C   UNL     1      37.619  23.276 223.684  1.00  0.00     0.000 C 
ENDROOT
BRANCH   1   2
ATOM      2  C   UNL     1      38.201  22.180 224.584  1.00  0.00     0.000 C 
BRANCH   2   3
ATOM      3  C   UNL     1      39.329  22.731 225.465  1.00  0.00     0.006 C 
BRANCH   3   4
ATOM      4  C   UNL     1      39.895  24.030 224.882  1.00  0.00     0.053 C 
BRANCH   4   5
ATOM      5  C   UNL     1      41.288  23.816 224.380  1.00  0.00     0.041 C 
ATOM      6  O   UNL     1      41.481  23.270 223.262  1.00  0.00    -0.550 OA
ATOM      7  O   UNL     1      42.374  24.174 225.167  1.00  0.00    -0.550 OA
ENDBRANCH   4   5
ENDBRANCH   3   4
ENDBRANCH   2   3
ENDBRANCH   1   2
BRANCH   1   8
ATOM      8  C   UNL     1      36.386  22.770 222.927  1.00  0.00     0.000 C 
BRANCH   8   9
ATOM      9  C   UNL     1      35.518  23.938 222.445  1.00  0.00    -0.000 C 
BRANCH   9  10
ATOM     10  C   UNL     1      36.141  24.619 221.222  1.00  0.00    -0.000 C 
BRANCH  10  11
ATOM     11  C   UNL     1      35.428  24.198 219.932  1.00  0.00    -0.000 C 
BRANCH  11  12
ATOM     12  C   UNL     1      36.431  23.700 218.885  1.00  0.00    -0.003 C 
ATOM     13  C   UNL     1      37.645  23.058 219.548  1.00  0.00     0.004 C 
ENDBRANCH  11  12
ENDBRANCH  10  11
ENDBRANCH   9  10
ENDBRANCH   8   9
ENDBRANCH   1   8
TORSDOF 9
ENDMDL
MODEL 3
REMARK VINA RESULT:    -3.193      2.061      3.994
REMARK INTER + INTRA:          -6.309
REMARK INTER:                  -5.252
REMARK INTRA:                  -1.057
REMARK UNBOUND:                -1.436
REMARK SMILES CCCCCCCCCCC(=O)[O-]
REMARK SMILES IDX 7 1 8 2 9 3 10 4 11 5 12 6 13 7 6 8 5 9 4 10 3 11 2 12 1 13
REMARK H PARENT
REMARK Flexibility Score: inf
ROOT
ATOM      1  C   UNL     1      38.764  25.881 224.578  1.00  0.00     0.000 C 
ENDROOT
BRANCH   1   2
ATOM      2  C   UNL     1      39.435  24.771 223.761  1.00  0.00     0.000 C 
BRANCH   2   3
ATOM      3  C   UNL     1      39.945  23.648 224.672  1.00  0.00     0.006 C 
BRANCH   3   4
ATOM      4  C   UNL     1      39.293  22.310 224.312  1.00  0.00     0.053 C 
BRANCH   4   5
ATOM      5  C   UNL     1      38.018  22.127 225.073  1.00  0.00     0.041 C 
ATOM      6  O   UNL     1      37.053  21.508 224.553  1.00  0.00    -0.550 OA
ATOM      7  O   UNL     1      37.877  22.684 226.338  1.00  0.00    -0.550 OA
ENDBRANCH   4   5
ENDBRANCH   3   4
ENDBRANCH   2   3
ENDBRANCH   1   2
BRANCH   1   8
ATOM      8  C   UNL     1      37.238  25.739 224.552  1.00  0.00     0.000 C 
BRANCH   8   9
ATOM      9  C   UNL     1      36.744  25.366 223.149  1.00  0.00    -0.000 C 
BRANCH   9  10
ATOM     10  C   UNL     1      35.591  24.361 223.220  1.00  0.00    -0.000 C 
BRANCH  10  11
ATOM     11  C   UNL     1      35.421  23.619 221.889  1.00  0.00    -0.000 C 
BRANCH  11  12
ATOM     12  C   UNL     1      36.544  23.981 220.910  1.00  0.00    -0.003 C 
ATOM     13  C   UNL     1      36.003  24.168 219.496  1.00  0.00     0.004 C 
ENDBRANCH  11  12
ENDBRANCH  10  11
ENDBRANCH   9  10
ENDBRANCH   8   9
ENDBRANCH   1   8
TORSDOF 9
ENDMDL
MODEL 4
REMARK VINA RESULT:    -3.144      2.592      3.543
REMARK INTER + INTRA:          -6.234
REMARK INTER:                  -5.475
REMARK INTRA:                  -0.759
REMARK UNBOUND:                -1.436
REMARK SMILES CCCCCCCCCCC(=O)[O-]
REMARK SMILES IDX 7 1 8 2 9 3 10 4 11 5 12 6 13 7 6 8 5 9 4 10 3 11 2 12 1 13
REMARK H PARENT
REMARK Flexibility Score: inf
ROOT
ATOM      1  C   UNL     1      38.553  22.905 223.992  1.00  0.00     0.000 C 
ENDROOT
BRANCH   1   2
ATOM      2  C   UNL     1      37.061  23.042 223.662  1.00  0.00     0.000 C 
BRANCH   2   3
ATOM      3  C   UNL     1      36.812  24.232 222.727  1.00  0.00     0.006 C 
BRANCH   3   4
ATOM      4  C   UNL     1      35.761  23.885 221.667  1.00  0.00     0.053 C 
BRANCH   4   5
ATOM      5  C   UNL     1      36.348  23.991 220.295  1.00  0.00     0.041 C 
ATOM      6  O   UNL     1      35.800  24.721 219.426  1.00  0.00    -0.550 OA
ATOM      7  O   UNL     1      37.472  23.248 219.959  1.00  0.00    -0.550 OA
ENDBRANCH   4   5
ENDBRANCH   3   4
ENDBRANCH   2   3
ENDBRANCH   1   2
BRANCH   1   8
ATOM      8  C   UNL     1      39.421  23.399 222.828  1.00  0.00     0.000 C 
BRANCH   8   9
ATOM      9  C   UNL     1      40.702  24.066 223.342  1.00  0.00    -0.000 C 
BRANCH   9  10
ATOM     10  C   UNL     1      41.713  23.020 223.824  1.00  0.00    -0.000 C 
BRANCH  10  11
ATOM     11  C   UNL     1      41.856  21.881 222.807  1.00  0.00    -0.000 C 
BRANCH  11  12
ATOM     12  C   UNL     1      41.912  20.519 223.508  1.00  0.00    -0.003 C 
ATOM     13  C   UNL     1      41.806  20.676 225.022  1.00  0.00     0.004 C 
ENDBRANCH  11  12
ENDBRANCH  10  11
ENDBRANCH   9  10
ENDBRANCH   8   9
ENDBRANCH   1   8
TORSDOF 9
ENDMDL
MODEL 5
REMARK VINA RESULT:    -3.081      2.806      4.963
REMARK INTER + INTRA:          -6.138
REMARK INTER:                  -5.305
REMARK INTRA:                  -0.833
REMARK UNBOUND:                -1.436
REMARK SMILES CCCCCCCCCCC(=O)[O-]
REMARK SMILES IDX 7 1 8 2 9 3 10 4 11 5 12 6 13 7 6 8 5 9 4 10 3 11 2 12 1 13
REMARK H PARENT
REMARK Flexibility Score: inf
ROOT
ATOM      1  C   UNL     1      38.783  24.328 223.971  1.00  0.00     0.000 C 
ENDROOT
BRANCH   1   2
ATOM      2  C   UNL     1      39.840  24.005 222.908  1.00  0.00     0.000 C 
BRANCH   2   3
ATOM      3  C   UNL     1      40.715  22.822 223.343  1.00  0.00     0.006 C 
BRANCH   3   4
ATOM      4  C   UNL     1      41.689  23.238 224.450  1.00  0.00     0.053 C 
BRANCH   4   5
ATOM      5  C   UNL     1      41.770  22.177 225.501  1.00  0.00     0.041 C 
ATOM      6  O   UNL     1      41.401  21.000 225.244  1.00  0.00    -0.550 OA
ATOM      7  O   UNL     1      42.207  22.496 226.780  1.00  0.00    -0.550 OA
ENDBRANCH   4   5
ENDBRANCH   3   4
ENDBRANCH   2   3
ENDBRANCH   1   2
BRANCH   1   8
ATOM      8  C   UNL     1      37.980  23.076 224.347  1.00  0.00     0.000 C 
BRANCH   8   9
ATOM      9  C   UNL     1      36.852  22.823 223.339  1.00  0.00    -0.000 C 
BRANCH   9  10
ATOM     10  C   UNL     1      36.079  24.112 223.044  1.00  0.00    -0.000 C 
BRANCH  10  11
ATOM     11  C   UNL     1      35.864  24.294 221.536  1.00  0.00    -0.000 C 
BRANCH  11  12
ATOM     12  C   UNL     1      36.940  23.554 220.733  1.00  0.00    -0.003 C 
ATOM     13  C   UNL     1      36.727  23.731 219.233  1.00  0.00     0.004 C 
ENDBRANCH  11  12
ENDBRANCH  10  11
ENDBRANCH   9  10
ENDBRANCH   8   9
ENDBRANCH   1   8
TORSDOF 9
ENDMDL
MODEL 6
REMARK VINA RESULT:    -3.071      2.093      3.064
REMARK INTER + INTRA:          -6.122
REMARK INTER:                  -5.160
REMARK INTRA:                  -0.962
REMARK UNBOUND:                -1.436
REMARK SMILES CCCCCCCCCCC(=O)[O-]
REMARK SMILES IDX 7 1 8 2 9 3 10 4 11 5 12 6 13 7 6 8 5 9 4 10 3 11 2 12 1 13
REMARK H PARENT
REMARK Flexibility Score: inf
ROOT
ATOM      1  C   UNL     1      38.669  24.397 223.565  1.00  0.00     0.000 C 
ENDROOT
BRANCH   1   2
ATOM      2  C   UNL     1      38.056  23.105 224.117  1.00  0.00     0.000 C 
BRANCH   2   3
ATOM      3  C   UNL     1      36.739  22.772 223.403  1.00  0.00     0.006 C 
BRANCH   3   4
ATOM      4  C   UNL     1      36.029  24.048 222.940  1.00  0.00     0.053 C 
BRANCH   4   5
ATOM      5  C   UNL     1      35.646  23.940 221.498  1.00  0.00     0.041 C 
ATOM      6  O   UNL     1      36.537  23.880 220.609  1.00  0.00    -0.550 OA
ATOM      7  O   UNL     1      34.308  23.955 221.129  1.00  0.00    -0.550 OA
ENDBRANCH   4   5
ENDBRANCH   3   4
ENDBRANCH   2   3
ENDBRANCH   1   2
BRANCH   1   8
ATOM      8  C   UNL     1      39.998  24.115 222.853  1.00  0.00     0.000 C 
BRANCH   8   9
ATOM      9  C   UNL     1      40.525  22.719 223.205  1.00  0.00    -0.000 C 
BRANCH   9  10
ATOM     10  C   UNL     1      41.789  22.809 224.066  1.00  0.00    -0.000 C 
BRANCH  10  11
ATOM     11  C   UNL     1      41.464  22.588 225.548  1.00  0.00    -0.000 C 
BRANCH  11  12
ATOM     12  C   UNL     1      41.555  23.901 226.334  1.00  0.00    -0.003 C 
ATOM     13  C   UNL     1      42.409  24.926 225.594  1.00  0.00     0.004 C 
ENDBRANCH  11  12
ENDBRANCH  10  11
ENDBRANCH   9  10
ENDBRANCH   8   9
ENDBRANCH   1   8
TORSDOF 9
ENDMDL
MODEL 7
REMARK VINA RESULT:    -3.000      2.716      4.566
REMARK INTER + INTRA:          -6.015
REMARK INTER:                  -5.245
REMARK INTRA:                  -0.771
REMARK UNBOUND:                -1.436
REMARK SMILES CCCCCCCCCCC(=O)[O-]
REMARK SMILES IDX 7 1 8 2 9 3 10 4 11 5 12 6 13 7 6 8 5 9 4 10 3 11 2 12 1 13
REMARK H PARENT
REMARK Flexibility Score: inf
ROOT
ATOM      1  C   UNL     1      37.580  25.895 224.403  1.00  0.00     0.000 C 
ENDROOT
BRANCH   1   2
ATOM      2  C   UNL     1      39.058  25.520 224.246  1.00  0.00     0.000 C 
BRANCH   2   3
ATOM      3  C   UNL     1      39.673  25.134 225.597  1.00  0.00     0.006 C 
BRANCH   3   4
ATOM      4  C   UNL     1      39.688  23.613 225.779  1.00  0.00     0.053 C 
BRANCH   4   5
ATOM      5  C   UNL     1      40.623  22.978 224.799  1.00  0.00     0.041 C 
ATOM      6  O   UNL     1      40.257  21.973 224.134  1.00  0.00    -0.550 OA
ATOM      7  O   UNL     1      41.915  23.465 224.654  1.00  0.00    -0.550 OA
ENDBRANCH   4   5
ENDBRANCH   3   4
ENDBRANCH   2   3
ENDBRANCH   1   2
BRANCH   1   8
ATOM      8  C   UNL     1      36.691  25.008 223.522  1.00  0.00     0.000 C 
BRANCH   8   9
ATOM      9  C   UNL     1      37.533  24.014 222.714  1.00  0.00    -0.000 C 
BRANCH   9  10
ATOM     10  C   UNL     1      36.662  23.225 221.732  1.00  0.00    -0.000 C 
BRANCH  10  11
ATOM     11  C   UNL     1      35.540  24.101 221.162  1.00  0.00    -0.000 C 
BRANCH  11  12
ATOM     12  C   UNL     1      35.755  24.367 219.667  1.00  0.00    -0.003 C 
ATOM     13  C   UNL     1      36.856  23.475 219.102  1.00  0.00     0.004 C 
ENDBRANCH  11  12
ENDBRANCH  10  11
ENDBRANCH   9  10
ENDBRANCH   8   9
ENDBRANCH   1   8
TORSDOF 9
ENDMDL
MODEL 8
REMARK VINA RESULT:    -2.945      1.497      3.119
REMARK INTER + INTRA:          -5.930
REMARK INTER:                  -4.832
REMARK INTRA:                  -1.098
REMARK UNBOUND:                -1.436
REMARK SMILES CCCCCCCCCCC(=O)[O-]
REMARK SMILES IDX 7 1 8 2 9 3 10 4 11 5 12 6 13 7 6 8 5 9 4 10 3 11 2 12 1 13
REMARK H PARENT
REMARK Flexibility Score: inf
ROOT
ATOM      1  C   UNL     1      39.737  23.419 223.019  1.00  0.00     0.000 C 
ENDROOT
BRANCH   1   2
ATOM      2  C   UNL     1      39.221  22.497 224.131  1.00  0.00     0.000 C 
BRANCH   2   3
ATOM      3  C   UNL     1      37.865  22.981 224.661  1.00  0.00     0.006 C 
BRANCH   3   4
ATOM      4  C   UNL     1      36.748  22.697 223.652  1.00  0.00     0.053 C 
BRANCH   4   5
ATOM      5  C   UNL     1      36.054  23.966 223.269  1.00  0.00     0.041 C 
ATOM      6  O   UNL     1      35.306  23.998 222.256  1.00  0.00    -0.550 OA
ATOM      7  O   UNL     1      36.270  25.126 224.001  1.00  0.00    -0.550 OA
ENDBRANCH   4   5
ENDBRANCH   3   4
ENDBRANCH   2   3
ENDBRANCH   1   2
BRANCH   1   8
ATOM      8  C   UNL     1      41.117  23.987 223.372  1.00  0.00     0.000 C 
BRANCH   8   9
ATOM      9  C   UNL     1      41.676  23.328 224.639  1.00  0.00    -0.000 C 
BRANCH   9  10
ATOM     10  C   UNL     1      42.135  24.384 225.651  1.00  0.00    -0.000 C 
BRANCH  10  11
ATOM     11  C   UNL     1      40.981  24.811 226.565  1.00  0.00    -0.000 C 
BRANCH  11  12
ATOM     12  C   UNL     1      40.507  26.229 226.227  1.00  0.00    -0.003 C 
ATOM     13  C   UNL     1      39.008  26.254 225.940  1.00  0.00     0.004 C 
ENDBRANCH  11  12
ENDBRANCH  10  11
ENDBRANCH   9  10
ENDBRANCH   8   9
ENDBRANCH   1   8
TORSDOF 9
ENDMDL
MODEL 9
REMARK VINA RESULT:    -2.938      2.210      4.015
REMARK INTER + INTRA:          -5.920
REMARK INTER:                  -4.672
REMARK INTRA:                  -1.248
REMARK UNBOUND:                -1.436
REMARK SMILES CCCCCCCCCCC(=O)[O-]
REMARK SMILES IDX 7 1 8 2 9 3 10 4 11 5 12 6 13 7 6 8 5 9 4 10 3 11 2 12 1 13
REMARK H PARENT
REMARK Flexibility Score: inf
ROOT
ATOM      1  C   UNL     1      39.819  24.354 223.324  1.00  0.00     0.000 C 
ENDROOT
BRANCH   1   2
ATOM      2  C   UNL     1      40.134  22.897 223.685  1.00  0.00     0.000 C 
BRANCH   2   3
ATOM      3  C   UNL     1      39.635  22.560 225.096  1.00  0.00     0.006 C 
BRANCH   3   4
ATOM      4  C   UNL     1      38.492  21.542 225.045  1.00  0.00     0.053 C 
BRANCH   4   5
ATOM      5  C   UNL     1      38.937  20.228 225.605  1.00  0.00     0.041 C 
ATOM      6  O   UNL     1      39.948  19.646 225.131  1.00  0.00    -0.550 OA
ATOM      7  O   UNL     1      38.207  19.620 226.619  1.00  0.00    -0.550 OA
ENDBRANCH   4   5
ENDBRANCH   3   4
ENDBRANCH   2   3
ENDBRANCH   1   2
BRANCH   1   8
ATOM      8  C   UNL     1      39.198  25.094 224.515  1.00  0.00     0.000 C 
BRANCH   8   9
ATOM      9  C   UNL     1      37.863  25.741 224.126  1.00  0.00    -0.000 C 
BRANCH   9  10
ATOM     10  C   UNL     1      36.685  24.831 224.489  1.00  0.00    -0.000 C 
BRANCH  10  11
ATOM     11  C   UNL     1      35.862  24.471 223.246  1.00  0.00    -0.000 C 
BRANCH  11  12
ATOM     12  C   UNL     1      36.425  23.224 222.555  1.00  0.00    -0.003 C 
ATOM     13  C   UNL     1      36.948  23.557 221.161  1.00  0.00     0.004 C 
ENDBRANCH  11  12
ENDBRANCH  10  11
ENDBRANCH   9  10
ENDBRANCH   8   9
ENDBRANCH   1   8
TORSDOF 9
ENDMDL
