MODEL 1
REMARK VINA RESULT:    -4.071      0.000      0.000
REMARK INTER + INTRA:          -4.995
REMARK INTER:                  -4.785
REMARK INTRA:                  -0.210
REMARK UNBOUND:                -0.210
REMARK SMILES O=c1c(O)c(-c2ccc(O)c(O)c2)oc2cc(O)ccc12
REMARK SMILES IDX 5 1 3 2 2 3 1 4 21 5 15 6 14 7 16 8 17 9 19 10 20 11 6 12
REMARK SMILES IDX 7 13 8 14 9 15 13 16 11 17 10 18 12 20 4 22 18 24
REMARK H PARENT 10 19 12 21 4 23 18 25
REMARK Flexibility Score: inf
ROOT
ATOM      1  C   UNL     1      -0.465   0.826  -2.201  1.00  0.00     0.180 A 
ATOM      2  C   UNL     1      -1.184   1.801  -2.926  1.00  0.00     0.208 A 
ATOM      3  C   UNL     1      -1.947   2.742  -2.219  1.00  0.00     0.235 A 
ATOM      4  O   UNL     1      -2.590   3.630  -2.843  1.00  0.00    -0.285 OA
ATOM      5  C   UNL     1      -1.994   2.681  -0.817  1.00  0.00     0.069 A 
ATOM      6  C   UNL     1      -1.266   1.660  -0.167  1.00  0.00     0.142 A 
ATOM      7  O   UNL     1      -0.548   0.793  -0.873  1.00  0.00    -0.452 OA
ATOM      8  C   UNL     1      -1.296   1.560   1.228  1.00  0.00     0.094 A 
ATOM      9  C   UNL     1      -2.044   2.470   1.986  1.00  0.00     0.119 A 
ATOM     10  C   UNL     1      -2.766   3.483   1.343  1.00  0.00     0.047 A 
ATOM     11  C   UNL     1      -2.743   3.590  -0.050  1.00  0.00     0.020 A 
ENDROOT
BRANCH   1  12
ATOM     12  C   UNL     1       0.378  -0.189  -2.873  1.00  0.00     0.025 A 
ATOM     13  C   UNL     1       0.033  -1.547  -2.774  1.00  0.00     0.016 A 
ATOM     14  C   UNL     1       0.825  -2.524  -3.382  1.00  0.00     0.051 A 
ATOM     15  C   UNL     1       1.982  -2.161  -4.084  1.00  0.00     0.157 A 
ATOM     16  C   UNL     1       1.551   0.169  -3.561  1.00  0.00     0.062 A 
ATOM     17  C   UNL     1       2.347  -0.807  -4.169  1.00  0.00     0.158 A 
BRANCH  15  18
ATOM     18  O   UNL     1       2.768  -3.138  -4.692  1.00  0.00    -0.504 OA
ATOM     19  H   UNL     1       3.778  -3.061  -4.725  1.00  0.00     0.293 HD
ENDBRANCH  15  18
BRANCH  17  20
ATOM     20  O   UNL     1       3.500  -0.414  -4.849  1.00  0.00    -0.504 OA
ATOM     21  H   UNL     1       4.405  -0.375  -4.395  1.00  0.00     0.293 HD
ENDBRANCH  17  20
ENDBRANCH   1  12
BRANCH   2  22
ATOM     22  O   UNL     1      -1.157   1.807  -4.323  1.00  0.00    -0.502 OA
ATOM     23  H   UNL     1      -0.925   0.982  -4.862  1.00  0.00     0.293 HD
ENDBRANCH   2  22
BRANCH   9  24
ATOM     24  O   UNL     1      -2.079   2.378   3.375  1.00  0.00    -0.508 OA
ATOM     25  H   UNL     1      -1.321   1.953   3.896  1.00  0.00     0.293 HD
ENDBRANCH   9  24
TORSDOF 5
ENDMDL
MODEL 2
REMARK VINA RESULT:    -3.443      0.762      1.504
REMARK INTER + INTRA:          -4.257
REMARK INTER:                  -4.279
REMARK INTRA:                   0.022
REMARK UNBOUND:                -0.210
REMARK SMILES O=c1c(O)c(-c2ccc(O)c(O)c2)oc2cc(O)ccc12
REMARK SMILES IDX 5 1 3 2 2 3 1 4 21 5 15 6 14 7 16 8 17 9 19 10 20 11 6 12
REMARK SMILES IDX 7 13 8 14 9 15 13 16 11 17 10 18 12 20 4 22 18 24
REMARK H PARENT 10 19 12 21 4 23 18 25
REMARK Flexibility Score: inf
ROOT
ATOM      1  C   UNL     1      -0.123   0.978  -2.554  1.00  0.00     0.180 A 
ATOM      2  C   UNL     1      -0.761   2.003  -3.285  1.00  0.00     0.208 A 
ATOM      3  C   UNL     1      -1.583   2.910  -2.600  1.00  0.00     0.235 A 
ATOM      4  O   UNL     1      -2.156   3.841  -3.229  1.00  0.00    -0.285 OA
ATOM      5  C   UNL     1      -1.767   2.766  -1.215  1.00  0.00     0.069 A 
ATOM      6  C   UNL     1      -1.112   1.700  -0.561  1.00  0.00     0.142 A 
ATOM      7  O   UNL     1      -0.336   0.867  -1.245  1.00  0.00    -0.452 OA
ATOM      8  C   UNL     1      -1.279   1.517   0.817  1.00  0.00     0.094 A 
ATOM      9  C   UNL     1      -2.092   2.390   1.552  1.00  0.00     0.119 A 
ATOM     10  C   UNL     1      -2.740   3.448   0.905  1.00  0.00     0.047 A 
ATOM     11  C   UNL     1      -2.581   3.638  -0.471  1.00  0.00     0.020 A 
ENDROOT
BRANCH   1  12
ATOM     12  C   UNL     1       0.774  -0.007  -3.202  1.00  0.00     0.025 A 
ATOM     13  C   UNL     1       1.804   0.446  -4.042  1.00  0.00     0.016 A 
ATOM     14  C   UNL     1       2.648  -0.466  -4.680  1.00  0.00     0.051 A 
ATOM     15  C   UNL     1       2.466  -1.843  -4.501  1.00  0.00     0.157 A 
ATOM     16  C   UNL     1       0.581  -1.391  -3.041  1.00  0.00     0.062 A 
ATOM     17  C   UNL     1       1.424  -2.306  -3.681  1.00  0.00     0.158 A 
BRANCH  15  18
ATOM     18  O   UNL     1       3.312  -2.751  -5.138  1.00  0.00    -0.504 OA
ATOM     19  H   UNL     1       4.314  -2.736  -4.988  1.00  0.00     0.293 HD
ENDBRANCH  15  18
BRANCH  17  20
ATOM     20  O   UNL     1       1.207  -3.672  -3.493  1.00  0.00    -0.504 OA
ATOM     21  H   UNL     1       1.925  -4.285  -3.127  1.00  0.00     0.293 HD
ENDBRANCH  17  20
ENDBRANCH   1  12
BRANCH   2  22
ATOM     22  O   UNL     1      -0.598   2.091  -4.670  1.00  0.00    -0.502 OA
ATOM     23  H   UNL     1       0.124   2.660  -5.094  1.00  0.00     0.293 HD
ENDBRANCH   2  22
BRANCH   9  24
ATOM     24  O   UNL     1      -2.262   2.216   2.923  1.00  0.00    -0.508 OA
ATOM     25  H   UNL     1      -3.113   2.503   3.391  1.00  0.00     0.293 HD
ENDBRANCH   9  24
TORSDOF 5
ENDMDL
MODEL 3
REMARK VINA RESULT:    -2.973      0.589      0.589
REMARK INTER + INTRA:          -3.704
REMARK INTER:                  -3.459
REMARK INTRA:                  -0.246
REMARK UNBOUND:                -0.210
REMARK SMILES O=c1c(O)c(-c2ccc(O)c(O)c2)oc2cc(O)ccc12
REMARK SMILES IDX 5 1 3 2 2 3 1 4 21 5 15 6 14 7 16 8 17 9 19 10 20 11 6 12
REMARK SMILES IDX 7 13 8 14 9 15 13 16 11 17 10 18 12 20 4 22 18 24
REMARK H PARENT 10 19 12 21 4 23 18 25
REMARK Flexibility Score: inf
ROOT
ATOM      1  C   UNL     1      -0.155   0.855  -2.634  1.00  0.00     0.180 A 
ATOM      2  C   UNL     1      -0.805   1.821  -3.431  1.00  0.00     0.208 A 
ATOM      3  C   UNL     1      -1.623   2.773  -2.807  1.00  0.00     0.235 A 
ATOM      4  O   UNL     1      -2.207   3.653  -3.496  1.00  0.00    -0.285 OA
ATOM      5  C   UNL     1      -1.792   2.732  -1.413  1.00  0.00     0.069 A 
ATOM      6  C   UNL     1      -1.126   1.720  -0.689  1.00  0.00     0.142 A 
ATOM      7  O   UNL     1      -0.354   0.841  -1.318  1.00  0.00    -0.452 OA
ATOM      8  C   UNL     1      -1.278   1.639   0.700  1.00  0.00     0.094 A 
ATOM      9  C   UNL     1      -2.086   2.561   1.377  1.00  0.00     0.119 A 
ATOM     10  C   UNL     1      -2.745   3.566   0.661  1.00  0.00     0.047 A 
ATOM     11  C   UNL     1      -2.602   3.654  -0.727  1.00  0.00     0.020 A 
ENDROOT
BRANCH   1  12
ATOM     12  C   UNL     1       0.739  -0.172  -3.216  1.00  0.00     0.025 A 
ATOM     13  C   UNL     1       0.342  -1.518  -3.206  1.00  0.00     0.016 A 
ATOM     14  C   UNL     1       1.178  -2.507  -3.730  1.00  0.00     0.051 A 
ATOM     15  C   UNL     1       2.430  -2.167  -4.257  1.00  0.00     0.157 A 
ATOM     16  C   UNL     1       2.005   0.163  -3.727  1.00  0.00     0.062 A 
ATOM     17  C   UNL     1       2.846  -0.825  -4.251  1.00  0.00     0.158 A 
BRANCH  15  18
ATOM     18  O   UNL     1       3.262  -3.156  -4.782  1.00  0.00    -0.504 OA
ATOM     19  H   UNL     1       3.750  -3.811  -4.183  1.00  0.00     0.293 HD
ENDBRANCH  15  18
BRANCH  17  20
ATOM     20  O   UNL     1       4.093  -0.455  -4.756  1.00  0.00    -0.504 OA
ATOM     21  H   UNL     1       4.940  -0.528  -4.205  1.00  0.00     0.293 HD
ENDBRANCH  17  20
ENDBRANCH   1  12
BRANCH   2  22
ATOM     22  O   UNL     1      -0.657   1.806  -4.821  1.00  0.00    -0.502 OA
ATOM     23  H   UNL     1      -1.449   1.854  -5.449  1.00  0.00     0.293 HD
ENDBRANCH   2  22
BRANCH   9  24
ATOM     24  O   UNL     1      -2.241   2.489   2.759  1.00  0.00    -0.508 OA
ATOM     25  H   UNL     1      -1.531   2.072   3.350  1.00  0.00     0.293 HD
ENDBRANCH   9  24
TORSDOF 5
ENDMDL
MODEL 4
REMARK VINA RESULT:    -2.455      1.595      2.653
REMARK INTER + INTRA:          -3.096
REMARK INTER:                  -2.785
REMARK INTRA:                  -0.311
REMARK UNBOUND:                -0.210
REMARK SMILES O=c1c(O)c(-c2ccc(O)c(O)c2)oc2cc(O)ccc12
REMARK SMILES IDX 5 1 3 2 2 3 1 4 21 5 15 6 14 7 16 8 17 9 19 10 20 11 6 12
REMARK SMILES IDX 7 13 8 14 9 15 13 16 11 17 10 18 12 20 4 22 18 24
REMARK H PARENT 10 19 12 21 4 23 18 25
REMARK Flexibility Score: inf
ROOT
ATOM      1  C   UNL     1       1.039  -0.176  -3.210  1.00  0.00     0.180 A 
ATOM      2  C   UNL     1       0.946   0.913  -4.102  1.00  0.00     0.208 A 
ATOM      3  C   UNL     1       0.164   2.020  -3.739  1.00  0.00     0.235 A 
ATOM      4  O   UNL     1       0.074   3.010  -4.515  1.00  0.00    -0.285 OA
ATOM      5  C   UNL     1      -0.521   2.010  -2.514  1.00  0.00     0.069 A 
ATOM      6  C   UNL     1      -0.396   0.872  -1.687  1.00  0.00     0.142 A 
ATOM      7  O   UNL     1       0.362  -0.152  -2.064  1.00  0.00    -0.452 OA
ATOM      8  C   UNL     1      -1.071   0.820  -0.462  1.00  0.00     0.094 A 
ATOM      9  C   UNL     1      -1.870   1.894  -0.050  1.00  0.00     0.119 A 
ATOM     10  C   UNL     1      -1.993   3.023  -0.867  1.00  0.00     0.047 A 
ATOM     11  C   UNL     1      -1.325   3.084  -2.093  1.00  0.00     0.020 A 
ENDROOT
BRANCH   1  12
ATOM     12  C   UNL     1       1.858  -1.372  -3.512  1.00  0.00     0.025 A 
ATOM     13  C   UNL     1       3.233  -1.356  -3.227  1.00  0.00     0.016 A 
ATOM     14  C   UNL     1       4.029  -2.465  -3.523  1.00  0.00     0.051 A 
ATOM     15  C   UNL     1       3.468  -3.599  -4.125  1.00  0.00     0.157 A 
ATOM     16  C   UNL     1       1.302  -2.503  -4.135  1.00  0.00     0.062 A 
ATOM     17  C   UNL     1       2.097  -3.615  -4.435  1.00  0.00     0.158 A 
BRANCH  15  18
ATOM     18  O   UNL     1       4.264  -4.705  -4.417  1.00  0.00    -0.504 OA
ATOM     19  H   UNL     1       5.209  -4.787  -4.060  1.00  0.00     0.293 HD
ENDBRANCH  15  18
BRANCH  17  20
ATOM     20  O   UNL     1       1.510  -4.722  -5.047  1.00  0.00    -0.504 OA
ATOM     21  H   UNL     1       1.159  -5.508  -4.513  1.00  0.00     0.293 HD
ENDBRANCH  17  20
ENDBRANCH   1  12
BRANCH   2  22
ATOM     22  O   UNL     1       1.599   0.874  -5.337  1.00  0.00    -0.502 OA
ATOM     23  H   UNL     1       2.062   0.040  -5.677  1.00  0.00     0.293 HD
ENDBRANCH   2  22
BRANCH   9  24
ATOM     24  O   UNL     1      -2.544   1.851   1.168  1.00  0.00    -0.508 OA
ATOM     25  H   UNL     1      -2.046   1.762   2.046  1.00  0.00     0.293 HD
ENDBRANCH   9  24
TORSDOF 5
ENDMDL
MODEL 5
REMARK VINA RESULT:    -1.442      2.629      4.397
REMARK INTER + INTRA:          -1.905
REMARK INTER:                  -1.610
REMARK INTRA:                  -0.295
REMARK UNBOUND:                -0.210
REMARK SMILES O=c1c(O)c(-c2ccc(O)c(O)c2)oc2cc(O)ccc12
REMARK SMILES IDX 5 1 3 2 2 3 1 4 21 5 15 6 14 7 16 8 17 9 19 10 20 11 6 12
REMARK SMILES IDX 7 13 8 14 9 15 13 16 11 17 10 18 12 20 4 22 18 24
REMARK H PARENT 10 19 12 21 4 23 18 25
REMARK Flexibility Score: inf
ROOT
ATOM      1  C   UNL     1       1.040  -0.609  -3.450  1.00  0.00     0.180 A 
ATOM      2  C   UNL     1       0.088  -0.618  -2.409  1.00  0.00     0.208 A 
ATOM      3  C   UNL     1      -0.725   0.511  -2.226  1.00  0.00     0.235 A 
ATOM      4  O   UNL     1      -1.591   0.523  -1.310  1.00  0.00    -0.285 OA
ATOM      5  C   UNL     1      -0.559   1.625  -3.065  1.00  0.00     0.069 A 
ATOM      6  C   UNL     1       0.433   1.564  -4.069  1.00  0.00     0.142 A 
ATOM      7  O   UNL     1       1.176   0.472  -4.214  1.00  0.00    -0.452 OA
ATOM      8  C   UNL     1       0.635   2.657  -4.918  1.00  0.00     0.094 A 
ATOM      9  C   UNL     1      -0.144   3.813  -4.780  1.00  0.00     0.119 A 
ATOM     10  C   UNL     1      -1.128   3.874  -3.787  1.00  0.00     0.047 A 
ATOM     11  C   UNL     1      -1.337   2.788  -2.932  1.00  0.00     0.020 A 
ENDROOT
BRANCH   1  12
ATOM     12  C   UNL     1       1.922  -1.768  -3.718  1.00  0.00     0.025 A 
ATOM     13  C   UNL     1       3.266  -1.720  -3.317  1.00  0.00     0.016 A 
ATOM     14  C   UNL     1       4.122  -2.792  -3.579  1.00  0.00     0.051 A 
ATOM     15  C   UNL     1       3.651  -3.923  -4.259  1.00  0.00     0.157 A 
ATOM     16  C   UNL     1       1.458  -2.896  -4.419  1.00  0.00     0.062 A 
ATOM     17  C   UNL     1       2.313  -3.972  -4.684  1.00  0.00     0.158 A 
BRANCH  15  18
ATOM     18  O   UNL     1       4.506  -4.994  -4.516  1.00  0.00    -0.504 OA
ATOM     19  H   UNL     1       4.184  -5.953  -4.470  1.00  0.00     0.293 HD
ENDBRANCH  15  18
BRANCH  17  20
ATOM     20  O   UNL     1       1.816  -5.077  -5.376  1.00  0.00    -0.504 OA
ATOM     21  H   UNL     1       2.147  -5.326  -6.300  1.00  0.00     0.293 HD
ENDBRANCH  17  20
ENDBRANCH   1  12
BRANCH   2  22
ATOM     22  O   UNL     1      -0.021  -1.722  -1.559  1.00  0.00    -0.502 OA
ATOM     23  H   UNL     1      -0.779  -1.821  -0.895  1.00  0.00     0.293 HD
ENDBRANCH   2  22
BRANCH   9  24
ATOM     24  O   UNL     1       0.050   4.906  -5.622  1.00  0.00    -0.508 OA
ATOM     25  H   UNL     1      -0.724   5.345  -6.106  1.00  0.00     0.293 HD
ENDBRANCH   9  24
TORSDOF 5
ENDMDL
MODEL 6
REMARK VINA RESULT:    -1.223      1.596      3.341
REMARK INTER + INTRA:          -1.648
REMARK INTER:                  -1.927
REMARK INTRA:                   0.280
REMARK UNBOUND:                -0.210
REMARK SMILES O=c1c(O)c(-c2ccc(O)c(O)c2)oc2cc(O)ccc12
REMARK SMILES IDX 5 1 3 2 2 3 1 4 21 5 15 6 14 7 16 8 17 9 19 10 20 11 6 12
REMARK SMILES IDX 7 13 8 14 9 15 13 16 11 17 10 18 12 20 4 22 18 24
REMARK H PARENT 10 19 12 21 4 23 18 25
REMARK Flexibility Score: inf
ROOT
ATOM      1  C   UNL     1      -0.471   1.417  -2.311  1.00  0.00     0.180 A 
ATOM      2  C   UNL     1      -0.991   1.109  -1.036  1.00  0.00     0.208 A 
ATOM      3  C   UNL     1      -1.834   2.037  -0.408  1.00  0.00     0.235 A 
ATOM      4  O   UNL     1      -2.320   1.781   0.727  1.00  0.00    -0.285 OA
ATOM      5  C   UNL     1      -2.124   3.253  -1.049  1.00  0.00     0.069 A 
ATOM      6  C   UNL     1      -1.545   3.496  -2.314  1.00  0.00     0.142 A 
ATOM      7  O   UNL     1      -0.757   2.587  -2.878  1.00  0.00    -0.452 OA
ATOM      8  C   UNL     1      -1.801   4.699  -2.980  1.00  0.00     0.094 A 
ATOM      9  C   UNL     1      -2.633   5.665  -2.399  1.00  0.00     0.119 A 
ATOM     10  C   UNL     1      -3.209   5.425  -1.146  1.00  0.00     0.047 A 
ATOM     11  C   UNL     1      -2.958   4.227  -0.472  1.00  0.00     0.020 A 
ENDROOT
BRANCH   1  12
ATOM     12  C   UNL     1       0.412   0.483  -3.046  1.00  0.00     0.025 A 
ATOM     13  C   UNL     1       1.299   0.986  -4.010  1.00  0.00     0.016 A 
ATOM     14  C   UNL     1       2.126   0.121  -4.731  1.00  0.00     0.051 A 
ATOM     15  C   UNL     1       2.066  -1.262  -4.512  1.00  0.00     0.157 A 
ATOM     16  C   UNL     1       0.339  -0.907  -2.843  1.00  0.00     0.062 A 
ATOM     17  C   UNL     1       1.164  -1.777  -3.565  1.00  0.00     0.158 A 
BRANCH  15  18
ATOM     18  O   UNL     1       2.894  -2.123  -5.231  1.00  0.00    -0.504 OA
ATOM     19  H   UNL     1       3.511  -1.780  -5.958  1.00  0.00     0.293 HD
ENDBRANCH  15  18
BRANCH  17  20
ATOM     20  O   UNL     1       1.070  -3.149  -3.333  1.00  0.00    -0.504 OA
ATOM     21  H   UNL     1       1.851  -3.775  -3.484  1.00  0.00     0.293 HD
ENDBRANCH  17  20
ENDBRANCH   1  12
BRANCH   2  22
ATOM     22  O   UNL     1      -0.645  -0.087  -0.401  1.00  0.00    -0.502 OA
ATOM     23  H   UNL     1      -1.333  -0.680   0.046  1.00  0.00     0.293 HD
ENDBRANCH   2  22
BRANCH   9  24
ATOM     24  O   UNL     1      -2.894   6.865  -3.056  1.00  0.00    -0.508 OA
ATOM     25  H   UNL     1      -2.170   7.559  -3.198  1.00  0.00     0.293 HD
ENDBRANCH   9  24
TORSDOF 5
ENDMDL
MODEL 7
REMARK VINA RESULT:    -1.211      1.367      3.010
REMARK INTER + INTRA:          -1.634
REMARK INTER:                  -1.780
REMARK INTRA:                   0.146
REMARK UNBOUND:                -0.210
REMARK SMILES O=c1c(O)c(-c2ccc(O)c(O)c2)oc2cc(O)ccc12
REMARK SMILES IDX 5 1 3 2 2 3 1 4 21 5 15 6 14 7 16 8 17 9 19 10 20 11 6 12
REMARK SMILES IDX 7 13 8 14 9 15 13 16 11 17 10 18 12 20 4 22 18 24
REMARK H PARENT 10 19 12 21 4 23 18 25
REMARK Flexibility Score: inf
ROOT
ATOM      1  C   UNL     1      -0.518   1.086  -2.287  1.00  0.00     0.180 A 
ATOM      2  C   UNL     1      -1.051   0.858  -1.000  1.00  0.00     0.208 A 
ATOM      3  C   UNL     1      -1.844   1.854  -0.412  1.00  0.00     0.235 A 
ATOM      4  O   UNL     1      -2.342   1.670   0.733  1.00  0.00    -0.285 OA
ATOM      5  C   UNL     1      -2.071   3.055  -1.102  1.00  0.00     0.069 A 
ATOM      6  C   UNL     1      -1.482   3.216  -2.376  1.00  0.00     0.142 A 
ATOM      7  O   UNL     1      -0.744   2.244  -2.902  1.00  0.00    -0.452 OA
ATOM      8  C   UNL     1      -1.676   4.402  -3.091  1.00  0.00     0.094 A 
ATOM      9  C   UNL     1      -2.455   5.434  -2.552  1.00  0.00     0.119 A 
ATOM     10  C   UNL     1      -3.041   5.275  -1.291  1.00  0.00     0.047 A 
ATOM     11  C   UNL     1      -2.852   4.095  -0.567  1.00  0.00     0.020 A 
ENDROOT
BRANCH   1  12
ATOM     12  C   UNL     1       0.313   0.077  -2.982  1.00  0.00     0.025 A 
ATOM     13  C   UNL     1      -0.049  -1.278  -2.918  1.00  0.00     0.016 A 
ATOM     14  C   UNL     1       0.732  -2.250  -3.548  1.00  0.00     0.051 A 
ATOM     15  C   UNL     1       1.896  -1.884  -4.238  1.00  0.00     0.157 A 
ATOM     16  C   UNL     1       1.493   0.438  -3.658  1.00  0.00     0.062 A 
ATOM     17  C   UNL     1       2.279  -0.533  -4.288  1.00  0.00     0.158 A 
BRANCH  15  18
ATOM     18  O   UNL     1       2.672  -2.856  -4.868  1.00  0.00    -0.504 OA
ATOM     19  H   UNL     1       3.542  -2.621  -5.333  1.00  0.00     0.293 HD
ENDBRANCH  15  18
BRANCH  17  20
ATOM     20  O   UNL     1       3.438  -0.138  -4.955  1.00  0.00    -0.504 OA
ATOM     21  H   UNL     1       4.316  -0.632  -4.847  1.00  0.00     0.293 HD
ENDBRANCH  17  20
ENDBRANCH   1  12
BRANCH   2  22
ATOM     22  O   UNL     1      -0.768  -0.327  -0.316  1.00  0.00    -0.502 OA
ATOM     23  H   UNL     1      -0.204  -0.344   0.524  1.00  0.00     0.293 HD
ENDBRANCH   2  22
BRANCH   9  24
ATOM     24  O   UNL     1      -2.654   6.617  -3.257  1.00  0.00    -0.508 OA
ATOM     25  H   UNL     1      -3.346   7.298  -2.965  1.00  0.00     0.293 HD
ENDBRANCH   9  24
TORSDOF 5
ENDMDL
