MODEL 1
REMARK VINA RESULT:    -3.095      0.000      0.000
REMARK INTER + INTRA:          -7.591
REMARK INTER:                  -5.357
REMARK INTRA:                  -2.234
REMARK UNBOUND:                -2.234
REMARK SMILES OC[C@@H]1O[C@H](O[C@H]2[C@H](O)[C@H](O)[C@@H](O[C@H]3[C@H](O)[C@H](O)[C@@H](O)O[C@H]3CO)O[C@H]2CO)[C@H](O)[C@@H](O)[C@H]1O
REMARK SMILES IDX 7 1 26 2 25 3 12 4 10 5 8 6 6 7 5 8 3 9 33 10 4 11 31 12
REMARK SMILES IDX 29 13 2 14 1 15 34 17 32 19 30 21 27 23 28 24 9 26 11 28
REMARK SMILES IDX 13 30 14 31 22 32 15 33 21 34 17 35 19 36 23 37 24 38 16 40
REMARK SMILES IDX 18 42 20 44
REMARK H PARENT 1 16 34 18 32 20 30 22 28 25 9 27 11 29 24 39 16 41 18 43
REMARK H PARENT 20 45
REMARK Flexibility Score: inf
ROOT
ATOM      1  C   UNL     1      18.033  28.562  30.176  1.00  0.00     0.184 C 
ATOM      2  C   UNL     1      18.313  30.149  30.401  1.00  0.00     0.178 C 
ATOM      3  O   UNL     1      17.184  30.992  30.715  1.00  0.00    -0.341 OA
ATOM      4  C   UNL     1      16.456  30.588  31.864  1.00  0.00     0.282 C 
ATOM      5  C   UNL     1      15.796  29.211  31.494  1.00  0.00     0.202 C 
ATOM      6  C   UNL     1      16.717  28.082  30.827  1.00  0.00     0.180 C 
ENDROOT
BRANCH   1   7
ATOM      7  O   UNL     1      19.276  27.796  30.407  1.00  0.00    -0.341 OA
BRANCH   7   8
ATOM      8  C   UNL     1      19.305  26.296  30.460  1.00  0.00     0.282 C 
ATOM      9  C   UNL     1      21.692  26.196  30.559  1.00  0.00     0.178 C 
ATOM     10  C   UNL     1      21.549  26.347  32.113  1.00  0.00     0.177 C 
ATOM     11  O   UNL     1      20.492  25.808  29.887  1.00  0.00    -0.341 OA
ATOM     12  C   UNL     1      20.503  25.335  32.607  1.00  0.00     0.179 C 
ATOM     13  C   UNL     1      19.111  25.686  31.952  1.00  0.00     0.202 C 
BRANCH   9  14
ATOM     14  C   UNL     1      22.366  27.460  29.875  1.00  0.00     0.191 C 
BRANCH  14  15
ATOM     15  O   UNL     1      22.179  28.564  30.715  1.00  0.00    -0.394 OA
ATOM     16  H   UNL     1      22.833  29.279  30.378  1.00  0.00     0.210 HD
ENDBRANCH  14  15
ENDBRANCH   9  14
BRANCH  10  17
ATOM     17  O   UNL     1      22.757  26.127  32.769  1.00  0.00    -0.387 OA
ATOM     18  H   UNL     1      22.720  25.130  32.967  1.00  0.00     0.211 HD
ENDBRANCH  10  17
BRANCH  12  19
ATOM     19  O   UNL     1      20.837  24.030  32.248  1.00  0.00    -0.387 OA
ATOM     20  H   UNL     1      21.831  23.967  32.283  1.00  0.00     0.211 HD
ENDBRANCH  12  19
BRANCH  13  21
ATOM     21  O   UNL     1      18.616  26.657  32.825  1.00  0.00    -0.385 OA
ATOM     22  H   UNL     1      17.624  26.738  32.805  1.00  0.00     0.211 HD
ENDBRANCH  13  21
ENDBRANCH   7   8
ENDBRANCH   1   7
BRANCH   2  23
ATOM     23  C   UNL     1      19.408  30.328  31.541  1.00  0.00     0.191 C 
BRANCH  23  24
ATOM     24  O   UNL     1      19.552  29.242  32.515  1.00  0.00    -0.394 OA
ATOM     25  H   UNL     1      19.444  28.352  32.041  1.00  0.00     0.210 HD
ENDBRANCH  23  24
ENDBRANCH   2  23
BRANCH   6  26
ATOM     26  O   UNL     1      15.922  27.308  29.963  1.00  0.00    -0.387 OA
ATOM     27  H   UNL     1      15.488  27.859  29.180  1.00  0.00     0.211 HD
ENDBRANCH   6  26
BRANCH   5  28
ATOM     28  O   UNL     1      14.623  29.453  30.806  1.00  0.00    -0.385 OA
ATOM     29  H   UNL     1      14.409  30.423  30.714  1.00  0.00     0.211 HD
ENDBRANCH   5  28
BRANCH   4  30
ATOM     30  O   UNL     1      17.234  30.506  33.081  1.00  0.00    -0.341 OA
BRANCH  30  31
ATOM     31  C   UNL     1      16.766  30.996  34.340  1.00  0.00     0.184 C 
ATOM     32  C   UNL     1      17.750  30.473  35.463  1.00  0.00     0.178 C 
ATOM     33  C   UNL     1      15.300  30.643  34.699  1.00  0.00     0.180 C 
ATOM     34  O   UNL     1      17.403  30.843  36.790  1.00  0.00    -0.342 OA
ATOM     35  C   UNL     1      14.986  31.032  36.187  1.00  0.00     0.201 C 
ATOM     36  C   UNL     1      16.241  31.678  36.884  1.00  0.00     0.279 C 
BRANCH  32  37
ATOM     37  C   UNL     1      18.069  28.945  35.475  1.00  0.00     0.191 C 
BRANCH  37  38
ATOM     38  O   UNL     1      19.457  28.692  35.285  1.00  0.00    -0.394 OA
ATOM     39  H   UNL     1      19.643  28.621  34.323  1.00  0.00     0.210 HD
ENDBRANCH  37  38
ENDBRANCH  32  37
BRANCH  33  40
ATOM     40  O   UNL     1      14.399  31.263  33.831  1.00  0.00    -0.387 OA
ATOM     41  H   UNL     1      13.764  31.769  34.388  1.00  0.00     0.211 HD
ENDBRANCH  33  40
BRANCH  35  42
ATOM     42  O   UNL     1      13.881  31.915  36.295  1.00  0.00    -0.385 OA
ATOM     43  H   UNL     1      13.351  31.892  35.431  1.00  0.00     0.211 HD
ENDBRANCH  35  42
BRANCH  36  44
ATOM     44  O   UNL     1      15.897  31.970  38.265  1.00  0.00    -0.366 OA
ATOM     45  H   UNL     1      15.025  31.506  38.428  1.00  0.00     0.213 HD
ENDBRANCH  36  44
ENDBRANCH  30  31
ENDBRANCH   4  30
TORSDOF 18
ENDMDL
MODEL 2
REMARK VINA RESULT:    -2.795      1.174      2.144
REMARK INTER + INTRA:          -7.071
REMARK INTER:                  -5.900
REMARK INTRA:                  -1.171
REMARK UNBOUND:                -2.234
REMARK SMILES OC[C@@H]1O[C@H](O[C@H]2[C@H](O)[C@H](O)[C@@H](O[C@H]3[C@H](O)[C@H](O)[C@@H](O)O[C@H]3CO)O[C@H]2CO)[C@H](O)[C@@H](O)[C@H]1O
REMARK SMILES IDX 7 1 26 2 25 3 12 4 10 5 8 6 6 7 5 8 3 9 33 10 4 11 31 12
REMARK SMILES IDX 29 13 2 14 1 15 34 17 32 19 30 21 27 23 28 24 9 26 11 28
REMARK SMILES IDX 13 30 14 31 22 32 15 33 21 34 17 35 19 36 23 37 24 38 16 40
REMARK SMILES IDX 18 42 20 44
REMARK H PARENT 1 16 34 18 32 20 30 22 28 25 9 27 11 29 24 39 16 41 18 43
REMARK H PARENT 20 45
REMARK Flexibility Score: inf
ROOT
ATOM      1  C   UNL     1      17.934  28.242  30.214  1.00  0.00     0.184 C 
ATOM      2  C   UNL     1      18.485  29.773  30.246  1.00  0.00     0.178 C 
ATOM      3  O   UNL     1      17.516  30.833  30.396  1.00  0.00    -0.341 OA
ATOM      4  C   UNL     1      16.701  30.719  31.552  1.00  0.00     0.282 C 
ATOM      5  C   UNL     1      15.818  29.440  31.332  1.00  0.00     0.202 C 
ATOM      6  C   UNL     1      16.539  28.089  30.860  1.00  0.00     0.180 C 
ENDROOT
BRANCH   1   7
ATOM      7  O   UNL     1      19.016  27.312  30.600  1.00  0.00    -0.341 OA
BRANCH   7   8
ATOM      8  C   UNL     1      19.163  26.774  31.994  1.00  0.00     0.282 C 
ATOM      9  C   UNL     1      18.731  24.518  31.329  1.00  0.00     0.178 C 
ATOM     10  C   UNL     1      20.263  24.406  31.018  1.00  0.00     0.177 C 
ATOM     11  O   UNL     1      18.372  25.624  32.160  1.00  0.00    -0.341 OA
ATOM     12  C   UNL     1      21.046  24.940  32.228  1.00  0.00     0.179 C 
ATOM     13  C   UNL     1      20.698  26.466  32.423  1.00  0.00     0.202 C 
BRANCH   9  14
ATOM     14  C   UNL     1      17.830  24.448  30.024  1.00  0.00     0.191 C 
BRANCH  14  15
ATOM     15  O   UNL     1      17.278  23.165  29.942  1.00  0.00    -0.394 OA
ATOM     16  H   UNL     1      17.166  22.851  30.913  1.00  0.00     0.210 HD
ENDBRANCH  14  15
ENDBRANCH   9  14
BRANCH  10  17
ATOM     17  O   UNL     1      20.646  23.093  30.758  1.00  0.00    -0.387 OA
ATOM     18  H   UNL     1      21.509  23.217  30.234  1.00  0.00     0.211 HD
ENDBRANCH  10  17
BRANCH  12  19
ATOM     19  O   UNL     1      20.711  24.263  33.400  1.00  0.00    -0.387 OA
ATOM     20  H   UNL     1      19.791  23.901  33.272  1.00  0.00     0.211 HD
ENDBRANCH  12  19
BRANCH  13  21
ATOM     21  O   UNL     1      21.592  27.082  31.545  1.00  0.00    -0.385 OA
ATOM     22  H   UNL     1      21.156  27.725  30.923  1.00  0.00     0.211 HD
ENDBRANCH  13  21
ENDBRANCH   7   8
ENDBRANCH   1   7
BRANCH   2  23
ATOM     23  C   UNL     1      19.568  29.913  31.403  1.00  0.00     0.191 C 
BRANCH  23  24
ATOM     24  O   UNL     1      20.975  29.721  31.038  1.00  0.00    -0.394 OA
ATOM     25  H   UNL     1      21.385  29.023  31.648  1.00  0.00     0.210 HD
ENDBRANCH  23  24
ENDBRANCH   2  23
BRANCH   6  26
ATOM     26  O   UNL     1      15.640  27.354  30.067  1.00  0.00    -0.387 OA
ATOM     27  H   UNL     1      15.869  26.329  30.008  1.00  0.00     0.211 HD
ENDBRANCH   6  26
BRANCH   5  28
ATOM     28  O   UNL     1      14.722  29.785  30.565  1.00  0.00    -0.385 OA
ATOM     29  H   UNL     1      14.457  29.081  29.910  1.00  0.00     0.211 HD
ENDBRANCH   5  28
BRANCH   4  30
ATOM     30  O   UNL     1      17.424  30.670  32.804  1.00  0.00    -0.341 OA
BRANCH  30  31
ATOM     31  C   UNL     1      16.874  31.128  34.041  1.00  0.00     0.184 C 
ATOM     32  C   UNL     1      17.741  30.521  35.216  1.00  0.00     0.178 C 
ATOM     33  C   UNL     1      15.371  30.824  34.266  1.00  0.00     0.180 C 
ATOM     34  O   UNL     1      17.301  30.853  36.526  1.00  0.00    -0.342 OA
ATOM     35  C   UNL     1      14.951  31.167  35.738  1.00  0.00     0.201 C 
ATOM     36  C   UNL     1      16.168  31.731  36.561  1.00  0.00     0.279 C 
BRANCH  32  37
ATOM     37  C   UNL     1      17.999  28.982  35.190  1.00  0.00     0.191 C 
BRANCH  37  38
ATOM     38  O   UNL     1      19.367  28.679  34.938  1.00  0.00    -0.394 OA
ATOM     39  H   UNL     1      19.671  29.185  34.153  1.00  0.00     0.210 HD
ENDBRANCH  37  38
ENDBRANCH  32  37
BRANCH  33  40
ATOM     40  O   UNL     1      14.568  31.514  33.355  1.00  0.00    -0.387 OA
ATOM     41  H   UNL     1      13.986  30.849  32.921  1.00  0.00     0.211 HD
ENDBRANCH  33  40
BRANCH  35  42
ATOM     42  O   UNL     1      13.875  32.090  35.795  1.00  0.00    -0.385 OA
ATOM     43  H   UNL     1      14.086  32.805  36.483  1.00  0.00     0.211 HD
ENDBRANCH  35  42
BRANCH  36  44
ATOM     44  O   UNL     1      15.723  31.984  37.921  1.00  0.00    -0.366 OA
ATOM     45  H   UNL     1      14.868  32.498  37.832  1.00  0.00     0.213 HD
ENDBRANCH  36  44
ENDBRANCH  30  31
ENDBRANCH   4  30
TORSDOF 18
ENDMDL
MODEL 3
REMARK VINA RESULT:    -2.753      1.530      2.651
REMARK INTER + INTRA:          -6.998
REMARK INTER:                  -4.952
REMARK INTRA:                  -2.046
REMARK UNBOUND:                -2.234
REMARK SMILES OC[C@@H]1O[C@H](O[C@H]2[C@H](O)[C@H](O)[C@@H](O[C@H]3[C@H](O)[C@H](O)[C@@H](O)O[C@H]3CO)O[C@H]2CO)[C@H](O)[C@@H](O)[C@H]1O
REMARK SMILES IDX 7 1 26 2 25 3 12 4 10 5 8 6 6 7 5 8 3 9 33 10 4 11 31 12
REMARK SMILES IDX 29 13 2 14 1 15 34 17 32 19 30 21 27 23 28 24 9 26 11 28
REMARK SMILES IDX 13 30 14 31 22 32 15 33 21 34 17 35 19 36 23 37 24 38 16 40
REMARK SMILES IDX 18 42 20 44
REMARK H PARENT 1 16 34 18 32 20 30 22 28 25 9 27 11 29 24 39 16 41 18 43
REMARK H PARENT 20 45
REMARK Flexibility Score: inf
ROOT
ATOM      1  C   UNL     1      19.166  27.615  30.084  1.00  0.00     0.184 C 
ATOM      2  C   UNL     1      18.902  29.212  29.920  1.00  0.00     0.178 C 
ATOM      3  O   UNL     1      17.531  29.665  29.876  1.00  0.00    -0.341 OA
ATOM      4  C   UNL     1      16.754  29.285  31.001  1.00  0.00     0.282 C 
ATOM      5  C   UNL     1      16.629  27.721  30.928  1.00  0.00     0.202 C 
ATOM      6  C   UNL     1      17.959  26.861  30.684  1.00  0.00     0.180 C 
ENDROOT
BRANCH   1   7
ATOM      7  O   UNL     1      20.515  27.385  30.643  1.00  0.00    -0.341 OA
BRANCH   7   8
ATOM      8  C   UNL     1      20.819  26.257  31.587  1.00  0.00     0.282 C 
ATOM      9  C   UNL     1      23.088  26.938  31.908  1.00  0.00     0.178 C 
ATOM     10  C   UNL     1      22.556  27.877  33.045  1.00  0.00     0.177 C 
ATOM     11  O   UNL     1      22.178  25.909  31.512  1.00  0.00    -0.341 OA
ATOM     12  C   UNL     1      21.638  27.056  33.965  1.00  0.00     0.179 C 
ATOM     13  C   UNL     1      20.399  26.555  33.127  1.00  0.00     0.202 C 
BRANCH   9  14
ATOM     14  C   UNL     1      23.647  27.739  30.657  1.00  0.00     0.191 C 
BRANCH  14  15
ATOM     15  O   UNL     1      24.073  28.997  31.097  1.00  0.00    -0.394 OA
ATOM     16  H   UNL     1      24.983  29.152  30.649  1.00  0.00     0.210 HD
ENDBRANCH  14  15
ENDBRANCH   9  14
BRANCH  10  17
ATOM     17  O   UNL     1      23.595  28.427  33.792  1.00  0.00    -0.387 OA
ATOM     18  H   UNL     1      24.289  27.683  33.781  1.00  0.00     0.211 HD
ENDBRANCH  10  17
BRANCH  12  19
ATOM     19  O   UNL     1      22.293  25.941  34.486  1.00  0.00    -0.387 OA
ATOM     20  H   UNL     1      23.217  25.947  34.113  1.00  0.00     0.211 HD
ENDBRANCH  12  19
BRANCH  13  21
ATOM     21  O   UNL     1      19.535  27.649  33.203  1.00  0.00    -0.385 OA
ATOM     22  H   UNL     1      19.955  28.505  32.919  1.00  0.00     0.211 HD
ENDBRANCH  13  21
ENDBRANCH   7   8
ENDBRANCH   1   7
BRANCH   2  23
ATOM     23  C   UNL     1      19.650  29.986  31.090  1.00  0.00     0.191 C 
BRANCH  23  24
ATOM     24  O   UNL     1      21.093  30.199  30.944  1.00  0.00    -0.394 OA
ATOM     25  H   UNL     1      21.420  30.798  31.695  1.00  0.00     0.210 HD
ENDBRANCH  23  24
ENDBRANCH   2  23
BRANCH   6  26
ATOM     26  O   UNL     1      17.618  25.701  29.967  1.00  0.00    -0.387 OA
ATOM     27  H   UNL     1      18.424  25.277  29.441  1.00  0.00     0.211 HD
ENDBRANCH   6  26
BRANCH   5  28
ATOM     28  O   UNL     1      15.592  27.399  30.074  1.00  0.00    -0.385 OA
ATOM     29  H   UNL     1      15.139  28.197  29.680  1.00  0.00     0.211 HD
ENDBRANCH   5  28
BRANCH   4  30
ATOM     30  O   UNL     1      17.272  29.728  32.276  1.00  0.00    -0.341 OA
BRANCH  30  31
ATOM     31  C   UNL     1      16.491  29.740  33.474  1.00  0.00     0.184 C 
ATOM     32  C   UNL     1      15.252  30.695  33.239  1.00  0.00     0.178 C 
ATOM     33  C   UNL     1      17.244  30.139  34.767  1.00  0.00     0.180 C 
ATOM     34  O   UNL     1      14.387  30.848  34.356  1.00  0.00    -0.342 OA
ATOM     35  C   UNL     1      16.238  30.338  35.955  1.00  0.00     0.201 C 
ATOM     36  C   UNL     1      14.757  30.064  35.498  1.00  0.00     0.279 C 
BRANCH  32  37
ATOM     37  C   UNL     1      15.550  32.124  32.683  1.00  0.00     0.191 C 
BRANCH  37  38
ATOM     38  O   UNL     1      15.819  32.102  31.286  1.00  0.00    -0.394 OA
ATOM     39  H   UNL     1      15.010  32.369  30.796  1.00  0.00     0.210 HD
ENDBRANCH  37  38
ENDBRANCH  32  37
BRANCH  33  40
ATOM     40  O   UNL     1      18.217  29.196  35.104  1.00  0.00    -0.387 OA
ATOM     41  H   UNL     1      19.093  29.622  34.965  1.00  0.00     0.211 HD
ENDBRANCH  33  40
BRANCH  35  42
ATOM     42  O   UNL     1      16.545  29.517  37.071  1.00  0.00    -0.385 OA
ATOM     43  H   UNL     1      17.509  29.676  37.345  1.00  0.00     0.211 HD
ENDBRANCH  35  42
BRANCH  36  44
ATOM     44  O   UNL     1      13.876  30.309  36.628  1.00  0.00    -0.366 OA
ATOM     45  H   UNL     1      14.453  30.732  37.330  1.00  0.00     0.213 HD
ENDBRANCH  36  44
ENDBRANCH  30  31
ENDBRANCH   4  30
TORSDOF 18
ENDMDL
MODEL 4
REMARK VINA RESULT:    -2.492      1.364      2.323
REMARK INTER + INTRA:          -6.547
REMARK INTER:                  -5.380
REMARK INTRA:                  -1.167
REMARK UNBOUND:                -2.234
REMARK SMILES OC[C@@H]1O[C@H](O[C@H]2[C@H](O)[C@H](O)[C@@H](O[C@H]3[C@H](O)[C@H](O)[C@@H](O)O[C@H]3CO)O[C@H]2CO)[C@H](O)[C@@H](O)[C@H]1O
REMARK SMILES IDX 7 1 26 2 25 3 12 4 10 5 8 6 6 7 5 8 3 9 33 10 4 11 31 12
REMARK SMILES IDX 29 13 2 14 1 15 34 17 32 19 30 21 27 23 28 24 9 26 11 28
REMARK SMILES IDX 13 30 14 31 22 32 15 33 21 34 17 35 19 36 23 37 24 38 16 40
REMARK SMILES IDX 18 42 20 44
REMARK H PARENT 1 16 34 18 32 20 30 22 28 25 9 27 11 29 24 39 16 41 18 43
REMARK H PARENT 20 45
REMARK Flexibility Score: inf
ROOT
ATOM      1  C   UNL     1      18.271  28.563  30.096  1.00  0.00     0.184 C 
ATOM      2  C   UNL     1      17.767  30.099  29.915  1.00  0.00     0.178 C 
ATOM      3  O   UNL     1      16.419  30.417  30.327  1.00  0.00    -0.341 OA
ATOM      4  C   UNL     1      16.132  30.099  31.680  1.00  0.00     0.282 C 
ATOM      5  C   UNL     1      16.188  28.533  31.776  1.00  0.00     0.202 C 
ATOM      6  C   UNL     1      17.451  27.777  31.142  1.00  0.00     0.180 C 
ENDROOT
BRANCH   1   7
ATOM      7  O   UNL     1      19.748  28.525  30.157  1.00  0.00    -0.341 OA
BRANCH   7   8
ATOM      8  C   UNL     1      20.507  28.592  31.450  1.00  0.00     0.282 C 
ATOM      9  C   UNL     1      21.789  26.631  30.972  1.00  0.00     0.178 C 
ATOM     10  C   UNL     1      22.791  27.573  30.221  1.00  0.00     0.177 C 
ATOM     11  O   UNL     1      20.892  27.304  31.859  1.00  0.00    -0.341 OA
ATOM     12  C   UNL     1      23.122  28.762  31.136  1.00  0.00     0.179 C 
ATOM     13  C   UNL     1      21.798  29.576  31.407  1.00  0.00     0.202 C 
BRANCH   9  14
ATOM     14  C   UNL     1      21.019  25.644  29.997  1.00  0.00     0.191 C 
BRANCH  14  15
ATOM     15  O   UNL     1      19.815  25.275  30.609  1.00  0.00    -0.394 OA
ATOM     16  H   UNL     1      19.885  25.611  31.576  1.00  0.00     0.210 HD
ENDBRANCH  14  15
ENDBRANCH   9  14
BRANCH  10  17
ATOM     17  O   UNL     1      23.966  26.910  29.875  1.00  0.00    -0.387 OA
ATOM     18  H   UNL     1      23.923  26.073  30.452  1.00  0.00     0.211 HD
ENDBRANCH  10  17
BRANCH  12  19
ATOM     19  O   UNL     1      23.635  28.343  32.363  1.00  0.00    -0.387 OA
ATOM     20  H   UNL     1      23.603  27.347  32.365  1.00  0.00     0.211 HD
ENDBRANCH  12  19
BRANCH  13  21
ATOM     21  O   UNL     1      21.742  30.419  30.295  1.00  0.00    -0.385 OA
ATOM     22  H   UNL     1      22.575  30.945  30.156  1.00  0.00     0.211 HD
ENDBRANCH  13  21
ENDBRANCH   7   8
ENDBRANCH   1   7
BRANCH   2  23
ATOM     23  C   UNL     1      18.768  31.070  30.681  1.00  0.00     0.191 C 
BRANCH  23  24
ATOM     24  O   UNL     1      19.501  32.053  29.879  1.00  0.00    -0.394 OA
ATOM     25  H   UNL     1      19.026  32.181  28.991  1.00  0.00     0.210 HD
ENDBRANCH  23  24
ENDBRANCH   2  23
BRANCH   6  26
ATOM     26  O   UNL     1      17.034  26.514  30.683  1.00  0.00    -0.387 OA
ATOM     27  H   UNL     1      16.252  26.557  29.982  1.00  0.00     0.211 HD
ENDBRANCH   6  26
BRANCH   5  28
ATOM     28  O   UNL     1      14.970  28.020  31.372  1.00  0.00    -0.385 OA
ATOM     29  H   UNL     1      14.526  27.458  32.066  1.00  0.00     0.211 HD
ENDBRANCH   5  28
BRANCH   4  30
ATOM     30  O   UNL     1      16.996  30.733  32.651  1.00  0.00    -0.341 OA
BRANCH  30  31
ATOM     31  C   UNL     1      16.611  30.958  34.009  1.00  0.00     0.184 C 
ATOM     32  C   UNL     1      17.802  30.488  34.938  1.00  0.00     0.178 C 
ATOM     33  C   UNL     1      15.284  30.293  34.453  1.00  0.00     0.180 C 
ATOM     34  O   UNL     1      17.563  30.610  36.334  1.00  0.00    -0.342 OA
ATOM     35  C   UNL     1      15.094  30.419  36.006  1.00  0.00     0.201 C 
ATOM     36  C   UNL     1      16.296  31.192  36.665  1.00  0.00     0.279 C 
BRANCH  32  37
ATOM     37  C   UNL     1      18.377  29.058  34.689  1.00  0.00     0.191 C 
BRANCH  37  38
ATOM     38  O   UNL     1      19.045  28.549  35.839  1.00  0.00    -0.394 OA
ATOM     39  H   UNL     1      19.191  27.584  35.727  1.00  0.00     0.210 HD
ENDBRANCH  37  38
ENDBRANCH  32  37
BRANCH  33  40
ATOM     40  O   UNL     1      14.189  30.840  33.781  1.00  0.00    -0.387 OA
ATOM     41  H   UNL     1      13.389  30.354  34.088  1.00  0.00     0.211 HD
ENDBRANCH  33  40
BRANCH  35  42
ATOM     42  O   UNL     1      13.875  31.057  36.354  1.00  0.00    -0.385 OA
ATOM     43  H   UNL     1      14.078  31.972  36.741  1.00  0.00     0.211 HD
ENDBRANCH  35  42
BRANCH  36  44
ATOM     44  O   UNL     1      16.080  31.233  38.102  1.00  0.00    -0.366 OA
ATOM     45  H   UNL     1      15.375  30.546  38.287  1.00  0.00     0.213 HD
ENDBRANCH  36  44
ENDBRANCH  30  31
ENDBRANCH   4  30
TORSDOF 18
ENDMDL
MODEL 5
REMARK VINA RESULT:    -2.399     12.402     16.546
REMARK INTER + INTRA:          -6.386
REMARK INTER:                  -4.480
REMARK INTRA:                  -1.906
REMARK UNBOUND:                -2.234
REMARK SMILES OC[C@@H]1O[C@H](O[C@H]2[C@H](O)[C@H](O)[C@@H](O[C@H]3[C@H](O)[C@H](O)[C@@H](O)O[C@H]3CO)O[C@H]2CO)[C@H](O)[C@@H](O)[C@H]1O
REMARK SMILES IDX 7 1 26 2 25 3 12 4 10 5 8 6 6 7 5 8 3 9 33 10 4 11 31 12
REMARK SMILES IDX 29 13 2 14 1 15 34 17 32 19 30 21 27 23 28 24 9 26 11 28
REMARK SMILES IDX 13 30 14 31 22 32 15 33 21 34 17 35 19 36 23 37 24 38 16 40
REMARK SMILES IDX 18 42 20 44
REMARK H PARENT 1 16 34 18 32 20 30 22 28 25 9 27 11 29 24 39 16 41 18 43
REMARK H PARENT 20 45
REMARK Flexibility Score: inf
ROOT
ATOM      1  C   UNL     1      21.610  29.669  46.198  1.00  0.00     0.184 C 
ATOM      2  C   UNL     1      22.040  28.431  45.233  1.00  0.00     0.178 C 
ATOM      3  O   UNL     1      23.445  28.106  45.143  1.00  0.00    -0.341 OA
ATOM      4  C   UNL     1      24.059  27.821  46.390  1.00  0.00     0.282 C 
ATOM      5  C   UNL     1      24.042  29.169  47.196  1.00  0.00     0.202 C 
ATOM      6  C   UNL     1      22.670  29.993  47.273  1.00  0.00     0.180 C 
ENDROOT
BRANCH   1   7
ATOM      7  O   UNL     1      20.194  29.524  46.596  1.00  0.00    -0.341 OA
BRANCH   7   8
ATOM      8  C   UNL     1      19.543  30.419  47.610  1.00  0.00     0.282 C 
ATOM      9  C   UNL     1      18.508  31.796  45.951  1.00  0.00     0.178 C 
ATOM     10  C   UNL     1      17.327  30.766  45.956  1.00  0.00     0.177 C 
ATOM     11  O   UNL     1      19.375  31.712  47.086  1.00  0.00    -0.341 OA
ATOM     12  C   UNL     1      16.912  30.506  47.413  1.00  0.00     0.179 C 
ATOM     13  C   UNL     1      18.130  29.855  48.177  1.00  0.00     0.202 C 
BRANCH   9  14
ATOM     14  C   UNL     1      19.324  31.794  44.590  1.00  0.00     0.191 C 
BRANCH  14  15
ATOM     15  O   UNL     1      18.994  30.632  43.884  1.00  0.00    -0.394 OA
ATOM     16  H   UNL     1      19.229  29.854  44.511  1.00  0.00     0.210 HD
ENDBRANCH  14  15
ENDBRANCH   9  14
BRANCH  10  17
ATOM     17  O   UNL     1      16.230  31.231  45.235  1.00  0.00    -0.387 OA
ATOM     18  H   UNL     1      15.494  31.237  45.938  1.00  0.00     0.211 HD
ENDBRANCH  10  17
BRANCH  12  19
ATOM     19  O   UNL     1      16.566  31.686  48.070  1.00  0.00    -0.387 OA
ATOM     20  H   UNL     1      15.577  31.782  47.990  1.00  0.00     0.211 HD
ENDBRANCH  12  19
BRANCH  13  21
ATOM     21  O   UNL     1      17.976  28.501  47.868  1.00  0.00    -0.385 OA
ATOM     22  H   UNL     1      18.819  28.066  47.569  1.00  0.00     0.211 HD
ENDBRANCH  13  21
ENDBRANCH   7   8
ENDBRANCH   1   7
BRANCH   2  23
ATOM     23  C   UNL     1      21.249  27.125  45.677  1.00  0.00     0.191 C 
BRANCH  23  24
ATOM     24  O   UNL     1      21.462  25.906  44.890  1.00  0.00    -0.394 OA
ATOM     25  H   UNL     1      22.335  25.475  45.173  1.00  0.00     0.210 HD
ENDBRANCH  23  24
ENDBRANCH   2  23
BRANCH   6  26
ATOM     26  O   UNL     1      22.973  31.363  47.357  1.00  0.00    -0.387 OA
ATOM     27  H   UNL     1      24.002  31.572  47.306  1.00  0.00     0.211 HD
ENDBRANCH   6  26
BRANCH   5  28
ATOM     28  O   UNL     1      25.129  29.930  46.809  1.00  0.00    -0.385 OA
ATOM     29  H   UNL     1      24.876  30.779  46.350  1.00  0.00     0.211 HD
ENDBRANCH   5  28
BRANCH   4  30
ATOM     30  O   UNL     1      23.453  26.738  47.134  1.00  0.00    -0.341 OA
BRANCH  30  31
ATOM     31  C   UNL     1      24.189  25.603  47.597  1.00  0.00     0.184 C 
ATOM     32  C   UNL     1      23.373  24.303  47.215  1.00  0.00     0.178 C 
ATOM     33  C   UNL     1      24.540  25.597  49.106  1.00  0.00     0.180 C 
ATOM     34  O   UNL     1      23.954  23.078  47.642  1.00  0.00    -0.342 OA
ATOM     35  C   UNL     1      25.136  24.208  49.530  1.00  0.00     0.201 C 
ATOM     36  C   UNL     1      25.217  23.226  48.304  1.00  0.00     0.279 C 
BRANCH  32  37
ATOM     37  C   UNL     1      21.864  24.266  47.617  1.00  0.00     0.191 C 
BRANCH  37  38
ATOM     38  O   UNL     1      21.539  23.084  48.340  1.00  0.00    -0.394 OA
ATOM     39  H   UNL     1      22.206  22.390  48.143  1.00  0.00     0.210 HD
ENDBRANCH  37  38
ENDBRANCH  32  37
BRANCH  33  40
ATOM     40  O   UNL     1      25.426  26.628  49.429  1.00  0.00    -0.387 OA
ATOM     41  H   UNL     1      25.106  27.437  48.970  1.00  0.00     0.211 HD
ENDBRANCH  33  40
BRANCH  35  42
ATOM     42  O   UNL     1      26.419  24.326  50.125  1.00  0.00    -0.385 OA
ATOM     43  H   UNL     1      26.392  23.924  51.055  1.00  0.00     0.211 HD
ENDBRANCH  35  42
BRANCH  36  44
ATOM     44  O   UNL     1      25.731  21.950  48.773  1.00  0.00    -0.366 OA
ATOM     45  H   UNL     1      26.426  22.176  49.457  1.00  0.00     0.213 HD
ENDBRANCH  36  44
ENDBRANCH  30  31
ENDBRANCH   4  30
TORSDOF 18
ENDMDL
MODEL 6
REMARK VINA RESULT:    -2.317      1.986      6.235
REMARK INTER + INTRA:          -6.245
REMARK INTER:                  -4.167
REMARK INTRA:                  -2.078
REMARK UNBOUND:                -2.234
REMARK SMILES OC[C@@H]1O[C@H](O[C@H]2[C@H](O)[C@H](O)[C@@H](O[C@H]3[C@H](O)[C@H](O)[C@@H](O)O[C@H]3CO)O[C@H]2CO)[C@H](O)[C@@H](O)[C@H]1O
REMARK SMILES IDX 7 1 26 2 25 3 12 4 10 5 8 6 6 7 5 8 3 9 33 10 4 11 31 12
REMARK SMILES IDX 29 13 2 14 1 15 34 17 32 19 30 21 27 23 28 24 9 26 11 28
REMARK SMILES IDX 13 30 14 31 22 32 15 33 21 34 17 35 19 36 23 37 24 38 16 40
REMARK SMILES IDX 18 42 20 44
REMARK H PARENT 1 16 34 18 32 20 30 22 28 25 9 27 11 29 24 39 16 41 18 43
REMARK H PARENT 20 45
REMARK Flexibility Score: inf
ROOT
ATOM      1  C   UNL     1      18.375  29.907  30.004  1.00  0.00     0.184 C 
ATOM      2  C   UNL     1      18.765  28.332  29.881  1.00  0.00     0.178 C 
ATOM      3  O   UNL     1      20.168  27.986  29.875  1.00  0.00    -0.341 OA
ATOM      4  C   UNL     1      20.889  28.449  31.006  1.00  0.00     0.282 C 
ATOM      5  C   UNL     1      20.895  30.016  30.901  1.00  0.00     0.202 C 
ATOM      6  C   UNL     1      19.507  30.764  30.611  1.00  0.00     0.180 C 
ENDROOT
BRANCH   1   7
ATOM      7  O   UNL     1      17.002  30.043  30.532  1.00  0.00    -0.341 OA
BRANCH   7   8
ATOM      8  C   UNL     1      16.540  31.257  31.286  1.00  0.00     0.282 C 
ATOM      9  C   UNL     1      14.334  30.397  31.617  1.00  0.00     0.178 C 
ATOM     10  C   UNL     1      14.893  29.691  32.899  1.00  0.00     0.177 C 
ATOM     11  O   UNL     1      15.160  31.448  31.109  1.00  0.00    -0.341 OA
ATOM     12  C   UNL     1      15.678  30.725  33.723  1.00  0.00     0.179 C 
ATOM     13  C   UNL     1      16.905  31.227  32.868  1.00  0.00     0.202 C 
BRANCH   9  14
ATOM     14  C   UNL     1      13.922  29.372  30.477  1.00  0.00     0.191 C 
BRANCH  14  15
ATOM     15  O   UNL     1      14.546  28.148  30.743  1.00  0.00    -0.394 OA
ATOM     16  H   UNL     1      14.597  27.664  29.840  1.00  0.00     0.210 HD
ENDBRANCH  14  15
ENDBRANCH   9  14
BRANCH  10  17
ATOM     17  O   UNL     1      13.875  29.149  33.680  1.00  0.00    -0.387 OA
ATOM     18  H   UNL     1      13.272  28.717  32.983  1.00  0.00     0.211 HD
ENDBRANCH  10  17
BRANCH  12  19
ATOM     19  O   UNL     1      14.891  31.830  34.048  1.00  0.00    -0.387 OA
ATOM     20  H   UNL     1      15.420  32.383  34.686  1.00  0.00     0.211 HD
ENDBRANCH  12  19
BRANCH  13  21
ATOM     21  O   UNL     1      17.866  30.251  33.138  1.00  0.00    -0.385 OA
ATOM     22  H   UNL     1      18.795  30.606  33.155  1.00  0.00     0.211 HD
ENDBRANCH  13  21
ENDBRANCH   7   8
ENDBRANCH   1   7
BRANCH   2  23
ATOM     23  C   UNL     1      18.054  27.527  31.054  1.00  0.00     0.191 C 
BRANCH  23  24
ATOM     24  O   UNL     1      18.478  26.141  31.275  1.00  0.00    -0.394 OA
ATOM     25  H   UNL     1      17.761  25.513  30.928  1.00  0.00     0.210 HD
ENDBRANCH  23  24
ENDBRANCH   2  23
BRANCH   6  26
ATOM     26  O   UNL     1      19.773  31.933  29.875  1.00  0.00    -0.387 OA
ATOM     27  H   UNL     1      20.478  32.567  30.329  1.00  0.00     0.211 HD
ENDBRANCH   6  26
BRANCH   5  28
ATOM     28  O   UNL     1      21.922  30.399  30.060  1.00  0.00    -0.385 OA
ATOM     29  H   UNL     1      22.749  29.852  30.169  1.00  0.00     0.211 HD
ENDBRANCH   5  28
BRANCH   4  30
ATOM     30  O   UNL     1      20.379  27.994  32.281  1.00  0.00    -0.341 OA
BRANCH  30  31
ATOM     31  C   UNL     1      21.051  28.234  33.520  1.00  0.00     0.184 C 
ATOM     32  C   UNL     1      22.323  27.295  33.575  1.00  0.00     0.178 C 
ATOM     33  C   UNL     1      20.194  28.057  34.798  1.00  0.00     0.180 C 
ATOM     34  O   UNL     1      23.088  27.384  34.769  1.00  0.00    -0.342 OA
ATOM     35  C   UNL     1      21.094  28.120  36.082  1.00  0.00     0.201 C 
ATOM     36  C   UNL     1      22.605  28.354  35.707  1.00  0.00     0.279 C 
BRANCH  32  37
ATOM     37  C   UNL     1      22.103  25.778  33.277  1.00  0.00     0.191 C 
BRANCH  37  38
ATOM     38  O   UNL     1      20.720  25.440  33.251  1.00  0.00    -0.394 OA
ATOM     39  H   UNL     1      20.626  24.478  33.077  1.00  0.00     0.210 HD
ENDBRANCH  37  38
ENDBRANCH  32  37
BRANCH  33  40
ATOM     40  O   UNL     1      19.177  29.013  34.867  1.00  0.00    -0.387 OA
ATOM     41  H   UNL     1      19.480  29.711  35.492  1.00  0.00     0.211 HD
ENDBRANCH  33  40
BRANCH  35  42
ATOM     42  O   UNL     1      20.673  29.123  36.992  1.00  0.00    -0.385 OA
ATOM     43  H   UNL     1      21.207  29.039  37.850  1.00  0.00     0.211 HD
ENDBRANCH  35  42
BRANCH  36  44
ATOM     44  O   UNL     1      23.386  28.356  36.932  1.00  0.00    -0.366 OA
ATOM     45  H   UNL     1      23.154  29.212  37.397  1.00  0.00     0.213 HD
ENDBRANCH  36  44
ENDBRANCH  30  31
ENDBRANCH   4  30
TORSDOF 18
ENDMDL
MODEL 7
REMARK VINA RESULT:    -1.839      8.977     14.301
REMARK INTER + INTRA:          -5.416
REMARK INTER:                  -3.644
REMARK INTRA:                  -1.771
REMARK UNBOUND:                -2.234
REMARK SMILES OC[C@@H]1O[C@H](O[C@H]2[C@H](O)[C@H](O)[C@@H](O[C@H]3[C@H](O)[C@H](O)[C@@H](O)O[C@H]3CO)O[C@H]2CO)[C@H](O)[C@@H](O)[C@H]1O
REMARK SMILES IDX 7 1 26 2 25 3 12 4 10 5 8 6 6 7 5 8 3 9 33 10 4 11 31 12
REMARK SMILES IDX 29 13 2 14 1 15 34 17 32 19 30 21 27 23 28 24 9 26 11 28
REMARK SMILES IDX 13 30 14 31 22 32 15 33 21 34 17 35 19 36 23 37 24 38 16 40
REMARK SMILES IDX 18 42 20 44
REMARK H PARENT 1 16 34 18 32 20 30 22 28 25 9 27 11 29 24 39 16 41 18 43
REMARK H PARENT 20 45
REMARK Flexibility Score: inf
ROOT
ATOM      1  C   UNL     1      19.284  30.497  46.730  1.00  0.00     0.184 C 
ATOM      2  C   UNL     1      19.170  31.896  45.907  1.00  0.00     0.178 C 
ATOM      3  O   UNL     1      20.024  32.069  44.755  1.00  0.00    -0.341 OA
ATOM      4  C   UNL     1      19.886  31.058  43.769  1.00  0.00     0.282 C 
ATOM      5  C   UNL     1      20.420  29.737  44.429  1.00  0.00     0.202 C 
ATOM      6  C   UNL     1      19.893  29.351  45.893  1.00  0.00     0.180 C 
ENDROOT
BRANCH   1   7
ATOM      7  O   UNL     1      18.037  30.258  47.486  1.00  0.00    -0.341 OA
BRANCH   7   8
ATOM      8  C   UNL     1      17.834  29.048  48.352  1.00  0.00     0.282 C 
ATOM      9  C   UNL     1      16.791  30.294  50.107  1.00  0.00     0.178 C 
ATOM     10  C   UNL     1      15.443  30.089  49.335  1.00  0.00     0.177 C 
ATOM     11  O   UNL     1      17.844  29.411  49.710  1.00  0.00    -0.341 OA
ATOM     12  C   UNL     1      15.309  28.601  48.974  1.00  0.00     0.179 C 
ATOM     13  C   UNL     1      16.490  28.207  48.005  1.00  0.00     0.202 C 
BRANCH   9  14
ATOM     14  C   UNL     1      17.270  31.807  50.123  1.00  0.00     0.191 C 
BRANCH  14  15
ATOM     15  O   UNL     1      18.665  31.825  50.011  1.00  0.00    -0.394 OA
ATOM     16  H   UNL     1      19.018  31.495  50.916  1.00  0.00     0.210 HD
ENDBRANCH  14  15
ENDBRANCH   9  14
BRANCH  10  17
ATOM     17  O   UNL     1      14.345  30.485  50.094  1.00  0.00    -0.387 OA
ATOM     18  H   UNL     1      13.764  30.960  49.406  1.00  0.00     0.211 HD
ENDBRANCH  10  17
BRANCH  12  19
ATOM     19  O   UNL     1      15.381  27.787  50.104  1.00  0.00    -0.387 OA
ATOM     20  H   UNL     1      14.465  27.428  50.261  1.00  0.00     0.211 HD
ENDBRANCH  12  19
BRANCH  13  21
ATOM     21  O   UNL     1      15.980  28.577  46.759  1.00  0.00    -0.385 OA
ATOM     22  H   UNL     1      16.510  29.290  46.311  1.00  0.00     0.211 HD
ENDBRANCH  13  21
ENDBRANCH   7   8
ENDBRANCH   1   7
BRANCH   2  23
ATOM     23  C   UNL     1      17.661  32.111  45.452  1.00  0.00     0.191 C 
BRANCH  23  24
ATOM     24  O   UNL     1      16.837  30.914  45.262  1.00  0.00    -0.394 OA
ATOM     25  H   UNL     1      16.731  30.437  46.150  1.00  0.00     0.210 HD
ENDBRANCH  23  24
ENDBRANCH   2  23
BRANCH   6  26
ATOM     26  O   UNL     1      20.912  28.654  46.566  1.00  0.00    -0.387 OA
ATOM     27  H   UNL     1      21.862  28.768  46.130  1.00  0.00     0.211 HD
ENDBRANCH   6  26
BRANCH   5  28
ATOM     28  O   UNL     1      21.795  29.704  44.303  1.00  0.00    -0.385 OA
ATOM     29  H   UNL     1      22.238  29.082  44.945  1.00  0.00     0.211 HD
ENDBRANCH   5  28
BRANCH   4  30
ATOM     30  O   UNL     1      18.547  30.899  43.244  1.00  0.00    -0.341 OA
BRANCH  30  31
ATOM     31  C   UNL     1      18.171  31.313  41.928  1.00  0.00     0.184 C 
ATOM     32  C   UNL     1      16.677  30.855  41.680  1.00  0.00     0.178 C 
ATOM     33  C   UNL     1      19.085  30.820  40.778  1.00  0.00     0.180 C 
ATOM     34  O   UNL     1      16.158  31.160  40.393  1.00  0.00    -0.342 OA
ATOM     35  C   UNL     1      18.443  31.143  39.383  1.00  0.00     0.201 C 
ATOM     36  C   UNL     1      17.064  31.883  39.550  1.00  0.00     0.279 C 
BRANCH  32  37
ATOM     37  C   UNL     1      16.331  29.362  41.979  1.00  0.00     0.191 C 
BRANCH  37  38
ATOM     38  O   UNL     1      14.983  29.207  42.408  1.00  0.00    -0.394 OA
ATOM     39  H   UNL     1      14.930  29.378  43.375  1.00  0.00     0.210 HD
ENDBRANCH  37  38
ENDBRANCH  32  37
BRANCH  33  40
ATOM     40  O   UNL     1      20.363  31.376  40.868  1.00  0.00    -0.387 OA
ATOM     41  H   UNL     1      20.709  31.161  41.764  1.00  0.00     0.211 HD
ENDBRANCH  33  40
BRANCH  35  42
ATOM     42  O   UNL     1      19.297  31.919  38.558  1.00  0.00    -0.385 OA
ATOM     43  H   UNL     1      19.253  32.888  38.852  1.00  0.00     0.211 HD
ENDBRANCH  35  42
BRANCH  36  44
ATOM     44  O   UNL     1      16.504  32.110  38.228  1.00  0.00    -0.366 OA
ATOM     45  H   UNL     1      17.044  31.538  37.606  1.00  0.00     0.213 HD
ENDBRANCH  36  44
ENDBRANCH  30  31
ENDBRANCH   4  30
TORSDOF 18
ENDMDL
MODEL 8
REMARK VINA RESULT:    -1.646      1.635      7.356
REMARK INTER + INTRA:          -5.083
REMARK INTER:                  -4.985
REMARK INTRA:                  -0.098
REMARK UNBOUND:                -2.234
REMARK SMILES OC[C@@H]1O[C@H](O[C@H]2[C@H](O)[C@H](O)[C@@H](O[C@H]3[C@H](O)[C@H](O)[C@@H](O)O[C@H]3CO)O[C@H]2CO)[C@H](O)[C@@H](O)[C@H]1O
REMARK SMILES IDX 7 1 26 2 25 3 12 4 10 5 8 6 6 7 5 8 3 9 33 10 4 11 31 12
REMARK SMILES IDX 29 13 2 14 1 15 34 17 32 19 30 21 27 23 28 24 9 26 11 28
REMARK SMILES IDX 13 30 14 31 22 32 15 33 21 34 17 35 19 36 23 37 24 38 16 40
REMARK SMILES IDX 18 42 20 44
REMARK H PARENT 1 16 34 18 32 20 30 22 28 25 9 27 11 29 24 39 16 41 18 43
REMARK H PARENT 20 45
REMARK Flexibility Score: inf
ROOT
ATOM      1  C   UNL     1      18.973  29.850  33.009  1.00  0.00     0.184 C 
ATOM      2  C   UNL     1      19.536  30.405  31.587  1.00  0.00     0.178 C 
ATOM      3  O   UNL     1      20.771  29.844  31.088  1.00  0.00    -0.341 OA
ATOM      4  C   UNL     1      20.754  28.433  30.943  1.00  0.00     0.282 C 
ATOM      5  C   UNL     1      20.646  27.852  32.399  1.00  0.00     0.202 C 
ATOM      6  C   UNL     1      19.534  28.460  33.379  1.00  0.00     0.180 C 
ENDROOT
BRANCH   1   7
ATOM      7  O   UNL     1      17.518  30.092  33.100  1.00  0.00    -0.341 OA
BRANCH   7   8
ATOM      8  C   UNL     1      16.933  31.218  33.902  1.00  0.00     0.282 C 
ATOM      9  C   UNL     1      14.700  30.381  33.729  1.00  0.00     0.178 C 
ATOM     10  C   UNL     1      15.019  29.514  34.995  1.00  0.00     0.177 C 
ATOM     11  O   UNL     1      15.608  31.464  33.507  1.00  0.00    -0.341 OA
ATOM     12  C   UNL     1      15.646  30.422  36.064  1.00  0.00     0.179 C 
ATOM     13  C   UNL     1      17.008  30.991  35.508  1.00  0.00     0.202 C 
BRANCH   9  14
ATOM     14  C   UNL     1      14.495  29.510  32.418  1.00  0.00     0.191 C 
BRANCH  14  15
ATOM     15  O   UNL     1      14.869  30.286  31.315  1.00  0.00    -0.394 OA
ATOM     16  H   UNL     1      15.345  29.640  30.674  1.00  0.00     0.210 HD
ENDBRANCH  14  15
ENDBRANCH   9  14
BRANCH  10  17
ATOM     17  O   UNL     1      13.875  28.908  35.510  1.00  0.00    -0.387 OA
ATOM     18  H   UNL     1      14.021  27.929  35.273  1.00  0.00     0.211 HD
ENDBRANCH  10  17
BRANCH  12  19
ATOM     19  O   UNL     1      14.818  31.499  36.377  1.00  0.00    -0.387 OA
ATOM     20  H   UNL     1      14.576  31.938  35.515  1.00  0.00     0.211 HD
ENDBRANCH  12  19
BRANCH  13  21
ATOM     21  O   UNL     1      17.902  29.966  35.824  1.00  0.00    -0.385 OA
ATOM     22  H   UNL     1      17.454  29.108  36.054  1.00  0.00     0.211 HD
ENDBRANCH  13  21
ENDBRANCH   7   8
ENDBRANCH   1   7
BRANCH   2  23
ATOM     23  C   UNL     1      18.414  30.220  30.474  1.00  0.00     0.191 C 
BRANCH  23  24
ATOM     24  O   UNL     1      17.404  31.275  30.353  1.00  0.00    -0.394 OA
ATOM     25  H   UNL     1      16.488  30.883  30.544  1.00  0.00     0.210 HD
ENDBRANCH  23  24
ENDBRANCH   2  23
BRANCH   6  26
ATOM     26  O   UNL     1      20.014  28.390  34.700  1.00  0.00    -0.387 OA
ATOM     27  H   UNL     1      19.261  28.484  35.428  1.00  0.00     0.211 HD
ENDBRANCH   6  26
BRANCH   5  28
ATOM     28  O   UNL     1      21.912  27.804  32.951  1.00  0.00    -0.385 OA
ATOM     29  H   UNL     1      21.915  27.550  33.916  1.00  0.00     0.211 HD
ENDBRANCH   5  28
BRANCH   4  30
ATOM     30  O   UNL     1      19.714  27.921  30.078  1.00  0.00    -0.341 OA
BRANCH  30  31
ATOM     31  C   UNL     1      19.368  26.536  30.009  1.00  0.00     0.184 C 
ATOM     32  C   UNL     1      17.792  26.431  29.914  1.00  0.00     0.178 C 
ATOM     33  C   UNL     1      19.901  25.649  31.162  1.00  0.00     0.180 C 
ATOM     34  O   UNL     1      17.276  25.107  29.876  1.00  0.00    -0.342 OA
ATOM     35  C   UNL     1      19.266  24.215  31.097  1.00  0.00     0.201 C 
ATOM     36  C   UNL     1      18.281  24.084  29.875  1.00  0.00     0.279 C 
BRANCH  32  37
ATOM     37  C   UNL     1      16.961  27.222  30.973  1.00  0.00     0.191 C 
BRANCH  37  38
ATOM     38  O   UNL     1      15.831  27.860  30.389  1.00  0.00    -0.394 OA
ATOM     39  H   UNL     1      15.219  27.176  30.039  1.00  0.00     0.210 HD
ENDBRANCH  37  38
ENDBRANCH  32  37
BRANCH  33  40
ATOM     40  O   UNL     1      21.295  25.567  31.142  1.00  0.00    -0.387 OA
ATOM     41  H   UNL     1      21.627  26.130  31.877  1.00  0.00     0.211 HD
ENDBRANCH  33  40
BRANCH  35  42
ATOM     42  O   UNL     1      20.244  23.190  31.025  1.00  0.00    -0.385 OA
ATOM     43  H   UNL     1      20.177  22.729  30.124  1.00  0.00     0.211 HD
ENDBRANCH  35  42
BRANCH  36  44
ATOM     44  O   UNL     1      17.696  22.754  29.900  1.00  0.00    -0.366 OA
ATOM     45  H   UNL     1      18.409  22.154  30.268  1.00  0.00     0.213 HD
ENDBRANCH  36  44
ENDBRANCH  30  31
ENDBRANCH   4  30
TORSDOF 18
ENDMDL
