MODEL 1
REMARK VINA RESULT:    -7.793      0.000      0.000
REMARK INTER + INTRA:          -8.477
REMARK INTER:                  -8.249
REMARK INTRA:                  -0.228
REMARK UNBOUND:                -0.228
REMARK SMILES O=c1cc(-c2ccccc2)oc2ccccc12
REMARK SMILES IDX 4 1 3 2 2 3 1 4 17 5 16 6 15 7 14 8 13 9 12 10 11 11 5 12
REMARK SMILES IDX 8 13 7 14 9 15 6 16 10 17
REMARK H PARENT
REMARK Flexibility Score: inf
ROOT
ATOM      1  C   UNL     1      10.777  38.837  22.455  1.00  0.00     0.138 A 
ATOM      2  C   UNL     1      12.015  38.408  21.932  1.00  0.00     0.100 A 
ATOM      3  C   UNL     1      12.360  38.740  20.620  1.00  0.00     0.193 A 
ATOM      4  O   UNL     1      13.466  38.357  20.153  1.00  0.00    -0.289 OA
ATOM      5  C   UNL     1      11.471  39.495  19.842  1.00  0.00     0.065 A 
ATOM      6  C   UNL     1      11.757  39.864  18.515  1.00  0.00     0.016 A 
ATOM      7  C   UNL     1      10.834  40.618  17.784  1.00  0.00     0.001 A 
ATOM      8  C   UNL     1       9.625  41.009  18.366  1.00  0.00     0.004 A 
ATOM      9  C   UNL     1       9.333  40.647  19.685  1.00  0.00     0.048 A 
ATOM     10  C   UNL     1      10.249  39.892  20.427  1.00  0.00     0.138 A 
ATOM     11  O   UNL     1       9.962  39.554  21.678  1.00  0.00    -0.456 OA
ENDROOT
BRANCH   1  12
ATOM     12  C   UNL     1      10.330  38.526  23.847  1.00  0.00     0.017 A 
ATOM     13  C   UNL     1       9.557  37.996  26.511  1.00  0.00     0.000 A 
ATOM     14  C   UNL     1       8.875  37.395  25.452  1.00  0.00     0.001 A 
ATOM     15  C   UNL     1      10.621  38.858  26.251  1.00  0.00     0.001 A 
ATOM     16  C   UNL     1       9.254  37.654  24.131  1.00  0.00     0.012 A 
ATOM     17  C   UNL     1      11.006  39.122  24.934  1.00  0.00     0.012 A 
ENDBRANCH   1  12
TORSDOF 1
ENDMDL
MODEL 2
REMARK VINA RESULT:    -7.396      4.936      6.386
REMARK INTER + INTRA:          -8.057
REMARK INTER:                  -7.801
REMARK INTRA:                  -0.256
REMARK UNBOUND:                -0.228
REMARK SMILES O=c1cc(-c2ccccc2)oc2ccccc12
REMARK SMILES IDX 4 1 3 2 2 3 1 4 17 5 16 6 15 7 14 8 13 9 12 10 11 11 5 12
REMARK SMILES IDX 8 13 7 14 9 15 6 16 10 17
REMARK H PARENT
REMARK Flexibility Score: inf
ROOT
ATOM      1  C   UNL     1      12.547  43.803  20.947  1.00  0.00     0.138 A 
ATOM      2  C   UNL     1      11.201  44.203  21.078  1.00  0.00     0.100 A 
ATOM      3  C   UNL     1      10.211  43.532  20.357  1.00  0.00     0.193 A 
ATOM      4  O   UNL     1       9.008  43.890  20.474  1.00  0.00    -0.289 OA
ATOM      5  C   UNL     1      10.570  42.471  19.514  1.00  0.00     0.065 A 
ATOM      6  C   UNL     1       9.622  41.754  18.761  1.00  0.00     0.016 A 
ATOM      7  C   UNL     1      10.034  40.703  17.935  1.00  0.00     0.001 A 
ATOM      8  C   UNL     1      11.387  40.361  17.855  1.00  0.00     0.004 A 
ATOM      9  C   UNL     1      12.335  41.069  18.600  1.00  0.00     0.048 A 
ATOM     10  C   UNL     1      11.934  42.122  19.430  1.00  0.00     0.138 A 
ATOM     11  O   UNL     1      12.843  42.787  20.133  1.00  0.00    -0.456 OA
ENDROOT
BRANCH   1  12
ATOM     12  C   UNL     1      13.669  44.466  21.682  1.00  0.00     0.017 A 
ATOM     13  C   UNL     1      15.833  45.633  23.069  1.00  0.00     0.000 A 
ATOM     14  C   UNL     1      14.722  46.405  22.732  1.00  0.00     0.001 A 
ATOM     15  C   UNL     1      15.873  44.284  22.720  1.00  0.00     0.001 A 
ATOM     16  C   UNL     1      13.647  45.832  22.044  1.00  0.00     0.012 A 
ATOM     17  C   UNL     1      14.803  43.703  22.034  1.00  0.00     0.012 A 
ENDBRANCH   1  12
TORSDOF 1
ENDMDL
MODEL 3
REMARK VINA RESULT:    -7.330      1.866      6.174
REMARK INTER + INTRA:          -7.987
REMARK INTER:                  -7.723
REMARK INTRA:                  -0.265
REMARK UNBOUND:                -0.228
REMARK SMILES O=c1cc(-c2ccccc2)oc2ccccc12
REMARK SMILES IDX 4 1 3 2 2 3 1 4 17 5 16 6 15 7 14 8 13 9 12 10 11 11 5 12
REMARK SMILES IDX 8 13 7 14 9 15 6 16 10 17
REMARK H PARENT
REMARK Flexibility Score: inf
ROOT
ATOM      1  C   UNL     1      11.400  38.674  23.125  1.00  0.00     0.138 A 
ATOM      2  C   UNL     1      12.620  38.458  23.799  1.00  0.00     0.100 A 
ATOM      3  C   UNL     1      12.607  38.077  25.142  1.00  0.00     0.193 A 
ATOM      4  O   UNL     1      13.698  37.885  25.744  1.00  0.00    -0.289 OA
ATOM      5  C   UNL     1      11.381  37.916  25.802  1.00  0.00     0.065 A 
ATOM      6  C   UNL     1      11.296  37.534  27.154  1.00  0.00     0.016 A 
ATOM      7  C   UNL     1      10.046  37.387  27.762  1.00  0.00     0.001 A 
ATOM      8  C   UNL     1       8.877  37.618  27.033  1.00  0.00     0.004 A 
ATOM      9  C   UNL     1       8.951  37.997  25.690  1.00  0.00     0.048 A 
ATOM     10  C   UNL     1      10.197  38.148  25.069  1.00  0.00     0.138 A 
ATOM     11  O   UNL     1      10.256  38.508  23.793  1.00  0.00    -0.456 OA
ENDROOT
BRANCH   1  12
ATOM     12  C   UNL     1      11.325  39.083  21.689  1.00  0.00     0.017 A 
ATOM     13  C   UNL     1      11.086  39.872  18.988  1.00  0.00     0.000 A 
ATOM     14  C   UNL     1      12.322  39.466  19.491  1.00  0.00     0.001 A 
ATOM     15  C   UNL     1       9.969  39.887  19.822  1.00  0.00     0.001 A 
ATOM     16  C   UNL     1      12.446  39.075  20.828  1.00  0.00     0.012 A 
ATOM     17  C   UNL     1      10.083  39.497  21.158  1.00  0.00     0.012 A 
ENDBRANCH   1  12
TORSDOF 1
ENDMDL
MODEL 4
REMARK VINA RESULT:    -7.248      1.849      6.370
REMARK INTER + INTRA:          -7.900
REMARK INTER:                  -7.669
REMARK INTRA:                  -0.231
REMARK UNBOUND:                -0.228
REMARK SMILES O=c1cc(-c2ccccc2)oc2ccccc12
REMARK SMILES IDX 4 1 3 2 2 3 1 4 17 5 16 6 15 7 14 8 13 9 12 10 11 11 5 12
REMARK SMILES IDX 8 13 7 14 9 15 6 16 10 17
REMARK H PARENT
REMARK Flexibility Score: inf
ROOT
ATOM      1  C   UNL     1      11.382  39.315  22.071  1.00  0.00     0.138 A 
ATOM      2  C   UNL     1      10.112  38.979  22.584  1.00  0.00     0.100 A 
ATOM      3  C   UNL     1      10.010  38.418  23.859  1.00  0.00     0.193 A 
ATOM      4  O   UNL     1       8.875  38.117  24.317  1.00  0.00    -0.289 OA
ATOM      5  C   UNL     1      11.173  38.196  24.609  1.00  0.00     0.065 A 
ATOM      6  C   UNL     1      11.142  37.635  25.900  1.00  0.00     0.016 A 
ATOM      7  C   UNL     1      12.332  37.436  26.605  1.00  0.00     0.001 A 
ATOM      8  C   UNL     1      13.557  37.793  26.035  1.00  0.00     0.004 A 
ATOM      9  C   UNL     1      13.597  38.352  24.753  1.00  0.00     0.048 A 
ATOM     10  C   UNL     1      12.412  38.556  24.037  1.00  0.00     0.138 A 
ATOM     11  O   UNL     1      12.462  39.087  22.821  1.00  0.00    -0.456 OA
ENDROOT
BRANCH   1  12
ATOM     12  C   UNL     1      11.579  39.920  20.717  1.00  0.00     0.017 A 
ATOM     13  C   UNL     1      11.913  40.980  18.122  1.00  0.00     0.000 A 
ATOM     14  C   UNL     1      12.318  41.716  19.235  1.00  0.00     0.001 A 
ATOM     15  C   UNL     1      11.343  39.719  18.294  1.00  0.00     0.001 A 
ATOM     16  C   UNL     1      12.155  41.196  20.523  1.00  0.00     0.012 A 
ATOM     17  C   UNL     1      11.177  39.192  19.577  1.00  0.00     0.012 A 
ENDBRANCH   1  12
TORSDOF 1
ENDMDL
MODEL 5
REMARK VINA RESULT:    -7.240      1.381      2.377
REMARK INTER + INTRA:          -7.891
REMARK INTER:                  -7.641
REMARK INTRA:                  -0.251
REMARK UNBOUND:                -0.228
REMARK SMILES O=c1cc(-c2ccccc2)oc2ccccc12
REMARK SMILES IDX 4 1 3 2 2 3 1 4 17 5 16 6 15 7 14 8 13 9 12 10 11 11 5 12
REMARK SMILES IDX 8 13 7 14 9 15 6 16 10 17
REMARK H PARENT
REMARK Flexibility Score: inf
ROOT
ATOM      1  C   UNL     1      10.381  39.178  22.580  1.00  0.00     0.138 A 
ATOM      2  C   UNL     1       9.393  39.445  21.610  1.00  0.00     0.100 A 
ATOM      3  C   UNL     1       9.758  40.041  20.400  1.00  0.00     0.193 A 
ATOM      4  O   UNL     1       8.875  40.280  19.533  1.00  0.00    -0.289 OA
ATOM      5  C   UNL     1      11.103  40.364  20.169  1.00  0.00     0.065 A 
ATOM      6  C   UNL     1      11.538  40.965  18.973  1.00  0.00     0.016 A 
ATOM      7  C   UNL     1      12.892  41.266  18.794  1.00  0.00     0.001 A 
ATOM      8  C   UNL     1      13.817  40.973  19.799  1.00  0.00     0.004 A 
ATOM      9  C   UNL     1      13.393  40.376  20.991  1.00  0.00     0.048 A 
ATOM     10  C   UNL     1      12.041  40.070  21.181  1.00  0.00     0.138 A 
ATOM     11  O   UNL     1      11.648  39.503  22.317  1.00  0.00    -0.456 OA
ENDROOT
BRANCH   1  12
ATOM     12  C   UNL     1      10.076  38.544  23.899  1.00  0.00     0.017 A 
ATOM     13  C   UNL     1       9.566  37.407  26.433  1.00  0.00     0.000 A 
ATOM     14  C   UNL     1       8.875  36.950  25.309  1.00  0.00     0.001 A 
ATOM     15  C   UNL     1      10.508  38.425  26.302  1.00  0.00     0.001 A 
ATOM     16  C   UNL     1       9.124  37.510  24.052  1.00  0.00     0.012 A 
ATOM     17  C   UNL     1      10.763  38.990  25.049  1.00  0.00     0.012 A 
ENDBRANCH   1  12
TORSDOF 1
ENDMDL
MODEL 6
REMARK VINA RESULT:    -7.163      4.343      5.631
REMARK INTER + INTRA:          -7.810
REMARK INTER:                  -7.545
REMARK INTRA:                  -0.264
REMARK UNBOUND:                -0.228
REMARK SMILES O=c1cc(-c2ccccc2)oc2ccccc12
REMARK SMILES IDX 4 1 3 2 2 3 1 4 17 5 16 6 15 7 14 8 13 9 12 10 11 11 5 12
REMARK SMILES IDX 8 13 7 14 9 15 6 16 10 17
REMARK H PARENT
REMARK Flexibility Score: inf
ROOT
ATOM      1  C   UNL     1      13.318  42.594  20.740  1.00  0.00     0.138 A 
ATOM      2  C   UNL     1      13.862  41.296  20.829  1.00  0.00     0.100 A 
ATOM      3  C   UNL     1      13.272  40.252  20.113  1.00  0.00     0.193 A 
ATOM      4  O   UNL     1      13.758  39.091  20.194  1.00  0.00    -0.289 OA
ATOM      5  C   UNL     1      12.147  40.510  19.317  1.00  0.00     0.065 A 
ATOM      6  C   UNL     1      11.505  39.504  18.571  1.00  0.00     0.016 A 
ATOM      7  C   UNL     1      10.387  39.816  17.792  1.00  0.00     0.001 A 
ATOM      8  C   UNL     1       9.902  41.126  17.751  1.00  0.00     0.004 A 
ATOM      9  C   UNL     1      10.534  42.132  18.489  1.00  0.00     0.048 A 
ATOM     10  C   UNL     1      11.654  41.831  19.272  1.00  0.00     0.138 A 
ATOM     11  O   UNL     1      12.247  42.794  19.969  1.00  0.00    -0.456 OA
ENDROOT
BRANCH   1  12
ATOM     12  C   UNL     1      13.887  43.767  21.472  1.00  0.00     0.017 A 
ATOM     13  C   UNL     1      14.881  46.033  22.833  1.00  0.00     0.000 A 
ATOM     14  C   UNL     1      15.645  44.868  22.764  1.00  0.00     0.001 A 
ATOM     15  C   UNL     1      13.625  46.076  22.229  1.00  0.00     0.001 A 
ATOM     16  C   UNL     1      15.158  43.743  22.091  1.00  0.00     0.012 A 
ATOM     17  C   UNL     1      13.131  44.957  21.554  1.00  0.00     0.012 A 
ENDBRANCH   1  12
TORSDOF 1
ENDMDL
MODEL 7
REMARK VINA RESULT:    -6.799      6.277      7.540
REMARK INTER + INTRA:          -7.425
REMARK INTER:                  -7.161
REMARK INTRA:                  -0.264
REMARK UNBOUND:                -0.228
REMARK SMILES O=c1cc(-c2ccccc2)oc2ccccc12
REMARK SMILES IDX 4 1 3 2 2 3 1 4 17 5 16 6 15 7 14 8 13 9 12 10 11 11 5 12
REMARK SMILES IDX 8 13 7 14 9 15 6 16 10 17
REMARK H PARENT
REMARK Flexibility Score: inf
ROOT
ATOM      1  C   UNL     1      14.372  44.498  21.838  1.00  0.00     0.138 A 
ATOM      2  C   UNL     1      13.070  45.002  21.642  1.00  0.00     0.100 A 
ATOM      3  C   UNL     1      12.090  44.180  21.079  1.00  0.00     0.193 A 
ATOM      4  O   UNL     1      10.927  44.632  20.904  1.00  0.00    -0.289 OA
ATOM      5  C   UNL     1      12.417  42.866  20.718  1.00  0.00     0.065 A 
ATOM      6  C   UNL     1      11.478  41.986  20.148  1.00  0.00     0.016 A 
ATOM      7  C   UNL     1      11.857  40.684  19.806  1.00  0.00     0.001 A 
ATOM      8  C   UNL     1      13.167  40.251  20.030  1.00  0.00     0.004 A 
ATOM      9  C   UNL     1      14.106  41.119  20.596  1.00  0.00     0.048 A 
ATOM     10  C   UNL     1      13.738  42.424  20.942  1.00  0.00     0.138 A 
ATOM     11  O   UNL     1      14.638  43.240  21.480  1.00  0.00    -0.456 OA
ENDROOT
BRANCH   1  12
ATOM     12  C   UNL     1      15.478  45.309  22.433  1.00  0.00     0.017 A 
ATOM     13  C   UNL     1      17.513  46.923  23.541  1.00  0.00     0.000 A 
ATOM     14  C   UNL     1      17.688  45.542  23.450  1.00  0.00     0.001 A 
ATOM     15  C   UNL     1      16.332  47.505  23.084  1.00  0.00     0.001 A 
ATOM     16  C   UNL     1      16.683  44.738  22.902  1.00  0.00     0.012 A 
ATOM     17  C   UNL     1      15.323  46.709  22.534  1.00  0.00     0.012 A 
ENDBRANCH   1  12
TORSDOF 1
ENDMDL
MODEL 8
REMARK VINA RESULT:    -6.630      7.139      9.340
REMARK INTER + INTRA:          -7.246
REMARK INTER:                  -6.986
REMARK INTRA:                  -0.260
REMARK UNBOUND:                -0.228
REMARK SMILES O=c1cc(-c2ccccc2)oc2ccccc12
REMARK SMILES IDX 4 1 3 2 2 3 1 4 17 5 16 6 15 7 14 8 13 9 12 10 11 11 5 12
REMARK SMILES IDX 8 13 7 14 9 15 6 16 10 17
REMARK H PARENT
REMARK Flexibility Score: inf
ROOT
ATOM      1  C   UNL     1      12.077  32.435  27.499  1.00  0.00     0.138 A 
ATOM      2  C   UNL     1      10.940  32.023  26.774  1.00  0.00     0.100 A 
ATOM      3  C   UNL     1       9.902  32.930  26.548  1.00  0.00     0.193 A 
ATOM      4  O   UNL     1       8.885  32.561  25.900  1.00  0.00    -0.289 OA
ATOM      5  C   UNL     1      10.006  34.236  27.046  1.00  0.00     0.065 A 
ATOM      6  C   UNL     1       8.998  35.198  26.853  1.00  0.00     0.016 A 
ATOM      7  C   UNL     1       9.153  36.488  27.370  1.00  0.00     0.001 A 
ATOM      8  C   UNL     1      10.308  36.827  28.080  1.00  0.00     0.004 A 
ATOM      9  C   UNL     1      11.315  35.877  28.276  1.00  0.00     0.048 A 
ATOM     10  C   UNL     1      11.171  34.583  27.762  1.00  0.00     0.138 A 
ATOM     11  O   UNL     1      12.134  33.688  27.954  1.00  0.00    -0.456 OA
ENDROOT
BRANCH   1  12
ATOM     12  C   UNL     1      13.232  31.529  27.786  1.00  0.00     0.017 A 
ATOM     13  C   UNL     1      15.470  29.898  28.338  1.00  0.00     0.000 A 
ATOM     14  C   UNL     1      14.231  29.317  28.066  1.00  0.00     0.001 A 
ATOM     15  C   UNL     1      15.601  31.285  28.336  1.00  0.00     0.001 A 
ATOM     16  C   UNL     1      13.119  30.120  27.792  1.00  0.00     0.012 A 
ATOM     17  C   UNL     1      14.495  32.096  28.063  1.00  0.00     0.012 A 
ENDBRANCH   1  12
TORSDOF 1
ENDMDL
MODEL 9
REMARK VINA RESULT:    -6.618      5.670      8.120
REMARK INTER + INTRA:          -7.233
REMARK INTER:                  -6.989
REMARK INTRA:                  -0.245
REMARK UNBOUND:                -0.228
REMARK SMILES O=c1cc(-c2ccccc2)oc2ccccc12
REMARK SMILES IDX 4 1 3 2 2 3 1 4 17 5 16 6 15 7 14 8 13 9 12 10 11 11 5 12
REMARK SMILES IDX 8 13 7 14 9 15 6 16 10 17
REMARK H PARENT
REMARK Flexibility Score: inf
ROOT
ATOM      1  C   UNL     1      12.887  34.689  28.036  1.00  0.00     0.138 A 
ATOM      2  C   UNL     1      13.749  35.558  27.336  1.00  0.00     0.100 A 
ATOM      3  C   UNL     1      13.249  36.754  26.817  1.00  0.00     0.193 A 
ATOM      4  O   UNL     1      14.019  37.531  26.191  1.00  0.00    -0.289 OA
ATOM      5  C   UNL     1      11.896  37.073  26.999  1.00  0.00     0.065 A 
ATOM      6  C   UNL     1      11.328  38.261  26.503  1.00  0.00     0.016 A 
ATOM      7  C   UNL     1       9.972  38.530  26.714  1.00  0.00     0.001 A 
ATOM      8  C   UNL     1       9.176  37.622  27.418  1.00  0.00     0.004 A 
ATOM      9  C   UNL     1       9.732  36.440  27.915  1.00  0.00     0.048 A 
ATOM     10  C   UNL     1      11.088  36.160  27.710  1.00  0.00     0.138 A 
ATOM     11  O   UNL     1      11.606  35.034  28.186  1.00  0.00    -0.456 OA
ENDROOT
BRANCH   1  12
ATOM     12  C   UNL     1      13.341  33.391  28.624  1.00  0.00     0.017 A 
ATOM     13  C   UNL     1      14.245  30.921  29.649  1.00  0.00     0.000 A 
ATOM     14  C   UNL     1      13.437  31.747  30.429  1.00  0.00     0.001 A 
ATOM     15  C   UNL     1      14.605  31.316  28.362  1.00  0.00     0.001 A 
ATOM     16  C   UNL     1      12.986  32.972  29.926  1.00  0.00     0.012 A 
ATOM     17  C   UNL     1      14.158  32.538  27.851  1.00  0.00     0.012 A 
ENDBRANCH   1  12
TORSDOF 1
ENDMDL
