MODEL 1
REMARK VINA RESULT:    -7.047      0.000      0.000
REMARK INTER + INTRA:          -8.605
REMARK INTER:                  -8.283
REMARK INTRA:                  -0.323
REMARK UNBOUND:                -0.323
REMARK SMILES O=c1c(O)c(-c2ccc(O)c(O)c2)oc2cc(O)ccc12
REMARK SMILES IDX 5 1 3 2 2 3 1 4 21 5 15 6 14 7 16 8 17 9 19 10 20 11 6 12
REMARK SMILES IDX 7 13 8 14 9 15 13 16 11 17 10 18 12 20 4 22 18 24
REMARK H PARENT 10 19 12 21 4 23 18 25
REMARK Flexibility Score: inf
ROOT
ATOM      1  C   UNL     1       7.450  13.972  -8.444  1.00  0.00     0.180 A 
ATOM      2  C   UNL     1       6.125  13.535  -8.655  1.00  0.00     0.208 A 
ATOM      3  C   UNL     1       5.068  14.358  -8.238  1.00  0.00     0.235 A 
ATOM      4  O   UNL     1       3.875  13.995  -8.425  1.00  0.00    -0.285 OA
ATOM      5  C   UNL     1       5.351  15.580  -7.606  1.00  0.00     0.069 A 
ATOM      6  C   UNL     1       6.704  15.933  -7.410  1.00  0.00     0.142 A 
ATOM      7  O   UNL     1       7.676  15.130  -7.828  1.00  0.00    -0.452 OA
ATOM      8  C   UNL     1       7.027  17.138  -6.776  1.00  0.00     0.094 A 
ATOM      9  C   UNL     1       6.015  17.996  -6.334  1.00  0.00     0.119 A 
ATOM     10  C   UNL     1       4.671  17.650  -6.528  1.00  0.00     0.047 A 
ATOM     11  C   UNL     1       4.338  16.448  -7.160  1.00  0.00     0.020 A 
ENDROOT
BRANCH   1  12
ATOM     12  C   UNL     1       8.619  13.169  -8.871  1.00  0.00     0.025 A 
ATOM     13  C   UNL     1       9.244  12.315  -7.949  1.00  0.00     0.016 A 
ATOM     14  C   UNL     1      10.361  11.564  -8.324  1.00  0.00     0.051 A 
ATOM     15  C   UNL     1      10.880  11.667  -9.618  1.00  0.00     0.157 A 
ATOM     16  C   UNL     1       9.156  13.288 -10.165  1.00  0.00     0.062 A 
ATOM     17  C   UNL     1      10.278  12.536 -10.543  1.00  0.00     0.158 A 
BRANCH  15  18
ATOM     18  O   UNL     1      11.995  10.905  -9.965  1.00  0.00    -0.504 OA
ATOM     19  H   UNL     1      11.925  10.087 -10.559  1.00  0.00     0.293 HD
ENDBRANCH  15  18
BRANCH  17  20
ATOM     20  O   UNL     1      10.799  12.655 -11.831  1.00  0.00    -0.504 OA
ATOM     21  H   UNL     1      10.472  13.367 -12.473  1.00  0.00     0.293 HD
ENDBRANCH  17  20
ENDBRANCH   1  12
BRANCH   2  22
ATOM     22  O   UNL     1       5.875  12.293  -9.242  1.00  0.00    -0.502 OA
ATOM     23  H   UNL     1       5.034  12.106  -9.775  1.00  0.00     0.293 HD
ENDBRANCH   2  22
BRANCH   9  24
ATOM     24  O   UNL     1       6.355  19.192  -5.704  1.00  0.00    -0.508 OA
ATOM     25  H   UNL     1       5.646  19.832  -5.366  1.00  0.00     0.293 HD
ENDBRANCH   9  24
TORSDOF 5
ENDMDL
MODEL 2
REMARK VINA RESULT:    -7.020     10.291     13.033
REMARK INTER + INTRA:          -8.573
REMARK INTER:                  -8.371
REMARK INTRA:                  -0.202
REMARK UNBOUND:                -0.323
REMARK SMILES O=c1c(O)c(-c2ccc(O)c(O)c2)oc2cc(O)ccc12
REMARK SMILES IDX 5 1 3 2 2 3 1 4 21 5 15 6 14 7 16 8 17 9 19 10 20 11 6 12
REMARK SMILES IDX 7 13 8 14 9 15 13 16 11 17 10 18 12 20 4 22 18 24
REMARK H PARENT 10 19 12 21 4 23 18 25
REMARK Flexibility Score: inf
ROOT
ATOM      1  C   UNL     1      12.804  23.680 -12.240  1.00  0.00     0.180 A 
ATOM      2  C   UNL     1      13.610  24.527 -13.029  1.00  0.00     0.208 A 
ATOM      3  C   UNL     1      14.886  24.082 -13.411  1.00  0.00     0.235 A 
ATOM      4  O   UNL     1      15.621  24.817 -14.125  1.00  0.00    -0.285 OA
ATOM      5  C   UNL     1      15.334  22.822 -12.985  1.00  0.00     0.069 A 
ATOM      6  C   UNL     1      14.476  22.045 -12.177  1.00  0.00     0.142 A 
ATOM      7  O   UNL     1      13.273  22.498 -11.845  1.00  0.00    -0.452 OA
ATOM      8  C   UNL     1      14.890  20.788 -11.724  1.00  0.00     0.094 A 
ATOM      9  C   UNL     1      16.153  20.294 -12.069  1.00  0.00     0.119 A 
ATOM     10  C   UNL     1      17.007  21.062 -12.872  1.00  0.00     0.047 A 
ATOM     11  C   UNL     1      16.603  22.320 -13.329  1.00  0.00     0.020 A 
ENDROOT
BRANCH   1  12
ATOM     12  C   UNL     1      11.441  24.069 -11.812  1.00  0.00     0.025 A 
ATOM     13  C   UNL     1      11.281  25.075 -10.846  1.00  0.00     0.016 A 
ATOM     14  C   UNL     1      10.006  25.444 -10.412  1.00  0.00     0.051 A 
ATOM     15  C   UNL     1       8.873  24.803 -10.922  1.00  0.00     0.157 A 
ATOM     16  C   UNL     1      10.301  23.411 -12.308  1.00  0.00     0.062 A 
ATOM     17  C   UNL     1       9.019  23.778 -11.872  1.00  0.00     0.158 A 
BRANCH  15  18
ATOM     18  O   UNL     1       7.612  25.193 -10.471  1.00  0.00    -0.504 OA
ATOM     19  H   UNL     1       7.171  26.051 -10.781  1.00  0.00     0.293 HD
ENDBRANCH  15  18
BRANCH  17  20
ATOM     20  O   UNL     1       7.895  23.125 -12.375  1.00  0.00    -0.504 OA
ATOM     21  H   UNL     1       7.101  22.904 -11.786  1.00  0.00     0.293 HD
ENDBRANCH  17  20
ENDBRANCH   1  12
BRANCH   2  22
ATOM     22  O   UNL     1      13.156  25.796 -13.397  1.00  0.00    -0.502 OA
ATOM     23  H   UNL     1      12.171  26.010 -13.497  1.00  0.00     0.293 HD
ENDBRANCH   2  22
BRANCH   9  24
ATOM     24  O   UNL     1      16.549  19.040 -11.609  1.00  0.00    -0.508 OA
ATOM     25  H   UNL     1      17.473  18.672 -11.806  1.00  0.00     0.293 HD
ENDBRANCH   9  24
TORSDOF 5
ENDMDL
MODEL 3
REMARK VINA RESULT:    -6.490     11.697     14.364
REMARK INTER + INTRA:          -7.951
REMARK INTER:                  -7.657
REMARK INTRA:                  -0.294
REMARK UNBOUND:                -0.323
REMARK SMILES O=c1c(O)c(-c2ccc(O)c(O)c2)oc2cc(O)ccc12
REMARK SMILES IDX 5 1 3 2 2 3 1 4 21 5 15 6 14 7 16 8 17 9 19 10 20 11 6 12
REMARK SMILES IDX 7 13 8 14 9 15 13 16 11 17 10 18 12 20 4 22 18 24
REMARK H PARENT 10 19 12 21 4 23 18 25
REMARK Flexibility Score: inf
ROOT
ATOM      1  C   UNL     1      19.748  17.287 -11.322  1.00  0.00     0.180 A 
ATOM      2  C   UNL     1      20.792  17.503 -10.398  1.00  0.00     0.208 A 
ATOM      3  C   UNL     1      21.456  16.392  -9.856  1.00  0.00     0.235 A 
ATOM      4  O   UNL     1      22.399  16.559  -9.036  1.00  0.00    -0.285 OA
ATOM      5  C   UNL     1      21.054  15.099 -10.228  1.00  0.00     0.069 A 
ATOM      6  C   UNL     1      19.984  14.967 -11.140  1.00  0.00     0.142 A 
ATOM      7  O   UNL     1      19.389  16.045 -11.637  1.00  0.00    -0.452 OA
ATOM      8  C   UNL     1      19.549  13.695 -11.529  1.00  0.00     0.094 A 
ATOM      9  C   UNL     1      20.169  12.551 -11.018  1.00  0.00     0.119 A 
ATOM     10  C   UNL     1      21.233  12.677 -10.114  1.00  0.00     0.047 A 
ATOM     11  C   UNL     1      21.674  13.944  -9.719  1.00  0.00     0.020 A 
ENDROOT
BRANCH   1  12
ATOM     12  C   UNL     1      19.011  18.408 -11.951  1.00  0.00     0.025 A 
ATOM     13  C   UNL     1      19.581  19.082 -13.043  1.00  0.00     0.016 A 
ATOM     14  C   UNL     1      18.914  20.154 -13.638  1.00  0.00     0.051 A 
ATOM     15  C   UNL     1      17.678  20.581 -13.144  1.00  0.00     0.157 A 
ATOM     16  C   UNL     1      17.778  18.852 -11.442  1.00  0.00     0.062 A 
ATOM     17  C   UNL     1      17.107  19.930 -12.037  1.00  0.00     0.158 A 
BRANCH  15  18
ATOM     18  O   UNL     1      17.034  21.654 -13.760  1.00  0.00    -0.504 OA
ATOM     19  H   UNL     1      16.132  21.993 -13.446  1.00  0.00     0.293 HD
ENDBRANCH  15  18
BRANCH  17  20
ATOM     20  O   UNL     1      15.882  20.359 -11.530  1.00  0.00    -0.504 OA
ATOM     21  H   UNL     1      15.802  21.199 -10.970  1.00  0.00     0.293 HD
ENDBRANCH  17  20
ENDBRANCH   1  12
BRANCH   2  22
ATOM     22  O   UNL     1      21.136  18.800 -10.009  1.00  0.00    -0.502 OA
ATOM     23  H   UNL     1      22.000  19.241 -10.301  1.00  0.00     0.293 HD
ENDBRANCH   2  22
BRANCH   9  24
ATOM     24  O   UNL     1      19.723  11.292 -11.415  1.00  0.00    -0.508 OA
ATOM     25  H   UNL     1      19.774  10.993 -12.382  1.00  0.00     0.293 HD
ENDBRANCH   9  24
TORSDOF 5
ENDMDL
MODEL 4
REMARK VINA RESULT:    -6.299      1.626      6.803
REMARK INTER + INTRA:          -7.726
REMARK INTER:                  -7.414
REMARK INTRA:                  -0.312
REMARK UNBOUND:                -0.323
REMARK SMILES O=c1c(O)c(-c2ccc(O)c(O)c2)oc2cc(O)ccc12
REMARK SMILES IDX 5 1 3 2 2 3 1 4 21 5 15 6 14 7 16 8 17 9 19 10 20 11 6 12
REMARK SMILES IDX 7 13 8 14 9 15 13 16 11 17 10 18 12 20 4 22 18 24
REMARK H PARENT 10 19 12 21 4 23 18 25
REMARK Flexibility Score: inf
ROOT
ATOM      1  C   UNL     1       7.790  14.579  -9.262  1.00  0.00     0.180 A 
ATOM      2  C   UNL     1       7.504  14.469 -10.639  1.00  0.00     0.208 A 
ATOM      3  C   UNL     1       8.243  13.560 -11.413  1.00  0.00     0.235 A 
ATOM      4  O   UNL     1       7.999  13.436 -12.644  1.00  0.00    -0.285 OA
ATOM      5  C   UNL     1       9.258  12.803 -10.806  1.00  0.00     0.069 A 
ATOM      6  C   UNL     1       9.499  12.989  -9.428  1.00  0.00     0.142 A 
ATOM      7  O   UNL     1       8.770  13.852  -8.729  1.00  0.00    -0.452 OA
ATOM      8  C   UNL     1      10.507  12.260  -8.789  1.00  0.00     0.094 A 
ATOM      9  C   UNL     1      11.280  11.344  -9.510  1.00  0.00     0.119 A 
ATOM     10  C   UNL     1      11.043  11.155 -10.878  1.00  0.00     0.047 A 
ATOM     11  C   UNL     1      10.038  11.880 -11.526  1.00  0.00     0.020 A 
ENDROOT
BRANCH   1  12
ATOM     12  C   UNL     1       7.043  15.500  -8.376  1.00  0.00     0.025 A 
ATOM     13  C   UNL     1       7.614  16.732  -8.021  1.00  0.00     0.016 A 
ATOM     14  C   UNL     1       6.936  17.608  -7.170  1.00  0.00     0.051 A 
ATOM     15  C   UNL     1       5.687  17.261  -6.647  1.00  0.00     0.157 A 
ATOM     16  C   UNL     1       5.796  15.144  -7.832  1.00  0.00     0.062 A 
ATOM     17  C   UNL     1       5.114  16.021  -6.975  1.00  0.00     0.158 A 
BRANCH  15  18
ATOM     18  O   UNL     1       5.033  18.155  -5.801  1.00  0.00    -0.504 OA
ATOM     19  H   UNL     1       4.988  19.148  -5.998  1.00  0.00     0.293 HD
ENDBRANCH  15  18
BRANCH  17  20
ATOM     20  O   UNL     1       3.875  15.661  -6.447  1.00  0.00    -0.504 OA
ATOM     21  H   UNL     1       3.254  16.347  -6.035  1.00  0.00     0.293 HD
ENDBRANCH  17  20
ENDBRANCH   1  12
BRANCH   2  22
ATOM     22  O   UNL     1       6.522  15.272 -11.224  1.00  0.00    -0.502 OA
ATOM     23  H   UNL     1       6.743  16.144 -11.691  1.00  0.00     0.293 HD
ENDBRANCH   2  22
BRANCH   9  24
ATOM     24  O   UNL     1      12.280  10.626  -8.857  1.00  0.00    -0.508 OA
ATOM     25  H   UNL     1      12.893   9.995  -9.361  1.00  0.00     0.293 HD
ENDBRANCH   9  24
TORSDOF 5
ENDMDL
MODEL 5
REMARK VINA RESULT:    -6.053     11.960     14.510
REMARK INTER + INTRA:          -7.437
REMARK INTER:                  -7.493
REMARK INTRA:                   0.056
REMARK UNBOUND:                -0.323
REMARK SMILES O=c1c(O)c(-c2ccc(O)c(O)c2)oc2cc(O)ccc12
REMARK SMILES IDX 5 1 3 2 2 3 1 4 21 5 15 6 14 7 16 8 17 9 19 10 20 11 6 12
REMARK SMILES IDX 7 13 8 14 9 15 13 16 11 17 10 18 12 20 4 22 18 24
REMARK H PARENT 10 19 12 21 4 23 18 25
REMARK Flexibility Score: inf
ROOT
ATOM      1  C   UNL     1      18.498  13.172  -0.255  1.00  0.00     0.180 A 
ATOM      2  C   UNL     1      19.629  13.018  -1.083  1.00  0.00     0.208 A 
ATOM      3  C   UNL     1      19.460  13.077  -2.475  1.00  0.00     0.235 A 
ATOM      4  O   UNL     1      20.458  12.953  -3.237  1.00  0.00    -0.285 OA
ATOM      5  C   UNL     1      18.175  13.267  -3.008  1.00  0.00     0.069 A 
ATOM      6  C   UNL     1      17.091  13.389  -2.111  1.00  0.00     0.142 A 
ATOM      7  O   UNL     1      17.294  13.336  -0.800  1.00  0.00    -0.452 OA
ATOM      8  C   UNL     1      15.794  13.569  -2.603  1.00  0.00     0.094 A 
ATOM      9  C   UNL     1      15.564  13.632  -3.981  1.00  0.00     0.119 A 
ATOM     10  C   UNL     1      16.638  13.513  -4.874  1.00  0.00     0.047 A 
ATOM     11  C   UNL     1      17.938  13.331  -4.393  1.00  0.00     0.020 A 
ENDROOT
BRANCH   1  12
ATOM     12  C   UNL     1      18.596  13.139   1.223  1.00  0.00     0.025 A 
ATOM     13  C   UNL     1      17.628  12.444   1.964  1.00  0.00     0.016 A 
ATOM     14  C   UNL     1      17.689  12.418   3.359  1.00  0.00     0.051 A 
ATOM     15  C   UNL     1      18.706  13.097   4.035  1.00  0.00     0.157 A 
ATOM     16  C   UNL     1      19.606  13.840   1.905  1.00  0.00     0.062 A 
ATOM     17  C   UNL     1      19.668  13.816   3.307  1.00  0.00     0.158 A 
BRANCH  15  18
ATOM     18  O   UNL     1      18.742  13.052   5.429  1.00  0.00    -0.504 OA
ATOM     19  H   UNL     1      19.535  12.674   5.934  1.00  0.00     0.293 HD
ENDBRANCH  15  18
BRANCH  17  20
ATOM     20  O   UNL     1      20.678  14.507   3.975  1.00  0.00    -0.504 OA
ATOM     21  H   UNL     1      20.542  15.453   4.311  1.00  0.00     0.293 HD
ENDBRANCH  17  20
ENDBRANCH   1  12
BRANCH   2  22
ATOM     22  O   UNL     1      20.887  12.781  -0.526  1.00  0.00    -0.502 OA
ATOM     23  H   UNL     1      21.741  12.844  -1.069  1.00  0.00     0.293 HD
ENDBRANCH   2  22
BRANCH   9  24
ATOM     24  O   UNL     1      14.265  13.812  -4.454  1.00  0.00    -0.508 OA
ATOM     25  H   UNL     1      13.585  14.357  -3.937  1.00  0.00     0.293 HD
ENDBRANCH   9  24
TORSDOF 5
ENDMDL
MODEL 6
REMARK VINA RESULT:    -5.970      5.705      7.220
REMARK INTER + INTRA:          -7.339
REMARK INTER:                  -7.225
REMARK INTRA:                  -0.114
REMARK UNBOUND:                -0.323
REMARK SMILES O=c1c(O)c(-c2ccc(O)c(O)c2)oc2cc(O)ccc12
REMARK SMILES IDX 5 1 3 2 2 3 1 4 21 5 15 6 14 7 16 8 17 9 19 10 20 11 6 12
REMARK SMILES IDX 7 13 8 14 9 15 13 16 11 17 10 18 12 20 4 22 18 24
REMARK H PARENT 10 19 12 21 4 23 18 25
REMARK Flexibility Score: inf
ROOT
ATOM      1  C   UNL     1      12.744  12.226  -6.793  1.00  0.00     0.180 A 
ATOM      2  C   UNL     1      11.677  11.742  -6.007  1.00  0.00     0.208 A 
ATOM      3  C   UNL     1      11.752  11.870  -4.611  1.00  0.00     0.235 A 
ATOM      4  O   UNL     1      10.807  11.454  -3.888  1.00  0.00    -0.285 OA
ATOM      5  C   UNL     1      12.890  12.454  -4.032  1.00  0.00     0.069 A 
ATOM      6  C   UNL     1      13.926  12.892  -4.886  1.00  0.00     0.142 A 
ATOM      7  O   UNL     1      13.811  12.760  -6.203  1.00  0.00    -0.452 OA
ATOM      8  C   UNL     1      15.079  13.471  -4.347  1.00  0.00     0.094 A 
ATOM      9  C   UNL     1      15.213  13.620  -2.963  1.00  0.00     0.119 A 
ATOM     10  C   UNL     1      14.186  13.189  -2.112  1.00  0.00     0.047 A 
ATOM     11  C   UNL     1      13.030  12.608  -2.641  1.00  0.00     0.020 A 
ENDROOT
BRANCH   1  12
ATOM     12  C   UNL     1      12.731  12.144  -8.272  1.00  0.00     0.025 A 
ATOM     13  C   UNL     1      13.789  11.505  -8.936  1.00  0.00     0.016 A 
ATOM     14  C   UNL     1      13.808  11.434 -10.331  1.00  0.00     0.051 A 
ATOM     15  C   UNL     1      12.782  12.013 -11.083  1.00  0.00     0.157 A 
ATOM     16  C   UNL     1      11.710  12.744  -9.030  1.00  0.00     0.062 A 
ATOM     17  C   UNL     1      11.729  12.676 -10.431  1.00  0.00     0.158 A 
BRANCH  15  18
ATOM     18  O   UNL     1      12.827  11.926 -12.474  1.00  0.00    -0.504 OA
ATOM     19  H   UNL     1      12.160  11.373 -13.000  1.00  0.00     0.293 HD
ENDBRANCH  15  18
BRANCH  17  20
ATOM     20  O   UNL     1      10.709  13.268 -11.174  1.00  0.00    -0.504 OA
ATOM     21  H   UNL     1       9.734  13.166 -10.916  1.00  0.00     0.293 HD
ENDBRANCH  17  20
ENDBRANCH   1  12
BRANCH   2  22
ATOM     22  O   UNL     1      10.580  11.120  -6.609  1.00  0.00    -0.502 OA
ATOM     23  H   UNL     1      10.410  10.124  -6.528  1.00  0.00     0.293 HD
ENDBRANCH   2  22
BRANCH   9  24
ATOM     24  O   UNL     1      16.369  14.199  -2.443  1.00  0.00    -0.508 OA
ATOM     25  H   UNL     1      16.723  15.081  -2.793  1.00  0.00     0.293 HD
ENDBRANCH   9  24
TORSDOF 5
ENDMDL
MODEL 7
REMARK VINA RESULT:    -5.931      9.078     10.525
REMARK INTER + INTRA:          -7.294
REMARK INTER:                  -7.577
REMARK INTRA:                   0.283
REMARK UNBOUND:                -0.323
REMARK SMILES O=c1c(O)c(-c2ccc(O)c(O)c2)oc2cc(O)ccc12
REMARK SMILES IDX 5 1 3 2 2 3 1 4 21 5 15 6 14 7 16 8 17 9 19 10 20 11 6 12
REMARK SMILES IDX 7 13 8 14 9 15 13 16 11 17 10 18 12 20 4 22 18 24
REMARK H PARENT 10 19 12 21 4 23 18 25
REMARK Flexibility Score: inf
ROOT
ATOM      1  C   UNL     1      13.022  12.433  -0.613  1.00  0.00     0.180 A 
ATOM      2  C   UNL     1      14.016  12.336   0.384  1.00  0.00     0.208 A 
ATOM      3  C   UNL     1      13.622  12.089   1.708  1.00  0.00     0.235 A 
ATOM      4  O   UNL     1      14.492  11.987   2.615  1.00  0.00    -0.285 OA
ATOM      5  C   UNL     1      12.257  11.965   2.011  1.00  0.00     0.069 A 
ATOM      6  C   UNL     1      11.324  12.100   0.961  1.00  0.00     0.142 A 
ATOM      7  O   UNL     1      11.738  12.324  -0.281  1.00  0.00    -0.452 OA
ATOM      8  C   UNL     1       9.954  11.992   1.224  1.00  0.00     0.094 A 
ATOM      9  C   UNL     1       9.502  11.751   2.525  1.00  0.00     0.119 A 
ATOM     10  C   UNL     1      10.426  11.616   3.571  1.00  0.00     0.047 A 
ATOM     11  C   UNL     1      11.796  11.723   3.318  1.00  0.00     0.020 A 
ENDROOT
BRANCH   1  12
ATOM     12  C   UNL     1      13.358  12.675  -2.036  1.00  0.00     0.025 A 
ATOM     13  C   UNL     1      12.554  12.112  -3.039  1.00  0.00     0.016 A 
ATOM     14  C   UNL     1      12.863  12.309  -4.387  1.00  0.00     0.051 A 
ATOM     15  C   UNL     1      13.988  13.055  -4.753  1.00  0.00     0.157 A 
ATOM     16  C   UNL     1      14.500  13.407  -2.405  1.00  0.00     0.062 A 
ATOM     17  C   UNL     1      14.814  13.604  -3.758  1.00  0.00     0.158 A 
BRANCH  15  18
ATOM     18  O   UNL     1      14.271  13.237  -6.106  1.00  0.00    -0.504 OA
ATOM     19  H   UNL     1      14.488  12.460  -6.719  1.00  0.00     0.293 HD
ENDBRANCH  15  18
BRANCH  17  20
ATOM     20  O   UNL     1      15.944  14.338  -4.114  1.00  0.00    -0.504 OA
ATOM     21  H   UNL     1      16.417  14.191  -4.998  1.00  0.00     0.293 HD
ENDBRANCH  17  20
ENDBRANCH   1  12
BRANCH   2  22
ATOM     22  O   UNL     1      15.363  12.513   0.060  1.00  0.00    -0.502 OA
ATOM     23  H   UNL     1      16.092  11.917   0.435  1.00  0.00     0.293 HD
ENDBRANCH   2  22
BRANCH   9  24
ATOM     24  O   UNL     1       8.134  11.648   2.770  1.00  0.00    -0.508 OA
ATOM     25  H   UNL     1       7.720  12.008   3.622  1.00  0.00     0.293 HD
ENDBRANCH   9  24
TORSDOF 5
ENDMDL
MODEL 8
REMARK VINA RESULT:    -5.900      8.268     10.519
REMARK INTER + INTRA:          -7.257
REMARK INTER:                  -7.438
REMARK INTRA:                   0.181
REMARK UNBOUND:                -0.323
REMARK SMILES O=c1c(O)c(-c2ccc(O)c(O)c2)oc2cc(O)ccc12
REMARK SMILES IDX 5 1 3 2 2 3 1 4 21 5 15 6 14 7 16 8 17 9 19 10 20 11 6 12
REMARK SMILES IDX 7 13 8 14 9 15 13 16 11 17 10 18 12 20 4 22 18 24
REMARK H PARENT 10 19 12 21 4 23 18 25
REMARK Flexibility Score: inf
ROOT
ATOM      1  C   UNL     1      15.362  12.720  -3.119  1.00  0.00     0.180 A 
ATOM      2  C   UNL     1      15.118  13.155  -4.439  1.00  0.00     0.208 A 
ATOM      3  C   UNL     1      13.850  12.937  -5.000  1.00  0.00     0.235 A 
ATOM      4  O   UNL     1      13.605  13.326  -6.174  1.00  0.00    -0.285 OA
ATOM      5  C   UNL     1      12.866  12.278  -4.246  1.00  0.00     0.069 A 
ATOM      6  C   UNL     1      13.196  11.852  -2.941  1.00  0.00     0.142 A 
ATOM      7  O   UNL     1      14.405  12.086  -2.444  1.00  0.00    -0.452 OA
ATOM      8  C   UNL     1      12.246  11.183  -2.162  1.00  0.00     0.094 A 
ATOM      9  C   UNL     1      10.966  10.934  -2.670  1.00  0.00     0.119 A 
ATOM     10  C   UNL     1      10.635  11.356  -3.964  1.00  0.00     0.047 A 
ATOM     11  C   UNL     1      11.578  12.025  -4.751  1.00  0.00     0.020 A 
ENDROOT
BRANCH   1  12
ATOM     12  C   UNL     1      16.667  12.928  -2.451  1.00  0.00     0.025 A 
ATOM     13  C   UNL     1      17.852  12.733  -3.177  1.00  0.00     0.016 A 
ATOM     14  C   UNL     1      19.095  12.904  -2.561  1.00  0.00     0.051 A 
ATOM     15  C   UNL     1      19.173  13.255  -1.210  1.00  0.00     0.157 A 
ATOM     16  C   UNL     1      16.747  13.261  -1.087  1.00  0.00     0.062 A 
ATOM     17  C   UNL     1      17.994  13.431  -0.467  1.00  0.00     0.158 A 
BRANCH  15  18
ATOM     18  O   UNL     1      20.427  13.420  -0.623  1.00  0.00    -0.504 OA
ATOM     19  H   UNL     1      21.283  13.384  -1.163  1.00  0.00     0.293 HD
ENDBRANCH  15  18
BRANCH  17  20
ATOM     20  O   UNL     1      18.063  13.768   0.884  1.00  0.00    -0.504 OA
ATOM     21  H   UNL     1      17.694  13.158   1.604  1.00  0.00     0.293 HD
ENDBRANCH  17  20
ENDBRANCH   1  12
BRANCH   2  22
ATOM     22  O   UNL     1      16.133  13.764  -5.181  1.00  0.00    -0.502 OA
ATOM     23  H   UNL     1      16.903  14.256  -4.744  1.00  0.00     0.293 HD
ENDBRANCH   2  22
BRANCH   9  24
ATOM     24  O   UNL     1      10.032  10.266  -1.880  1.00  0.00    -0.508 OA
ATOM     25  H   UNL     1      10.269   9.412  -1.389  1.00  0.00     0.293 HD
ENDBRANCH   9  24
TORSDOF 5
ENDMDL
MODEL 9
REMARK VINA RESULT:    -5.782     11.677     13.815
REMARK INTER + INTRA:          -7.118
REMARK INTER:                  -7.259
REMARK INTRA:                   0.141
REMARK UNBOUND:                -0.323
REMARK SMILES O=c1c(O)c(-c2ccc(O)c(O)c2)oc2cc(O)ccc12
REMARK SMILES IDX 5 1 3 2 2 3 1 4 21 5 15 6 14 7 16 8 17 9 19 10 20 11 6 12
REMARK SMILES IDX 7 13 8 14 9 15 13 16 11 17 10 18 12 20 4 22 18 24
REMARK H PARENT 10 19 12 21 4 23 18 25
REMARK Flexibility Score: inf
ROOT
ATOM      1  C   UNL     1      17.504  13.039  -0.517  1.00  0.00     0.180 A 
ATOM      2  C   UNL     1      16.512  12.617   0.393  1.00  0.00     0.208 A 
ATOM      3  C   UNL     1      16.821  12.581   1.762  1.00  0.00     0.235 A 
ATOM      4  O   UNL     1      15.948  12.217   2.596  1.00  0.00    -0.285 OA
ATOM      5  C   UNL     1      18.109  12.943   2.188  1.00  0.00     0.069 A 
ATOM      6  C   UNL     1      19.052  13.331   1.213  1.00  0.00     0.142 A 
ATOM      7  O   UNL     1      18.717  13.360  -0.072  1.00  0.00    -0.452 OA
ATOM      8  C   UNL     1      20.348  13.690   1.597  1.00  0.00     0.094 A 
ATOM      9  C   UNL     1      20.716  13.669   2.947  1.00  0.00     0.119 A 
ATOM     10  C   UNL     1      19.781  13.286   3.919  1.00  0.00     0.047 A 
ATOM     11  C   UNL     1      18.484  12.924   3.544  1.00  0.00     0.020 A 
ENDROOT
BRANCH   1  12
ATOM     12  C   UNL     1      17.250  13.121  -1.974  1.00  0.00     0.025 A 
ATOM     13  C   UNL     1      18.278  12.796  -2.873  1.00  0.00     0.016 A 
ATOM     14  C   UNL     1      18.067  12.886  -4.250  1.00  0.00     0.051 A 
ATOM     15  C   UNL     1      16.835  13.318  -4.751  1.00  0.00     0.157 A 
ATOM     16  C   UNL     1      16.019  13.575  -2.478  1.00  0.00     0.062 A 
ATOM     17  C   UNL     1      15.806  13.669  -3.861  1.00  0.00     0.158 A 
BRANCH  15  18
ATOM     18  O   UNL     1      16.653  13.397  -6.131  1.00  0.00    -0.504 OA
ATOM     19  H   UNL     1      17.414  13.619  -6.763  1.00  0.00     0.293 HD
ENDBRANCH  15  18
BRANCH  17  20
ATOM     20  O   UNL     1      14.579  14.113  -4.352  1.00  0.00    -0.504 OA
ATOM     21  H   UNL     1      14.390  14.162  -5.346  1.00  0.00     0.293 HD
ENDBRANCH  17  20
ENDBRANCH   1  12
BRANCH   2  22
ATOM     22  O   UNL     1      15.256  12.215  -0.066  1.00  0.00    -0.502 OA
ATOM     23  H   UNL     1      14.943  12.393  -1.014  1.00  0.00     0.293 HD
ENDBRANCH   2  22
BRANCH   9  24
ATOM     24  O   UNL     1      22.011  14.030   3.312  1.00  0.00    -0.508 OA
ATOM     25  H   UNL     1      22.344  13.917   4.263  1.00  0.00     0.293 HD
ENDBRANCH   9  24
TORSDOF 5
ENDMDL
