MODEL 1
REMARK VINA RESULT:    -5.355      0.000      0.000
REMARK INTER + INTRA:         -11.254
REMARK INTER:                 -10.051
REMARK INTRA:                  -1.203
REMARK UNBOUND:                -1.203
REMARK SMILES O=C([O-])CCCCCCCCCCCCCCC(=O)[O-]
REMARK SMILES IDX 10 1 9 2 8 3 7 4 6 5 5 6 4 7 2 8 1 9 3 10 11 11 12 12 13 13
REMARK SMILES IDX 14 14 15 15 16 16 17 17 18 18 19 19 20 20
REMARK H PARENT
REMARK Flexibility Score: inf
ROOT
ATOM      1  C   UNL     1      11.344 -12.641  23.658  1.00  0.00     0.000 C 
ENDROOT
BRANCH   1   2
ATOM      2  C   UNL     1       9.829 -12.363  23.638  1.00  0.00     0.000 C 
BRANCH   2   3
ATOM      3  C   UNL     1       9.383 -11.118  24.430  1.00  0.00     0.000 C 
BRANCH   3   4
ATOM      4  C   UNL     1       8.492 -11.408  25.651  1.00  0.00     0.000 C 
BRANCH   4   5
ATOM      5  C   UNL     1       8.255 -12.909  25.875  1.00  0.00     0.000 C 
BRANCH   5   6
ATOM      6  C   UNL     1       8.471 -13.285  27.347  1.00  0.00     0.006 C 
BRANCH   6   7
ATOM      7  C   UNL     1       9.702 -12.594  27.949  1.00  0.00     0.053 C 
BRANCH   7   8
ATOM      8  C   UNL     1       9.820 -12.849  29.420  1.00  0.00     0.041 C 
ATOM      9  O   UNL     1      10.746 -13.576  29.865  1.00  0.00    -0.550 OA
ATOM     10  O   UNL     1       8.924 -12.257  30.302  1.00  0.00    -0.550 OA
ENDBRANCH   7   8
ENDBRANCH   6   7
ENDBRANCH   5   6
ENDBRANCH   4   5
ENDBRANCH   3   4
ENDBRANCH   2   3
ENDBRANCH   1   2
BRANCH   1  11
ATOM     11  C   UNL     1      12.024 -12.444  25.028  1.00  0.00     0.000 C 
BRANCH  11  12
ATOM     12  C   UNL     1      13.454 -11.879  24.967  1.00  0.00     0.000 C 
BRANCH  12  13
ATOM     13  C   UNL     1      14.505 -12.851  25.526  1.00  0.00     0.000 C 
BRANCH  13  14
ATOM     14  C   UNL     1      14.002 -13.524  26.811  1.00  0.00     0.000 C 
BRANCH  14  15
ATOM     15  C   UNL     1      15.143 -13.970  27.743  1.00  0.00     0.000 C 
BRANCH  15  16
ATOM     16  C   UNL     1      15.640 -12.892  28.723  1.00  0.00     0.006 C 
BRANCH  16  17
ATOM     17  C   UNL     1      16.592 -11.882  28.069  1.00  0.00     0.053 C 
BRANCH  17  18
ATOM     18  C   UNL     1      16.518 -10.564  28.772  1.00  0.00     0.041 C 
ATOM     19  O   UNL     1      16.887  -9.511  28.187  1.00  0.00    -0.550 OA
ATOM     20  O   UNL     1      15.996 -10.490  30.058  1.00  0.00    -0.550 OA
ENDBRANCH  17  18
ENDBRANCH  16  17
ENDBRANCH  15  16
ENDBRANCH  14  15
ENDBRANCH  13  14
ENDBRANCH  12  13
ENDBRANCH  11  12
ENDBRANCH   1  11
TORSDOF 15
ENDMDL
MODEL 2
REMARK VINA RESULT:    -5.294      1.670      2.714
REMARK INTER + INTRA:         -11.140
REMARK INTER:                  -9.197
REMARK INTRA:                  -1.943
REMARK UNBOUND:                -1.203
REMARK SMILES O=C([O-])CCCCCCCCCCCCCCC(=O)[O-]
REMARK SMILES IDX 10 1 9 2 8 3 7 4 6 5 5 6 4 7 2 8 1 9 3 10 11 11 12 12 13 13
REMARK SMILES IDX 14 14 15 15 16 16 17 17 18 18 19 19 20 20
REMARK H PARENT
REMARK Flexibility Score: inf
ROOT
ATOM      1  C   UNL     1      13.932 -13.170  23.593  1.00  0.00     0.000 C 
ENDROOT
BRANCH   1   2
ATOM      2  C   UNL     1      13.501 -11.879  24.314  1.00  0.00     0.000 C 
BRANCH   2   3
ATOM      3  C   UNL     1      12.289 -12.031  25.255  1.00  0.00     0.000 C 
BRANCH   3   4
ATOM      4  C   UNL     1      11.079 -12.760  24.643  1.00  0.00     0.000 C 
BRANCH   4   5
ATOM      5  C   UNL     1       9.883 -11.829  24.396  1.00  0.00     0.000 C 
BRANCH   5   6
ATOM      6  C   UNL     1       9.050 -11.655  25.674  1.00  0.00     0.006 C 
BRANCH   6   7
ATOM      7  C   UNL     1       8.897 -12.969  26.451  1.00  0.00     0.053 C 
BRANCH   7   8
ATOM      8  C   UNL     1       8.910 -12.744  27.932  1.00  0.00     0.041 C 
ATOM      9  O   UNL     1       8.526 -11.645  28.409  1.00  0.00    -0.550 OA
ATOM     10  O   UNL     1       9.315 -13.763  28.786  1.00  0.00    -0.550 OA
ENDBRANCH   7   8
ENDBRANCH   6   7
ENDBRANCH   5   6
ENDBRANCH   4   5
ENDBRANCH   3   4
ENDBRANCH   2   3
ENDBRANCH   1   2
BRANCH   1  11
ATOM     11  C   UNL     1      15.339 -13.684  23.960  1.00  0.00     0.000 C 
BRANCH  11  12
ATOM     12  C   UNL     1      15.390 -15.144  24.445  1.00  0.00     0.000 C 
BRANCH  12  13
ATOM     13  C   UNL     1      14.281 -15.477  25.455  1.00  0.00     0.000 C 
BRANCH  13  14
ATOM     14  C   UNL     1      14.758 -15.237  26.894  1.00  0.00     0.000 C 
BRANCH  14  15
ATOM     15  C   UNL     1      14.033 -14.065  27.581  1.00  0.00     0.000 C 
BRANCH  15  16
ATOM     16  C   UNL     1      14.955 -12.954  28.114  1.00  0.00     0.006 C 
BRANCH  16  17
ATOM     17  C   UNL     1      16.433 -13.189  27.778  1.00  0.00     0.053 C 
BRANCH  17  18
ATOM     18  C   UNL     1      16.967 -12.061  26.953  1.00  0.00     0.041 C 
ATOM     19  O   UNL     1      16.185 -11.189  26.489  1.00  0.00    -0.550 OA
ATOM     20  O   UNL     1      18.335 -11.945  26.737  1.00  0.00    -0.550 OA
ENDBRANCH  17  18
ENDBRANCH  16  17
ENDBRANCH  15  16
ENDBRANCH  14  15
ENDBRANCH  13  14
ENDBRANCH  12  13
ENDBRANCH  11  12
ENDBRANCH   1  11
TORSDOF 15
ENDMDL
MODEL 3
REMARK VINA RESULT:    -5.287      1.342      1.995
REMARK INTER + INTRA:         -11.126
REMARK INTER:                  -9.748
REMARK INTRA:                  -1.378
REMARK UNBOUND:                -1.203
REMARK SMILES O=C([O-])CCCCCCCCCCCCCCC(=O)[O-]
REMARK SMILES IDX 10 1 9 2 8 3 7 4 6 5 5 6 4 7 2 8 1 9 3 10 11 11 12 12 13 13
REMARK SMILES IDX 14 14 15 15 16 16 17 17 18 18 19 19 20 20
REMARK H PARENT
REMARK Flexibility Score: inf
ROOT
ATOM      1  C   UNL     1      11.876 -11.955  25.064  1.00  0.00     0.000 C 
ENDROOT
BRANCH   1   2
ATOM      2  C   UNL     1      10.930 -12.499  23.976  1.00  0.00     0.000 C 
BRANCH   2   3
ATOM      3  C   UNL     1       9.519 -11.879  23.968  1.00  0.00     0.000 C 
BRANCH   3   4
ATOM      4  C   UNL     1       8.860 -11.744  25.352  1.00  0.00     0.000 C 
BRANCH   4   5
ATOM      5  C   UNL     1       8.078 -12.999  25.766  1.00  0.00     0.000 C 
BRANCH   5   6
ATOM      6  C   UNL     1       8.383 -13.379  27.222  1.00  0.00     0.006 C 
BRANCH   6   7
ATOM      7  C   UNL     1       9.203 -12.301  27.944  1.00  0.00     0.053 C 
BRANCH   7   8
ATOM      8  C   UNL     1       9.583 -12.726  29.329  1.00  0.00     0.041 C 
ATOM      9  O   UNL     1       8.936 -12.304  30.323  1.00  0.00    -0.550 OA
ATOM     10  O   UNL     1      10.633 -13.616  29.519  1.00  0.00    -0.550 OA
ENDBRANCH   7   8
ENDBRANCH   6   7
ENDBRANCH   5   6
ENDBRANCH   4   5
ENDBRANCH   3   4
ENDBRANCH   2   3
ENDBRANCH   1   2
BRANCH   1  11
ATOM     11  C   UNL     1      12.912 -12.968  25.593  1.00  0.00     0.000 C 
BRANCH  11  12
ATOM     12  C   UNL     1      13.695 -13.724  24.505  1.00  0.00     0.000 C 
BRANCH  12  13
ATOM     13  C   UNL     1      15.022 -13.040  24.141  1.00  0.00     0.000 C 
BRANCH  13  14
ATOM     14  C   UNL     1      16.177 -13.599  24.984  1.00  0.00     0.000 C 
BRANCH  14  15
ATOM     15  C   UNL     1      15.860 -14.973  25.602  1.00  0.00     0.000 C 
BRANCH  15  16
ATOM     16  C   UNL     1      15.622 -14.962  27.123  1.00  0.00     0.006 C 
BRANCH  16  17
ATOM     17  C   UNL     1      16.403 -13.855  27.843  1.00  0.00     0.053 C 
BRANCH  17  18
ATOM     18  C   UNL     1      15.462 -12.901  28.509  1.00  0.00     0.041 C 
ATOM     19  O   UNL     1      14.353 -13.307  28.948  1.00  0.00    -0.550 OA
ATOM     20  O   UNL     1      15.831 -11.574  28.691  1.00  0.00    -0.550 OA
ENDBRANCH  17  18
ENDBRANCH  16  17
ENDBRANCH  15  16
ENDBRANCH  14  15
ENDBRANCH  13  14
ENDBRANCH  12  13
ENDBRANCH  11  12
ENDBRANCH   1  11
TORSDOF 15
ENDMDL
MODEL 4
REMARK VINA RESULT:    -5.206      1.356      6.339
REMARK INTER + INTRA:         -10.975
REMARK INTER:                  -9.333
REMARK INTRA:                  -1.642
REMARK UNBOUND:                -1.203
REMARK SMILES O=C([O-])CCCCCCCCCCCCCCC(=O)[O-]
REMARK SMILES IDX 10 1 9 2 8 3 7 4 6 5 5 6 4 7 2 8 1 9 3 10 11 11 12 12 13 13
REMARK SMILES IDX 14 14 15 15 16 16 17 17 18 18 19 19 20 20
REMARK H PARENT
REMARK Flexibility Score: inf
ROOT
ATOM      1  C   UNL     1      15.038 -13.348  23.675  1.00  0.00     0.000 C 
ENDROOT
BRANCH   1   2
ATOM      2  C   UNL     1      15.499 -14.528  24.551  1.00  0.00     0.000 C 
BRANCH   2   3
ATOM      3  C   UNL     1      14.365 -15.300  25.257  1.00  0.00     0.000 C 
BRANCH   3   4
ATOM      4  C   UNL     1      14.505 -15.406  26.786  1.00  0.00     0.000 C 
BRANCH   4   5
ATOM      5  C   UNL     1      15.530 -14.419  27.363  1.00  0.00     0.000 C 
BRANCH   5   6
ATOM      6  C   UNL     1      14.831 -13.190  27.961  1.00  0.00     0.006 C 
BRANCH   6   7
ATOM      7  C   UNL     1      15.696 -12.487  29.016  1.00  0.00     0.053 C 
BRANCH   7   8
ATOM      8  C   UNL     1      16.131 -11.127  28.562  1.00  0.00     0.041 C 
ATOM      9  O   UNL     1      16.120 -10.157  29.364  1.00  0.00    -0.550 OA
ATOM     10  O   UNL     1      16.580 -10.940  27.260  1.00  0.00    -0.550 OA
ENDBRANCH   7   8
ENDBRANCH   6   7
ENDBRANCH   5   6
ENDBRANCH   4   5
ENDBRANCH   3   4
ENDBRANCH   2   3
ENDBRANCH   1   2
BRANCH   1  11
ATOM     11  C   UNL     1      14.660 -12.070  24.450  1.00  0.00     0.000 C 
BRANCH  11  12
ATOM     12  C   UNL     1      13.153 -11.881  24.695  1.00  0.00     0.000 C 
BRANCH  12  13
ATOM     13  C   UNL     1      12.282 -12.638  23.680  1.00  0.00     0.000 C 
BRANCH  13  14
ATOM     14  C   UNL     1      11.058 -13.262  24.365  1.00  0.00     0.000 C 
BRANCH  14  15
ATOM     15  C   UNL     1      10.137 -12.217  25.019  1.00  0.00     0.000 C 
BRANCH  15  16
ATOM     16  C   UNL     1       9.048 -12.795  25.941  1.00  0.00     0.006 C 
BRANCH  16  17
ATOM     17  C   UNL     1       8.854 -11.977  27.223  1.00  0.00     0.053 C 
BRANCH  17  18
ATOM     18  C   UNL     1       9.166 -12.811  28.426  1.00  0.00     0.041 C 
ATOM     19  O   UNL     1       8.238 -13.374  29.066  1.00  0.00    -0.550 OA
ATOM     20  O   UNL     1      10.487 -13.007  28.812  1.00  0.00    -0.550 OA
ENDBRANCH  17  18
ENDBRANCH  16  17
ENDBRANCH  15  16
ENDBRANCH  14  15
ENDBRANCH  13  14
ENDBRANCH  12  13
ENDBRANCH  11  12
ENDBRANCH   1  11
TORSDOF 15
ENDMDL
MODEL 5
REMARK VINA RESULT:    -5.205      5.611      7.343
REMARK INTER + INTRA:         -10.972
REMARK INTER:                  -9.305
REMARK INTRA:                  -1.667
REMARK UNBOUND:                -1.203
REMARK SMILES O=C([O-])CCCCCCCCCCCCCCC(=O)[O-]
REMARK SMILES IDX 10 1 9 2 8 3 7 4 6 5 5 6 4 7 2 8 1 9 3 10 11 11 12 12 13 13
REMARK SMILES IDX 14 14 15 15 16 16 17 17 18 18 19 19 20 20
REMARK H PARENT
REMARK Flexibility Score: inf
ROOT
ATOM      1  C   UNL     1      14.707 -15.290  25.078  1.00  0.00     0.000 C 
ENDROOT
BRANCH   1   2
ATOM      2  C   UNL     1      14.848 -14.997  26.583  1.00  0.00     0.000 C 
BRANCH   2   3
ATOM      3  C   UNL     1      14.171 -13.697  27.062  1.00  0.00     0.000 C 
BRANCH   3   4
ATOM      4  C   UNL     1      14.990 -12.415  26.831  1.00  0.00     0.000 C 
BRANCH   4   5
ATOM      5  C   UNL     1      14.788 -11.822  25.429  1.00  0.00     0.000 C 
BRANCH   5   6
ATOM      6  C   UNL     1      13.308 -11.862  25.023  1.00  0.00     0.006 C 
BRANCH   6   7
ATOM      7  C   UNL     1      13.116 -12.332  23.575  1.00  0.00     0.053 C 
BRANCH   7   8
ATOM      8  C   UNL     1      11.827 -13.075  23.398  1.00  0.00     0.041 C 
ATOM      9  O   UNL     1      10.957 -12.653  22.593  1.00  0.00    -0.550 OA
ATOM     10  O   UNL     1      11.603 -14.253  24.100  1.00  0.00    -0.550 OA
ENDBRANCH   7   8
ENDBRANCH   6   7
ENDBRANCH   5   6
ENDBRANCH   4   5
ENDBRANCH   3   4
ENDBRANCH   2   3
ENDBRANCH   1   2
BRANCH   1  11
ATOM     11  C   UNL     1      16.031 -15.583  24.344  1.00  0.00     0.000 C 
BRANCH  11  12
ATOM     12  C   UNL     1      17.088 -14.469  24.441  1.00  0.00     0.000 C 
BRANCH  12  13
ATOM     13  C   UNL     1      18.524 -15.011  24.508  1.00  0.00     0.000 C 
BRANCH  13  14
ATOM     14  C   UNL     1      18.531 -16.546  24.521  1.00  0.00     0.000 C 
BRANCH  14  15
ATOM     15  C   UNL     1      19.498 -17.152  23.489  1.00  0.00     0.000 C 
BRANCH  15  16
ATOM     16  C   UNL     1      19.274 -16.689  22.038  1.00  0.00     0.006 C 
BRANCH  16  17
ATOM     17  C   UNL     1      18.708 -17.794  21.138  1.00  0.00     0.053 C 
BRANCH  17  18
ATOM     18  C   UNL     1      17.409 -17.362  20.535  1.00  0.00     0.041 C 
ATOM     19  O   UNL     1      16.870 -18.052  19.629  1.00  0.00    -0.550 OA
ATOM     20  O   UNL     1      16.768 -16.223  21.007  1.00  0.00    -0.550 OA
ENDBRANCH  17  18
ENDBRANCH  16  17
ENDBRANCH  15  16
ENDBRANCH  14  15
ENDBRANCH  13  14
ENDBRANCH  12  13
ENDBRANCH  11  12
ENDBRANCH   1  11
TORSDOF 15
ENDMDL
MODEL 6
REMARK VINA RESULT:    -5.129      7.091     10.259
REMARK INTER + INTRA:         -10.830
REMARK INTER:                  -9.548
REMARK INTRA:                  -1.282
REMARK UNBOUND:                -1.203
REMARK SMILES O=C([O-])CCCCCCCCCCCCCCC(=O)[O-]
REMARK SMILES IDX 10 1 9 2 8 3 7 4 6 5 5 6 4 7 2 8 1 9 3 10 11 11 12 12 13 13
REMARK SMILES IDX 14 14 15 15 16 16 17 17 18 18 19 19 20 20
REMARK H PARENT
REMARK Flexibility Score: inf
ROOT
ATOM      1  C   UNL     1      22.542 -12.655  24.639  1.00  0.00     0.000 C 
ENDROOT
BRANCH   1   2
ATOM      2  C   UNL     1      22.545 -12.834  26.169  1.00  0.00     0.000 C 
BRANCH   2   3
ATOM      3  C   UNL     1      22.814 -11.548  26.976  1.00  0.00     0.000 C 
BRANCH   3   4
ATOM      4  C   UNL     1      21.927 -11.364  28.220  1.00  0.00     0.000 C 
BRANCH   4   5
ATOM      5  C   UNL     1      20.974 -10.165  28.103  1.00  0.00     0.000 C 
BRANCH   5   6
ATOM      6  C   UNL     1      20.017 -10.339  26.915  1.00  0.00     0.006 C 
BRANCH   6   7
ATOM      7  C   UNL     1      18.902 -11.350  27.211  1.00  0.00     0.053 C 
BRANCH   7   8
ATOM      8  C   UNL     1      18.032 -10.902  28.346  1.00  0.00     0.041 C 
ATOM      9  O   UNL     1      17.285  -9.898  28.213  1.00  0.00    -0.550 OA
ATOM     10  O   UNL     1      18.025 -11.614  29.539  1.00  0.00    -0.550 OA
ENDBRANCH   7   8
ENDBRANCH   6   7
ENDBRANCH   5   6
ENDBRANCH   4   5
ENDBRANCH   3   4
ENDBRANCH   2   3
ENDBRANCH   1   2
BRANCH   1  11
ATOM     11  C   UNL     1      21.164 -12.816  23.966  1.00  0.00     0.000 C 
BRANCH  11  12
ATOM     12  C   UNL     1      20.220 -13.819  24.653  1.00  0.00     0.000 C 
BRANCH  12  13
ATOM     13  C   UNL     1      19.532 -14.768  23.660  1.00  0.00     0.000 C 
BRANCH  13  14
ATOM     14  C   UNL     1      19.407 -16.181  24.248  1.00  0.00     0.000 C 
BRANCH  14  15
ATOM     15  C   UNL     1      19.452 -17.285  23.176  1.00  0.00     0.000 C 
BRANCH  15  16
ATOM     16  C   UNL     1      19.145 -16.812  21.743  1.00  0.00     0.006 C 
BRANCH  16  17
ATOM     17  C   UNL     1      18.442 -17.882  20.899  1.00  0.00     0.053 C 
BRANCH  17  18
ATOM     18  C   UNL     1      17.252 -17.299  20.203  1.00  0.00     0.041 C 
ATOM     19  O   UNL     1      16.733 -17.899  19.225  1.00  0.00    -0.550 OA
ATOM     20  O   UNL     1      16.685 -16.118  20.667  1.00  0.00    -0.550 OA
ENDBRANCH  17  18
ENDBRANCH  16  17
ENDBRANCH  15  16
ENDBRANCH  14  15
ENDBRANCH  13  14
ENDBRANCH  12  13
ENDBRANCH  11  12
ENDBRANCH   1  11
TORSDOF 15
ENDMDL
MODEL 7
REMARK VINA RESULT:    -5.128      5.832      8.625
REMARK INTER + INTRA:         -10.829
REMARK INTER:                  -9.372
REMARK INTRA:                  -1.456
REMARK UNBOUND:                -1.203
REMARK SMILES O=C([O-])CCCCCCCCCCCCCCC(=O)[O-]
REMARK SMILES IDX 10 1 9 2 8 3 7 4 6 5 5 6 4 7 2 8 1 9 3 10 11 11 12 12 13 13
REMARK SMILES IDX 14 14 15 15 16 16 17 17 18 18 19 19 20 20
REMARK H PARENT
REMARK Flexibility Score: inf
ROOT
ATOM      1  C   UNL     1      17.250 -15.576  25.020  1.00  0.00     0.000 C 
ENDROOT
BRANCH   1   2
ATOM      2  C   UNL     1      18.520 -15.384  24.170  1.00  0.00     0.000 C 
BRANCH   2   3
ATOM      3  C   UNL     1      19.455 -16.609  24.107  1.00  0.00     0.000 C 
BRANCH   3   4
ATOM      4  C   UNL     1      19.114 -17.632  23.008  1.00  0.00     0.000 C 
BRANCH   4   5
ATOM      5  C   UNL     1      19.273 -17.062  21.592  1.00  0.00     0.000 C 
BRANCH   5   6
ATOM      6  C   UNL     1      18.337 -17.775  20.605  1.00  0.00     0.006 C 
BRANCH   6   7
ATOM      7  C   UNL     1      16.957 -17.107  20.528  1.00  0.00     0.053 C 
BRANCH   7   8
ATOM      8  C   UNL     1      16.623 -16.684  19.130  1.00  0.00     0.041 C 
ATOM      9  O   UNL     1      16.603 -17.530  18.199  1.00  0.00    -0.550 OA
ATOM     10  O   UNL     1      16.300 -15.359  18.864  1.00  0.00    -0.550 OA
ENDBRANCH   7   8
ENDBRANCH   6   7
ENDBRANCH   5   6
ENDBRANCH   4   5
ENDBRANCH   3   4
ENDBRANCH   2   3
ENDBRANCH   1   2
BRANCH   1  11
ATOM     11  C   UNL     1      15.960 -14.995  24.407  1.00  0.00     0.000 C 
BRANCH  11  12
ATOM     12  C   UNL     1      14.692 -15.188  25.257  1.00  0.00     0.000 C 
BRANCH  12  13
ATOM     13  C   UNL     1      13.658 -14.070  25.051  1.00  0.00     0.000 C 
BRANCH  13  14
ATOM     14  C   UNL     1      13.502 -13.226  26.323  1.00  0.00     0.000 C 
BRANCH  14  15
ATOM     15  C   UNL     1      14.051 -13.924  27.580  1.00  0.00     0.000 C 
BRANCH  15  16
ATOM     16  C   UNL     1      15.068 -13.100  28.390  1.00  0.00     0.006 C 
BRANCH  16  17
ATOM     17  C   UNL     1      16.519 -13.357  27.965  1.00  0.00     0.053 C 
BRANCH  17  18
ATOM     18  C   UNL     1      16.997 -12.272  27.053  1.00  0.00     0.041 C 
ATOM     19  O   UNL     1      18.039 -12.435  26.365  1.00  0.00    -0.550 OA
ATOM     20  O   UNL     1      16.264 -11.099  26.925  1.00  0.00    -0.550 OA
ENDBRANCH  17  18
ENDBRANCH  16  17
ENDBRANCH  15  16
ENDBRANCH  14  15
ENDBRANCH  13  14
ENDBRANCH  12  13
ENDBRANCH  11  12
ENDBRANCH   1  11
TORSDOF 15
ENDMDL
MODEL 8
REMARK VINA RESULT:    -5.119      5.910      9.195
REMARK INTER + INTRA:         -10.811
REMARK INTER:                  -8.482
REMARK INTRA:                  -2.329
REMARK UNBOUND:                -1.203
REMARK SMILES O=C([O-])CCCCCCCCCCCCCCC(=O)[O-]
REMARK SMILES IDX 10 1 9 2 8 3 7 4 6 5 5 6 4 7 2 8 1 9 3 10 11 11 12 12 13 13
REMARK SMILES IDX 14 14 15 15 16 16 17 17 18 18 19 19 20 20
REMARK H PARENT
REMARK Flexibility Score: inf
ROOT
ATOM      1  C   UNL     1      17.226 -17.708  20.153  1.00  0.00     0.000 C 
ENDROOT
BRANCH   1   2
ATOM      2  C   UNL     1      18.675 -17.911  20.633  1.00  0.00     0.000 C 
BRANCH   2   3
ATOM      3  C   UNL     1      19.148 -16.920  21.716  1.00  0.00     0.000 C 
BRANCH   3   4
ATOM      4  C   UNL     1      19.137 -17.472  23.152  1.00  0.00     0.000 C 
BRANCH   4   5
ATOM      5  C   UNL     1      19.506 -16.414  24.202  1.00  0.00     0.000 C 
BRANCH   5   6
ATOM      6  C   UNL     1      19.717 -15.041  23.547  1.00  0.00     0.006 C 
BRANCH   6   7
ATOM      7  C   UNL     1      20.199 -13.987  24.552  1.00  0.00     0.053 C 
BRANCH   7   8
ATOM      8  C   UNL     1      19.466 -12.690  24.391  1.00  0.00     0.041 C 
ATOM      9  O   UNL     1      19.750 -11.916  23.440  1.00  0.00    -0.550 OA
ATOM     10  O   UNL     1      18.448 -12.352  25.274  1.00  0.00    -0.550 OA
ENDBRANCH   7   8
ENDBRANCH   6   7
ENDBRANCH   5   6
ENDBRANCH   4   5
ENDBRANCH   3   4
ENDBRANCH   2   3
ENDBRANCH   1   2
BRANCH   1  11
ATOM     11  C   UNL     1      17.080 -16.917  18.837  1.00  0.00     0.000 C 
BRANCH  11  12
ATOM     12  C   UNL     1      16.731 -15.428  19.009  1.00  0.00     0.000 C 
BRANCH  12  13
ATOM     13  C   UNL     1      16.084 -15.119  20.369  1.00  0.00     0.000 C 
BRANCH  13  14
ATOM     14  C   UNL     1      16.863 -14.024  21.110  1.00  0.00     0.000 C 
BRANCH  14  15
ATOM     15  C   UNL     1      16.454 -13.890  22.588  1.00  0.00     0.000 C 
BRANCH  15  16
ATOM     16  C   UNL     1      16.106 -15.216  23.288  1.00  0.00     0.006 C 
BRANCH  16  17
ATOM     17  C   UNL     1      16.069 -15.094  24.817  1.00  0.00     0.053 C 
BRANCH  17  18
ATOM     18  C   UNL     1      14.660 -15.172  25.313  1.00  0.00     0.041 C 
ATOM     19  O   UNL     1      14.354 -15.979  26.230  1.00  0.00    -0.550 OA
ATOM     20  O   UNL     1      13.693 -14.318  24.797  1.00  0.00    -0.550 OA
ENDBRANCH  17  18
ENDBRANCH  16  17
ENDBRANCH  15  16
ENDBRANCH  14  15
ENDBRANCH  13  14
ENDBRANCH  12  13
ENDBRANCH  11  12
ENDBRANCH   1  11
TORSDOF 15
ENDMDL
MODEL 9
REMARK VINA RESULT:    -5.067      5.657      8.987
REMARK INTER + INTRA:         -10.714
REMARK INTER:                  -8.984
REMARK INTRA:                  -1.730
REMARK UNBOUND:                -1.203
REMARK SMILES O=C([O-])CCCCCCCCCCCCCCC(=O)[O-]
REMARK SMILES IDX 10 1 9 2 8 3 7 4 6 5 5 6 4 7 2 8 1 9 3 10 11 11 12 12 13 13
REMARK SMILES IDX 14 14 15 15 16 16 17 17 18 18 19 19 20 20
REMARK H PARENT
REMARK Flexibility Score: inf
ROOT
ATOM      1  C   UNL     1      15.750 -15.220  24.399  1.00  0.00     0.000 C 
ENDROOT
BRANCH   1   2
ATOM      2  C   UNL     1      17.183 -15.053  24.942  1.00  0.00     0.000 C 
BRANCH   2   3
ATOM      3  C   UNL     1      18.010 -16.353  25.010  1.00  0.00     0.000 C 
BRANCH   3   4
ATOM      4  C   UNL     1      19.167 -16.441  23.999  1.00  0.00     0.000 C 
BRANCH   4   5
ATOM      5  C   UNL     1      19.319 -15.169  23.152  1.00  0.00     0.000 C 
BRANCH   5   6
ATOM      6  C   UNL     1      19.165 -15.485  21.657  1.00  0.00     0.006 C 
BRANCH   6   7
ATOM      7  C   UNL     1      17.849 -16.212  21.349  1.00  0.00     0.053 C 
BRANCH   7   8
ATOM      8  C   UNL     1      18.030 -17.270  20.305  1.00  0.00     0.041 C 
ATOM      9  O   UNL     1      18.635 -18.339  20.584  1.00  0.00    -0.550 OA
ATOM     10  O   UNL     1      17.502 -17.089  19.033  1.00  0.00    -0.550 OA
ENDBRANCH   7   8
ENDBRANCH   6   7
ENDBRANCH   5   6
ENDBRANCH   4   5
ENDBRANCH   3   4
ENDBRANCH   2   3
ENDBRANCH   1   2
BRANCH   1  11
ATOM     11  C   UNL     1      14.677 -15.501  25.470  1.00  0.00     0.000 C 
BRANCH  11  12
ATOM     12  C   UNL     1      15.001 -14.958  26.873  1.00  0.00     0.000 C 
BRANCH  12  13
ATOM     13  C   UNL     1      14.199 -13.695  27.226  1.00  0.00     0.000 C 
BRANCH  13  14
ATOM     14  C   UNL     1      14.999 -12.427  26.897  1.00  0.00     0.000 C 
BRANCH  14  15
ATOM     15  C   UNL     1      14.689 -11.866  25.497  1.00  0.00     0.000 C 
BRANCH  15  16
ATOM     16  C   UNL     1      13.232 -12.046  25.033  1.00  0.00     0.006 C 
BRANCH  16  17
ATOM     17  C   UNL     1      13.123 -12.562  23.593  1.00  0.00     0.053 C 
BRANCH  17  18
ATOM     18  C   UNL     1      11.749 -13.092  23.331  1.00  0.00     0.041 C 
ATOM     19  O   UNL     1      11.383 -13.353  22.154  1.00  0.00    -0.550 OA
ATOM     20  O   UNL     1      10.888 -13.345  24.392  1.00  0.00    -0.550 OA
ENDBRANCH  17  18
ENDBRANCH  16  17
ENDBRANCH  15  16
ENDBRANCH  14  15
ENDBRANCH  13  14
ENDBRANCH  12  13
ENDBRANCH  11  12
ENDBRANCH   1  11
TORSDOF 15
ENDMDL
