MODEL 1
REMARK VINA RESULT:    -2.775      0.000      0.000
REMARK INTER + INTRA:          -7.374
REMARK INTER:                  -5.046
REMARK INTRA:                  -2.328
REMARK UNBOUND:                -2.328
REMARK SMILES CCCCCCCCCCCCCC[C@H](C)C(=O)[O-]
REMARK SMILES IDX 9 1 10 2 11 3 12 4 13 5 14 6 15 7 16 8 17 9 18 10 19 11 8 12
REMARK SMILES IDX 7 13 6 14 5 15 4 16 3 17 2 18 1 19
REMARK H PARENT
REMARK Flexibility Score: inf
ROOT
ATOM      1  C   UNL     1     -20.959  27.457 -19.423  1.00  0.00     0.000 C 
ENDROOT
BRANCH   1   2
ATOM      2  C   UNL     1     -20.159  28.006 -18.228  1.00  0.00     0.000 C 
BRANCH   2   3
ATOM      3  C   UNL     1     -19.551  29.406 -18.441  1.00  0.00     0.000 C 
BRANCH   3   4
ATOM      4  C   UNL     1     -18.062  29.538 -18.065  1.00  0.00     0.000 C 
BRANCH   4   5
ATOM      5  C   UNL     1     -17.101  29.686 -19.259  1.00  0.00     0.001 C 
BRANCH   5   6
ATOM      6  C   UNL     1     -17.761  30.358 -20.476  1.00  0.00     0.009 C 
BRANCH   6   7
ATOM      7  C   UNL     1     -17.706  29.463 -21.732  1.00  0.00     0.032 C 
ATOM      8  C   UNL     1     -17.466  28.000 -21.343  1.00  0.00     0.014 C 
BRANCH   7   9
ATOM      9  C   UNL     1     -16.637  29.922 -22.688  1.00  0.00     0.044 C 
ATOM     10  O   UNL     1     -15.786  30.782 -22.334  1.00  0.00    -0.550 OA
ATOM     11  O   UNL     1     -16.584  29.394 -23.972  1.00  0.00    -0.550 OA
ENDBRANCH   7   9
ENDBRANCH   6   7
ENDBRANCH   5   6
ENDBRANCH   4   5
ENDBRANCH   3   4
ENDBRANCH   2   3
ENDBRANCH   1   2
BRANCH   1  12
ATOM     12  C   UNL     1     -21.145  28.498 -20.541  1.00  0.00     0.000 C 
BRANCH  12  13
ATOM     13  C   UNL     1     -22.456  28.308 -21.323  1.00  0.00    -0.000 C 
BRANCH  13  14
ATOM     14  C   UNL     1     -23.233  29.605 -21.627  1.00  0.00    -0.000 C 
BRANCH  14  15
ATOM     15  C   UNL     1     -24.719  29.554 -21.216  1.00  0.00    -0.000 C 
BRANCH  15  16
ATOM     16  C   UNL     1     -24.908  29.040 -19.781  1.00  0.00    -0.000 C 
BRANCH  16  17
ATOM     17  C   UNL     1     -24.402  30.065 -18.756  1.00  0.00    -0.000 C 
BRANCH  17  18
ATOM     18  C   UNL     1     -23.650  29.408 -17.588  1.00  0.00    -0.003 C 
ATOM     19  C   UNL     1     -24.010  27.932 -17.407  1.00  0.00     0.004 C 
ENDBRANCH  17  18
ENDBRANCH  16  17
ENDBRANCH  15  16
ENDBRANCH  14  15
ENDBRANCH  13  14
ENDBRANCH  12  13
ENDBRANCH   1  12
TORSDOF 14
ENDMDL
MODEL 2
REMARK VINA RESULT:    -2.547     14.624     16.220
REMARK INTER + INTRA:          -6.959
REMARK INTER:                  -5.024
REMARK INTRA:                  -1.935
REMARK UNBOUND:                -2.328
REMARK SMILES CCCCCCCCCCCCCC[C@H](C)C(=O)[O-]
REMARK SMILES IDX 9 1 10 2 11 3 12 4 13 5 14 6 15 7 16 8 17 9 18 10 19 11 8 12
REMARK SMILES IDX 7 13 6 14 5 15 4 16 3 17 2 18 1 19
REMARK H PARENT
REMARK Flexibility Score: inf
ROOT
ATOM      1  C   UNL     1     -21.382  13.866 -22.333  1.00  0.00     0.000 C 
ENDROOT
BRANCH   1   2
ATOM      2  C   UNL     1     -22.169  13.790 -23.654  1.00  0.00     0.000 C 
BRANCH   2   3
ATOM      3  C   UNL     1     -21.385  13.206 -24.846  1.00  0.00     0.000 C 
BRANCH   3   4
ATOM      4  C   UNL     1     -19.875  13.010 -24.604  1.00  0.00     0.000 C 
BRANCH   4   5
ATOM      5  C   UNL     1     -18.989  14.190 -25.045  1.00  0.00     0.001 C 
BRANCH   5   6
ATOM      6  C   UNL     1     -17.990  14.625 -23.958  1.00  0.00     0.009 C 
BRANCH   6   7
ATOM      7  C   UNL     1     -17.650  13.473 -22.990  1.00  0.00     0.032 C 
ATOM      8  C   UNL     1     -17.586  13.982 -21.546  1.00  0.00     0.014 C 
BRANCH   7   9
ATOM      9  C   UNL     1     -16.349  12.810 -23.359  1.00  0.00     0.044 C 
ATOM     10  O   UNL     1     -16.341  11.710 -23.975  1.00  0.00    -0.550 OA
ATOM     11  O   UNL     1     -15.144  13.413 -23.020  1.00  0.00    -0.550 OA
ENDBRANCH   7   9
ENDBRANCH   6   7
ENDBRANCH   5   6
ENDBRANCH   4   5
ENDBRANCH   3   4
ENDBRANCH   2   3
ENDBRANCH   1   2
BRANCH   1  12
ATOM     12  C   UNL     1     -21.118  15.314 -21.884  1.00  0.00     0.000 C 
BRANCH  12  13
ATOM     13  C   UNL     1     -21.020  15.458 -20.355  1.00  0.00    -0.000 C 
BRANCH  13  14
ATOM     14  C   UNL     1     -20.860  14.134 -19.581  1.00  0.00    -0.000 C 
BRANCH  14  15
ATOM     15  C   UNL     1     -19.788  14.184 -18.472  1.00  0.00    -0.000 C 
BRANCH  15  16
ATOM     16  C   UNL     1     -19.309  12.783 -18.062  1.00  0.00    -0.000 C 
BRANCH  16  17
ATOM     17  C   UNL     1     -20.436  11.991 -17.386  1.00  0.00    -0.000 C 
BRANCH  17  18
ATOM     18  C   UNL     1     -20.989  12.699 -16.139  1.00  0.00    -0.003 C 
ATOM     19  C   UNL     1     -22.498  12.514 -15.973  1.00  0.00     0.004 C 
ENDBRANCH  17  18
ENDBRANCH  16  17
ENDBRANCH  15  16
ENDBRANCH  14  15
ENDBRANCH  13  14
ENDBRANCH  12  13
ENDBRANCH   1  12
TORSDOF 14
ENDMDL
MODEL 3
REMARK VINA RESULT:    -2.515     14.683     16.473
REMARK INTER + INTRA:          -6.902
REMARK INTER:                  -4.808
REMARK INTRA:                  -2.093
REMARK UNBOUND:                -2.328
REMARK SMILES CCCCCCCCCCCCCC[C@H](C)C(=O)[O-]
REMARK SMILES IDX 9 1 10 2 11 3 12 4 13 5 14 6 15 7 16 8 17 9 18 10 19 11 8 12
REMARK SMILES IDX 7 13 6 14 5 15 4 16 3 17 2 18 1 19
REMARK H PARENT
REMARK Flexibility Score: inf
ROOT
ATOM      1  C   UNL     1     -18.084  15.231 -21.720  1.00  0.00     0.000 C 
ENDROOT
BRANCH   1   2
ATOM      2  C   UNL     1     -18.024  13.954 -20.863  1.00  0.00     0.000 C 
BRANCH   2   3
ATOM      3  C   UNL     1     -19.131  13.833 -19.797  1.00  0.00     0.000 C 
BRANCH   3   4
ATOM      4  C   UNL     1     -19.345  15.089 -18.929  1.00  0.00     0.000 C 
BRANCH   4   5
ATOM      5  C   UNL     1     -20.706  15.159 -18.213  1.00  0.00     0.001 C 
BRANCH   5   6
ATOM      6  C   UNL     1     -21.355  13.776 -18.027  1.00  0.00     0.009 C 
BRANCH   6   7
ATOM      7  C   UNL     1     -20.929  13.111 -16.701  1.00  0.00     0.032 C 
ATOM      8  C   UNL     1     -20.559  11.641 -16.929  1.00  0.00     0.014 C 
BRANCH   7   9
ATOM      9  C   UNL     1     -22.013  13.212 -15.661  1.00  0.00     0.044 C 
ATOM     10  O   UNL     1     -22.245  14.307 -15.081  1.00  0.00    -0.550 OA
ATOM     11  O   UNL     1     -22.768  12.092 -15.337  1.00  0.00    -0.550 OA
ENDBRANCH   7   9
ENDBRANCH   6   7
ENDBRANCH   5   6
ENDBRANCH   4   5
ENDBRANCH   3   4
ENDBRANCH   2   3
ENDBRANCH   1   2
BRANCH   1  12
ATOM     12  C   UNL     1     -17.763  14.965 -23.201  1.00  0.00     0.000 C 
BRANCH  12  13
ATOM     13  C   UNL     1     -17.424  13.492 -23.485  1.00  0.00    -0.000 C 
BRANCH  13  14
ATOM     14  C   UNL     1     -18.437  12.745 -24.375  1.00  0.00    -0.000 C 
BRANCH  14  15
ATOM     15  C   UNL     1     -19.563  13.643 -24.930  1.00  0.00    -0.000 C 
BRANCH  15  16
ATOM     16  C   UNL     1     -20.958  13.144 -24.522  1.00  0.00    -0.000 C 
BRANCH  16  17
ATOM     17  C   UNL     1     -21.265  13.499 -23.060  1.00  0.00    -0.000 C 
BRANCH  17  18
ATOM     18  C   UNL     1     -22.150  14.749 -22.930  1.00  0.00    -0.003 C 
ATOM     19  C   UNL     1     -21.763  15.628 -21.740  1.00  0.00     0.004 C 
ENDBRANCH  17  18
ENDBRANCH  16  17
ENDBRANCH  15  16
ENDBRANCH  14  15
ENDBRANCH  13  14
ENDBRANCH  12  13
ENDBRANCH   1  12
TORSDOF 14
ENDMDL
MODEL 4
REMARK VINA RESULT:    -2.493      1.288      2.973
REMARK INTER + INTRA:          -6.861
REMARK INTER:                  -5.071
REMARK INTRA:                  -1.790
REMARK UNBOUND:                -2.328
REMARK SMILES CCCCCCCCCCCCCC[C@H](C)C(=O)[O-]
REMARK SMILES IDX 9 1 10 2 11 3 12 4 13 5 14 6 15 7 16 8 17 9 18 10 19 11 8 12
REMARK SMILES IDX 7 13 6 14 5 15 4 16 3 17 2 18 1 19
REMARK H PARENT
REMARK Flexibility Score: inf
ROOT
ATOM      1  C   UNL     1     -22.526  27.705 -17.657  1.00  0.00     0.000 C 
ENDROOT
BRANCH   1   2
ATOM      2  C   UNL     1     -21.386  27.310 -18.612  1.00  0.00     0.000 C 
BRANCH   2   3
ATOM      3  C   UNL     1     -20.777  28.476 -19.416  1.00  0.00     0.000 C 
BRANCH   3   4
ATOM      4  C   UNL     1     -19.980  28.062 -20.669  1.00  0.00     0.000 C 
BRANCH   4   5
ATOM      5  C   UNL     1     -18.839  29.019 -21.058  1.00  0.00     0.001 C 
BRANCH   5   6
ATOM      6  C   UNL     1     -17.491  28.628 -20.428  1.00  0.00     0.009 C 
BRANCH   6   7
ATOM      7  C   UNL     1     -16.331  29.500 -20.954  1.00  0.00     0.032 C 
ATOM      8  C   UNL     1     -16.595  30.982 -20.666  1.00  0.00     0.014 C 
BRANCH   7   9
ATOM      9  C   UNL     1     -16.115  29.294 -22.430  1.00  0.00     0.044 C 
ATOM     10  O   UNL     1     -16.539  30.139 -23.264  1.00  0.00    -0.550 OA
ATOM     11  O   UNL     1     -15.442  28.166 -22.881  1.00  0.00    -0.550 OA
ENDBRANCH   7   9
ENDBRANCH   6   7
ENDBRANCH   5   6
ENDBRANCH   4   5
ENDBRANCH   3   4
ENDBRANCH   2   3
ENDBRANCH   1   2
BRANCH   1  12
ATOM     12  C   UNL     1     -22.728  29.228 -17.573  1.00  0.00     0.000 C 
BRANCH  12  13
ATOM     13  C   UNL     1     -24.141  29.668 -17.994  1.00  0.00    -0.000 C 
BRANCH  13  14
ATOM     14  C   UNL     1     -24.995  28.574 -18.666  1.00  0.00    -0.000 C 
BRANCH  14  15
ATOM     15  C   UNL     1     -25.124  28.734 -20.196  1.00  0.00    -0.000 C 
BRANCH  15  16
ATOM     16  C   UNL     1     -24.366  29.964 -20.718  1.00  0.00    -0.000 C 
BRANCH  16  17
ATOM     17  C   UNL     1     -23.358  29.569 -21.806  1.00  0.00    -0.000 C 
BRANCH  17  18
ATOM     18  C   UNL     1     -23.352  28.058 -22.084  1.00  0.00    -0.003 C 
ATOM     19  C   UNL     1     -23.581  27.725 -23.559  1.00  0.00     0.004 C 
ENDBRANCH  17  18
ENDBRANCH  16  17
ENDBRANCH  15  16
ENDBRANCH  14  15
ENDBRANCH  13  14
ENDBRANCH  12  13
ENDBRANCH   1  12
TORSDOF 14
ENDMDL
MODEL 5
REMARK VINA RESULT:    -2.479      3.494      7.081
REMARK INTER + INTRA:          -6.835
REMARK INTER:                  -5.045
REMARK INTRA:                  -1.790
REMARK UNBOUND:                -2.328
REMARK SMILES CCCCCCCCCCCCCC[C@H](C)C(=O)[O-]
REMARK SMILES IDX 9 1 10 2 11 3 12 4 13 5 14 6 15 7 16 8 17 9 18 10 19 11 8 12
REMARK SMILES IDX 7 13 6 14 5 15 4 16 3 17 2 18 1 19
REMARK H PARENT
REMARK Flexibility Score: inf
ROOT
ATOM      1  C   UNL     1     -22.086  27.710 -21.538  1.00  0.00     0.000 C 
ENDROOT
BRANCH   1   2
ATOM      2  C   UNL     1     -22.459  29.196 -21.398  1.00  0.00     0.000 C 
BRANCH   2   3
ATOM      3  C   UNL     1     -23.805  29.593 -22.036  1.00  0.00     0.000 C 
BRANCH   3   4
ATOM      4  C   UNL     1     -24.903  30.014 -21.039  1.00  0.00     0.000 C 
BRANCH   4   5
ATOM      5  C   UNL     1     -24.913  29.229 -19.714  1.00  0.00     0.001 C 
BRANCH   5   6
ATOM      6  C   UNL     1     -24.415  30.065 -18.522  1.00  0.00     0.009 C 
BRANCH   6   7
ATOM      7  C   UNL     1     -23.307  29.340 -17.729  1.00  0.00     0.032 C 
ATOM      8  C   UNL     1     -23.369  27.828 -17.973  1.00  0.00     0.014 C 
BRANCH   7   9
ATOM      9  C   UNL     1     -23.408  29.626 -16.254  1.00  0.00     0.044 C 
ATOM     10  O   UNL     1     -23.619  28.694 -15.433  1.00  0.00    -0.550 OA
ATOM     11  O   UNL     1     -23.267  30.928 -15.791  1.00  0.00    -0.550 OA
ENDBRANCH   7   9
ENDBRANCH   6   7
ENDBRANCH   5   6
ENDBRANCH   4   5
ENDBRANCH   3   4
ENDBRANCH   2   3
ENDBRANCH   1   2
BRANCH   1  12
ATOM     12  C   UNL     1     -20.650  27.413 -21.073  1.00  0.00     0.000 C 
BRANCH  12  13
ATOM     13  C   UNL     1     -19.968  28.629 -20.423  1.00  0.00    -0.000 C 
BRANCH  13  14
ATOM     14  C   UNL     1     -19.887  28.591 -18.884  1.00  0.00    -0.000 C 
BRANCH  14  15
ATOM     15  C   UNL     1     -18.748  29.450 -18.296  1.00  0.00    -0.000 C 
BRANCH  15  16
ATOM     16  C   UNL     1     -17.399  29.172 -18.978  1.00  0.00    -0.000 C 
BRANCH  16  17
ATOM     17  C   UNL     1     -16.645  30.479 -19.263  1.00  0.00    -0.000 C 
BRANCH  17  18
ATOM     18  C   UNL     1     -17.068  31.125 -20.592  1.00  0.00    -0.003 C 
ATOM     19  C   UNL     1     -16.621  30.317 -21.812  1.00  0.00     0.004 C 
ENDBRANCH  17  18
ENDBRANCH  16  17
ENDBRANCH  15  16
ENDBRANCH  14  15
ENDBRANCH  13  14
ENDBRANCH  12  13
ENDBRANCH   1  12
TORSDOF 14
ENDMDL
MODEL 6
REMARK VINA RESULT:    -2.437      3.244      4.775
REMARK INTER + INTRA:          -6.759
REMARK INTER:                  -4.036
REMARK INTRA:                  -2.723
REMARK UNBOUND:                -2.328
REMARK SMILES CCCCCCCCCCCCCC[C@H](C)C(=O)[O-]
REMARK SMILES IDX 9 1 10 2 11 3 12 4 13 5 14 6 15 7 16 8 17 9 18 10 19 11 8 12
REMARK SMILES IDX 7 13 6 14 5 15 4 16 3 17 2 18 1 19
REMARK H PARENT
REMARK Flexibility Score: inf
ROOT
ATOM      1  C   UNL     1     -20.889  27.417 -21.217  1.00  0.00     0.000 C 
ENDROOT
BRANCH   1   2
ATOM      2  C   UNL     1     -20.062  28.665 -20.861  1.00  0.00     0.000 C 
BRANCH   2   3
ATOM      3  C   UNL     1     -19.103  28.491 -19.667  1.00  0.00     0.000 C 
BRANCH   3   4
ATOM      4  C   UNL     1     -19.535  29.203 -18.370  1.00  0.00     0.000 C 
BRANCH   4   5
ATOM      5  C   UNL     1     -21.007  28.988 -17.971  1.00  0.00     0.001 C 
BRANCH   5   6
ATOM      6  C   UNL     1     -21.193  27.829 -16.977  1.00  0.00     0.009 C 
BRANCH   6   7
ATOM      7  C   UNL     1     -22.324  26.872 -17.407  1.00  0.00     0.032 C 
ATOM      8  C   UNL     1     -23.310  26.648 -16.255  1.00  0.00     0.014 C 
BRANCH   7   9
ATOM      9  C   UNL     1     -21.778  25.551 -17.880  1.00  0.00     0.044 C 
ATOM     10  O   UNL     1     -20.623  25.476 -18.379  1.00  0.00    -0.550 OA
ATOM     11  O   UNL     1     -22.550  24.401 -17.764  1.00  0.00    -0.550 OA
ENDBRANCH   7   9
ENDBRANCH   6   7
ENDBRANCH   5   6
ENDBRANCH   4   5
ENDBRANCH   3   4
ENDBRANCH   2   3
ENDBRANCH   1   2
BRANCH   1  12
ATOM     12  C   UNL     1     -22.371  27.742 -21.477  1.00  0.00     0.000 C 
BRANCH  12  13
ATOM     13  C   UNL     1     -22.680  29.246 -21.376  1.00  0.00    -0.000 C 
BRANCH  13  14
ATOM     14  C   UNL     1     -23.993  29.600 -20.649  1.00  0.00    -0.000 C 
BRANCH  14  15
ATOM     15  C   UNL     1     -24.478  28.510 -19.670  1.00  0.00    -0.000 C 
BRANCH  15  16
ATOM     16  C   UNL     1     -25.125  29.107 -18.411  1.00  0.00    -0.000 C 
BRANCH  16  17
ATOM     17  C   UNL     1     -24.372  30.361 -17.945  1.00  0.00    -0.000 C 
BRANCH  17  18
ATOM     18  C   UNL     1     -24.647  30.700 -16.472  1.00  0.00    -0.003 C 
ATOM     19  C   UNL     1     -23.392  30.619 -15.601  1.00  0.00     0.004 C 
ENDBRANCH  17  18
ENDBRANCH  16  17
ENDBRANCH  15  16
ENDBRANCH  14  15
ENDBRANCH  13  14
ENDBRANCH  12  13
ENDBRANCH   1  12
TORSDOF 14
ENDMDL
MODEL 7
REMARK VINA RESULT:    -2.429     14.773     16.478
REMARK INTER + INTRA:          -6.746
REMARK INTER:                  -4.760
REMARK INTRA:                  -1.986
REMARK UNBOUND:                -2.328
REMARK SMILES CCCCCCCCCCCCCC[C@H](C)C(=O)[O-]
REMARK SMILES IDX 9 1 10 2 11 3 12 4 13 5 14 6 15 7 16 8 17 9 18 10 19 11 8 12
REMARK SMILES IDX 7 13 6 14 5 15 4 16 3 17 2 18 1 19
REMARK H PARENT
REMARK Flexibility Score: inf
ROOT
ATOM      1  C   UNL     1     -20.148  15.870 -19.699  1.00  0.00     0.000 C 
ENDROOT
BRANCH   1   2
ATOM      2  C   UNL     1     -21.506  15.519 -19.066  1.00  0.00     0.000 C 
BRANCH   2   3
ATOM      3  C   UNL     1     -21.426  14.687 -17.771  1.00  0.00     0.000 C 
BRANCH   3   4
ATOM      4  C   UNL     1     -21.396  13.160 -17.974  1.00  0.00     0.000 C 
BRANCH   4   5
ATOM      5  C   UNL     1     -20.086  12.473 -17.547  1.00  0.00     0.001 C 
BRANCH   5   6
ATOM      6  C   UNL     1     -19.077  13.451 -16.919  1.00  0.00     0.009 C 
BRANCH   6   7
ATOM      7  C   UNL     1     -17.689  13.358 -17.587  1.00  0.00     0.032 C 
ATOM      8  C   UNL     1     -17.818  12.885 -19.039  1.00  0.00     0.014 C 
BRANCH   7   9
ATOM      9  C   UNL     1     -16.772  12.437 -16.826  1.00  0.00     0.044 C 
ATOM     10  O   UNL     1     -17.117  11.970 -15.707  1.00  0.00    -0.550 OA
ATOM     11  O   UNL     1     -15.536  12.096 -17.359  1.00  0.00    -0.550 OA
ENDBRANCH   7   9
ENDBRANCH   6   7
ENDBRANCH   5   6
ENDBRANCH   4   5
ENDBRANCH   3   4
ENDBRANCH   2   3
ENDBRANCH   1   2
BRANCH   1  12
ATOM     12  C   UNL     1     -19.871  15.074 -20.986  1.00  0.00     0.000 C 
BRANCH  12  13
ATOM     13  C   UNL     1     -21.076  14.231 -21.439  1.00  0.00    -0.000 C 
BRANCH  13  14
ATOM     14  C   UNL     1     -21.523  14.456 -22.898  1.00  0.00    -0.000 C 
BRANCH  14  15
ATOM     15  C   UNL     1     -21.956  13.165 -23.625  1.00  0.00    -0.000 C 
BRANCH  15  16
ATOM     16  C   UNL     1     -21.134  12.911 -24.897  1.00  0.00    -0.000 C 
BRANCH  16  17
ATOM     17  C   UNL     1     -19.794  13.658 -24.846  1.00  0.00    -0.000 C 
BRANCH  17  18
ATOM     18  C   UNL     1     -18.640  12.765 -24.366  1.00  0.00    -0.003 C 
ATOM     19  C   UNL     1     -17.502  13.561 -23.723  1.00  0.00     0.004 C 
ENDBRANCH  17  18
ENDBRANCH  16  17
ENDBRANCH  15  16
ENDBRANCH  14  15
ENDBRANCH  13  14
ENDBRANCH  12  13
ENDBRANCH   1  12
TORSDOF 14
ENDMDL
MODEL 8
REMARK VINA RESULT:    -2.390      1.861      2.632
REMARK INTER + INTRA:          -6.675
REMARK INTER:                  -4.431
REMARK INTRA:                  -2.244
REMARK UNBOUND:                -2.328
REMARK SMILES CCCCCCCCCCCCCC[C@H](C)C(=O)[O-]
REMARK SMILES IDX 9 1 10 2 11 3 12 4 13 5 14 6 15 7 16 8 17 9 18 10 19 11 8 12
REMARK SMILES IDX 7 13 6 14 5 15 4 16 3 17 2 18 1 19
REMARK H PARENT
REMARK Flexibility Score: inf
ROOT
ATOM      1  C   UNL     1     -20.830  28.663 -18.236  1.00  0.00     0.000 C 
ENDROOT
BRANCH   1   2
ATOM      2  C   UNL     1     -19.301  28.646 -18.062  1.00  0.00     0.000 C 
BRANCH   2   3
ATOM      3  C   UNL     1     -18.591  29.969 -18.410  1.00  0.00     0.000 C 
BRANCH   3   4
ATOM      4  C   UNL     1     -17.646  29.905 -19.626  1.00  0.00     0.000 C 
BRANCH   4   5
ATOM      5  C   UNL     1     -18.342  29.661 -20.977  1.00  0.00     0.001 C 
BRANCH   5   6
ATOM      6  C   UNL     1     -17.472  28.859 -21.961  1.00  0.00     0.009 C 
BRANCH   6   7
ATOM      7  C   UNL     1     -17.030  27.503 -21.370  1.00  0.00     0.032 C 
ATOM      8  C   UNL     1     -15.956  26.855 -22.250  1.00  0.00     0.014 C 
BRANCH   7   9
ATOM      9  C   UNL     1     -18.197  26.566 -21.210  1.00  0.00     0.044 C 
ATOM     10  O   UNL     1     -18.405  25.981 -20.113  1.00  0.00    -0.550 OA
ATOM     11  O   UNL     1     -19.056  26.341 -22.279  1.00  0.00    -0.550 OA
ENDBRANCH   7   9
ENDBRANCH   6   7
ENDBRANCH   5   6
ENDBRANCH   4   5
ENDBRANCH   3   4
ENDBRANCH   2   3
ENDBRANCH   1   2
BRANCH   1  12
ATOM     12  C   UNL     1     -21.402  27.277 -18.585  1.00  0.00     0.000 C 
BRANCH  12  13
ATOM     13  C   UNL     1     -21.757  27.134 -20.075  1.00  0.00    -0.000 C 
BRANCH  13  14
ATOM     14  C   UNL     1     -21.709  28.443 -20.890  1.00  0.00    -0.000 C 
BRANCH  14  15
ATOM     15  C   UNL     1     -22.917  28.638 -21.830  1.00  0.00    -0.000 C 
BRANCH  15  16
ATOM     16  C   UNL     1     -23.894  29.703 -21.307  1.00  0.00    -0.000 C 
BRANCH  16  17
ATOM     17  C   UNL     1     -25.125  29.052 -20.662  1.00  0.00    -0.000 C 
BRANCH  17  18
ATOM     18  C   UNL     1     -24.962  28.858 -19.146  1.00  0.00    -0.003 C 
ATOM     19  C   UNL     1     -24.319  30.064 -18.460  1.00  0.00     0.004 C 
ENDBRANCH  17  18
ENDBRANCH  16  17
ENDBRANCH  15  16
ENDBRANCH  14  15
ENDBRANCH  13  14
ENDBRANCH  12  13
ENDBRANCH   1  12
TORSDOF 14
ENDMDL
MODEL 9
REMARK VINA RESULT:    -2.384     14.951     16.890
REMARK INTER + INTRA:          -6.664
REMARK INTER:                  -4.929
REMARK INTRA:                  -1.735
REMARK UNBOUND:                -2.328
REMARK SMILES CCCCCCCCCCCCCC[C@H](C)C(=O)[O-]
REMARK SMILES IDX 9 1 10 2 11 3 12 4 13 5 14 6 15 7 16 8 17 9 18 10 19 11 8 12
REMARK SMILES IDX 7 13 6 14 5 15 4 16 3 17 2 18 1 19
REMARK H PARENT
REMARK Flexibility Score: inf
ROOT
ATOM      1  C   UNL     1     -18.620  15.270 -20.483  1.00  0.00     0.000 C 
ENDROOT
BRANCH   1   2
ATOM      2  C   UNL     1     -19.910  16.011 -20.880  1.00  0.00     0.000 C 
BRANCH   2   3
ATOM      3  C   UNL     1     -21.152  15.649 -20.042  1.00  0.00     0.000 C 
BRANCH   3   4
ATOM      4  C   UNL     1     -20.854  14.979 -18.685  1.00  0.00     0.000 C 
BRANCH   4   5
ATOM      5  C   UNL     1     -21.317  13.515 -18.569  1.00  0.00     0.001 C 
BRANCH   5   6
ATOM      6  C   UNL     1     -20.895  12.859 -17.243  1.00  0.00     0.009 C 
BRANCH   6   7
ATOM      7  C   UNL     1     -22.108  12.339 -16.443  1.00  0.00     0.032 C 
ATOM      8  C   UNL     1     -23.217  13.396 -16.395  1.00  0.00     0.014 C 
BRANCH   7   9
ATOM      9  C   UNL     1     -21.716  11.942 -15.045  1.00  0.00     0.044 C 
ATOM     10  O   UNL     1     -20.611  11.376 -14.825  1.00  0.00    -0.550 OA
ATOM     11  O   UNL     1     -22.576  12.201 -13.985  1.00  0.00    -0.550 OA
ENDBRANCH   7   9
ENDBRANCH   6   7
ENDBRANCH   5   6
ENDBRANCH   4   5
ENDBRANCH   3   4
ENDBRANCH   2   3
ENDBRANCH   1   2
BRANCH   1  12
ATOM     12  C   UNL     1     -18.490  13.899 -21.169  1.00  0.00     0.000 C 
BRANCH  12  13
ATOM     13  C   UNL     1     -17.410  13.877 -22.264  1.00  0.00    -0.000 C 
BRANCH  13  14
ATOM     14  C   UNL     1     -17.930  14.070 -23.703  1.00  0.00    -0.000 C 
BRANCH  14  15
ATOM     15  C   UNL     1     -18.415  12.767 -24.372  1.00  0.00    -0.000 C 
BRANCH  15  16
ATOM     16  C   UNL     1     -19.909  12.815 -24.724  1.00  0.00    -0.000 C 
BRANCH  16  17
ATOM     17  C   UNL     1     -20.428  14.260 -24.732  1.00  0.00    -0.000 C 
BRANCH  17  18
ATOM     18  C   UNL     1     -21.761  14.411 -23.982  1.00  0.00    -0.003 C 
ATOM     19  C   UNL     1     -21.888  13.450 -22.798  1.00  0.00     0.004 C 
ENDBRANCH  17  18
ENDBRANCH  16  17
ENDBRANCH  15  16
ENDBRANCH  14  15
ENDBRANCH  13  14
ENDBRANCH  12  13
ENDBRANCH   1  12
TORSDOF 14
ENDMDL
