MODEL 1
REMARK VINA RESULT:    -4.245      0.000      0.000
REMARK INTER + INTRA:          -4.369
REMARK INTER:                  -4.369
REMARK INTRA:                   0.000
REMARK UNBOUND:                 0.000
REMARK SMILES O=c1ccc2ccc(O)cc2o1
REMARK SMILES IDX 6 1 7 2 8 3 10 4 11 5 5 6 4 7 3 8 2 9 1 10 12 11 9 12
REMARK H PARENT 9 13
REMARK Flexibility Score: inf
ROOT
ATOM      1  C   UNL     1      16.154   2.796  -1.253  1.00  0.00     0.016 A 
ATOM      2  C   UNL     1      16.893   1.709  -1.730  1.00  0.00     0.047 A 
ATOM      3  C   UNL     1      16.334   0.827  -2.662  1.00  0.00     0.119 A 
ATOM      4  C   UNL     1      15.025   1.032  -3.121  1.00  0.00     0.094 A 
ATOM      5  C   UNL     1      14.277   2.116  -2.651  1.00  0.00     0.142 A 
ATOM      6  C   UNL     1      14.845   3.004  -1.710  1.00  0.00     0.018 A 
ATOM      7  C   UNL     1      14.074   4.079  -1.257  1.00  0.00     0.019 A 
ATOM      8  C   UNL     1      12.777   4.243  -1.743  1.00  0.00     0.094 A 
ATOM      9  C   UNL     1      12.281   3.324  -2.675  1.00  0.00     0.336 A 
ATOM     10  O   UNL     1      11.112   3.455  -3.125  1.00  0.00    -0.246 OA
ATOM     11  O   UNL     1      13.036   2.309  -3.088  1.00  0.00    -0.423 OA
ENDROOT
BRANCH   3  12
ATOM     12  O   UNL     1      17.086  -0.251  -3.125  1.00  0.00    -0.508 OA
ATOM     13  H   UNL     1      18.035  -0.411  -2.807  1.00  0.00     0.293 HD
ENDBRANCH   3  12
TORSDOF 1
ENDMDL
MODEL 2
REMARK VINA RESULT:    -4.196      0.893      4.296
REMARK INTER + INTRA:          -4.319
REMARK INTER:                  -4.319
REMARK INTRA:                   0.000
REMARK UNBOUND:                 0.000
REMARK SMILES O=c1ccc2ccc(O)cc2o1
REMARK SMILES IDX 6 1 7 2 8 3 10 4 11 5 5 6 4 7 3 8 2 9 1 10 12 11 9 12
REMARK H PARENT 9 13
REMARK Flexibility Score: inf
ROOT
ATOM      1  C   UNL     1      13.431   4.416  -1.087  1.00  0.00     0.016 A 
ATOM      2  C   UNL     1      12.150   4.628  -1.605  1.00  0.00     0.047 A 
ATOM      3  C   UNL     1      11.650   3.801  -2.618  1.00  0.00     0.119 A 
ATOM      4  C   UNL     1      12.437   2.754  -3.119  1.00  0.00     0.094 A 
ATOM      5  C   UNL     1      13.720   2.533  -2.606  1.00  0.00     0.142 A 
ATOM      6  C   UNL     1      14.221   3.370  -1.584  1.00  0.00     0.018 A 
ATOM      7  C   UNL     1      15.507   3.126  -1.092  1.00  0.00     0.019 A 
ATOM      8  C   UNL     1      16.253   2.072  -1.620  1.00  0.00     0.094 A 
ATOM      9  C   UNL     1      15.692   1.285  -2.631  1.00  0.00     0.336 A 
ATOM     10  O   UNL     1      16.349   0.329  -3.121  1.00  0.00    -0.246 OA
ATOM     11  O   UNL     1      14.466   1.539  -3.082  1.00  0.00    -0.423 OA
ENDROOT
BRANCH   3  12
ATOM     12  O   UNL     1      10.371   4.028  -3.122  1.00  0.00    -0.508 OA
ATOM     13  H   UNL     1       9.684   4.563  -2.603  1.00  0.00     0.293 HD
ENDBRANCH   3  12
TORSDOF 1
ENDMDL
MODEL 3
REMARK VINA RESULT:    -4.083      1.171      1.652
REMARK INTER + INTRA:          -4.202
REMARK INTER:                  -4.202
REMARK INTRA:                   0.000
REMARK UNBOUND:                 0.000
REMARK SMILES O=c1ccc2ccc(O)cc2o1
REMARK SMILES IDX 6 1 7 2 8 3 10 4 11 5 5 6 4 7 3 8 2 9 1 10 12 11 9 12
REMARK H PARENT 9 13
REMARK Flexibility Score: inf
ROOT
ATOM      1  C   UNL     1      14.763   3.492  -0.988  1.00  0.00     0.016 A 
ATOM      2  C   UNL     1      15.455   2.406  -1.532  1.00  0.00     0.047 A 
ATOM      3  C   UNL     1      14.909   1.679  -2.596  1.00  0.00     0.119 A 
ATOM      4  C   UNL     1      13.659   2.039  -3.121  1.00  0.00     0.094 A 
ATOM      5  C   UNL     1      12.958   3.124  -2.584  1.00  0.00     0.142 A 
ATOM      6  C   UNL     1      13.513   3.856  -1.509  1.00  0.00     0.018 A 
ATOM      7  C   UNL     1      12.789   4.934  -0.993  1.00  0.00     0.019 A 
ATOM      8  C   UNL     1      11.551   5.256  -1.547  1.00  0.00     0.094 A 
ATOM      9  C   UNL     1      11.064   4.487  -2.610  1.00  0.00     0.336 A 
ATOM     10  O   UNL     1       9.948   4.761  -3.124  1.00  0.00    -0.246 OA
ATOM     11  O   UNL     1      11.773   3.464  -3.083  1.00  0.00    -0.423 OA
ENDROOT
BRANCH   3  12
ATOM     12  O   UNL     1      15.615   0.601  -3.125  1.00  0.00    -0.508 OA
ATOM     13  H   UNL     1      15.244  -0.342  -3.094  1.00  0.00     0.293 HD
ENDBRANCH   3  12
TORSDOF 1
ENDMDL
MODEL 4
REMARK VINA RESULT:    -4.078      1.919      2.788
REMARK INTER + INTRA:          -4.198
REMARK INTER:                  -4.198
REMARK INTRA:                   0.000
REMARK UNBOUND:                 0.000
REMARK SMILES O=c1ccc2ccc(O)cc2o1
REMARK SMILES IDX 6 1 7 2 8 3 10 4 11 5 5 6 4 7 3 8 2 9 1 10 12 11 9 12
REMARK H PARENT 9 13
REMARK Flexibility Score: inf
ROOT
ATOM      1  C   UNL     1      13.721   2.186  -3.125  1.00  0.00     0.016 A 
ATOM      2  C   UNL     1      15.027   1.896  -2.717  1.00  0.00     0.047 A 
ATOM      3  C   UNL     1      15.603   2.586  -1.645  1.00  0.00     0.119 A 
ATOM      4  C   UNL     1      14.869   3.575  -0.973  1.00  0.00     0.094 A 
ATOM      5  C   UNL     1      13.561   3.871  -1.372  1.00  0.00     0.142 A 
ATOM      6  C   UNL     1      12.983   3.173  -2.456  1.00  0.00     0.018 A 
ATOM      7  C   UNL     1      11.676   3.492  -2.833  1.00  0.00     0.019 A 
ATOM      8  C   UNL     1      10.983   4.482  -2.135  1.00  0.00     0.094 A 
ATOM      9  C   UNL     1      11.620   5.131  -1.072  1.00  0.00     0.336 A 
ATOM     10  O   UNL     1      11.012   6.028  -0.430  1.00  0.00    -0.246 OA
ATOM     11  O   UNL     1      12.866   4.809  -0.734  1.00  0.00    -0.423 OA
ENDROOT
BRANCH   3  12
ATOM     12  O   UNL     1      16.905   2.283  -1.253  1.00  0.00    -0.508 OA
ATOM     13  H   UNL     1      17.353   2.764  -0.482  1.00  0.00     0.293 HD
ENDBRANCH   3  12
TORSDOF 1
ENDMDL
MODEL 5
REMARK VINA RESULT:    -4.069      2.112      5.305
REMARK INTER + INTRA:          -4.188
REMARK INTER:                  -4.188
REMARK INTRA:                   0.000
REMARK UNBOUND:                 0.000
REMARK SMILES O=c1ccc2ccc(O)cc2o1
REMARK SMILES IDX 6 1 7 2 8 3 10 4 11 5 5 6 4 7 3 8 2 9 1 10 12 11 9 12
REMARK H PARENT 9 13
REMARK Flexibility Score: inf
ROOT
ATOM      1  C   UNL     1      11.011   3.679  -2.848  1.00  0.00     0.016 A 
ATOM      2  C   UNL     1      10.325   4.713  -2.203  1.00  0.00     0.047 A 
ATOM      3  C   UNL     1      10.958   5.474  -1.215  1.00  0.00     0.119 A 
ATOM      4  C   UNL     1      12.289   5.201  -0.866  1.00  0.00     0.094 A 
ATOM      5  C   UNL     1      12.984   4.169  -1.506  1.00  0.00     0.142 A 
ATOM      6  C   UNL     1      12.341   3.402  -2.504  1.00  0.00     0.018 A 
ATOM      7  C   UNL     1      13.061   2.378  -3.125  1.00  0.00     0.019 A 
ATOM      8  C   UNL     1      14.383   2.143  -2.747  1.00  0.00     0.094 A 
ATOM      9  C   UNL     1      14.955   2.943  -1.751  1.00  0.00     0.336 A 
ATOM     10  O   UNL     1      16.146   2.746  -1.396  1.00  0.00    -0.246 OA
ATOM     11  O   UNL     1      14.247   3.911  -1.175  1.00  0.00    -0.423 OA
ENDROOT
BRANCH   3  12
ATOM     12  O   UNL     1      10.258   6.500  -0.583  1.00  0.00    -0.508 OA
ATOM     13  H   UNL     1      10.143   7.409  -1.017  1.00  0.00     0.293 HD
ENDBRANCH   3  12
TORSDOF 1
ENDMDL
MODEL 6
REMARK VINA RESULT:    -3.789      2.015      3.292
REMARK INTER + INTRA:          -3.899
REMARK INTER:                  -3.899
REMARK INTRA:                   0.000
REMARK UNBOUND:                 0.000
REMARK SMILES O=c1ccc2ccc(O)cc2o1
REMARK SMILES IDX 6 1 7 2 8 3 10 4 11 5 5 6 4 7 3 8 2 9 1 10 12 11 9 12
REMARK H PARENT 9 13
REMARK Flexibility Score: inf
ROOT
ATOM      1  C   UNL     1      13.308   4.530  -1.170  1.00  0.00     0.016 A 
ATOM      2  C   UNL     1      14.096   3.489  -1.671  1.00  0.00     0.047 A 
ATOM      3  C   UNL     1      13.582   2.612  -2.633  1.00  0.00     0.119 A 
ATOM      4  C   UNL     1      12.269   2.774  -3.098  1.00  0.00     0.094 A 
ATOM      5  C   UNL     1      11.472   3.812  -2.603  1.00  0.00     0.142 A 
ATOM      6  C   UNL     1      11.994   4.696  -1.632  1.00  0.00     0.018 A 
ATOM      7  C   UNL     1      11.175   5.723  -1.156  1.00  0.00     0.019 A 
ATOM      8  C   UNL     1       9.876   5.847  -1.649  1.00  0.00     0.094 A 
ATOM      9  C   UNL     1       9.426   4.934  -2.610  1.00  0.00     0.336 A 
ATOM     10  O   UNL     1       8.257   5.029  -3.066  1.00  0.00    -0.246 OA
ATOM     11  O   UNL     1      10.227   3.965  -3.046  1.00  0.00    -0.423 OA
ENDROOT
BRANCH   3  12
ATOM     12  O   UNL     1      14.383   1.581  -3.120  1.00  0.00    -0.508 OA
ATOM     13  H   UNL     1      15.390   1.675  -3.180  1.00  0.00     0.293 HD
ENDBRANCH   3  12
TORSDOF 1
ENDMDL
MODEL 7
REMARK VINA RESULT:    -3.693      1.776      5.019
REMARK INTER + INTRA:          -3.801
REMARK INTER:                  -3.801
REMARK INTRA:                   0.000
REMARK UNBOUND:                 0.000
REMARK SMILES O=c1ccc2ccc(O)cc2o1
REMARK SMILES IDX 6 1 7 2 8 3 10 4 11 5 5 6 4 7 3 8 2 9 1 10 12 11 9 12
REMARK H PARENT 9 13
REMARK Flexibility Score: inf
ROOT
ATOM      1  C   UNL     1      11.579   5.202  -0.601  1.00  0.00     0.016 A 
ATOM      2  C   UNL     1      10.328   5.361  -1.206  1.00  0.00     0.047 A 
ATOM      3  C   UNL     1      10.047   4.735  -2.425  1.00  0.00     0.119 A 
ATOM      4  C   UNL     1      11.024   3.944  -3.048  1.00  0.00     0.094 A 
ATOM      5  C   UNL     1      12.278   3.779  -2.451  1.00  0.00     0.142 A 
ATOM      6  C   UNL     1      12.558   4.412  -1.219  1.00  0.00     0.018 A 
ATOM      7  C   UNL     1      13.820   4.229  -0.647  1.00  0.00     0.019 A 
ATOM      8  C   UNL     1      14.760   3.433  -1.301  1.00  0.00     0.094 A 
ATOM      9  C   UNL     1      14.412   2.836  -2.519  1.00  0.00     0.336 A 
ATOM     10  O   UNL     1      15.246   2.114  -3.125  1.00  0.00    -0.246 OA
ATOM     11  O   UNL     1      13.204   3.028  -3.042  1.00  0.00    -0.423 OA
ENDROOT
BRANCH   3  12
ATOM     12  O   UNL     1       8.795   4.905  -3.012  1.00  0.00    -0.508 OA
ATOM     13  H   UNL     1       8.583   5.713  -3.586  1.00  0.00     0.293 HD
ENDBRANCH   3  12
TORSDOF 1
ENDMDL
MODEL 8
REMARK VINA RESULT:    -3.438      3.373      6.767
REMARK INTER + INTRA:          -3.539
REMARK INTER:                  -3.539
REMARK INTRA:                   0.000
REMARK UNBOUND:                 0.000
REMARK SMILES O=c1ccc2ccc(O)cc2o1
REMARK SMILES IDX 6 1 7 2 8 3 10 4 11 5 5 6 4 7 3 8 2 9 1 10 12 11 9 12
REMARK H PARENT 9 13
REMARK Flexibility Score: inf
ROOT
ATOM      1  C   UNL     1       9.002   5.200  -2.960  1.00  0.00     0.016 A 
ATOM      2  C   UNL     1       8.385   6.323  -2.400  1.00  0.00     0.047 A 
ATOM      3  C   UNL     1       9.050   7.090  -1.437  1.00  0.00     0.119 A 
ATOM      4  C   UNL     1      10.343   6.732  -1.028  1.00  0.00     0.094 A 
ATOM      5  C   UNL     1      10.969   5.611  -1.583  1.00  0.00     0.142 A 
ATOM      6  C   UNL     1      10.294   4.838  -2.554  1.00  0.00     0.018 A 
ATOM      7  C   UNL     1      10.945   3.723  -3.089  1.00  0.00     0.019 A 
ATOM      8  C   UNL     1      12.231   3.406  -2.653  1.00  0.00     0.094 A 
ATOM      9  C   UNL     1      12.838   4.217  -1.687  1.00  0.00     0.336 A 
ATOM     10  O   UNL     1      13.998   3.947  -1.281  1.00  0.00    -0.246 OA
ATOM     11  O   UNL     1      12.196   5.273  -1.194  1.00  0.00    -0.423 OA
ENDROOT
BRANCH   3  12
ATOM     12  O   UNL     1       8.419   8.206  -0.892  1.00  0.00    -0.508 OA
ATOM     13  H   UNL     1       8.371   9.086  -1.392  1.00  0.00     0.293 HD
ENDBRANCH   3  12
TORSDOF 1
ENDMDL
MODEL 9
REMARK VINA RESULT:    -2.615      2.864      4.588
REMARK INTER + INTRA:          -2.691
REMARK INTER:                  -2.691
REMARK INTRA:                   0.000
REMARK UNBOUND:                 0.000
REMARK SMILES O=c1ccc2ccc(O)cc2o1
REMARK SMILES IDX 6 1 7 2 8 3 10 4 11 5 5 6 4 7 3 8 2 9 1 10 12 11 9 12
REMARK H PARENT 9 13
REMARK Flexibility Score: inf
ROOT
ATOM      1  C   UNL     1      11.593   3.275  -3.125  1.00  0.00     0.016 A 
ATOM      2  C   UNL     1      12.914   3.028  -2.739  1.00  0.00     0.047 A 
ATOM      3  C   UNL     1      13.560   3.881  -1.837  1.00  0.00     0.119 A 
ATOM      4  C   UNL     1      12.880   4.992  -1.316  1.00  0.00     0.094 A 
ATOM      5  C   UNL     1      11.558   5.248  -1.696  1.00  0.00     0.142 A 
ATOM      6  C   UNL     1      10.910   4.384  -2.607  1.00  0.00     0.018 A 
ATOM      7  C   UNL     1       9.590   4.665  -2.968  1.00  0.00     0.019 A 
ATOM      8  C   UNL     1       8.953   5.781  -2.424  1.00  0.00     0.094 A 
ATOM      9  C   UNL     1       9.658   6.592  -1.527  1.00  0.00     0.336 A 
ATOM     10  O   UNL     1       9.102   7.604  -1.025  1.00  0.00    -0.246 OA
ATOM     11  O   UNL     1      10.915   6.302  -1.200  1.00  0.00    -0.423 OA
ENDROOT
BRANCH   3  12
ATOM     12  O   UNL     1      14.876   3.618  -1.464  1.00  0.00    -0.508 OA
ATOM     13  H   UNL     1      15.643   4.202  -1.778  1.00  0.00     0.293 HD
ENDBRANCH   3  12
TORSDOF 1
ENDMDL
