MODEL 1
REMARK VINA RESULT:    -3.217      0.000      0.000
REMARK INTER + INTRA:          -4.131
REMARK INTER:                  -3.875
REMARK INTRA:                  -0.256
REMARK UNBOUND:                -0.256
REMARK SMILES O=c1c(O)c(-c2ccc(O)cc2O)oc2cc(O)cc(O)c12
REMARK SMILES IDX 5 1 3 2 2 3 1 4 22 5 20 6 19 7 17 8 16 9 15 10 14 11 6 12
REMARK SMILES IDX 8 13 7 14 9 15 11 16 12 17 10 18 13 20 4 22 21 24 18 26
REMARK H PARENT 10 19 13 21 4 23 21 25 18 27
REMARK Flexibility Score: inf
ROOT
ATOM      1  C   UNL     1      76.704  34.687  52.404  1.00  0.00     0.184 A 
ATOM      2  C   UNL     1      76.698  35.408  51.200  1.00  0.00     0.208 A 
ATOM      3  C   UNL     1      77.863  35.433  50.417  1.00  0.00     0.238 A 
ATOM      4  O   UNL     1      77.869  36.125  49.365  1.00  0.00    -0.285 OA
ATOM      5  C   UNL     1      79.011  34.722  50.841  1.00  0.00     0.111 A 
ATOM      6  C   UNL     1      80.233  34.644  50.107  1.00  0.00     0.134 A 
ATOM      7  C   UNL     1      81.346  34.020  50.684  1.00  0.00     0.093 A 
ATOM      8  C   UNL     1      81.265  33.417  51.938  1.00  0.00     0.123 A 
ATOM      9  C   UNL     1      80.059  33.435  52.639  1.00  0.00     0.094 A 
ATOM     10  C   UNL     1      78.940  34.080  52.105  1.00  0.00     0.146 A 
ATOM     11  O   UNL     1      77.814  34.085  52.810  1.00  0.00    -0.451 OA
ENDROOT
BRANCH   1  12
ATOM     12  C   UNL     1      75.506  34.608  53.267  1.00  0.00     0.063 A 
ATOM     13  C   UNL     1      73.786  35.758  54.543  1.00  0.00     0.047 A 
ATOM     14  C   UNL     1      74.915  35.797  53.721  1.00  0.00     0.020 A 
ATOM     15  C   UNL     1      73.242  34.528  54.932  1.00  0.00     0.119 A 
ATOM     16  C   UNL     1      73.838  33.339  54.503  1.00  0.00     0.093 A 
ATOM     17  C   UNL     1      74.975  33.370  53.682  1.00  0.00     0.130 A 
BRANCH  15  18
ATOM     18  O   UNL     1      72.114  34.477  55.749  1.00  0.00    -0.508 OA
ATOM     19  H   UNL     1      71.196  34.724  55.399  1.00  0.00     0.293 HD
ENDBRANCH  15  18
BRANCH  17  20
ATOM     20  O   UNL     1      75.589  32.175  53.302  1.00  0.00    -0.507 OA
ATOM     21  H   UNL     1      76.588  32.038  53.397  1.00  0.00     0.293 HD
ENDBRANCH  17  20
ENDBRANCH   1  12
BRANCH   2  22
ATOM     22  O   UNL     1      75.556  36.116  50.814  1.00  0.00    -0.502 OA
ATOM     23  H   UNL     1      74.747  35.662  50.407  1.00  0.00     0.293 HD
ENDBRANCH   2  22
BRANCH   6  24
ATOM     24  O   UNL     1      80.396  35.135  48.808  1.00  0.00    -0.507 OA
ATOM     25  H   UNL     1      79.641  35.420  48.202  1.00  0.00     0.293 HD
ENDBRANCH   6  24
BRANCH   8  26
ATOM     26  O   UNL     1      82.389  32.791  52.473  1.00  0.00    -0.508 OA
ATOM     27  H   UNL     1      82.800  31.975  52.035  1.00  0.00     0.293 HD
ENDBRANCH   8  26
TORSDOF 6
ENDMDL
MODEL 2
REMARK VINA RESULT:    -2.940     15.970     17.781
REMARK INTER + INTRA:          -3.798
REMARK INTER:                  -3.562
REMARK INTRA:                  -0.235
REMARK UNBOUND:                -0.256
REMARK SMILES O=c1c(O)c(-c2ccc(O)cc2O)oc2cc(O)cc(O)c12
REMARK SMILES IDX 5 1 3 2 2 3 1 4 22 5 20 6 19 7 17 8 16 9 15 10 14 11 6 12
REMARK SMILES IDX 8 13 7 14 9 15 11 16 12 17 10 18 13 20 4 22 21 24 18 26
REMARK H PARENT 10 19 13 21 4 23 21 25 18 27
REMARK Flexibility Score: inf
ROOT
ATOM      1  C   UNL     1      86.981  28.571  64.585  1.00  0.00     0.184 A 
ATOM      2  C   UNL     1      85.600  28.820  64.600  1.00  0.00     0.208 A 
ATOM      3  C   UNL     1      85.125  29.977  65.237  1.00  0.00     0.238 A 
ATOM      4  O   UNL     1      83.882  30.168  65.295  1.00  0.00    -0.285 OA
ATOM      5  C   UNL     1      86.039  30.877  65.835  1.00  0.00     0.111 A 
ATOM      6  C   UNL     1      85.673  32.102  66.472  1.00  0.00     0.134 A 
ATOM      7  C   UNL     1      86.649  32.849  67.143  1.00  0.00     0.093 A 
ATOM      8  C   UNL     1      87.985  32.453  67.145  1.00  0.00     0.123 A 
ATOM      9  C   UNL     1      88.364  31.290  66.475  1.00  0.00     0.094 A 
ATOM     10  C   UNL     1      87.409  30.504  65.827  1.00  0.00     0.146 A 
ATOM     11  O   UNL     1      87.810  29.397  65.210  1.00  0.00    -0.451 OA
ENDROOT
BRANCH   1  12
ATOM     12  C   UNL     1      87.548  27.380  63.918  1.00  0.00     0.063 A 
ATOM     13  C   UNL     1      87.590  24.961  63.670  1.00  0.00     0.047 A 
ATOM     14  C   UNL     1      87.072  26.108  64.275  1.00  0.00     0.020 A 
ATOM     15  C   UNL     1      88.601  25.071  62.707  1.00  0.00     0.119 A 
ATOM     16  C   UNL     1      89.097  26.331  62.361  1.00  0.00     0.093 A 
ATOM     17  C   UNL     1      88.586  27.487  62.970  1.00  0.00     0.130 A 
BRANCH  15  18
ATOM     18  O   UNL     1      89.122  23.934  62.093  1.00  0.00    -0.508 OA
ATOM     19  H   UNL     1      89.292  23.082  62.614  1.00  0.00     0.293 HD
ENDBRANCH  15  18
BRANCH  17  20
ATOM     20  O   UNL     1      89.125  28.734  62.651  1.00  0.00    -0.507 OA
ATOM     21  H   UNL     1      88.949  29.176  61.757  1.00  0.00     0.293 HD
ENDBRANCH  17  20
ENDBRANCH   1  12
BRANCH   2  22
ATOM     22  O   UNL     1      84.718  27.905  64.018  1.00  0.00    -0.502 OA
ATOM     23  H   UNL     1      85.015  27.231  63.323  1.00  0.00     0.293 HD
ENDBRANCH   2  22
BRANCH   6  24
ATOM     24  O   UNL     1      84.381  32.635  66.452  1.00  0.00    -0.507 OA
ATOM     25  H   UNL     1      83.538  32.107  66.621  1.00  0.00     0.293 HD
ENDBRANCH   6  24
BRANCH   8  26
ATOM     26  O   UNL     1      88.931  33.231  67.810  1.00  0.00    -0.508 OA
ATOM     27  H   UNL     1      89.913  32.983  67.813  1.00  0.00     0.293 HD
ENDBRANCH   8  26
TORSDOF 6
ENDMDL
MODEL 3
REMARK VINA RESULT:    -2.576     15.841     17.468
REMARK INTER + INTRA:          -3.359
REMARK INTER:                  -2.939
REMARK INTRA:                  -0.419
REMARK UNBOUND:                -0.256
REMARK SMILES O=c1c(O)c(-c2ccc(O)cc2O)oc2cc(O)cc(O)c12
REMARK SMILES IDX 5 1 3 2 2 3 1 4 22 5 20 6 19 7 17 8 16 9 15 10 14 11 6 12
REMARK SMILES IDX 8 13 7 14 9 15 11 16 12 17 10 18 13 20 4 22 21 24 18 26
REMARK H PARENT 10 19 13 21 4 23 21 25 18 27
REMARK Flexibility Score: inf
ROOT
ATOM      1  C   UNL     1      86.883  31.087  65.454  1.00  0.00     0.184 A 
ATOM      2  C   UNL     1      85.497  30.898  65.352  1.00  0.00     0.208 A 
ATOM      3  C   UNL     1      85.006  29.631  64.998  1.00  0.00     0.238 A 
ATOM      4  O   UNL     1      83.764  29.482  64.856  1.00  0.00    -0.285 OA
ATOM      5  C   UNL     1      85.910  28.566  64.769  1.00  0.00     0.111 A 
ATOM      6  C   UNL     1      85.523  27.230  64.444  1.00  0.00     0.134 A 
ATOM      7  C   UNL     1      86.505  26.290  64.110  1.00  0.00     0.093 A 
ATOM      8  C   UNL     1      87.860  26.616  64.152  1.00  0.00     0.123 A 
ATOM      9  C   UNL     1      88.252  27.902  64.525  1.00  0.00     0.094 A 
ATOM     10  C   UNL     1      87.295  28.873  64.829  1.00  0.00     0.146 A 
ATOM     11  O   UNL     1      87.710  30.088  65.169  1.00  0.00    -0.451 OA
ENDROOT
BRANCH   1  12
ATOM     12  C   UNL     1      87.463  32.391  65.838  1.00  0.00     0.063 A 
ATOM     13  C   UNL     1      88.067  34.661  65.210  1.00  0.00     0.047 A 
ATOM     14  C   UNL     1      87.519  33.418  64.883  1.00  0.00     0.020 A 
ATOM     15  C   UNL     1      88.578  34.887  66.494  1.00  0.00     0.119 A 
ATOM     16  C   UNL     1      88.548  33.863  67.444  1.00  0.00     0.093 A 
ATOM     17  C   UNL     1      88.005  32.610  67.121  1.00  0.00     0.130 A 
BRANCH  15  18
ATOM     18  O   UNL     1      89.124  36.124  66.833  1.00  0.00    -0.508 OA
ATOM     19  H   UNL     1      88.553  36.961  66.873  1.00  0.00     0.293 HD
ENDBRANCH  15  18
BRANCH  17  20
ATOM     20  O   UNL     1      88.026  31.582  68.064  1.00  0.00    -0.507 OA
ATOM     21  H   UNL     1      88.303  31.746  69.024  1.00  0.00     0.293 HD
ENDBRANCH  17  20
ENDBRANCH   1  12
BRANCH   2  22
ATOM     22  O   UNL     1      84.627  31.972  65.567  1.00  0.00    -0.502 OA
ATOM     23  H   UNL     1      84.474  32.694  64.873  1.00  0.00     0.293 HD
ENDBRANCH   2  22
BRANCH   6  24
ATOM     24  O   UNL     1      84.202  26.775  64.462  1.00  0.00    -0.507 OA
ATOM     25  H   UNL     1      83.895  25.884  64.101  1.00  0.00     0.293 HD
ENDBRANCH   6  24
BRANCH   8  26
ATOM     26  O   UNL     1      88.809  25.649  63.829  1.00  0.00    -0.508 OA
ATOM     27  H   UNL     1      88.801  24.733  64.261  1.00  0.00     0.293 HD
ENDBRANCH   8  26
TORSDOF 6
ENDMDL
MODEL 4
REMARK VINA RESULT:    -2.536     14.657     17.813
REMARK INTER + INTRA:          -3.311
REMARK INTER:                  -2.941
REMARK INTRA:                  -0.371
REMARK UNBOUND:                -0.256
REMARK SMILES O=c1c(O)c(-c2ccc(O)cc2O)oc2cc(O)cc(O)c12
REMARK SMILES IDX 5 1 3 2 2 3 1 4 22 5 20 6 19 7 17 8 16 9 15 10 14 11 6 12
REMARK SMILES IDX 8 13 7 14 9 15 11 16 12 17 10 18 13 20 4 22 21 24 18 26
REMARK H PARENT 10 19 13 21 4 23 21 25 18 27
REMARK Flexibility Score: inf
ROOT
ATOM      1  C   UNL     1      87.155  28.711  64.762  1.00  0.00     0.184 A 
ATOM      2  C   UNL     1      87.868  29.285  65.825  1.00  0.00     0.208 A 
ATOM      3  C   UNL     1      87.316  30.384  66.501  1.00  0.00     0.238 A 
ATOM      4  O   UNL     1      87.984  30.928  67.419  1.00  0.00    -0.285 OA
ATOM      5  C   UNL     1      86.049  30.884  66.114  1.00  0.00     0.111 A 
ATOM      6  C   UNL     1      85.375  31.968  66.753  1.00  0.00     0.134 A 
ATOM      7  C   UNL     1      84.186  32.462  66.203  1.00  0.00     0.093 A 
ATOM      8  C   UNL     1      83.613  31.872  65.078  1.00  0.00     0.123 A 
ATOM      9  C   UNL     1      84.232  30.775  64.479  1.00  0.00     0.094 A 
ATOM     10  C   UNL     1      85.438  30.281  64.983  1.00  0.00     0.146 A 
ATOM     11  O   UNL     1      86.000  29.241  64.377  1.00  0.00    -0.451 OA
ENDROOT
BRANCH   1  12
ATOM     12  C   UNL     1      87.672  27.542  64.020  1.00  0.00     0.063 A 
ATOM     13  C   UNL     1      87.713  25.131  63.710  1.00  0.00     0.047 A 
ATOM     14  C   UNL     1      87.239  26.258  64.386  1.00  0.00     0.020 A 
ATOM     15  C   UNL     1      88.638  25.274  62.668  1.00  0.00     0.119 A 
ATOM     16  C   UNL     1      89.092  26.547  62.313  1.00  0.00     0.093 A 
ATOM     17  C   UNL     1      88.625  27.683  62.991  1.00  0.00     0.130 A 
BRANCH  15  18
ATOM     18  O   UNL     1      89.115  24.157  61.985  1.00  0.00    -0.508 OA
ATOM     19  H   UNL     1      88.573  23.304  61.922  1.00  0.00     0.293 HD
ENDBRANCH  15  18
BRANCH  17  20
ATOM     20  O   UNL     1      89.125  28.943  62.659  1.00  0.00    -0.507 OA
ATOM     21  H   UNL     1      90.083  29.072  62.358  1.00  0.00     0.293 HD
ENDBRANCH  17  20
ENDBRANCH   1  12
BRANCH   2  22
ATOM     22  O   UNL     1      89.125  28.782  66.176  1.00  0.00    -0.502 OA
ATOM     23  H   UNL     1      89.245  28.055  66.870  1.00  0.00     0.293 HD
ENDBRANCH   2  22
BRANCH   6  24
ATOM     24  O   UNL     1      85.815  32.571  67.935  1.00  0.00    -0.507 OA
ATOM     25  H   UNL     1      86.753  32.906  68.096  1.00  0.00     0.293 HD
ENDBRANCH   6  24
BRANCH   8  26
ATOM     26  O   UNL     1      82.420  32.381  64.568  1.00  0.00    -0.508 OA
ATOM     27  H   UNL     1      81.555  32.330  65.094  1.00  0.00     0.293 HD
ENDBRANCH   8  26
TORSDOF 6
ENDMDL
MODEL 5
REMARK VINA RESULT:    -2.000      1.378      3.195
REMARK INTER + INTRA:          -2.666
REMARK INTER:                  -3.192
REMARK INTRA:                   0.526
REMARK UNBOUND:                -0.256
REMARK SMILES O=c1c(O)c(-c2ccc(O)cc2O)oc2cc(O)cc(O)c12
REMARK SMILES IDX 5 1 3 2 2 3 1 4 22 5 20 6 19 7 17 8 16 9 15 10 14 11 6 12
REMARK SMILES IDX 8 13 7 14 9 15 11 16 12 17 10 18 13 20 4 22 21 24 18 26
REMARK H PARENT 10 19 13 21 4 23 21 25 18 27
REMARK Flexibility Score: inf
ROOT
ATOM      1  C   UNL     1      77.166  33.699  52.298  1.00  0.00     0.184 A 
ATOM      2  C   UNL     1      78.003  32.706  52.829  1.00  0.00     0.208 A 
ATOM      3  C   UNL     1      79.324  32.607  52.363  1.00  0.00     0.238 A 
ATOM      4  O   UNL     1      80.053  31.681  52.804  1.00  0.00    -0.285 OA
ATOM      5  C   UNL     1      79.793  33.515  51.383  1.00  0.00     0.111 A 
ATOM      6  C   UNL     1      81.124  33.534  50.866  1.00  0.00     0.134 A 
ATOM      7  C   UNL     1      81.441  34.391  49.806  1.00  0.00     0.093 A 
ATOM      8  C   UNL     1      80.496  35.275  49.287  1.00  0.00     0.123 A 
ATOM      9  C   UNL     1      79.208  35.307  49.823  1.00  0.00     0.094 A 
ATOM     10  C   UNL     1      78.851  34.439  50.858  1.00  0.00     0.146 A 
ATOM     11  O   UNL     1      77.612  34.493  51.333  1.00  0.00    -0.451 OA
ENDROOT
BRANCH   1  12
ATOM     12  C   UNL     1      75.771  33.866  52.757  1.00  0.00     0.063 A 
ATOM     13  C   UNL     1      73.857  32.965  53.956  1.00  0.00     0.047 A 
ATOM     14  C   UNL     1      75.176  32.842  53.511  1.00  0.00     0.020 A 
ATOM     15  C   UNL     1      73.113  34.108  53.640  1.00  0.00     0.119 A 
ATOM     16  C   UNL     1      73.690  35.122  52.870  1.00  0.00     0.093 A 
ATOM     17  C   UNL     1      75.012  35.003  52.414  1.00  0.00     0.130 A 
BRANCH  15  18
ATOM     18  O   UNL     1      71.798  34.243  54.081  1.00  0.00    -0.508 OA
ATOM     19  H   UNL     1      71.142  34.856  53.611  1.00  0.00     0.293 HD
ENDBRANCH  15  18
BRANCH  17  20
ATOM     20  O   UNL     1      75.558  36.000  51.605  1.00  0.00    -0.507 OA
ATOM     21  H   UNL     1      76.456  36.421  51.814  1.00  0.00     0.293 HD
ENDBRANCH  17  20
ENDBRANCH   1  12
BRANCH   2  22
ATOM     22  O   UNL     1      77.509  31.811  53.783  1.00  0.00    -0.502 OA
ATOM     23  H   UNL     1      76.652  31.982  54.295  1.00  0.00     0.293 HD
ENDBRANCH   2  22
BRANCH   6  24
ATOM     24  O   UNL     1      82.168  32.756  51.374  1.00  0.00    -0.507 OA
ATOM     25  H   UNL     1      82.374  32.639  52.355  1.00  0.00     0.293 HD
ENDBRANCH   6  24
BRANCH   8  26
ATOM     26  O   UNL     1      80.852  36.125  48.242  1.00  0.00    -0.508 OA
ATOM     27  H   UNL     1      81.642  35.923  47.641  1.00  0.00     0.293 HD
ENDBRANCH   8  26
TORSDOF 6
ENDMDL
MODEL 6
REMARK VINA RESULT:    -1.950     14.476     17.240
REMARK INTER + INTRA:          -2.605
REMARK INTER:                  -2.237
REMARK INTRA:                  -0.368
REMARK UNBOUND:                -0.256
REMARK SMILES O=c1c(O)c(-c2ccc(O)cc2O)oc2cc(O)cc(O)c12
REMARK SMILES IDX 5 1 3 2 2 3 1 4 22 5 20 6 19 7 17 8 16 9 15 10 14 11 6 12
REMARK SMILES IDX 8 13 7 14 9 15 11 16 12 17 10 18 13 20 4 22 21 24 18 26
REMARK H PARENT 10 19 13 21 4 23 21 25 18 27
REMARK Flexibility Score: inf
ROOT
ATOM      1  C   UNL     1      87.685  31.149  64.949  1.00  0.00     0.184 A 
ATOM      2  C   UNL     1      88.409  31.715  66.009  1.00  0.00     0.208 A 
ATOM      3  C   UNL     1      88.428  33.111  66.152  1.00  0.00     0.238 A 
ATOM      4  O   UNL     1      89.123  33.615  67.073  1.00  0.00    -0.285 OA
ATOM      5  C   UNL     1      87.710  33.921  65.240  1.00  0.00     0.111 A 
ATOM      6  C   UNL     1      87.626  35.345  65.312  1.00  0.00     0.134 A 
ATOM      7  C   UNL     1      86.994  36.052  64.281  1.00  0.00     0.093 A 
ATOM      8  C   UNL     1      86.388  35.386  63.217  1.00  0.00     0.123 A 
ATOM      9  C   UNL     1      86.412  33.993  63.167  1.00  0.00     0.094 A 
ATOM     10  C   UNL     1      87.065  33.260  64.161  1.00  0.00     0.146 A 
ATOM     11  O   UNL     1      87.075  31.935  64.071  1.00  0.00    -0.451 OA
ENDROOT
BRANCH   1  12
ATOM     12  C   UNL     1      87.610  29.686  64.753  1.00  0.00     0.063 A 
ATOM     13  C   UNL     1      88.742  27.602  64.218  1.00  0.00     0.047 A 
ATOM     14  C   UNL     1      88.778  28.984  64.416  1.00  0.00     0.020 A 
ATOM     15  C   UNL     1      87.533  26.906  64.340  1.00  0.00     0.119 A 
ATOM     16  C   UNL     1      86.361  27.600  64.651  1.00  0.00     0.093 A 
ATOM     17  C   UNL     1      86.388  28.989  64.846  1.00  0.00     0.130 A 
BRANCH  15  18
ATOM     18  O   UNL     1      87.486  25.526  64.147  1.00  0.00    -0.508 OA
ATOM     19  H   UNL     1      86.738  24.963  64.534  1.00  0.00     0.293 HD
ENDBRANCH  15  18
BRANCH  17  20
ATOM     20  O   UNL     1      85.202  29.675  65.108  1.00  0.00    -0.507 OA
ATOM     21  H   UNL     1      84.637  30.065  64.363  1.00  0.00     0.293 HD
ENDBRANCH  17  20
ENDBRANCH   1  12
BRANCH   2  22
ATOM     22  O   UNL     1      89.124  30.892  66.884  1.00  0.00    -0.502 OA
ATOM     23  H   UNL     1      89.608  31.255  67.697  1.00  0.00     0.293 HD
ENDBRANCH   2  22
BRANCH   6  24
ATOM     24  O   UNL     1      88.119  36.102  66.378  1.00  0.00    -0.507 OA
ATOM     25  H   UNL     1      89.082  36.113  66.679  1.00  0.00     0.293 HD
ENDBRANCH   6  24
BRANCH   8  26
ATOM     26  O   UNL     1      85.755  36.123  62.218  1.00  0.00    -0.508 OA
ATOM     27  H   UNL     1      86.214  36.904  61.764  1.00  0.00     0.293 HD
ENDBRANCH   8  26
TORSDOF 6
ENDMDL
MODEL 7
REMARK VINA RESULT:    -1.577     14.906     17.785
REMARK INTER + INTRA:          -2.156
REMARK INTER:                  -1.737
REMARK INTRA:                  -0.419
REMARK UNBOUND:                -0.256
REMARK SMILES O=c1c(O)c(-c2ccc(O)cc2O)oc2cc(O)cc(O)c12
REMARK SMILES IDX 5 1 3 2 2 3 1 4 22 5 20 6 19 7 17 8 16 9 15 10 14 11 6 12
REMARK SMILES IDX 8 13 7 14 9 15 11 16 12 17 10 18 13 20 4 22 21 24 18 26
REMARK H PARENT 10 19 13 21 4 23 21 25 18 27
REMARK Flexibility Score: inf
ROOT
ATOM      1  C   UNL     1      87.835  29.202  64.748  1.00  0.00     0.184 A 
ATOM      2  C   UNL     1      88.435  29.511  65.979  1.00  0.00     0.208 A 
ATOM      3  C   UNL     1      88.359  30.828  66.461  1.00  0.00     0.238 A 
ATOM      4  O   UNL     1      88.944  31.112  67.539  1.00  0.00    -0.285 OA
ATOM      5  C   UNL     1      87.670  31.812  65.712  1.00  0.00     0.111 A 
ATOM      6  C   UNL     1      87.495  33.168  66.123  1.00  0.00     0.134 A 
ATOM      7  C   UNL     1      86.909  34.086  65.243  1.00  0.00     0.093 A 
ATOM      8  C   UNL     1      86.432  33.685  63.996  1.00  0.00     0.123 A 
ATOM      9  C   UNL     1      86.544  32.350  63.608  1.00  0.00     0.094 A 
ATOM     10  C   UNL     1      87.157  31.418  64.449  1.00  0.00     0.146 A 
ATOM     11  O   UNL     1      87.253  30.159  64.037  1.00  0.00    -0.451 OA
ENDROOT
BRANCH   1  12
ATOM     12  C   UNL     1      87.865  27.833  64.193  1.00  0.00     0.063 A 
ATOM     13  C   UNL     1      89.118  26.068  63.085  1.00  0.00     0.047 A 
ATOM     14  C   UNL     1      89.057  27.355  63.624  1.00  0.00     0.020 A 
ATOM     15  C   UNL     1      87.983  25.247  63.095  1.00  0.00     0.119 A 
ATOM     16  C   UNL     1      86.787  25.723  63.638  1.00  0.00     0.093 A 
ATOM     17  C   UNL     1      86.716  27.016  64.176  1.00  0.00     0.130 A 
BRANCH  15  18
ATOM     18  O   UNL     1      88.034  23.960  62.562  1.00  0.00    -0.508 OA
ATOM     19  H   UNL     1      87.697  23.159  63.083  1.00  0.00     0.293 HD
ENDBRANCH  15  18
BRANCH  17  20
ATOM     20  O   UNL     1      85.502  27.496  64.670  1.00  0.00    -0.507 OA
ATOM     21  H   UNL     1      85.433  27.925  65.585  1.00  0.00     0.293 HD
ENDBRANCH  17  20
ENDBRANCH   1  12
BRANCH   2  22
ATOM     22  O   UNL     1      89.125  28.524  66.689  1.00  0.00    -0.502 OA
ATOM     23  H   UNL     1      88.734  28.069  67.505  1.00  0.00     0.293 HD
ENDBRANCH   2  22
BRANCH   6  24
ATOM     24  O   UNL     1      87.853  33.653  67.384  1.00  0.00    -0.507 OA
ATOM     25  H   UNL     1      87.199  33.905  68.111  1.00  0.00     0.293 HD
ENDBRANCH   6  24
BRANCH   8  26
ATOM     26  O   UNL     1      85.840  34.623  63.153  1.00  0.00    -0.508 OA
ATOM     27  H   UNL     1      86.031  34.636  62.158  1.00  0.00     0.293 HD
ENDBRANCH   8  26
TORSDOF 6
ENDMDL
MODEL 8
REMARK VINA RESULT:    -1.485      1.366      1.688
REMARK INTER + INTRA:          -2.045
REMARK INTER:                  -2.721
REMARK INTRA:                   0.676
REMARK UNBOUND:                -0.256
REMARK SMILES O=c1c(O)c(-c2ccc(O)cc2O)oc2cc(O)cc(O)c12
REMARK SMILES IDX 5 1 3 2 2 3 1 4 22 5 20 6 19 7 17 8 16 9 15 10 14 11 6 12
REMARK SMILES IDX 8 13 7 14 9 15 11 16 12 17 10 18 13 20 4 22 21 24 18 26
REMARK H PARENT 10 19 13 21 4 23 21 25 18 27
REMARK Flexibility Score: inf
ROOT
ATOM      1  C   UNL     1      76.100  34.080  52.779  1.00  0.00     0.184 A 
ATOM      2  C   UNL     1      76.454  35.096  51.877  1.00  0.00     0.208 A 
ATOM      3  C   UNL     1      77.733  35.077  51.298  1.00  0.00     0.238 A 
ATOM      4  O   UNL     1      78.064  36.019  50.532  1.00  0.00    -0.285 OA
ATOM      5  C   UNL     1      78.634  34.033  51.617  1.00  0.00     0.111 A 
ATOM      6  C   UNL     1      79.941  33.891  51.060  1.00  0.00     0.134 A 
ATOM      7  C   UNL     1      80.794  32.893  51.546  1.00  0.00     0.093 A 
ATOM      8  C   UNL     1      80.368  31.992  52.521  1.00  0.00     0.123 A 
ATOM      9  C   UNL     1      79.073  32.084  53.030  1.00  0.00     0.094 A 
ATOM     10  C   UNL     1      78.210  33.091  52.591  1.00  0.00     0.146 A 
ATOM     11  O   UNL     1      76.988  33.151  53.110  1.00  0.00    -0.451 OA
ENDROOT
BRANCH   1  12
ATOM     12  C   UNL     1      74.765  34.033  53.410  1.00  0.00     0.063 A 
ATOM     13  C   UNL     1      73.416  33.603  55.387  1.00  0.00     0.047 A 
ATOM     14  C   UNL     1      74.663  33.664  54.761  1.00  0.00     0.020 A 
ATOM     15  C   UNL     1      72.252  33.897  54.665  1.00  0.00     0.119 A 
ATOM     16  C   UNL     1      72.342  34.243  53.314  1.00  0.00     0.093 A 
ATOM     17  C   UNL     1      73.591  34.300  52.677  1.00  0.00     0.130 A 
BRANCH  15  18
ATOM     18  O   UNL     1      71.003  33.843  55.280  1.00  0.00    -0.508 OA
ATOM     19  H   UNL     1      70.891  34.037  56.268  1.00  0.00     0.293 HD
ENDBRANCH  15  18
BRANCH  17  20
ATOM     20  O   UNL     1      73.661  34.598  51.315  1.00  0.00    -0.507 OA
ATOM     21  H   UNL     1      72.855  34.507  50.709  1.00  0.00     0.293 HD
ENDBRANCH  17  20
ENDBRANCH   1  12
BRANCH   2  22
ATOM     22  O   UNL     1      75.551  36.125  51.594  1.00  0.00    -0.502 OA
ATOM     23  H   UNL     1      75.731  37.090  51.845  1.00  0.00     0.293 HD
ENDBRANCH   2  22
BRANCH   6  24
ATOM     24  O   UNL     1      80.434  34.681  50.018  1.00  0.00    -0.507 OA
ATOM     25  H   UNL     1      80.218  34.546  49.041  1.00  0.00     0.293 HD
ENDBRANCH   6  24
BRANCH   8  26
ATOM     26  O   UNL     1      81.239  31.001  52.969  1.00  0.00    -0.508 OA
ATOM     27  H   UNL     1      80.940  30.291  53.627  1.00  0.00     0.293 HD
ENDBRANCH   8  26
TORSDOF 6
ENDMDL
MODEL 9
REMARK VINA RESULT:    -1.441      1.489      6.316
REMARK INTER + INTRA:          -1.992
REMARK INTER:                  -1.816
REMARK INTRA:                  -0.176
REMARK UNBOUND:                -0.256
REMARK SMILES O=c1c(O)c(-c2ccc(O)cc2O)oc2cc(O)cc(O)c12
REMARK SMILES IDX 5 1 3 2 2 3 1 4 22 5 20 6 19 7 17 8 16 9 15 10 14 11 6 12
REMARK SMILES IDX 8 13 7 14 9 15 11 16 12 17 10 18 13 20 4 22 21 24 18 26
REMARK H PARENT 10 19 13 21 4 23 21 25 18 27
REMARK Flexibility Score: inf
ROOT
ATOM      1  C   UNL     1      77.222  34.225  52.290  1.00  0.00     0.184 A 
ATOM      2  C   UNL     1      76.672  35.103  51.343  1.00  0.00     0.208 A 
ATOM      3  C   UNL     1      75.296  35.377  51.387  1.00  0.00     0.238 A 
ATOM      4  O   UNL     1      74.799  36.122  50.502  1.00  0.00    -0.285 OA
ATOM      5  C   UNL     1      74.492  34.781  52.389  1.00  0.00     0.111 A 
ATOM      6  C   UNL     1      73.093  35.019  52.553  1.00  0.00     0.134 A 
ATOM      7  C   UNL     1      72.374  34.275  53.497  1.00  0.00     0.093 A 
ATOM      8  C   UNL     1      73.010  33.352  54.325  1.00  0.00     0.123 A 
ATOM      9  C   UNL     1      74.387  33.155  54.213  1.00  0.00     0.094 A 
ATOM     10  C   UNL     1      75.127  33.855  53.257  1.00  0.00     0.146 A 
ATOM     11  O   UNL     1      76.433  33.630  53.176  1.00  0.00    -0.451 OA
ENDROOT
BRANCH   1  12
ATOM     12  C   UNL     1      78.665  33.908  52.309  1.00  0.00     0.063 A 
ATOM     13  C   UNL     1      80.965  34.694  52.249  1.00  0.00     0.047 A 
ATOM     14  C   UNL     1      79.594  34.958  52.240  1.00  0.00     0.020 A 
ATOM     15  C   UNL     1      81.425  33.372  52.313  1.00  0.00     0.119 A 
ATOM     16  C   UNL     1      80.508  32.319  52.359  1.00  0.00     0.093 A 
ATOM     17  C   UNL     1      79.129  32.577  52.344  1.00  0.00     0.130 A 
BRANCH  15  18
ATOM     18  O   UNL     1      82.791  33.096  52.327  1.00  0.00    -0.508 OA
ATOM     19  H   UNL     1      83.166  32.260  51.895  1.00  0.00     0.293 HD
ENDBRANCH  15  18
BRANCH  17  20
ATOM     20  O   UNL     1      78.225  31.514  52.340  1.00  0.00    -0.507 OA
ATOM     21  H   UNL     1      78.457  30.617  52.750  1.00  0.00     0.293 HD
ENDBRANCH  17  20
ENDBRANCH   1  12
BRANCH   2  22
ATOM     22  O   UNL     1      77.485  35.663  50.354  1.00  0.00    -0.502 OA
ATOM     23  H   UNL     1      78.213  36.335  50.565  1.00  0.00     0.293 HD
ENDBRANCH   2  22
BRANCH   6  24
ATOM     24  O   UNL     1      72.377  35.983  51.840  1.00  0.00    -0.507 OA
ATOM     25  H   UNL     1      72.225  36.932  52.147  1.00  0.00     0.293 HD
ENDBRANCH   6  24
BRANCH   8  26
ATOM     26  O   UNL     1      72.264  32.643  55.263  1.00  0.00    -0.508 OA
ATOM     27  H   UNL     1      72.128  32.992  56.205  1.00  0.00     0.293 HD
ENDBRANCH   8  26
TORSDOF 6
ENDMDL
