MODEL 1
REMARK VINA RESULT:    -7.545      0.000      0.000
REMARK INTER + INTRA:         -14.963
REMARK INTER:                 -12.397
REMARK INTRA:                  -2.566
REMARK UNBOUND:                -2.566
REMARK SMILES C[C@H]1O[C@H](OC[C@@H]2O[C@@H](Oc3c(-c4ccc(O)c(O)c4)oc4cc(O)cc(O)c4c3=O)[C@@H](O)[C@H](O)[C@H]2O)[C@@H](O)[C@H](O)[C@H]1O
REMARK SMILES IDX 7 1 36 2 34 3 32 4 9 5 8 6 6 7 5 8 4 9 1 10 2 11 42 12 3 13
REMARK SMILES IDX 40 14 38 15 43 16 41 18 39 20 37 22 35 24 10 26 11 27 12 28
REMARK SMILES IDX 30 29 21 30 29 31 31 32 22 33 27 34 23 35 26 36 24 37 13 38
REMARK SMILES IDX 20 39 14 40 18 41 15 42 16 43 19 44 17 46 28 48 25 50 33 52
REMARK H PARENT 43 17 41 19 39 21 37 23 35 25 19 45 17 47 28 49 25 51 33 53
REMARK Flexibility Score: inf
ROOT
ATOM      1  C   UNL     1     -15.694 -18.628  16.521  1.00  0.00     0.180 C 
ATOM      2  C   UNL     1     -16.273 -17.224  16.275  1.00  0.00     0.177 C 
ATOM      3  C   UNL     1     -17.759 -17.083  16.315  1.00  0.00     0.180 C 
ATOM      4  C   UNL     1     -18.537 -18.358  16.873  1.00  0.00     0.214 C 
ATOM      5  C   UNL     1     -17.967 -19.492  16.159  1.00  0.00     0.339 C 
ATOM      6  O   UNL     1     -16.611 -19.753  16.616  1.00  0.00    -0.332 OA
ENDROOT
BRANCH   1   7
ATOM      7  C   UNL     1     -14.613 -18.912  15.414  1.00  0.00     0.198 C 
BRANCH   7   8
ATOM      8  O   UNL     1     -13.790 -20.007  15.814  1.00  0.00    -0.347 OA
BRANCH   8   9
ATOM      9  C   UNL     1     -13.125 -20.702  14.768  1.00  0.00     0.281 C 
ATOM     10  C   UNL     1     -11.281 -23.389  16.626  1.00  0.00     0.041 C 
ATOM     11  C   UNL     1     -12.476 -22.606  16.047  1.00  0.00     0.150 C 
ATOM     12  C   UNL     1     -13.457 -23.535  15.295  1.00  0.00     0.174 C 
ATOM     13  O   UNL     1     -12.034 -21.481  15.311  1.00  0.00    -0.344 OA
ATOM     14  C   UNL     1     -14.647 -22.737  14.757  1.00  0.00     0.179 C 
ATOM     15  C   UNL     1     -14.198 -21.487  13.982  1.00  0.00     0.202 C 
BRANCH  12  16
ATOM     16  O   UNL     1     -12.771 -24.221  14.248  1.00  0.00    -0.388 OA
ATOM     17  H   UNL     1     -13.231 -23.975  13.379  1.00  0.00     0.211 HD
ENDBRANCH  12  16
BRANCH  14  18
ATOM     18  O   UNL     1     -15.443 -22.348  15.841  1.00  0.00    -0.387 OA
ATOM     19  H   UNL     1     -15.011 -21.588  16.306  1.00  0.00     0.211 HD
ENDBRANCH  14  18
BRANCH  15  20
ATOM     20  O   UNL     1     -13.696 -21.783  12.710  1.00  0.00    -0.385 OA
ATOM     21  H   UNL     1     -12.720 -21.468  12.752  1.00  0.00     0.211 HD
ENDBRANCH  15  20
ENDBRANCH   8   9
ENDBRANCH   7   8
ENDBRANCH   1   7
BRANCH   2  22
ATOM     22  O   UNL     1     -15.445 -16.274  17.002  1.00  0.00    -0.387 OA
ATOM     23  H   UNL     1     -14.400 -16.263  16.944  1.00  0.00     0.211 HD
ENDBRANCH   2  22
BRANCH   3  24
ATOM     24  O   UNL     1     -18.349 -16.846  14.974  1.00  0.00    -0.387 OA
ATOM     25  H   UNL     1     -18.349 -17.739  14.385  1.00  0.00     0.211 HD
ENDBRANCH   3  24
BRANCH   5  26
ATOM     26  O   UNL     1     -18.868 -20.617  16.542  1.00  0.00    -0.454 OA
BRANCH  26  27
ATOM     27  C   UNL     1     -19.898 -21.078  15.679  1.00  0.00     0.214 A 
ATOM     28  C   UNL     1     -21.180 -20.488  15.552  1.00  0.00     0.180 A 
ATOM     29  C   UNL     1     -19.596 -22.163  14.803  1.00  0.00     0.239 A 
ATOM     30  O   UNL     1     -21.909 -20.792  14.454  1.00  0.00    -0.452 OA
ATOM     31  C   UNL     1     -20.606 -22.717  13.992  1.00  0.00     0.111 A 
ATOM     32  O   UNL     1     -18.382 -22.476  14.544  1.00  0.00    -0.285 OA
ATOM     33  C   UNL     1     -21.638 -21.830  13.639  1.00  0.00     0.146 A 
ATOM     34  C   UNL     1     -20.495 -23.984  13.344  1.00  0.00     0.134 A 
ATOM     35  C   UNL     1     -22.525 -22.116  12.590  1.00  0.00     0.094 A 
ATOM     36  C   UNL     1     -21.593 -24.372  12.475  1.00  0.00     0.093 A 
ATOM     37  C   UNL     1     -22.570 -23.440  12.072  1.00  0.00     0.123 A 
BRANCH  28  38
ATOM     38  C   UNL     1     -21.864 -19.726  16.578  1.00  0.00     0.025 A 
ATOM     39  C   UNL     1     -22.107 -20.224  17.877  1.00  0.00     0.062 A 
ATOM     40  C   UNL     1     -22.219 -18.408  16.271  1.00  0.00     0.016 A 
ATOM     41  C   UNL     1     -22.571 -19.346  18.886  1.00  0.00     0.158 A 
ATOM     42  C   UNL     1     -22.879 -17.606  17.213  1.00  0.00     0.051 A 
ATOM     43  C   UNL     1     -22.906 -18.050  18.540  1.00  0.00     0.157 A 
BRANCH  41  44
ATOM     44  O   UNL     1     -22.522 -19.833  20.186  1.00  0.00    -0.504 OA
ATOM     45  H   UNL     1     -21.630 -19.932  20.665  1.00  0.00     0.293 HD
ENDBRANCH  41  44
BRANCH  43  46
ATOM     46  O   UNL     1     -23.467 -17.202  19.485  1.00  0.00    -0.504 OA
ATOM     47  H   UNL     1     -23.611 -17.487  20.451  1.00  0.00     0.293 HD
ENDBRANCH  43  46
ENDBRANCH  28  38
BRANCH  34  48
ATOM     48  O   UNL     1     -19.441 -24.868  13.725  1.00  0.00    -0.507 OA
ATOM     49  H   UNL     1     -19.592 -25.875  13.605  1.00  0.00     0.293 HD
ENDBRANCH  34  48
BRANCH  37  50
ATOM     50  O   UNL     1     -23.654 -23.848  11.310  1.00  0.00    -0.508 OA
ATOM     51  H   UNL     1     -23.566 -23.687  10.308  1.00  0.00     0.293 HD
ENDBRANCH  37  50
ENDBRANCH  26  27
ENDBRANCH   5  26
BRANCH   4  52
ATOM     52  O   UNL     1     -18.679 -18.754  18.269  1.00  0.00    -0.384 OA
ATOM     53  H   UNL     1     -17.910 -18.205  18.649  1.00  0.00     0.211 HD
ENDBRANCH   4  52
TORSDOF 16
ENDMDL
MODEL 2
REMARK VINA RESULT:    -7.448      1.092      1.555
REMARK INTER + INTRA:         -14.804
REMARK INTER:                 -12.420
REMARK INTRA:                  -2.384
REMARK UNBOUND:                -2.566
REMARK SMILES C[C@H]1O[C@H](OC[C@@H]2O[C@@H](Oc3c(-c4ccc(O)c(O)c4)oc4cc(O)cc(O)c4c3=O)[C@@H](O)[C@H](O)[C@H]2O)[C@@H](O)[C@H](O)[C@H]1O
REMARK SMILES IDX 7 1 36 2 34 3 32 4 9 5 8 6 6 7 5 8 4 9 1 10 2 11 42 12 3 13
REMARK SMILES IDX 40 14 38 15 43 16 41 18 39 20 37 22 35 24 10 26 11 27 12 28
REMARK SMILES IDX 30 29 21 30 29 31 31 32 22 33 27 34 23 35 26 36 24 37 13 38
REMARK SMILES IDX 20 39 14 40 18 41 15 42 16 43 19 44 17 46 28 48 25 50 33 52
REMARK H PARENT 43 17 41 19 39 21 37 23 35 25 19 45 17 47 28 49 25 51 33 53
REMARK Flexibility Score: inf
ROOT
ATOM      1  C   UNL     1     -15.492 -19.527  15.708  1.00  0.00     0.180 C 
ATOM      2  C   UNL     1     -15.757 -18.011  15.752  1.00  0.00     0.177 C 
ATOM      3  C   UNL     1     -17.098 -17.569  16.239  1.00  0.00     0.180 C 
ATOM      4  C   UNL     1     -17.983 -18.717  16.901  1.00  0.00     0.214 C 
ATOM      5  C   UNL     1     -17.918 -19.832  15.965  1.00  0.00     0.339 C 
ATOM      6  O   UNL     1     -16.594 -20.435  15.981  1.00  0.00    -0.332 OA
ENDROOT
BRANCH   1   7
ATOM      7  C   UNL     1     -14.850 -19.870  14.314  1.00  0.00     0.198 C 
BRANCH   7   8
ATOM      8  O   UNL     1     -15.394 -21.094  13.821  1.00  0.00    -0.347 OA
BRANCH   8   9
ATOM      9  C   UNL     1     -14.453 -22.049  13.350  1.00  0.00     0.281 C 
ATOM     10  C   UNL     1     -12.084 -22.347  16.243  1.00  0.00     0.041 C 
ATOM     11  C   UNL     1     -13.395 -22.476  15.443  1.00  0.00     0.150 C 
ATOM     12  C   UNL     1     -13.977 -23.906  15.527  1.00  0.00     0.174 C 
ATOM     13  O   UNL     1     -13.238 -21.970  14.131  1.00  0.00    -0.344 OA
ATOM     14  C   UNL     1     -15.292 -23.997  14.750  1.00  0.00     0.179 C 
ATOM     15  C   UNL     1     -15.162 -23.421  13.329  1.00  0.00     0.202 C 
BRANCH  12  16
ATOM     16  O   UNL     1     -13.019 -24.849  15.047  1.00  0.00    -0.388 OA
ATOM     17  H   UNL     1     -13.208 -24.991  14.062  1.00  0.00     0.211 HD
ENDBRANCH  12  16
BRANCH  14  18
ATOM     18  O   UNL     1     -16.270 -23.282  15.452  1.00  0.00    -0.387 OA
ATOM     19  H   UNL     1     -15.963 -22.349  15.577  1.00  0.00     0.211 HD
ENDBRANCH  14  18
BRANCH  15  20
ATOM     20  O   UNL     1     -14.473 -24.269  12.456  1.00  0.00    -0.385 OA
ATOM     21  H   UNL     1     -15.212 -24.848  12.040  1.00  0.00     0.211 HD
ENDBRANCH  15  20
ENDBRANCH   8   9
ENDBRANCH   7   8
ENDBRANCH   1   7
BRANCH   2  22
ATOM     22  O   UNL     1     -14.560 -17.371  16.274  1.00  0.00    -0.387 OA
ATOM     23  H   UNL     1     -13.854 -17.870  16.863  1.00  0.00     0.211 HD
ENDBRANCH   2  22
BRANCH   3  24
ATOM     24  O   UNL     1     -17.951 -17.023  15.153  1.00  0.00    -0.387 OA
ATOM     25  H   UNL     1     -18.430 -17.805  14.604  1.00  0.00     0.211 HD
ENDBRANCH   3  24
BRANCH   5  26
ATOM     26  O   UNL     1     -18.928 -20.785  16.509  1.00  0.00    -0.454 OA
BRANCH  26  27
ATOM     27  C   UNL     1     -20.110 -21.112  15.792  1.00  0.00     0.214 A 
ATOM     28  C   UNL     1     -21.299 -20.340  15.786  1.00  0.00     0.180 A 
ATOM     29  C   UNL     1     -20.076 -22.255  14.938  1.00  0.00     0.239 A 
ATOM     30  O   UNL     1     -22.191 -20.564  14.794  1.00  0.00    -0.452 OA
ATOM     31  C   UNL     1     -21.247 -22.675  14.274  1.00  0.00     0.111 A 
ATOM     32  O   UNL     1     -18.961 -22.753  14.556  1.00  0.00    -0.285 OA
ATOM     33  C   UNL     1     -22.174 -21.654  14.002  1.00  0.00     0.146 A 
ATOM     34  C   UNL     1     -21.400 -23.962  13.678  1.00  0.00     0.134 A 
ATOM     35  C   UNL     1     -23.213 -21.834  13.076  1.00  0.00     0.094 A 
ATOM     36  C   UNL     1     -22.639 -24.206  12.959  1.00  0.00     0.093 A 
ATOM     37  C   UNL     1     -23.512 -23.151  12.628  1.00  0.00     0.123 A 
BRANCH  28  38
ATOM     38  C   UNL     1     -21.737 -19.456  16.847  1.00  0.00     0.025 A 
ATOM     39  C   UNL     1     -22.142 -18.122  16.623  1.00  0.00     0.062 A 
ATOM     40  C   UNL     1     -21.834 -19.996  18.135  1.00  0.00     0.016 A 
ATOM     41  C   UNL     1     -22.770 -17.399  17.666  1.00  0.00     0.158 A 
ATOM     42  C   UNL     1     -22.256 -19.205  19.213  1.00  0.00     0.051 A 
ATOM     43  C   UNL     1     -22.849 -17.971  18.922  1.00  0.00     0.157 A 
BRANCH  41  44
ATOM     44  O   UNL     1     -23.384 -16.208  17.296  1.00  0.00    -0.504 OA
ATOM     45  H   UNL     1     -23.883 -15.651  17.984  1.00  0.00     0.293 HD
ENDBRANCH  41  44
BRANCH  43  46
ATOM     46  O   UNL     1     -23.360 -17.242  19.986  1.00  0.00    -0.504 OA
ATOM     47  H   UNL     1     -23.787 -16.326  19.861  1.00  0.00     0.293 HD
ENDBRANCH  43  46
ENDBRANCH  28  38
BRANCH  34  48
ATOM     48  O   UNL     1     -20.447 -24.982  13.976  1.00  0.00    -0.507 OA
ATOM     49  H   UNL     1     -20.251 -25.182  14.963  1.00  0.00     0.293 HD
ENDBRANCH  34  48
BRANCH  37  50
ATOM     50  O   UNL     1     -24.727 -23.414  12.016  1.00  0.00    -0.508 OA
ATOM     51  H   UNL     1     -24.729 -23.329  11.001  1.00  0.00     0.293 HD
ENDBRANCH  37  50
ENDBRANCH  26  27
ENDBRANCH   5  26
BRANCH   4  52
ATOM     52  O   UNL     1     -17.836 -19.271  18.242  1.00  0.00    -0.384 OA
ATOM     53  H   UNL     1     -16.856 -19.537  18.177  1.00  0.00     0.211 HD
ENDBRANCH   4  52
TORSDOF 16
ENDMDL
MODEL 3
REMARK VINA RESULT:    -7.445      2.689      4.876
REMARK INTER + INTRA:         -14.798
REMARK INTER:                 -11.720
REMARK INTRA:                  -3.078
REMARK UNBOUND:                -2.566
REMARK SMILES C[C@H]1O[C@H](OC[C@@H]2O[C@@H](Oc3c(-c4ccc(O)c(O)c4)oc4cc(O)cc(O)c4c3=O)[C@@H](O)[C@H](O)[C@H]2O)[C@@H](O)[C@H](O)[C@H]1O
REMARK SMILES IDX 7 1 36 2 34 3 32 4 9 5 8 6 6 7 5 8 4 9 1 10 2 11 42 12 3 13
REMARK SMILES IDX 40 14 38 15 43 16 41 18 39 20 37 22 35 24 10 26 11 27 12 28
REMARK SMILES IDX 30 29 21 30 29 31 31 32 22 33 27 34 23 35 26 36 24 37 13 38
REMARK SMILES IDX 20 39 14 40 18 41 15 42 16 43 19 44 17 46 28 48 25 50 33 52
REMARK H PARENT 43 17 41 19 39 21 37 23 35 25 19 45 17 47 28 49 25 51 33 53
REMARK Flexibility Score: inf
ROOT
ATOM      1  C   UNL     1     -16.796 -23.186  13.871  1.00  0.00     0.180 C 
ATOM      2  C   UNL     1     -15.600 -24.055  14.299  1.00  0.00     0.177 C 
ATOM      3  C   UNL     1     -15.473 -24.370  15.754  1.00  0.00     0.180 C 
ATOM      4  C   UNL     1     -16.745 -23.986  16.635  1.00  0.00     0.214 C 
ATOM      5  C   UNL     1     -17.075 -22.621  16.248  1.00  0.00     0.339 C 
ATOM      6  O   UNL     1     -17.631 -22.594  14.903  1.00  0.00    -0.332 OA
ENDROOT
BRANCH   1   7
ATOM      7  C   UNL     1     -16.264 -22.065  12.905  1.00  0.00     0.198 C 
BRANCH   7   8
ATOM      8  O   UNL     1     -14.854 -22.204  12.735  1.00  0.00    -0.347 OA
BRANCH   8   9
ATOM      9  C   UNL     1     -14.121 -20.996  12.589  1.00  0.00     0.281 C 
ATOM     10  C   UNL     1     -14.327 -19.505  16.025  1.00  0.00     0.041 C 
ATOM     11  C   UNL     1     -13.924 -20.490  14.911  1.00  0.00     0.150 C 
ATOM     12  C   UNL     1     -12.403 -20.768  14.915  1.00  0.00     0.174 C 
ATOM     13  O   UNL     1     -14.454 -20.085  13.662  1.00  0.00    -0.344 OA
ATOM     14  C   UNL     1     -12.037 -21.771  13.820  1.00  0.00     0.179 C 
ATOM     15  C   UNL     1     -12.630 -21.376  12.456  1.00  0.00     0.202 C 
BRANCH  12  16
ATOM     16  O   UNL     1     -11.685 -19.544  14.765  1.00  0.00    -0.388 OA
ATOM     17  H   UNL     1     -10.775 -19.678  15.187  1.00  0.00     0.211 HD
ENDBRANCH  12  16
BRANCH  14  18
ATOM     18  O   UNL     1     -12.527 -23.029  14.190  1.00  0.00    -0.387 OA
ATOM     19  H   UNL     1     -13.516 -23.011  14.169  1.00  0.00     0.211 HD
ENDBRANCH  14  18
BRANCH  15  20
ATOM     20  O   UNL     1     -11.949 -20.315  11.850  1.00  0.00    -0.385 OA
ATOM     21  H   UNL     1     -10.962 -20.502  12.063  1.00  0.00     0.211 HD
ENDBRANCH  15  20
ENDBRANCH   8   9
ENDBRANCH   7   8
ENDBRANCH   1   7
BRANCH   2  22
ATOM     22  O   UNL     1     -15.461 -25.124  13.322  1.00  0.00    -0.387 OA
ATOM     23  H   UNL     1     -14.642 -25.774  13.298  1.00  0.00     0.211 HD
ENDBRANCH   2  22
BRANCH   3  24
ATOM     24  O   UNL     1     -14.344 -23.655  16.399  1.00  0.00    -0.387 OA
ATOM     25  H   UNL     1     -13.755 -23.128  15.679  1.00  0.00     0.211 HD
ENDBRANCH   3  24
BRANCH   5  26
ATOM     26  O   UNL     1     -18.113 -22.231  17.245  1.00  0.00    -0.454 OA
BRANCH  26  27
ATOM     27  C   UNL     1     -19.262 -21.481  16.876  1.00  0.00     0.214 A 
ATOM     28  C   UNL     1     -19.279 -20.085  16.632  1.00  0.00     0.180 A 
ATOM     29  C   UNL     1     -20.476 -22.194  16.641  1.00  0.00     0.239 A 
ATOM     30  O   UNL     1     -20.327 -19.577  15.944  1.00  0.00    -0.452 OA
ATOM     31  C   UNL     1     -21.664 -21.490  16.360  1.00  0.00     0.111 A 
ATOM     32  O   UNL     1     -20.462 -23.455  16.423  1.00  0.00    -0.285 OA
ATOM     33  C   UNL     1     -21.483 -20.241  15.742  1.00  0.00     0.146 A 
ATOM     34  C   UNL     1     -22.965 -22.071  16.437  1.00  0.00     0.134 A 
ATOM     35  C   UNL     1     -22.543 -19.576  15.107  1.00  0.00     0.094 A 
ATOM     36  C   UNL     1     -24.081 -21.232  16.034  1.00  0.00     0.093 A 
ATOM     37  C   UNL     1     -23.872 -20.022  15.343  1.00  0.00     0.123 A 
BRANCH  28  38
ATOM     38  C   UNL     1     -18.368 -19.116  17.207  1.00  0.00     0.025 A 
ATOM     39  C   UNL     1     -17.758 -18.088  16.455  1.00  0.00     0.062 A 
ATOM     40  C   UNL     1     -18.161 -19.171  18.590  1.00  0.00     0.016 A 
ATOM     41  C   UNL     1     -17.067 -17.049  17.125  1.00  0.00     0.158 A 
ATOM     42  C   UNL     1     -17.297 -18.263  19.221  1.00  0.00     0.051 A 
ATOM     43  C   UNL     1     -16.889 -17.140  18.493  1.00  0.00     0.157 A 
BRANCH  41  44
ATOM     44  O   UNL     1     -16.738 -15.941  16.353  1.00  0.00    -0.504 OA
ATOM     45  H   UNL     1     -15.923 -15.961  15.746  1.00  0.00     0.293 HD
ENDBRANCH  41  44
BRANCH  43  46
ATOM     46  O   UNL     1     -16.122 -16.193  19.158  1.00  0.00    -0.504 OA
ATOM     47  H   UNL     1     -16.367 -15.206  19.164  1.00  0.00     0.293 HD
ENDBRANCH  43  46
ENDBRANCH  28  38
BRANCH  34  48
ATOM     48  O   UNL     1     -23.122 -23.338  17.076  1.00  0.00    -0.507 OA
ATOM     49  H   UNL     1     -22.616 -24.140  16.683  1.00  0.00     0.293 HD
ENDBRANCH  34  48
BRANCH  37  50
ATOM     50  O   UNL     1     -24.943 -19.197  15.039  1.00  0.00    -0.508 OA
ATOM     51  H   UNL     1     -25.677 -19.160  15.744  1.00  0.00     0.293 HD
ENDBRANCH  37  50
ENDBRANCH  26  27
ENDBRANCH   5  26
BRANCH   4  52
ATOM     52  O   UNL     1     -17.999 -24.723  16.730  1.00  0.00    -0.384 OA
ATOM     53  H   UNL     1     -17.677 -25.599  16.321  1.00  0.00     0.211 HD
ENDBRANCH   4  52
TORSDOF 16
ENDMDL
MODEL 4
REMARK VINA RESULT:    -7.244      1.823      7.787
REMARK INTER + INTRA:         -14.467
REMARK INTER:                 -11.724
REMARK INTRA:                  -2.744
REMARK UNBOUND:                -2.566
REMARK SMILES C[C@H]1O[C@H](OC[C@@H]2O[C@@H](Oc3c(-c4ccc(O)c(O)c4)oc4cc(O)cc(O)c4c3=O)[C@@H](O)[C@H](O)[C@H]2O)[C@@H](O)[C@H](O)[C@H]1O
REMARK SMILES IDX 7 1 36 2 34 3 32 4 9 5 8 6 6 7 5 8 4 9 1 10 2 11 42 12 3 13
REMARK SMILES IDX 40 14 38 15 43 16 41 18 39 20 37 22 35 24 10 26 11 27 12 28
REMARK SMILES IDX 30 29 21 30 29 31 31 32 22 33 27 34 23 35 26 36 24 37 13 38
REMARK SMILES IDX 20 39 14 40 18 41 15 42 16 43 19 44 17 46 28 48 25 50 33 52
REMARK H PARENT 43 17 41 19 39 21 37 23 35 25 19 45 17 47 28 49 25 51 33 53
REMARK Flexibility Score: inf
ROOT
ATOM      1  C   UNL     1     -19.741 -23.410  14.466  1.00  0.00     0.180 C 
ATOM      2  C   UNL     1     -21.006 -22.960  13.714  1.00  0.00     0.177 C 
ATOM      3  C   UNL     1     -20.830 -21.945  12.632  1.00  0.00     0.180 C 
ATOM      4  C   UNL     1     -19.317 -21.662  12.220  1.00  0.00     0.214 C 
ATOM      5  C   UNL     1     -18.612 -21.462  13.479  1.00  0.00     0.339 C 
ATOM      6  O   UNL     1     -18.490 -22.719  14.200  1.00  0.00    -0.332 OA
ENDROOT
BRANCH   1   7
ATOM      7  C   UNL     1     -20.052 -23.379  16.007  1.00  0.00     0.198 C 
BRANCH   7   8
ATOM      8  O   UNL     1     -20.093 -22.028  16.463  1.00  0.00    -0.347 OA
BRANCH   8   9
ATOM      9  C   UNL     1     -21.020 -21.748  17.503  1.00  0.00     0.281 C 
ATOM     10  C   UNL     1     -19.218 -19.147  19.517  1.00  0.00     0.041 C 
ATOM     11  C   UNL     1     -19.958 -19.777  18.320  1.00  0.00     0.150 C 
ATOM     12  C   UNL     1     -21.097 -18.865  17.809  1.00  0.00     0.174 C 
ATOM     13  O   UNL     1     -20.342 -21.108  18.608  1.00  0.00    -0.344 OA
ATOM     14  C   UNL     1     -21.794 -19.501  16.605  1.00  0.00     0.179 C 
ATOM     15  C   UNL     1     -22.192 -20.962  16.875  1.00  0.00     0.202 C 
BRANCH  12  16
ATOM     16  O   UNL     1     -22.019 -18.598  18.866  1.00  0.00    -0.388 OA
ATOM     17  H   UNL     1     -22.362 -19.492  19.195  1.00  0.00     0.211 HD
ENDBRANCH  12  16
BRANCH  14  18
ATOM     18  O   UNL     1     -20.919 -19.454  15.512  1.00  0.00    -0.387 OA
ATOM     19  H   UNL     1     -21.216 -20.107  14.830  1.00  0.00     0.211 HD
ENDBRANCH  14  18
BRANCH  15  20
ATOM     20  O   UNL     1     -23.309 -21.080  17.709  1.00  0.00    -0.385 OA
ATOM     21  H   UNL     1     -24.056 -21.389  17.077  1.00  0.00     0.211 HD
ENDBRANCH  15  20
ENDBRANCH   8   9
ENDBRANCH   7   8
ENDBRANCH   1   7
BRANCH   2  22
ATOM     22  O   UNL     1     -21.811 -24.144  13.459  1.00  0.00    -0.387 OA
ATOM     23  H   UNL     1     -21.407 -25.051  13.128  1.00  0.00     0.211 HD
ENDBRANCH   2  22
BRANCH   3  24
ATOM     24  O   UNL     1     -21.370 -20.613  13.002  1.00  0.00    -0.387 OA
ATOM     25  H   UNL     1     -20.587 -19.892  13.112  1.00  0.00     0.211 HD
ENDBRANCH   3  24
BRANCH   5  26
ATOM     26  O   UNL     1     -17.270 -20.983  13.040  1.00  0.00    -0.454 OA
BRANCH  26  27
ATOM     27  C   UNL     1     -16.080 -21.374  13.711  1.00  0.00     0.214 A 
ATOM     28  C   UNL     1     -15.649 -20.872  14.964  1.00  0.00     0.180 A 
ATOM     29  C   UNL     1     -15.301 -22.419  13.130  1.00  0.00     0.239 A 
ATOM     30  O   UNL     1     -14.720 -21.583  15.643  1.00  0.00    -0.452 OA
ATOM     31  C   UNL     1     -14.067 -22.783  13.706  1.00  0.00     0.111 A 
ATOM     32  O   UNL     1     -15.808 -23.205  12.256  1.00  0.00    -0.285 OA
ATOM     33  C   UNL     1     -13.966 -22.554  15.089  1.00  0.00     0.146 A 
ATOM     34  C   UNL     1     -13.078 -23.562  13.033  1.00  0.00     0.134 A 
ATOM     35  C   UNL     1     -12.958 -23.152  15.860  1.00  0.00     0.094 A 
ATOM     36  C   UNL     1     -11.896 -23.921  13.799  1.00  0.00     0.093 A 
ATOM     37  C   UNL     1     -11.854 -23.755  15.197  1.00  0.00     0.123 A 
BRANCH  28  38
ATOM     38  C   UNL     1     -15.975 -19.570  15.510  1.00  0.00     0.025 A 
ATOM     39  C   UNL     1     -14.999 -18.612  15.859  1.00  0.00     0.062 A 
ATOM     40  C   UNL     1     -17.331 -19.237  15.609  1.00  0.00     0.016 A 
ATOM     41  C   UNL     1     -15.398 -17.289  16.166  1.00  0.00     0.158 A 
ATOM     42  C   UNL     1     -17.726 -17.993  16.122  1.00  0.00     0.051 A 
ATOM     43  C   UNL     1     -16.747 -17.001  16.250  1.00  0.00     0.157 A 
BRANCH  41  44
ATOM     44  O   UNL     1     -14.379 -16.345  16.227  1.00  0.00    -0.504 OA
ATOM     45  H   UNL     1     -13.422 -16.633  16.408  1.00  0.00     0.293 HD
ENDBRANCH  41  44
BRANCH  43  46
ATOM     46  O   UNL     1     -17.165 -15.741  16.657  1.00  0.00    -0.504 OA
ATOM     47  H   UNL     1     -16.555 -14.927  16.611  1.00  0.00     0.293 HD
ENDBRANCH  43  46
ENDBRANCH  28  38
BRANCH  34  48
ATOM     48  O   UNL     1     -13.201 -23.774  11.627  1.00  0.00    -0.507 OA
ATOM     49  H   UNL     1     -14.136 -23.963  11.250  1.00  0.00     0.293 HD
ENDBRANCH  34  48
BRANCH  37  50
ATOM     50  O   UNL     1     -10.690 -24.026  15.899  1.00  0.00    -0.508 OA
ATOM     51  H   UNL     1     -10.252 -23.221  16.341  1.00  0.00     0.293 HD
ENDBRANCH  37  50
ENDBRANCH  26  27
ENDBRANCH   5  26
BRANCH   4  52
ATOM     52  O   UNL     1     -18.468 -22.498  11.379  1.00  0.00    -0.384 OA
ATOM     53  H   UNL     1     -17.599 -22.378  11.895  1.00  0.00     0.211 HD
ENDBRANCH   4  52
TORSDOF 16
ENDMDL
MODEL 5
REMARK VINA RESULT:    -7.204      2.052      9.025
REMARK INTER + INTRA:         -14.402
REMARK INTER:                 -11.951
REMARK INTRA:                  -2.451
REMARK UNBOUND:                -2.566
REMARK SMILES C[C@H]1O[C@H](OC[C@@H]2O[C@@H](Oc3c(-c4ccc(O)c(O)c4)oc4cc(O)cc(O)c4c3=O)[C@@H](O)[C@H](O)[C@H]2O)[C@@H](O)[C@H](O)[C@H]1O
REMARK SMILES IDX 7 1 36 2 34 3 32 4 9 5 8 6 6 7 5 8 4 9 1 10 2 11 42 12 3 13
REMARK SMILES IDX 40 14 38 15 43 16 41 18 39 20 37 22 35 24 10 26 11 27 12 28
REMARK SMILES IDX 30 29 21 30 29 31 31 32 22 33 27 34 23 35 26 36 24 37 13 38
REMARK SMILES IDX 20 39 14 40 18 41 15 42 16 43 19 44 17 46 28 48 25 50 33 52
REMARK H PARENT 43 17 41 19 39 21 37 23 35 25 19 45 17 47 28 49 25 51 33 53
REMARK Flexibility Score: inf
ROOT
ATOM      1  C   UNL     1     -22.795 -22.499  14.188  1.00  0.00     0.180 C 
ATOM      2  C   UNL     1     -22.703 -22.213  12.678  1.00  0.00     0.177 C 
ATOM      3  C   UNL     1     -21.337 -22.053  12.097  1.00  0.00     0.180 C 
ATOM      4  C   UNL     1     -20.144 -22.466  13.069  1.00  0.00     0.214 C 
ATOM      5  C   UNL     1     -20.440 -21.807  14.334  1.00  0.00     0.339 C 
ATOM      6  O   UNL     1     -21.579 -22.438  14.983  1.00  0.00    -0.332 OA
ENDROOT
BRANCH   1   7
ATOM      7  C   UNL     1     -23.883 -21.543  14.801  1.00  0.00     0.198 C 
BRANCH   7   8
ATOM      8  O   UNL     1     -23.387 -20.959  16.005  1.00  0.00    -0.347 OA
BRANCH   8   9
ATOM      9  C   UNL     1     -24.221 -19.982  16.614  1.00  0.00     0.281 C 
ATOM     10  C   UNL     1     -22.553 -19.449  19.931  1.00  0.00     0.041 C 
ATOM     11  C   UNL     1     -22.751 -19.416  18.403  1.00  0.00     0.150 C 
ATOM     12  C   UNL     1     -22.466 -18.013  17.820  1.00  0.00     0.174 C 
ATOM     13  O   UNL     1     -24.002 -19.971  18.044  1.00  0.00    -0.344 OA
ATOM     14  C   UNL     1     -22.641 -18.017  16.300  1.00  0.00     0.179 C 
ATOM     15  C   UNL     1     -23.979 -18.647  15.876  1.00  0.00     0.202 C 
BRANCH  12  16
ATOM     16  O   UNL     1     -23.314 -17.047  18.441  1.00  0.00    -0.388 OA
ATOM     17  H   UNL     1     -23.281 -17.218  19.439  1.00  0.00     0.211 HD
ENDBRANCH  12  16
BRANCH  14  18
ATOM     18  O   UNL     1     -21.587 -18.746  15.736  1.00  0.00    -0.387 OA
ATOM     19  H   UNL     1     -21.897 -19.664  15.536  1.00  0.00     0.211 HD
ENDBRANCH  14  18
BRANCH  15  20
ATOM     20  O   UNL     1     -25.075 -17.806  16.099  1.00  0.00    -0.385 OA
ATOM     21  H   UNL     1     -25.108 -17.712  17.120  1.00  0.00     0.211 HD
ENDBRANCH  15  20
ENDBRANCH   8   9
ENDBRANCH   7   8
ENDBRANCH   1   7
BRANCH   2  22
ATOM     22  O   UNL     1     -23.669 -23.070  12.009  1.00  0.00    -0.387 OA
ATOM     23  H   UNL     1     -23.624 -23.295  10.988  1.00  0.00     0.211 HD
ENDBRANCH   2  22
BRANCH   3  24
ATOM     24  O   UNL     1     -21.036 -20.650  11.715  1.00  0.00    -0.387 OA
ATOM     25  H   UNL     1     -20.869 -20.560  10.663  1.00  0.00     0.211 HD
ENDBRANCH   3  24
BRANCH   5  26
ATOM     26  O   UNL     1     -19.199 -22.035  15.130  1.00  0.00    -0.454 OA
BRANCH  26  27
ATOM     27  C   UNL     1     -18.470 -20.958  15.703  1.00  0.00     0.214 A 
ATOM     28  C   UNL     1     -17.375 -20.299  15.091  1.00  0.00     0.180 A 
ATOM     29  C   UNL     1     -18.926 -20.434  16.949  1.00  0.00     0.239 A 
ATOM     30  O   UNL     1     -17.022 -19.084  15.569  1.00  0.00    -0.452 OA
ATOM     31  C   UNL     1     -18.188 -19.428  17.604  1.00  0.00     0.111 A 
ATOM     32  O   UNL     1     -20.116 -20.667  17.361  1.00  0.00    -0.285 OA
ATOM     33  C   UNL     1     -17.433 -18.598  16.756  1.00  0.00     0.146 A 
ATOM     34  C   UNL     1     -18.368 -19.079  18.976  1.00  0.00     0.134 A 
ATOM     35  C   UNL     1     -16.919 -17.370  17.200  1.00  0.00     0.094 A 
ATOM     36  C   UNL     1     -17.585 -17.961  19.475  1.00  0.00     0.093 A 
ATOM     37  C   UNL     1     -16.904 -17.096  18.595  1.00  0.00     0.123 A 
BRANCH  28  38
ATOM     38  C   UNL     1     -16.476 -20.883  14.115  1.00  0.00     0.025 A 
ATOM     39  C   UNL     1     -16.315 -20.371  12.809  1.00  0.00     0.062 A 
ATOM     40  C   UNL     1     -15.680 -21.954  14.535  1.00  0.00     0.016 A 
ATOM     41  C   UNL     1     -15.259 -20.849  11.997  1.00  0.00     0.158 A 
ATOM     42  C   UNL     1     -14.781 -22.569  13.651  1.00  0.00     0.051 A 
ATOM     43  C   UNL     1     -14.493 -21.907  12.452  1.00  0.00     0.157 A 
BRANCH  41  44
ATOM     44  O   UNL     1     -14.994 -20.113  10.848  1.00  0.00    -0.504 OA
ATOM     45  H   UNL     1     -15.581 -19.323  10.597  1.00  0.00     0.293 HD
ENDBRANCH  41  44
BRANCH  43  46
ATOM     46  O   UNL     1     -13.525 -22.466  11.631  1.00  0.00    -0.504 OA
ATOM     47  H   UNL     1     -13.051 -21.929  10.908  1.00  0.00     0.293 HD
ENDBRANCH  43  46
ENDBRANCH  28  38
BRANCH  34  48
ATOM     48  O   UNL     1     -19.134 -19.943  19.816  1.00  0.00    -0.507 OA
ATOM     49  H   UNL     1     -19.035 -19.837  20.831  1.00  0.00     0.293 HD
ENDBRANCH  34  48
BRANCH  37  50
ATOM     50  O   UNL     1     -16.097 -16.086  19.093  1.00  0.00    -0.508 OA
ATOM     51  H   UNL     1     -16.289 -15.156  18.726  1.00  0.00     0.293 HD
ENDBRANCH  37  50
ENDBRANCH  26  27
ENDBRANCH   5  26
BRANCH   4  52
ATOM     52  O   UNL     1     -19.698 -23.819  13.382  1.00  0.00    -0.384 OA
ATOM     53  H   UNL     1     -19.757 -23.755  14.396  1.00  0.00     0.211 HD
ENDBRANCH   4  52
TORSDOF 16
ENDMDL
MODEL 6
REMARK VINA RESULT:    -7.134      1.853      7.923
REMARK INTER + INTRA:         -14.286
REMARK INTER:                 -11.104
REMARK INTRA:                  -3.183
REMARK UNBOUND:                -2.566
REMARK SMILES C[C@H]1O[C@H](OC[C@@H]2O[C@@H](Oc3c(-c4ccc(O)c(O)c4)oc4cc(O)cc(O)c4c3=O)[C@@H](O)[C@H](O)[C@H]2O)[C@@H](O)[C@H](O)[C@H]1O
REMARK SMILES IDX 7 1 36 2 34 3 32 4 9 5 8 6 6 7 5 8 4 9 1 10 2 11 42 12 3 13
REMARK SMILES IDX 40 14 38 15 43 16 41 18 39 20 37 22 35 24 10 26 11 27 12 28
REMARK SMILES IDX 30 29 21 30 29 31 31 32 22 33 27 34 23 35 26 36 24 37 13 38
REMARK SMILES IDX 20 39 14 40 18 41 15 42 16 43 19 44 17 46 28 48 25 50 33 52
REMARK H PARENT 43 17 41 19 39 21 37 23 35 25 19 45 17 47 28 49 25 51 33 53
REMARK Flexibility Score: inf
ROOT
ATOM      1  C   UNL     1     -20.213 -22.677  15.953  1.00  0.00     0.180 C 
ATOM      2  C   UNL     1     -21.547 -22.340  15.263  1.00  0.00     0.177 C 
ATOM      3  C   UNL     1     -21.475 -21.625  13.954  1.00  0.00     0.180 C 
ATOM      4  C   UNL     1     -20.017 -21.542  13.316  1.00  0.00     0.214 C 
ATOM      5  C   UNL     1     -19.153 -21.092  14.400  1.00  0.00     0.339 C 
ATOM      6  O   UNL     1     -18.983 -22.148  15.386  1.00  0.00    -0.332 OA
ENDROOT
BRANCH   1   7
ATOM      7  C   UNL     1     -20.326 -22.261  17.466  1.00  0.00     0.198 C 
BRANCH   7   8
ATOM      8  O   UNL     1     -21.409 -21.348  17.634  1.00  0.00    -0.347 OA
BRANCH   8   9
ATOM      9  C   UNL     1     -21.055 -20.019  17.992  1.00  0.00     0.281 C 
ATOM     10  C   UNL     1     -23.582 -17.976  16.119  1.00  0.00     0.041 C 
ATOM     11  C   UNL     1     -23.024 -18.959  17.167  1.00  0.00     0.150 C 
ATOM     12  C   UNL     1     -23.525 -18.621  18.590  1.00  0.00     0.174 C 
ATOM     13  O   UNL     1     -21.620 -19.087  17.042  1.00  0.00    -0.344 OA
ATOM     14  C   UNL     1     -22.980 -19.629  19.604  1.00  0.00     0.179 C 
ATOM     15  C   UNL     1     -21.459 -19.817  19.469  1.00  0.00     0.202 C 
BRANCH  12  16
ATOM     16  O   UNL     1     -23.157 -17.285  18.932  1.00  0.00    -0.388 OA
ATOM     17  H   UNL     1     -22.662 -16.900  18.137  1.00  0.00     0.211 HD
ENDBRANCH  12  16
BRANCH  14  18
ATOM     18  O   UNL     1     -23.618 -20.858  19.393  1.00  0.00    -0.387 OA
ATOM     19  H   UNL     1     -22.990 -21.591  19.610  1.00  0.00     0.211 HD
ENDBRANCH  14  18
BRANCH  15  20
ATOM     20  O   UNL     1     -20.726 -18.745  19.992  1.00  0.00    -0.385 OA
ATOM     21  H   UNL     1     -20.589 -18.125  19.186  1.00  0.00     0.211 HD
ENDBRANCH  15  20
ENDBRANCH   8   9
ENDBRANCH   7   8
ENDBRANCH   1   7
BRANCH   2  22
ATOM     22  O   UNL     1     -22.416 -23.499  15.398  1.00  0.00    -0.387 OA
ATOM     23  H   UNL     1     -23.233 -23.677  14.769  1.00  0.00     0.211 HD
ENDBRANCH   2  22
BRANCH   3  24
ATOM     24  O   UNL     1     -21.920 -20.211  14.048  1.00  0.00    -0.387 OA
ATOM     25  H   UNL     1     -21.857 -19.720  13.100  1.00  0.00     0.211 HD
ENDBRANCH   3  24
BRANCH   5  26
ATOM     26  O   UNL     1     -17.862 -20.817  13.707  1.00  0.00    -0.454 OA
BRANCH  26  27
ATOM     27  C   UNL     1     -16.618 -21.245  14.245  1.00  0.00     0.214 A 
ATOM     28  C   UNL     1     -16.109 -20.876  15.515  1.00  0.00     0.180 A 
ATOM     29  C   UNL     1     -15.860 -22.192  13.494  1.00  0.00     0.239 A 
ATOM     30  O   UNL     1     -15.118 -21.631  16.041  1.00  0.00    -0.452 OA
ATOM     31  C   UNL     1     -14.580 -22.581  13.937  1.00  0.00     0.111 A 
ATOM     32  O   UNL     1     -16.411 -22.889  12.572  1.00  0.00    -0.285 OA
ATOM     33  C   UNL     1     -14.385 -22.509  15.327  1.00  0.00     0.146 A 
ATOM     34  C   UNL     1     -13.625 -23.248  13.112  1.00  0.00     0.134 A 
ATOM     35  C   UNL     1     -13.311 -23.160  15.953  1.00  0.00     0.094 A 
ATOM     36  C   UNL     1     -12.383 -23.656  13.748  1.00  0.00     0.093 A 
ATOM     37  C   UNL     1     -12.244 -23.650  15.150  1.00  0.00     0.123 A 
BRANCH  28  38
ATOM     38  C   UNL     1     -16.425 -19.655  16.229  1.00  0.00     0.025 A 
ATOM     39  C   UNL     1     -17.291 -19.614  17.343  1.00  0.00     0.062 A 
ATOM     40  C   UNL     1     -15.765 -18.488  15.828  1.00  0.00     0.016 A 
ATOM     41  C   UNL     1     -17.369 -18.435  18.123  1.00  0.00     0.158 A 
ATOM     42  C   UNL     1     -16.013 -17.268  16.474  1.00  0.00     0.051 A 
ATOM     43  C   UNL     1     -16.698 -17.305  17.694  1.00  0.00     0.157 A 
BRANCH  41  44
ATOM     44  O   UNL     1     -18.018 -18.556  19.346  1.00  0.00    -0.504 OA
ATOM     45  H   UNL     1     -19.033 -18.599  19.388  1.00  0.00     0.293 HD
ENDBRANCH  41  44
BRANCH  43  46
ATOM     46  O   UNL     1     -16.846 -16.107  18.379  1.00  0.00    -0.504 OA
ATOM     47  H   UNL     1     -17.670 -15.902  18.940  1.00  0.00     0.293 HD
ENDBRANCH  43  46
ENDBRANCH  28  38
BRANCH  34  48
ATOM     48  O   UNL     1     -13.844 -23.302  11.703  1.00  0.00    -0.507 OA
ATOM     49  H   UNL     1     -13.272 -23.952  11.153  1.00  0.00     0.293 HD
ENDBRANCH  34  48
BRANCH  37  50
ATOM     50  O   UNL     1     -11.027 -23.963  15.734  1.00  0.00    -0.508 OA
ATOM     51  H   UNL     1     -10.346 -24.395  15.112  1.00  0.00     0.293 HD
ENDBRANCH  37  50
ENDBRANCH  26  27
ENDBRANCH   5  26
BRANCH   4  52
ATOM     52  O   UNL     1     -19.308 -22.605  12.613  1.00  0.00    -0.384 OA
ATOM     53  H   UNL     1     -19.680 -22.428  11.681  1.00  0.00     0.211 HD
ENDBRANCH   4  52
TORSDOF 16
ENDMDL
MODEL 7
REMARK VINA RESULT:    -7.018      3.017      8.755
REMARK INTER + INTRA:         -14.097
REMARK INTER:                 -12.495
REMARK INTRA:                  -1.602
REMARK UNBOUND:                -2.566
REMARK SMILES C[C@H]1O[C@H](OC[C@@H]2O[C@@H](Oc3c(-c4ccc(O)c(O)c4)oc4cc(O)cc(O)c4c3=O)[C@@H](O)[C@H](O)[C@H]2O)[C@@H](O)[C@H](O)[C@H]1O
REMARK SMILES IDX 7 1 36 2 34 3 32 4 9 5 8 6 6 7 5 8 4 9 1 10 2 11 42 12 3 13
REMARK SMILES IDX 40 14 38 15 43 16 41 18 39 20 37 22 35 24 10 26 11 27 12 28
REMARK SMILES IDX 30 29 21 30 29 31 31 32 22 33 27 34 23 35 26 36 24 37 13 38
REMARK SMILES IDX 20 39 14 40 18 41 15 42 16 43 19 44 17 46 28 48 25 50 33 52
REMARK H PARENT 43 17 41 19 39 21 37 23 35 25 19 45 17 47 28 49 25 51 33 53
REMARK Flexibility Score: inf
ROOT
ATOM      1  C   UNL     1     -18.236 -22.802  16.722  1.00  0.00     0.180 C 
ATOM      2  C   UNL     1     -18.656 -24.067  15.953  1.00  0.00     0.177 C 
ATOM      3  C   UNL     1     -17.563 -24.913  15.387  1.00  0.00     0.180 C 
ATOM      4  C   UNL     1     -16.097 -24.534  15.883  1.00  0.00     0.214 C 
ATOM      5  C   UNL     1     -16.006 -23.088  15.727  1.00  0.00     0.339 C 
ATOM      6  O   UNL     1     -16.835 -22.416  16.716  1.00  0.00    -0.332 OA
ENDROOT
BRANCH   1   7
ATOM      7  C   UNL     1     -19.122 -21.605  16.213  1.00  0.00     0.198 C 
BRANCH   7   8
ATOM      8  O   UNL     1     -18.290 -20.606  15.627  1.00  0.00    -0.347 OA
BRANCH   8   9
ATOM      9  C   UNL     1     -18.584 -19.261  15.983  1.00  0.00     0.281 C 
ATOM     10  C   UNL     1     -17.763 -19.194  19.642  1.00  0.00     0.041 C 
ATOM     11  C   UNL     1     -17.531 -19.287  18.121  1.00  0.00     0.150 C 
ATOM     12  C   UNL     1     -16.404 -18.337  17.657  1.00  0.00     0.174 C 
ATOM     13  O   UNL     1     -18.751 -19.157  17.415  1.00  0.00    -0.344 OA
ATOM     14  C   UNL     1     -16.175 -18.471  16.150  1.00  0.00     0.179 C 
ATOM     15  C   UNL     1     -17.489 -18.369  15.357  1.00  0.00     0.202 C 
BRANCH  12  16
ATOM     16  O   UNL     1     -16.719 -16.993  18.020  1.00  0.00    -0.388 OA
ATOM     17  H   UNL     1     -15.976 -16.405  17.663  1.00  0.00     0.211 HD
ENDBRANCH  12  16
BRANCH  14  18
ATOM     18  O   UNL     1     -15.580 -19.714  15.902  1.00  0.00    -0.387 OA
ATOM     19  H   UNL     1     -15.023 -19.651  15.086  1.00  0.00     0.211 HD
ENDBRANCH  14  18
BRANCH  15  20
ATOM     20  O   UNL     1     -17.975 -17.060  15.266  1.00  0.00    -0.385 OA
ATOM     21  H   UNL     1     -17.185 -16.483  15.578  1.00  0.00     0.211 HD
ENDBRANCH  15  20
ENDBRANCH   8   9
ENDBRANCH   7   8
ENDBRANCH   1   7
BRANCH   2  22
ATOM     22  O   UNL     1     -19.734 -24.698  16.700  1.00  0.00    -0.387 OA
ATOM     23  H   UNL     1     -20.224 -25.564  16.376  1.00  0.00     0.211 HD
ENDBRANCH   2  22
BRANCH   3  24
ATOM     24  O   UNL     1     -17.486 -24.834  13.906  1.00  0.00    -0.387 OA
ATOM     25  H   UNL     1     -16.972 -23.951  13.590  1.00  0.00     0.211 HD
ENDBRANCH   3  24
BRANCH   5  26
ATOM     26  O   UNL     1     -14.564 -22.813  15.985  1.00  0.00    -0.454 OA
BRANCH  26  27
ATOM     27  C   UNL     1     -13.653 -22.543  14.929  1.00  0.00     0.214 A 
ATOM     28  C   UNL     1     -12.241 -22.612  15.034  1.00  0.00     0.180 A 
ATOM     29  C   UNL     1     -14.193 -22.270  13.637  1.00  0.00     0.239 A 
ATOM     30  O   UNL     1     -11.526 -22.694  13.888  1.00  0.00    -0.452 OA
ATOM     31  C   UNL     1     -13.338 -21.908  12.577  1.00  0.00     0.111 A 
ATOM     32  O   UNL     1     -15.398 -22.593  13.350  1.00  0.00    -0.285 OA
ATOM     33  C   UNL     1     -12.030 -22.413  12.670  1.00  0.00     0.146 A 
ATOM     34  C   UNL     1     -13.791 -21.306  11.365  1.00  0.00     0.134 A 
ATOM     35  C   UNL     1     -11.168 -22.428  11.562  1.00  0.00     0.094 A 
ATOM     36  C   UNL     1     -12.790 -21.072  10.337  1.00  0.00     0.093 A 
ATOM     37  C   UNL     1     -11.512 -21.659  10.416  1.00  0.00     0.123 A 
BRANCH  28  38
ATOM     38  C   UNL     1     -11.474 -22.422  16.248  1.00  0.00     0.025 A 
ATOM     39  C   UNL     1     -10.960 -23.491  17.014  1.00  0.00     0.062 A 
ATOM     40  C   UNL     1     -11.170 -21.106  16.616  1.00  0.00     0.016 A 
ATOM     41  C   UNL     1     -10.034 -23.226  18.051  1.00  0.00     0.158 A 
ATOM     42  C   UNL     1     -10.426 -20.841  17.775  1.00  0.00     0.051 A 
ATOM     43  C   UNL     1      -9.758 -21.911  18.379  1.00  0.00     0.157 A 
BRANCH  41  44
ATOM     44  O   UNL     1      -9.368 -24.330  18.569  1.00  0.00    -0.504 OA
ATOM     45  H   UNL     1      -8.371 -24.451  18.409  1.00  0.00     0.293 HD
ENDBRANCH  41  44
BRANCH  43  46
ATOM     46  O   UNL     1      -8.939 -21.624  19.462  1.00  0.00    -0.504 OA
ATOM     47  H   UNL     1      -8.196 -20.931  19.410  1.00  0.00     0.293 HD
ENDBRANCH  43  46
ENDBRANCH  28  38
BRANCH  34  48
ATOM     48  O   UNL     1     -15.122 -20.795  11.300  1.00  0.00    -0.507 OA
ATOM     49  H   UNL     1     -15.321 -19.911  11.781  1.00  0.00     0.293 HD
ENDBRANCH  34  48
BRANCH  37  50
ATOM     50  O   UNL     1     -10.545 -21.358   9.470  1.00  0.00    -0.508 OA
ATOM     51  H   UNL     1     -10.154 -22.160   8.978  1.00  0.00     0.293 HD
ENDBRANCH  37  50
ENDBRANCH  26  27
ENDBRANCH   5  26
BRANCH   4  52
ATOM     52  O   UNL     1     -15.495 -24.867  17.168  1.00  0.00    -0.384 OA
ATOM     53  H   UNL     1     -15.467 -23.927  17.558  1.00  0.00     0.211 HD
ENDBRANCH   4  52
TORSDOF 16
ENDMDL
MODEL 8
REMARK VINA RESULT:    -7.016      2.240      6.239
REMARK INTER + INTRA:         -14.094
REMARK INTER:                 -11.544
REMARK INTRA:                  -2.550
REMARK UNBOUND:                -2.566
REMARK SMILES C[C@H]1O[C@H](OC[C@@H]2O[C@@H](Oc3c(-c4ccc(O)c(O)c4)oc4cc(O)cc(O)c4c3=O)[C@@H](O)[C@H](O)[C@H]2O)[C@@H](O)[C@H](O)[C@H]1O
REMARK SMILES IDX 7 1 36 2 34 3 32 4 9 5 8 6 6 7 5 8 4 9 1 10 2 11 42 12 3 13
REMARK SMILES IDX 40 14 38 15 43 16 41 18 39 20 37 22 35 24 10 26 11 27 12 28
REMARK SMILES IDX 30 29 21 30 29 31 31 32 22 33 27 34 23 35 26 36 24 37 13 38
REMARK SMILES IDX 20 39 14 40 18 41 15 42 16 43 19 44 17 46 28 48 25 50 33 52
REMARK H PARENT 43 17 41 19 39 21 37 23 35 25 19 45 17 47 28 49 25 51 33 53
REMARK Flexibility Score: inf
ROOT
ATOM      1  C   UNL     1     -16.483 -22.518  12.458  1.00  0.00     0.180 C 
ATOM      2  C   UNL     1     -15.303 -21.536  12.349  1.00  0.00     0.177 C 
ATOM      3  C   UNL     1     -14.810 -20.919  13.616  1.00  0.00     0.180 C 
ATOM      4  C   UNL     1     -15.400 -21.565  14.948  1.00  0.00     0.214 C 
ATOM      5  C   UNL     1     -16.838 -21.642  14.728  1.00  0.00     0.339 C 
ATOM      6  O   UNL     1     -17.149 -22.666  13.743  1.00  0.00    -0.332 OA
ENDROOT
BRANCH   1   7
ATOM      7  C   UNL     1     -17.536 -22.142  11.351  1.00  0.00     0.198 C 
BRANCH   7   8
ATOM      8  O   UNL     1     -18.856 -22.306  11.867  1.00  0.00    -0.347 OA
BRANCH   8   9
ATOM      9  C   UNL     1     -19.732 -23.117  11.095  1.00  0.00     0.281 C 
ATOM     10  C   UNL     1     -21.930 -24.657  13.715  1.00  0.00     0.041 C 
ATOM     11  C   UNL     1     -21.315 -23.563  12.819  1.00  0.00     0.150 C 
ATOM     12  C   UNL     1     -22.405 -22.702  12.141  1.00  0.00     0.174 C 
ATOM     13  O   UNL     1     -20.353 -24.113  11.939  1.00  0.00    -0.344 OA
ATOM     14  C   UNL     1     -21.767 -21.607  11.283  1.00  0.00     0.179 C 
ATOM     15  C   UNL     1     -20.690 -22.170  10.340  1.00  0.00     0.202 C 
BRANCH  12  16
ATOM     16  O   UNL     1     -23.271 -23.533  11.368  1.00  0.00    -0.388 OA
ATOM     17  H   UNL     1     -22.838 -23.653  10.461  1.00  0.00     0.211 HD
ENDBRANCH  12  16
BRANCH  14  18
ATOM     18  O   UNL     1     -21.187 -20.660  12.135  1.00  0.00    -0.387 OA
ATOM     19  H   UNL     1     -21.760 -19.853  12.162  1.00  0.00     0.211 HD
ENDBRANCH  14  18
BRANCH  15  20
ATOM     20  O   UNL     1     -21.225 -22.854   9.243  1.00  0.00    -0.385 OA
ATOM     21  H   UNL     1     -20.536 -23.591   9.053  1.00  0.00     0.211 HD
ENDBRANCH  15  20
ENDBRANCH   8   9
ENDBRANCH   7   8
ENDBRANCH   1   7
BRANCH   2  22
ATOM     22  O   UNL     1     -14.347 -22.101  11.410  1.00  0.00    -0.387 OA
ATOM     23  H   UNL     1     -14.244 -21.764  10.424  1.00  0.00     0.211 HD
ENDBRANCH   2  22
BRANCH   3  24
ATOM     24  O   UNL     1     -15.148 -19.477  13.722  1.00  0.00    -0.387 OA
ATOM     25  H   UNL     1     -16.027 -19.241  13.160  1.00  0.00     0.211 HD
ENDBRANCH   3  24
BRANCH   5  26
ATOM     26  O   UNL     1     -17.362 -22.036  16.068  1.00  0.00    -0.454 OA
BRANCH  26  27
ATOM     27  C   UNL     1     -18.677 -21.699  16.485  1.00  0.00     0.214 A 
ATOM     28  C   UNL     1     -19.115 -20.395  16.828  1.00  0.00     0.180 A 
ATOM     29  C   UNL     1     -19.664 -22.730  16.473  1.00  0.00     0.239 A 
ATOM     30  O   UNL     1     -20.447 -20.161  16.846  1.00  0.00    -0.452 OA
ATOM     31  C   UNL     1     -20.960 -22.472  16.962  1.00  0.00     0.111 A 
ATOM     32  O   UNL     1     -19.483 -23.801  15.796  1.00  0.00    -0.285 OA
ATOM     33  C   UNL     1     -21.379 -21.134  16.859  1.00  0.00     0.146 A 
ATOM     34  C   UNL     1     -21.898 -23.494  17.296  1.00  0.00     0.134 A 
ATOM     35  C   UNL     1     -22.730 -20.776  16.986  1.00  0.00     0.094 A 
ATOM     36  C   UNL     1     -23.222 -23.057  17.708  1.00  0.00     0.093 A 
ATOM     37  C   UNL     1     -23.644 -21.727  17.516  1.00  0.00     0.123 A 
BRANCH  28  38
ATOM     38  C   UNL     1     -18.275 -19.331  17.340  1.00  0.00     0.025 A 
ATOM     39  C   UNL     1     -17.730 -18.316  16.524  1.00  0.00     0.062 A 
ATOM     40  C   UNL     1     -18.077 -19.279  18.725  1.00  0.00     0.016 A 
ATOM     41  C   UNL     1     -17.116 -17.191  17.125  1.00  0.00     0.158 A 
ATOM     42  C   UNL     1     -17.282 -18.275  19.296  1.00  0.00     0.051 A 
ATOM     43  C   UNL     1     -16.944 -17.178  18.496  1.00  0.00     0.157 A 
BRANCH  41  44
ATOM     44  O   UNL     1     -16.856 -16.117  16.281  1.00  0.00    -0.504 OA
ATOM     45  H   UNL     1     -17.469 -15.922  15.494  1.00  0.00     0.293 HD
ENDBRANCH  41  44
BRANCH  43  46
ATOM     46  O   UNL     1     -16.248 -16.139  19.098  1.00  0.00    -0.504 OA
ATOM     47  H   UNL     1     -16.588 -15.673  19.937  1.00  0.00     0.293 HD
ENDBRANCH  43  46
ENDBRANCH  28  38
BRANCH  34  48
ATOM     48  O   UNL     1     -21.445 -24.843  17.401  1.00  0.00    -0.507 OA
ATOM     49  H   UNL     1     -21.310 -25.373  16.533  1.00  0.00     0.293 HD
ENDBRANCH  34  48
BRANCH  37  50
ATOM     50  O   UNL     1     -24.879 -21.310  17.989  1.00  0.00    -0.508 OA
ATOM     51  H   UNL     1     -25.147 -21.688  18.895  1.00  0.00     0.293 HD
ENDBRANCH  37  50
ENDBRANCH  26  27
ENDBRANCH   5  26
BRANCH   4  52
ATOM     52  O   UNL     1     -14.991 -22.821  15.567  1.00  0.00    -0.384 OA
ATOM     53  H   UNL     1     -14.421 -23.174  14.801  1.00  0.00     0.211 HD
ENDBRANCH   4  52
TORSDOF 16
ENDMDL
MODEL 9
REMARK VINA RESULT:    -6.852      2.284      7.402
REMARK INTER + INTRA:         -13.824
REMARK INTER:                 -11.335
REMARK INTRA:                  -2.489
REMARK UNBOUND:                -2.566
REMARK SMILES C[C@H]1O[C@H](OC[C@@H]2O[C@@H](Oc3c(-c4ccc(O)c(O)c4)oc4cc(O)cc(O)c4c3=O)[C@@H](O)[C@H](O)[C@H]2O)[C@@H](O)[C@H](O)[C@H]1O
REMARK SMILES IDX 7 1 36 2 34 3 32 4 9 5 8 6 6 7 5 8 4 9 1 10 2 11 42 12 3 13
REMARK SMILES IDX 40 14 38 15 43 16 41 18 39 20 37 22 35 24 10 26 11 27 12 28
REMARK SMILES IDX 30 29 21 30 29 31 31 32 22 33 27 34 23 35 26 36 24 37 13 38
REMARK SMILES IDX 20 39 14 40 18 41 15 42 16 43 19 44 17 46 28 48 25 50 33 52
REMARK H PARENT 43 17 41 19 39 21 37 23 35 25 19 45 17 47 28 49 25 51 33 53
REMARK Flexibility Score: inf
ROOT
ATOM      1  C   UNL     1     -20.351 -21.683  17.034  1.00  0.00     0.180 C 
ATOM      2  C   UNL     1     -21.627 -22.539  16.950  1.00  0.00     0.177 C 
ATOM      3  C   UNL     1     -21.466 -23.964  16.536  1.00  0.00     0.180 C 
ATOM      4  C   UNL     1     -19.960 -24.483  16.495  1.00  0.00     0.214 C 
ATOM      5  C   UNL     1     -19.228 -23.461  15.759  1.00  0.00     0.339 C 
ATOM      6  O   UNL     1     -19.100 -22.252  16.558  1.00  0.00    -0.332 OA
ENDROOT
BRANCH   1   7
ATOM      7  C   UNL     1     -20.629 -20.318  16.305  1.00  0.00     0.198 C 
BRANCH   7   8
ATOM      8  O   UNL     1     -19.392 -19.690  15.971  1.00  0.00    -0.347 OA
BRANCH   8   9
ATOM      9  C   UNL     1     -19.199 -18.379  16.485  1.00  0.00     0.281 C 
ATOM     10  C   UNL     1     -17.970 -19.046  19.965  1.00  0.00     0.041 C 
ATOM     11  C   UNL     1     -17.962 -19.003  18.424  1.00  0.00     0.150 C 
ATOM     12  C   UNL     1     -16.655 -18.386  17.877  1.00  0.00     0.174 C 
ATOM     13  O   UNL     1     -19.152 -18.418  17.930  1.00  0.00    -0.344 OA
ATOM     14  C   UNL     1     -16.661 -18.383  16.347  1.00  0.00     0.179 C 
ATOM     15  C   UNL     1     -17.960 -17.785  15.779  1.00  0.00     0.202 C 
BRANCH  12  16
ATOM     16  O   UNL     1     -16.480 -17.070  18.401  1.00  0.00    -0.388 OA
ATOM     17  H   UNL     1     -16.770 -16.421  17.680  1.00  0.00     0.211 HD
ENDBRANCH  12  16
BRANCH  14  18
ATOM     18  O   UNL     1     -16.527 -19.705  15.902  1.00  0.00    -0.387 OA
ATOM     19  H   UNL     1     -16.479 -20.308  16.685  1.00  0.00     0.211 HD
ENDBRANCH  14  18
BRANCH  15  20
ATOM     20  O   UNL     1     -18.010 -16.391  15.880  1.00  0.00    -0.385 OA
ATOM     21  H   UNL     1     -18.618 -16.110  15.101  1.00  0.00     0.211 HD
ENDBRANCH  15  20
ENDBRANCH   8   9
ENDBRANCH   7   8
ENDBRANCH   1   7
BRANCH   2  22
ATOM     22  O   UNL     1     -22.447 -22.219  18.109  1.00  0.00    -0.387 OA
ATOM     23  H   UNL     1     -23.471 -22.010  18.046  1.00  0.00     0.211 HD
ENDBRANCH   2  22
BRANCH   3  24
ATOM     24  O   UNL     1     -21.988 -24.228  15.172  1.00  0.00    -0.387 OA
ATOM     25  H   UNL     1     -21.563 -23.556  14.456  1.00  0.00     0.211 HD
ENDBRANCH   3  24
BRANCH   5  26
ATOM     26  O   UNL     1     -17.891 -24.089  15.553  1.00  0.00    -0.454 OA
BRANCH  26  27
ATOM     27  C   UNL     1     -16.806 -23.369  14.985  1.00  0.00     0.214 A 
ATOM     28  C   UNL     1     -16.907 -22.468  13.896  1.00  0.00     0.180 A 
ATOM     29  C   UNL     1     -15.528 -23.487  15.610  1.00  0.00     0.239 A 
ATOM     30  O   UNL     1     -15.893 -21.594  13.703  1.00  0.00    -0.452 OA
ATOM     31  C   UNL     1     -14.401 -22.866  15.035  1.00  0.00     0.111 A 
ATOM     32  O   UNL     1     -15.425 -23.921  16.810  1.00  0.00    -0.285 OA
ATOM     33  C   UNL     1     -14.679 -21.717  14.275  1.00  0.00     0.146 A 
ATOM     34  C   UNL     1     -13.056 -23.188  15.385  1.00  0.00     0.134 A 
ATOM     35  C   UNL     1     -13.668 -20.810  13.920  1.00  0.00     0.094 A 
ATOM     36  C   UNL     1     -12.010 -22.396  14.759  1.00  0.00     0.093 A 
ATOM     37  C   UNL     1     -12.310 -21.203  14.072  1.00  0.00     0.123 A 
BRANCH  28  38
ATOM     38  C   UNL     1     -17.914 -22.513  12.854  1.00  0.00     0.025 A 
ATOM     39  C   UNL     1     -19.091 -21.734  12.883  1.00  0.00     0.062 A 
ATOM     40  C   UNL     1     -17.646 -23.311  11.736  1.00  0.00     0.016 A 
ATOM     41  C   UNL     1     -19.908 -21.660  11.729  1.00  0.00     0.158 A 
ATOM     42  C   UNL     1     -18.568 -23.401  10.683  1.00  0.00     0.051 A 
ATOM     43  C   UNL     1     -19.605 -22.462  10.645  1.00  0.00     0.157 A 
BRANCH  41  44
ATOM     44  O   UNL     1     -20.884 -20.670  11.737  1.00  0.00    -0.504 OA
ATOM     45  H   UNL     1     -21.537 -20.585  10.963  1.00  0.00     0.293 HD
ENDBRANCH  41  44
BRANCH  43  46
ATOM     46  O   UNL     1     -20.451 -22.490   9.545  1.00  0.00    -0.504 OA
ATOM     47  H   UNL     1     -20.348 -23.175   8.799  1.00  0.00     0.293 HD
ENDBRANCH  43  46
ENDBRANCH  28  38
BRANCH  34  48
ATOM     48  O   UNL     1     -12.802 -24.365  16.152  1.00  0.00    -0.507 OA
ATOM     49  H   UNL     1     -13.601 -24.956  16.403  1.00  0.00     0.293 HD
ENDBRANCH  34  48
BRANCH  37  50
ATOM     50  O   UNL     1     -11.310 -20.505  13.413  1.00  0.00    -0.508 OA
ATOM     51  H   UNL     1     -11.563 -19.567  13.111  1.00  0.00     0.293 HD
ENDBRANCH  37  50
ENDBRANCH  26  27
ENDBRANCH   5  26
BRANCH   4  52
ATOM     52  O   UNL     1     -19.136 -24.869  17.634  1.00  0.00    -0.384 OA
ATOM     53  H   UNL     1     -18.266 -25.027  17.130  1.00  0.00     0.211 HD
ENDBRANCH   4  52
TORSDOF 16
ENDMDL
