MODEL 1
REMARK VINA RESULT:    -3.476      0.000      0.000
REMARK INTER + INTRA:         -12.319
REMARK INTER:                  -9.166
REMARK INTRA:                  -3.154
REMARK UNBOUND:                -3.154
REMARK SMILES CCCCCCCCCCCCCCCCCCCCCCCCCCCCCC(=O)[O-]
REMARK SMILES IDX 16 1 17 2 18 3 19 4 20 5 21 6 22 7 23 8 24 9 25 10 26 11
REMARK SMILES IDX 27 12 28 13 29 14 30 15 31 16 32 17 15 18 14 19 13 20 12 21
REMARK SMILES IDX 11 22 10 23 9 24 8 25 7 26 6 27 5 28 4 29 3 30 2 31 1 32
REMARK H PARENT
REMARK Flexibility Score: inf
ROOT
ATOM      1  C   UNL     1       2.058  21.476  14.624  1.00  0.00     0.000 C 
ENDROOT
BRANCH   1   2
ATOM      2  C   UNL     1       1.876  22.618  15.633  1.00  0.00     0.000 C 
BRANCH   2   3
ATOM      3  C   UNL     1       2.617  23.882  15.166  1.00  0.00     0.000 C 
BRANCH   3   4
ATOM      4  C   UNL     1       2.427  24.165  13.667  1.00  0.00     0.000 C 
BRANCH   4   5
ATOM      5  C   UNL     1       3.628  24.898  13.046  1.00  0.00     0.000 C 
BRANCH   5   6
ATOM      6  C   UNL     1       4.892  24.804  13.917  1.00  0.00     0.000 C 
BRANCH   6   7
ATOM      7  C   UNL     1       5.875  25.959  13.654  1.00  0.00     0.000 C 
BRANCH   7   8
ATOM      8  C   UNL     1       6.249  26.726  14.935  1.00  0.00     0.000 C 
BRANCH   8   9
ATOM      9  C   UNL     1       5.720  26.109  16.243  1.00  0.00     0.000 C 
BRANCH   9  10
ATOM     10  C   UNL     1       4.331  26.637  16.664  1.00  0.00     0.000 C 
BRANCH  10  11
ATOM     11  C   UNL     1       4.220  28.165  16.509  1.00  0.00     0.000 C 
BRANCH  11  12
ATOM     12  C   UNL     1       2.872  28.600  15.908  1.00  0.00     0.000 C 
BRANCH  12  13
ATOM     13  C   UNL     1       2.366  27.681  14.775  1.00  0.00     0.006 C 
BRANCH  13  14
ATOM     14  C   UNL     1       2.131  28.419  13.447  1.00  0.00     0.053 C 
BRANCH  14  15
ATOM     15  C   UNL     1       3.353  28.434  12.584  1.00  0.00     0.041 C 
ATOM     16  O   UNL     1       3.322  27.928  11.430  1.00  0.00    -0.550 OA
ATOM     17  O   UNL     1       4.535  28.985  13.062  1.00  0.00    -0.550 OA
ENDBRANCH  14  15
ENDBRANCH  13  14
ENDBRANCH  12  13
ENDBRANCH  11  12
ENDBRANCH  10  11
ENDBRANCH   9  10
ENDBRANCH   8   9
ENDBRANCH   7   8
ENDBRANCH   6   7
ENDBRANCH   5   6
ENDBRANCH   4   5
ENDBRANCH   3   4
ENDBRANCH   2   3
ENDBRANCH   1   2
BRANCH   1  18
ATOM     18  C   UNL     1       2.200  20.096  15.293  1.00  0.00     0.000 C 
BRANCH  18  19
ATOM     19  C   UNL     1       1.937  18.891  14.368  1.00  0.00     0.000 C 
BRANCH  19  20
ATOM     20  C   UNL     1       3.200  18.192  13.828  1.00  0.00     0.000 C 
BRANCH  20  21
ATOM     21  C   UNL     1       4.085  17.532  14.903  1.00  0.00     0.000 C 
BRANCH  21  22
ATOM     22  C   UNL     1       5.426  16.972  14.388  1.00  0.00     0.000 C 
BRANCH  22  23
ATOM     23  C   UNL     1       5.429  15.463  14.080  1.00  0.00     0.000 C 
BRANCH  23  24
ATOM     24  C   UNL     1       4.286  14.707  14.779  1.00  0.00    -0.000 C 
BRANCH  24  25
ATOM     25  C   UNL     1       3.441  13.878  13.798  1.00  0.00    -0.000 C 
BRANCH  25  26
ATOM     26  C   UNL     1       2.614  14.761  12.846  1.00  0.00    -0.000 C 
BRANCH  26  27
ATOM     27  C   UNL     1       2.828  14.388  11.368  1.00  0.00    -0.000 C 
BRANCH  27  28
ATOM     28  C   UNL     1       4.116  14.987  10.757  1.00  0.00    -0.000 C 
BRANCH  28  29
ATOM     29  C   UNL     1       3.866  15.853   9.509  1.00  0.00    -0.000 C 
BRANCH  29  30
ATOM     30  C   UNL     1       2.950  15.211   8.448  1.00  0.00    -0.000 C 
BRANCH  30  31
ATOM     31  C   UNL     1       3.611  14.982   7.077  1.00  0.00    -0.003 C 
ATOM     32  C   UNL     1       4.901  15.782   6.897  1.00  0.00     0.004 C 
ENDBRANCH  30  31
ENDBRANCH  29  30
ENDBRANCH  28  29
ENDBRANCH  27  28
ENDBRANCH  26  27
ENDBRANCH  25  26
ENDBRANCH  24  25
ENDBRANCH  23  24
ENDBRANCH  22  23
ENDBRANCH  21  22
ENDBRANCH  20  21
ENDBRANCH  19  20
ENDBRANCH  18  19
ENDBRANCH   1  18
TORSDOF 28
ENDMDL
MODEL 2
REMARK VINA RESULT:    -3.305      2.811     11.086
REMARK INTER + INTRA:         -11.868
REMARK INTER:                  -9.138
REMARK INTRA:                  -2.730
REMARK UNBOUND:                -3.154
REMARK SMILES CCCCCCCCCCCCCCCCCCCCCCCCCCCCCC(=O)[O-]
REMARK SMILES IDX 16 1 17 2 18 3 19 4 20 5 21 6 22 7 23 8 24 9 25 10 26 11
REMARK SMILES IDX 27 12 28 13 29 14 30 15 31 16 32 17 15 18 14 19 13 20 12 21
REMARK SMILES IDX 11 22 10 23 9 24 8 25 7 26 6 27 5 28 4 29 3 30 2 31 1 32
REMARK H PARENT
REMARK Flexibility Score: inf
ROOT
ATOM      1  C   UNL     1       3.342  19.642  14.962  1.00  0.00     0.000 C 
ENDROOT
BRANCH   1   2
ATOM      2  C   UNL     1       4.656  18.977  15.398  1.00  0.00     0.000 C 
BRANCH   2   3
ATOM      3  C   UNL     1       4.474  18.230  16.729  1.00  0.00     0.000 C 
BRANCH   3   4
ATOM      4  C   UNL     1       3.333  17.200  16.685  1.00  0.00     0.000 C 
BRANCH   4   5
ATOM      5  C   UNL     1       3.687  15.962  15.844  1.00  0.00     0.000 C 
BRANCH   5   6
ATOM      6  C   UNL     1       2.758  14.770  16.129  1.00  0.00     0.000 C 
BRANCH   6   7
ATOM      7  C   UNL     1       1.999  14.302  14.874  1.00  0.00     0.000 C 
BRANCH   7   8
ATOM      8  C   UNL     1       2.148  15.275  13.691  1.00  0.00     0.000 C 
BRANCH   8   9
ATOM      9  C   UNL     1       3.027  14.766  12.534  1.00  0.00     0.000 C 
BRANCH   9  10
ATOM     10  C   UNL     1       4.391  15.483  12.424  1.00  0.00     0.000 C 
BRANCH  10  11
ATOM     11  C   UNL     1       4.626  16.070  11.020  1.00  0.00     0.000 C 
BRANCH  11  12
ATOM     12  C   UNL     1       3.767  15.382   9.943  1.00  0.00     0.000 C 
BRANCH  12  13
ATOM     13  C   UNL     1       3.829  16.069   8.561  1.00  0.00     0.006 C 
BRANCH  13  14
ATOM     14  C   UNL     1       4.500  17.451   8.594  1.00  0.00     0.053 C 
BRANCH  14  15
ATOM     15  C   UNL     1       3.528  18.559   8.333  1.00  0.00     0.041 C 
ATOM     16  O   UNL     1       2.801  18.999   9.263  1.00  0.00    -0.550 OA
ATOM     17  O   UNL     1       3.406  19.090   7.055  1.00  0.00    -0.550 OA
ENDBRANCH  14  15
ENDBRANCH  13  14
ENDBRANCH  12  13
ENDBRANCH  11  12
ENDBRANCH  10  11
ENDBRANCH   9  10
ENDBRANCH   8   9
ENDBRANCH   7   8
ENDBRANCH   6   7
ENDBRANCH   5   6
ENDBRANCH   4   5
ENDBRANCH   3   4
ENDBRANCH   2   3
ENDBRANCH   1   2
BRANCH   1  18
ATOM     18  C   UNL     1       3.411  21.180  14.975  1.00  0.00     0.000 C 
BRANCH  18  19
ATOM     19  C   UNL     1       2.044  21.895  14.990  1.00  0.00     0.000 C 
BRANCH  19  20
ATOM     20  C   UNL     1       2.026  23.256  15.712  1.00  0.00     0.000 C 
BRANCH  20  21
ATOM     21  C   UNL     1       1.987  24.483  14.780  1.00  0.00     0.000 C 
BRANCH  21  22
ATOM     22  C   UNL     1       2.729  24.308  13.440  1.00  0.00     0.000 C 
BRANCH  22  23
ATOM     23  C   UNL     1       3.823  25.353  13.157  1.00  0.00     0.000 C 
BRANCH  23  24
ATOM     24  C   UNL     1       3.376  26.429  12.152  1.00  0.00    -0.000 C 
BRANCH  24  25
ATOM     25  C   UNL     1       4.275  27.676  12.186  1.00  0.00    -0.000 C 
BRANCH  25  26
ATOM     26  C   UNL     1       4.351  28.305  13.589  1.00  0.00    -0.000 C 
BRANCH  26  27
ATOM     27  C   UNL     1       3.003  28.245  14.331  1.00  0.00    -0.000 C 
BRANCH  27  28
ATOM     28  C   UNL     1       3.141  28.247  15.871  1.00  0.00    -0.000 C 
BRANCH  28  29
ATOM     29  C   UNL     1       4.546  27.863  16.369  1.00  0.00    -0.000 C 
BRANCH  29  30
ATOM     30  C   UNL     1       4.749  26.358  16.636  1.00  0.00    -0.000 C 
BRANCH  30  31
ATOM     31  C   UNL     1       6.207  25.876  16.534  1.00  0.00    -0.003 C 
ATOM     32  C   UNL     1       6.843  26.182  15.178  1.00  0.00     0.004 C 
ENDBRANCH  30  31
ENDBRANCH  29  30
ENDBRANCH  28  29
ENDBRANCH  27  28
ENDBRANCH  26  27
ENDBRANCH  25  26
ENDBRANCH  24  25
ENDBRANCH  23  24
ENDBRANCH  22  23
ENDBRANCH  21  22
ENDBRANCH  20  21
ENDBRANCH  19  20
ENDBRANCH  18  19
ENDBRANCH   1  18
TORSDOF 28
ENDMDL
MODEL 3
REMARK VINA RESULT:    -3.298      1.816      3.177
REMARK INTER + INTRA:         -11.850
REMARK INTER:                  -9.408
REMARK INTRA:                  -2.443
REMARK UNBOUND:                -3.154
REMARK SMILES CCCCCCCCCCCCCCCCCCCCCCCCCCCCCC(=O)[O-]
REMARK SMILES IDX 16 1 17 2 18 3 19 4 20 5 21 6 22 7 23 8 24 9 25 10 26 11
REMARK SMILES IDX 27 12 28 13 29 14 30 15 31 16 32 17 15 18 14 19 13 20 12 21
REMARK SMILES IDX 11 22 10 23 9 24 8 25 7 26 6 27 5 28 4 29 3 30 2 31 1 32
REMARK H PARENT
REMARK Flexibility Score: inf
ROOT
ATOM      1  C   UNL     1       2.568  19.420  15.262  1.00  0.00     0.000 C 
ENDROOT
BRANCH   1   2
ATOM      2  C   UNL     1       1.906  20.642  14.610  1.00  0.00     0.000 C 
BRANCH   2   3
ATOM      3  C   UNL     1       1.984  21.864  15.538  1.00  0.00     0.000 C 
BRANCH   3   4
ATOM      4  C   UNL     1       2.786  23.026  14.929  1.00  0.00     0.000 C 
BRANCH   4   5
ATOM      5  C   UNL     1       1.886  24.170  14.432  1.00  0.00     0.000 C 
BRANCH   5   6
ATOM      6  C   UNL     1       1.929  24.333  12.904  1.00  0.00     0.000 C 
BRANCH   6   7
ATOM      7  C   UNL     1       2.222  25.782  12.475  1.00  0.00     0.000 C 
BRANCH   7   8
ATOM      8  C   UNL     1       3.723  26.121  12.510  1.00  0.00     0.000 C 
BRANCH   8   9
ATOM      9  C   UNL     1       4.075  27.457  13.191  1.00  0.00     0.000 C 
BRANCH   9  10
ATOM     10  C   UNL     1       2.894  28.098  13.953  1.00  0.00     0.000 C 
BRANCH  10  11
ATOM     11  C   UNL     1       3.173  28.214  15.463  1.00  0.00     0.000 C 
BRANCH  11  12
ATOM     12  C   UNL     1       2.897  26.900  16.216  1.00  0.00     0.000 C 
BRANCH  12  13
ATOM     13  C   UNL     1       4.149  26.282  16.875  1.00  0.00     0.006 C 
BRANCH  13  14
ATOM     14  C   UNL     1       5.430  27.097  16.640  1.00  0.00     0.053 C 
BRANCH  14  15
ATOM     15  C   UNL     1       6.569  26.243  16.179  1.00  0.00     0.041 C 
ATOM     16  O   UNL     1       7.207  25.536  17.004  1.00  0.00    -0.550 OA
ATOM     17  O   UNL     1       6.943  26.246  14.841  1.00  0.00    -0.550 OA
ENDBRANCH  14  15
ENDBRANCH  13  14
ENDBRANCH  12  13
ENDBRANCH  11  12
ENDBRANCH  10  11
ENDBRANCH   9  10
ENDBRANCH   8   9
ENDBRANCH   7   8
ENDBRANCH   6   7
ENDBRANCH   5   6
ENDBRANCH   4   5
ENDBRANCH   3   4
ENDBRANCH   2   3
ENDBRANCH   1   2
BRANCH   1  18
ATOM     18  C   UNL     1       4.032  19.223  14.829  1.00  0.00     0.000 C 
BRANCH  18  19
ATOM     19  C   UNL     1       4.767  18.056  15.519  1.00  0.00     0.000 C 
BRANCH  19  20
ATOM     20  C   UNL     1       5.502  17.091  14.568  1.00  0.00     0.000 C 
BRANCH  20  21
ATOM     21  C   UNL     1       5.399  15.602  14.950  1.00  0.00     0.000 C 
BRANCH  21  22
ATOM     22  C   UNL     1       3.984  15.123  15.331  1.00  0.00     0.000 C 
BRANCH  22  23
ATOM     23  C   UNL     1       3.091  14.711  14.147  1.00  0.00     0.000 C 
BRANCH  23  24
ATOM     24  C   UNL     1       3.753  14.967  12.782  1.00  0.00    -0.000 C 
BRANCH  24  25
ATOM     25  C   UNL     1       2.778  15.578  11.761  1.00  0.00    -0.000 C 
BRANCH  25  26
ATOM     26  C   UNL     1       2.856  14.884  10.389  1.00  0.00    -0.000 C 
BRANCH  26  27
ATOM     27  C   UNL     1       3.026  15.887   9.234  1.00  0.00    -0.000 C 
BRANCH  27  28
ATOM     28  C   UNL     1       4.258  15.605   8.344  1.00  0.00    -0.000 C 
BRANCH  28  29
ATOM     29  C   UNL     1       4.812  16.855   7.636  1.00  0.00    -0.000 C 
BRANCH  29  30
ATOM     30  C   UNL     1       3.804  18.012   7.483  1.00  0.00    -0.000 C 
BRANCH  30  31
ATOM     31  C   UNL     1       3.054  18.041   6.138  1.00  0.00    -0.003 C 
ATOM     32  C   UNL     1       3.862  17.432   4.992  1.00  0.00     0.004 C 
ENDBRANCH  30  31
ENDBRANCH  29  30
ENDBRANCH  28  29
ENDBRANCH  27  28
ENDBRANCH  26  27
ENDBRANCH  25  26
ENDBRANCH  24  25
ENDBRANCH  23  24
ENDBRANCH  22  23
ENDBRANCH  21  22
ENDBRANCH  20  21
ENDBRANCH  19  20
ENDBRANCH  18  19
ENDBRANCH   1  18
TORSDOF 28
ENDMDL
MODEL 4
REMARK VINA RESULT:    -3.226      3.093     11.204
REMARK INTER + INTRA:         -11.660
REMARK INTER:                  -9.709
REMARK INTRA:                  -1.951
REMARK UNBOUND:                -3.154
REMARK SMILES CCCCCCCCCCCCCCCCCCCCCCCCCCCCCC(=O)[O-]
REMARK SMILES IDX 16 1 17 2 18 3 19 4 20 5 21 6 22 7 23 8 24 9 25 10 26 11
REMARK SMILES IDX 27 12 28 13 29 14 30 15 31 16 32 17 15 18 14 19 13 20 12 21
REMARK SMILES IDX 11 22 10 23 9 24 8 25 7 26 6 27 5 28 4 29 3 30 2 31 1 32
REMARK H PARENT
REMARK Flexibility Score: inf
ROOT
ATOM      1  C   UNL     1       1.923  21.836  14.998  1.00  0.00     0.000 C 
ENDROOT
BRANCH   1   2
ATOM      2  C   UNL     1       3.021  20.783  15.205  1.00  0.00     0.000 C 
BRANCH   2   3
ATOM      3  C   UNL     1       2.411  19.430  15.603  1.00  0.00     0.000 C 
BRANCH   3   4
ATOM      4  C   UNL     1       3.114  18.238  14.934  1.00  0.00     0.000 C 
BRANCH   4   5
ATOM      5  C   UNL     1       4.646  18.369  14.951  1.00  0.00     0.000 C 
BRANCH   5   6
ATOM      6  C   UNL     1       5.342  17.271  14.130  1.00  0.00     0.000 C 
BRANCH   6   7
ATOM      7  C   UNL     1       4.468  16.761  12.970  1.00  0.00     0.000 C 
BRANCH   7   8
ATOM      8  C   UNL     1       4.787  15.307  12.580  1.00  0.00     0.000 C 
BRANCH   8   9
ATOM      9  C   UNL     1       3.563  14.379  12.463  1.00  0.00     0.000 C 
BRANCH   9  10
ATOM     10  C   UNL     1       2.384  14.999  11.681  1.00  0.00     0.000 C 
BRANCH  10  11
ATOM     11  C   UNL     1       2.614  14.962  10.159  1.00  0.00     0.000 C 
BRANCH  11  12
ATOM     12  C   UNL     1       4.037  15.398   9.767  1.00  0.00     0.000 C 
BRANCH  12  13
ATOM     13  C   UNL     1       4.077  16.544   8.732  1.00  0.00     0.006 C 
BRANCH  13  14
ATOM     14  C   UNL     1       4.159  16.052   7.278  1.00  0.00     0.053 C 
BRANCH  14  15
ATOM     15  C   UNL     1       4.080  17.177   6.295  1.00  0.00     0.041 C 
ATOM     16  O   UNL     1       4.360  16.981   5.082  1.00  0.00    -0.550 OA
ATOM     17  O   UNL     1       3.722  18.450   6.721  1.00  0.00    -0.550 OA
ENDBRANCH  14  15
ENDBRANCH  13  14
ENDBRANCH  12  13
ENDBRANCH  11  12
ENDBRANCH  10  11
ENDBRANCH   9  10
ENDBRANCH   8   9
ENDBRANCH   7   8
ENDBRANCH   6   7
ENDBRANCH   5   6
ENDBRANCH   4   5
ENDBRANCH   3   4
ENDBRANCH   2   3
ENDBRANCH   1   2
BRANCH   1  18
ATOM     18  C   UNL     1       2.407  23.274  15.262  1.00  0.00     0.000 C 
BRANCH  18  19
ATOM     19  C   UNL     1       3.433  23.815  14.246  1.00  0.00     0.000 C 
BRANCH  19  20
ATOM     20  C   UNL     1       4.632  24.563  14.861  1.00  0.00     0.000 C 
BRANCH  20  21
ATOM     21  C   UNL     1       5.365  25.516  13.897  1.00  0.00     0.000 C 
BRANCH  21  22
ATOM     22  C   UNL     1       6.276  26.557  14.579  1.00  0.00     0.000 C 
BRANCH  22  23
ATOM     23  C   UNL     1       6.982  26.070  15.857  1.00  0.00     0.000 C 
BRANCH  23  24
ATOM     24  C   UNL     1       6.132  26.270  17.123  1.00  0.00    -0.000 C 
BRANCH  24  25
ATOM     25  C   UNL     1       5.383  27.613  17.125  1.00  0.00    -0.000 C 
BRANCH  25  26
ATOM     26  C   UNL     1       3.874  27.442  16.877  1.00  0.00    -0.000 C 
BRANCH  26  27
ATOM     27  C   UNL     1       3.338  28.430  15.826  1.00  0.00    -0.000 C 
BRANCH  27  28
ATOM     28  C   UNL     1       1.934  28.066  15.290  1.00  0.00    -0.000 C 
BRANCH  28  29
ATOM     29  C   UNL     1       1.962  27.213  14.008  1.00  0.00    -0.000 C 
BRANCH  29  30
ATOM     30  C   UNL     1       2.146  28.013  12.703  1.00  0.00    -0.000 C 
BRANCH  30  31
ATOM     31  C   UNL     1       3.565  27.958  12.107  1.00  0.00    -0.003 C 
ATOM     32  C   UNL     1       4.437  29.137  12.538  1.00  0.00     0.004 C 
ENDBRANCH  30  31
ENDBRANCH  29  30
ENDBRANCH  28  29
ENDBRANCH  27  28
ENDBRANCH  26  27
ENDBRANCH  25  26
ENDBRANCH  24  25
ENDBRANCH  23  24
ENDBRANCH  22  23
ENDBRANCH  21  22
ENDBRANCH  20  21
ENDBRANCH  19  20
ENDBRANCH  18  19
ENDBRANCH   1  18
TORSDOF 28
ENDMDL
MODEL 5
REMARK VINA RESULT:    -3.194      2.152      4.322
REMARK INTER + INTRA:         -11.576
REMARK INTER:                  -9.312
REMARK INTRA:                  -2.264
REMARK UNBOUND:                -3.154
REMARK SMILES CCCCCCCCCCCCCCCCCCCCCCCCCCCCCC(=O)[O-]
REMARK SMILES IDX 16 1 17 2 18 3 19 4 20 5 21 6 22 7 23 8 24 9 25 10 26 11
REMARK SMILES IDX 27 12 28 13 29 14 30 15 31 16 32 17 15 18 14 19 13 20 12 21
REMARK SMILES IDX 11 22 10 23 9 24 8 25 7 26 6 27 5 28 4 29 3 30 2 31 1 32
REMARK H PARENT
REMARK Flexibility Score: inf
ROOT
ATOM      1  C   UNL     1       5.741  18.654  14.477  1.00  0.00     0.000 C 
ENDROOT
BRANCH   1   2
ATOM      2  C   UNL     1       4.745  19.643  15.099  1.00  0.00     0.000 C 
BRANCH   2   3
ATOM      3  C   UNL     1       3.498  18.907  15.616  1.00  0.00     0.000 C 
BRANCH   3   4
ATOM      4  C   UNL     1       2.188  19.492  15.063  1.00  0.00     0.000 C 
BRANCH   4   5
ATOM      5  C   UNL     1       1.875  20.886  15.633  1.00  0.00     0.000 C 
BRANCH   5   6
ATOM      6  C   UNL     1       1.983  21.995  14.573  1.00  0.00     0.000 C 
BRANCH   6   7
ATOM      7  C   UNL     1       2.603  23.287  15.135  1.00  0.00     0.000 C 
BRANCH   7   8
ATOM      8  C   UNL     1       3.216  24.178  14.039  1.00  0.00     0.000 C 
BRANCH   8   9
ATOM      9  C   UNL     1       2.401  25.437  13.690  1.00  0.00     0.000 C 
BRANCH   9  10
ATOM     10  C   UNL     1       3.005  26.270  12.538  1.00  0.00     0.000 C 
BRANCH  10  11
ATOM     11  C   UNL     1       3.536  27.631  13.023  1.00  0.00     0.000 C 
BRANCH  11  12
ATOM     12  C   UNL     1       4.558  27.491  14.167  1.00  0.00     0.000 C 
BRANCH  12  13
ATOM     13  C   UNL     1       5.733  26.544  13.843  1.00  0.00     0.006 C 
BRANCH  13  14
ATOM     14  C   UNL     1       6.064  25.568  14.983  1.00  0.00     0.053 C 
BRANCH  14  15
ATOM     15  C   UNL     1       6.995  26.167  15.989  1.00  0.00     0.041 C 
ATOM     16  O   UNL     1       7.136  25.633  17.122  1.00  0.00    -0.550 OA
ATOM     17  O   UNL     1       7.690  27.331  15.686  1.00  0.00    -0.550 OA
ENDBRANCH  14  15
ENDBRANCH  13  14
ENDBRANCH  12  13
ENDBRANCH  11  12
ENDBRANCH  10  11
ENDBRANCH   9  10
ENDBRANCH   8   9
ENDBRANCH   7   8
ENDBRANCH   6   7
ENDBRANCH   5   6
ENDBRANCH   4   5
ENDBRANCH   3   4
ENDBRANCH   2   3
ENDBRANCH   1   2
BRANCH   1  18
ATOM     18  C   UNL     1       5.058  17.441  13.820  1.00  0.00     0.000 C 
BRANCH  18  19
ATOM     19  C   UNL     1       5.770  16.091  14.040  1.00  0.00     0.000 C 
BRANCH  19  20
ATOM     20  C   UNL     1       4.886  14.972  14.623  1.00  0.00     0.000 C 
BRANCH  20  21
ATOM     21  C   UNL     1       4.095  14.159  13.580  1.00  0.00     0.000 C 
BRANCH  21  22
ATOM     22  C   UNL     1       2.564  14.316  13.656  1.00  0.00     0.000 C 
BRANCH  22  23
ATOM     23  C   UNL     1       1.875  14.665  12.324  1.00  0.00     0.000 C 
BRANCH  23  24
ATOM     24  C   UNL     1       2.034  16.145  11.938  1.00  0.00    -0.000 C 
BRANCH  24  25
ATOM     25  C   UNL     1       2.420  16.330  10.461  1.00  0.00    -0.000 C 
BRANCH  25  26
ATOM     26  C   UNL     1       3.944  16.319  10.248  1.00  0.00    -0.000 C 
BRANCH  26  27
ATOM     27  C   UNL     1       4.391  17.316   9.163  1.00  0.00    -0.000 C 
BRANCH  27  28
ATOM     28  C   UNL     1       3.280  18.300   8.728  1.00  0.00    -0.000 C 
BRANCH  28  29
ATOM     29  C   UNL     1       3.367  18.720   7.249  1.00  0.00    -0.000 C 
BRANCH  29  30
ATOM     30  C   UNL     1       3.069  17.595   6.238  1.00  0.00    -0.000 C 
BRANCH  30  31
ATOM     31  C   UNL     1       3.557  17.871   4.804  1.00  0.00    -0.003 C 
ATOM     32  C   UNL     1       2.481  17.614   3.749  1.00  0.00     0.004 C 
ENDBRANCH  30  31
ENDBRANCH  29  30
ENDBRANCH  28  29
ENDBRANCH  27  28
ENDBRANCH  26  27
ENDBRANCH  25  26
ENDBRANCH  24  25
ENDBRANCH  23  24
ENDBRANCH  22  23
ENDBRANCH  21  22
ENDBRANCH  20  21
ENDBRANCH  19  20
ENDBRANCH  18  19
ENDBRANCH   1  18
TORSDOF 28
ENDMDL
MODEL 6
REMARK VINA RESULT:    -3.083      2.926     11.309
REMARK INTER + INTRA:         -11.283
REMARK INTER:                  -9.509
REMARK INTRA:                  -1.774
REMARK UNBOUND:                -3.154
REMARK SMILES CCCCCCCCCCCCCCCCCCCCCCCCCCCCCC(=O)[O-]
REMARK SMILES IDX 16 1 17 2 18 3 19 4 20 5 21 6 22 7 23 8 24 9 25 10 26 11
REMARK SMILES IDX 27 12 28 13 29 14 30 15 31 16 32 17 15 18 14 19 13 20 12 21
REMARK SMILES IDX 11 22 10 23 9 24 8 25 7 26 6 27 5 28 4 29 3 30 2 31 1 32
REMARK H PARENT
REMARK Flexibility Score: inf
ROOT
ATOM      1  C   UNL     1       2.106  21.247  14.948  1.00  0.00     0.000 C 
ENDROOT
BRANCH   1   2
ATOM      2  C   UNL     1       3.206  20.223  15.260  1.00  0.00     0.000 C 
BRANCH   2   3
ATOM      3  C   UNL     1       2.696  18.790  15.036  1.00  0.00     0.000 C 
BRANCH   3   4
ATOM      4  C   UNL     1       3.714  17.902  14.302  1.00  0.00     0.000 C 
BRANCH   4   5
ATOM      5  C   UNL     1       5.061  17.812  15.041  1.00  0.00     0.000 C 
BRANCH   5   6
ATOM      6  C   UNL     1       5.623  16.381  15.069  1.00  0.00     0.000 C 
BRANCH   6   7
ATOM      7  C   UNL     1       4.928  15.455  14.055  1.00  0.00     0.000 C 
BRANCH   7   8
ATOM      8  C   UNL     1       3.865  14.552  14.706  1.00  0.00     0.000 C 
BRANCH   8   9
ATOM      9  C   UNL     1       2.557  14.404  13.907  1.00  0.00     0.000 C 
BRANCH   9  10
ATOM     10  C   UNL     1       2.773  14.107  12.407  1.00  0.00     0.000 C 
BRANCH  10  11
ATOM     11  C   UNL     1       2.803  15.392  11.560  1.00  0.00     0.000 C 
BRANCH  11  12
ATOM     12  C   UNL     1       3.572  15.209  10.239  1.00  0.00     0.000 C 
BRANCH  12  13
ATOM     13  C   UNL     1       2.674  15.239   8.983  1.00  0.00     0.006 C 
BRANCH  13  14
ATOM     14  C   UNL     1       2.459  16.651   8.417  1.00  0.00     0.053 C 
BRANCH  14  15
ATOM     15  C   UNL     1       3.747  17.393   8.243  1.00  0.00     0.041 C 
ATOM     16  O   UNL     1       3.788  18.642   8.406  1.00  0.00    -0.550 OA
ATOM     17  O   UNL     1       4.899  16.710   7.875  1.00  0.00    -0.550 OA
ENDBRANCH  14  15
ENDBRANCH  13  14
ENDBRANCH  12  13
ENDBRANCH  11  12
ENDBRANCH  10  11
ENDBRANCH   9  10
ENDBRANCH   8   9
ENDBRANCH   7   8
ENDBRANCH   6   7
ENDBRANCH   5   6
ENDBRANCH   4   5
ENDBRANCH   3   4
ENDBRANCH   2   3
ENDBRANCH   1   2
BRANCH   1  18
ATOM     18  C   UNL     1       2.636  22.688  14.838  1.00  0.00     0.000 C 
BRANCH  18  19
ATOM     19  C   UNL     1       2.031  23.686  15.846  1.00  0.00     0.000 C 
BRANCH  19  20
ATOM     20  C   UNL     1       2.094  25.166  15.420  1.00  0.00     0.000 C 
BRANCH  20  21
ATOM     21  C   UNL     1       2.701  26.117  16.469  1.00  0.00     0.000 C 
BRANCH  21  22
ATOM     22  C   UNL     1       2.924  27.564  15.985  1.00  0.00     0.000 C 
BRANCH  22  23
ATOM     23  C   UNL     1       1.875  28.088  14.987  1.00  0.00     0.000 C 
BRANCH  23  24
ATOM     24  C   UNL     1       1.879  27.320  13.655  1.00  0.00    -0.000 C 
BRANCH  24  25
ATOM     25  C   UNL     1       2.149  28.234  12.448  1.00  0.00    -0.000 C 
BRANCH  25  26
ATOM     26  C   UNL     1       3.578  28.073  11.899  1.00  0.00    -0.000 C 
BRANCH  26  27
ATOM     27  C   UNL     1       4.599  28.932  12.666  1.00  0.00    -0.000 C 
BRANCH  27  28
ATOM     28  C   UNL     1       5.601  28.105  13.504  1.00  0.00    -0.000 C 
BRANCH  28  29
ATOM     29  C   UNL     1       5.379  26.584  13.414  1.00  0.00    -0.000 C 
BRANCH  29  30
ATOM     30  C   UNL     1       5.990  25.771  14.573  1.00  0.00    -0.000 C 
BRANCH  30  31
ATOM     31  C   UNL     1       6.594  26.619  15.708  1.00  0.00    -0.003 C 
ATOM     32  C   UNL     1       6.944  25.795  16.946  1.00  0.00     0.004 C 
ENDBRANCH  30  31
ENDBRANCH  29  30
ENDBRANCH  28  29
ENDBRANCH  27  28
ENDBRANCH  26  27
ENDBRANCH  25  26
ENDBRANCH  24  25
ENDBRANCH  23  24
ENDBRANCH  22  23
ENDBRANCH  21  22
ENDBRANCH  20  21
ENDBRANCH  19  20
ENDBRANCH  18  19
ENDBRANCH   1  18
TORSDOF 28
ENDMDL
MODEL 7
REMARK VINA RESULT:    -2.868      3.172     11.008
REMARK INTER + INTRA:         -10.716
REMARK INTER:                  -8.886
REMARK INTRA:                  -1.829
REMARK UNBOUND:                -3.154
REMARK SMILES CCCCCCCCCCCCCCCCCCCCCCCCCCCCCC(=O)[O-]
REMARK SMILES IDX 16 1 17 2 18 3 19 4 20 5 21 6 22 7 23 8 24 9 25 10 26 11
REMARK SMILES IDX 27 12 28 13 29 14 30 15 31 16 32 17 15 18 14 19 13 20 12 21
REMARK SMILES IDX 11 22 10 23 9 24 8 25 7 26 6 27 5 28 4 29 3 30 2 31 1 32
REMARK H PARENT
REMARK Flexibility Score: inf
ROOT
ATOM      1  C   UNL     1       1.875  21.937  14.902  1.00  0.00     0.000 C 
ENDROOT
BRANCH   1   2
ATOM      2  C   UNL     1       2.474  20.711  15.606  1.00  0.00     0.000 C 
BRANCH   2   3
ATOM      3  C   UNL     1       2.224  19.435  14.787  1.00  0.00     0.000 C 
BRANCH   3   4
ATOM      4  C   UNL     1       3.429  18.481  14.783  1.00  0.00     0.000 C 
BRANCH   4   5
ATOM      5  C   UNL     1       3.913  18.133  16.201  1.00  0.00     0.000 C 
BRANCH   5   6
ATOM      6  C   UNL     1       3.301  16.826  16.730  1.00  0.00     0.000 C 
BRANCH   6   7
ATOM      7  C   UNL     1       4.017  15.577  16.182  1.00  0.00     0.000 C 
BRANCH   7   8
ATOM      8  C   UNL     1       3.167  14.807  15.156  1.00  0.00     0.000 C 
BRANCH   8   9
ATOM      9  C   UNL     1       3.280  15.310  13.705  1.00  0.00     0.000 C 
BRANCH   9  10
ATOM     10  C   UNL     1       4.408  14.632  12.896  1.00  0.00     0.000 C 
BRANCH  10  11
ATOM     11  C   UNL     1       4.187  14.756  11.377  1.00  0.00     0.000 C 
BRANCH  11  12
ATOM     12  C   UNL     1       3.731  16.166  10.961  1.00  0.00     0.000 C 
BRANCH  12  13
ATOM     13  C   UNL     1       2.439  16.181  10.114  1.00  0.00     0.006 C 
BRANCH  13  14
ATOM     14  C   UNL     1       2.700  16.121   8.601  1.00  0.00     0.053 C 
BRANCH  14  15
ATOM     15  C   UNL     1       3.995  16.768   8.223  1.00  0.00     0.041 C 
ATOM     16  O   UNL     1       4.050  18.010   8.022  1.00  0.00    -0.550 OA
ATOM     17  O   UNL     1       5.138  15.994   8.066  1.00  0.00    -0.550 OA
ENDBRANCH  14  15
ENDBRANCH  13  14
ENDBRANCH  12  13
ENDBRANCH  11  12
ENDBRANCH  10  11
ENDBRANCH   9  10
ENDBRANCH   8   9
ENDBRANCH   7   8
ENDBRANCH   6   7
ENDBRANCH   5   6
ENDBRANCH   4   5
ENDBRANCH   3   4
ENDBRANCH   2   3
ENDBRANCH   1   2
BRANCH   1  18
ATOM     18  C   UNL     1       2.421  23.271  15.443  1.00  0.00     0.000 C 
BRANCH  18  19
ATOM     19  C   UNL     1       2.944  24.247  14.370  1.00  0.00     0.000 C 
BRANCH  19  20
ATOM     20  C   UNL     1       2.554  25.722  14.580  1.00  0.00     0.000 C 
BRANCH  20  21
ATOM     21  C   UNL     1       1.931  26.039  15.954  1.00  0.00     0.000 C 
BRANCH  21  22
ATOM     22  C   UNL     1       2.931  26.096  17.125  1.00  0.00     0.000 C 
BRANCH  22  23
ATOM     23  C   UNL     1       4.125  27.046  16.919  1.00  0.00     0.000 C 
BRANCH  23  24
ATOM     24  C   UNL     1       5.484  26.343  17.080  1.00  0.00    -0.000 C 
BRANCH  24  25
ATOM     25  C   UNL     1       6.453  26.665  15.929  1.00  0.00    -0.000 C 
BRANCH  25  26
ATOM     26  C   UNL     1       6.133  25.864  14.654  1.00  0.00    -0.000 C 
BRANCH  26  27
ATOM     27  C   UNL     1       5.836  26.776  13.450  1.00  0.00    -0.000 C 
BRANCH  27  28
ATOM     28  C   UNL     1       5.243  28.149  13.842  1.00  0.00    -0.000 C 
BRANCH  28  29
ATOM     29  C   UNL     1       5.048  29.104  12.650  1.00  0.00    -0.000 C 
BRANCH  29  30
ATOM     30  C   UNL     1       3.715  28.933  11.895  1.00  0.00    -0.000 C 
BRANCH  30  31
ATOM     31  C   UNL     1       2.892  27.700  12.311  1.00  0.00    -0.003 C 
ATOM     32  C   UNL     1       2.085  27.106  11.157  1.00  0.00     0.004 C 
ENDBRANCH  30  31
ENDBRANCH  29  30
ENDBRANCH  28  29
ENDBRANCH  27  28
ENDBRANCH  26  27
ENDBRANCH  25  26
ENDBRANCH  24  25
ENDBRANCH  23  24
ENDBRANCH  22  23
ENDBRANCH  21  22
ENDBRANCH  20  21
ENDBRANCH  19  20
ENDBRANCH  18  19
ENDBRANCH   1  18
TORSDOF 28
ENDMDL
MODEL 8
REMARK VINA RESULT:    -2.858      3.440     11.425
REMARK INTER + INTRA:         -10.689
REMARK INTER:                  -8.715
REMARK INTRA:                  -1.974
REMARK UNBOUND:                -3.154
REMARK SMILES CCCCCCCCCCCCCCCCCCCCCCCCCCCCCC(=O)[O-]
REMARK SMILES IDX 16 1 17 2 18 3 19 4 20 5 21 6 22 7 23 8 24 9 25 10 26 11
REMARK SMILES IDX 27 12 28 13 29 14 30 15 31 16 32 17 15 18 14 19 13 20 12 21
REMARK SMILES IDX 11 22 10 23 9 24 8 25 7 26 6 27 5 28 4 29 3 30 2 31 1 32
REMARK H PARENT
REMARK Flexibility Score: inf
ROOT
ATOM      1  C   UNL     1       3.908  18.705  14.877  1.00  0.00     0.000 C 
ENDROOT
BRANCH   1   2
ATOM      2  C   UNL     1       4.635  18.031  16.050  1.00  0.00     0.000 C 
BRANCH   2   3
ATOM      3  C   UNL     1       3.631  17.357  16.999  1.00  0.00     0.000 C 
BRANCH   3   4
ATOM      4  C   UNL     1       2.591  16.502  16.257  1.00  0.00     0.000 C 
BRANCH   4   5
ATOM      5  C   UNL     1       2.877  14.994  16.370  1.00  0.00     0.000 C 
BRANCH   5   6
ATOM      6  C   UNL     1       2.935  14.300  14.999  1.00  0.00     0.000 C 
BRANCH   6   7
ATOM      7  C   UNL     1       2.952  15.304  13.832  1.00  0.00     0.000 C 
BRANCH   7   8
ATOM      8  C   UNL     1       4.227  15.198  12.976  1.00  0.00     0.000 C 
BRANCH   8   9
ATOM      9  C   UNL     1       4.303  16.183  11.794  1.00  0.00     0.000 C 
BRANCH   9  10
ATOM     10  C   UNL     1       3.257  15.913  10.689  1.00  0.00     0.000 C 
BRANCH  10  11
ATOM     11  C   UNL     1       3.844  16.097   9.278  1.00  0.00     0.000 C 
BRANCH  11  12
ATOM     12  C   UNL     1       2.776  15.974   8.175  1.00  0.00     0.000 C 
BRANCH  12  13
ATOM     13  C   UNL     1       3.023  14.809   7.193  1.00  0.00     0.006 C 
BRANCH  13  14
ATOM     14  C   UNL     1       3.397  15.271   5.776  1.00  0.00     0.053 C 
BRANCH  14  15
ATOM     15  C   UNL     1       4.530  16.249   5.780  1.00  0.00     0.041 C 
ATOM     16  O   UNL     1       5.622  15.953   6.333  1.00  0.00    -0.550 OA
ATOM     17  O   UNL     1       4.371  17.498   5.194  1.00  0.00    -0.550 OA
ENDBRANCH  14  15
ENDBRANCH  13  14
ENDBRANCH  12  13
ENDBRANCH  11  12
ENDBRANCH  10  11
ENDBRANCH   9  10
ENDBRANCH   8   9
ENDBRANCH   7   8
ENDBRANCH   6   7
ENDBRANCH   5   6
ENDBRANCH   4   5
ENDBRANCH   3   4
ENDBRANCH   2   3
ENDBRANCH   1   2
BRANCH   1  18
ATOM     18  C   UNL     1       2.802  19.676  15.329  1.00  0.00     0.000 C 
BRANCH  18  19
ATOM     19  C   UNL     1       3.054  21.158  14.988  1.00  0.00     0.000 C 
BRANCH  19  20
ATOM     20  C   UNL     1       1.876  22.107  15.281  1.00  0.00     0.000 C 
BRANCH  20  21
ATOM     21  C   UNL     1       2.245  23.602  15.338  1.00  0.00     0.000 C 
BRANCH  21  22
ATOM     22  C   UNL     1       3.112  24.103  14.167  1.00  0.00     0.000 C 
BRANCH  22  23
ATOM     23  C   UNL     1       4.622  24.186  14.459  1.00  0.00     0.000 C 
BRANCH  23  24
ATOM     24  C   UNL     1       5.242  25.527  14.032  1.00  0.00    -0.000 C 
BRANCH  24  25
ATOM     25  C   UNL     1       6.389  25.967  14.957  1.00  0.00    -0.000 C 
BRANCH  25  26
ATOM     26  C   UNL     1       5.884  26.744  16.186  1.00  0.00    -0.000 C 
BRANCH  26  27
ATOM     27  C   UNL     1       4.351  26.890  16.197  1.00  0.00    -0.000 C 
BRANCH  27  28
ATOM     28  C   UNL     1       3.866  28.355  16.099  1.00  0.00    -0.000 C 
BRANCH  28  29
ATOM     29  C   UNL     1       2.657  28.547  15.164  1.00  0.00    -0.000 C 
BRANCH  29  30
ATOM     30  C   UNL     1       2.653  27.641  13.917  1.00  0.00    -0.000 C 
BRANCH  30  31
ATOM     31  C   UNL     1       3.229  28.291  12.645  1.00  0.00    -0.003 C 
ATOM     32  C   UNL     1       4.601  28.926  12.869  1.00  0.00     0.004 C 
ENDBRANCH  30  31
ENDBRANCH  29  30
ENDBRANCH  28  29
ENDBRANCH  27  28
ENDBRANCH  26  27
ENDBRANCH  25  26
ENDBRANCH  24  25
ENDBRANCH  23  24
ENDBRANCH  22  23
ENDBRANCH  21  22
ENDBRANCH  20  21
ENDBRANCH  19  20
ENDBRANCH  18  19
ENDBRANCH   1  18
TORSDOF 28
ENDMDL
MODEL 9
REMARK VINA RESULT:    -1.469      1.258      2.356
REMARK INTER + INTRA:          -7.027
REMARK INTER:                  -5.031
REMARK INTRA:                  -1.996
REMARK UNBOUND:                -3.154
REMARK SMILES CCCCCCCCCCCCCCCCCCCCCCCCCCCCCC(=O)[O-]
REMARK SMILES IDX 16 1 17 2 18 3 19 4 20 5 21 6 22 7 23 8 24 9 25 10 26 11
REMARK SMILES IDX 27 12 28 13 29 14 30 15 31 16 32 17 15 18 14 19 13 20 12 21
REMARK SMILES IDX 11 22 10 23 9 24 8 25 7 26 6 27 5 28 4 29 3 30 2 31 1 32
REMARK H PARENT
REMARK Flexibility Score: inf
ROOT
ATOM      1  C   UNL     1       1.911  23.099  14.800  1.00  0.00     0.000 C 
ENDROOT
BRANCH   1   2
ATOM      2  C   UNL     1       2.852  24.173  15.363  1.00  0.00     0.000 C 
BRANCH   2   3
ATOM      3  C   UNL     1       4.263  24.026  14.773  1.00  0.00     0.000 C 
BRANCH   3   4
ATOM      4  C   UNL     1       4.757  25.307  14.082  1.00  0.00     0.000 C 
BRANCH   4   5
ATOM      5  C   UNL     1       6.233  25.613  14.387  1.00  0.00     0.000 C 
BRANCH   5   6
ATOM      6  C   UNL     1       6.488  25.854  15.884  1.00  0.00     0.000 C 
BRANCH   6   7
ATOM      7  C   UNL     1       5.907  27.194  16.372  1.00  0.00     0.000 C 
BRANCH   7   8
ATOM      8  C   UNL     1       4.435  27.080  16.808  1.00  0.00     0.000 C 
BRANCH   8   9
ATOM      9  C   UNL     1       3.673  28.415  16.887  1.00  0.00     0.000 C 
BRANCH   9  10
ATOM     10  C   UNL     1       2.868  28.750  15.611  1.00  0.00     0.000 C 
BRANCH  10  11
ATOM     11  C   UNL     1       1.910  27.611  15.215  1.00  0.00     0.000 C 
BRANCH  11  12
ATOM     12  C   UNL     1       1.941  27.314  13.705  1.00  0.00     0.000 C 
BRANCH  12  13
ATOM     13  C   UNL     1       2.610  28.421  12.863  1.00  0.00     0.006 C 
BRANCH  13  14
ATOM     14  C   UNL     1       3.983  28.019  12.302  1.00  0.00     0.053 C 
BRANCH  14  15
ATOM     15  C   UNL     1       5.041  29.030  12.613  1.00  0.00     0.041 C 
ATOM     16  O   UNL     1       6.067  28.696  13.265  1.00  0.00    -0.550 OA
ATOM     17  O   UNL     1       4.884  30.348  12.205  1.00  0.00    -0.550 OA
ENDBRANCH  14  15
ENDBRANCH  13  14
ENDBRANCH  12  13
ENDBRANCH  11  12
ENDBRANCH  10  11
ENDBRANCH   9  10
ENDBRANCH   8   9
ENDBRANCH   7   8
ENDBRANCH   6   7
ENDBRANCH   5   6
ENDBRANCH   4   5
ENDBRANCH   3   4
ENDBRANCH   2   3
ENDBRANCH   1   2
BRANCH   1  18
ATOM     18  C   UNL     1       1.875  21.819  15.654  1.00  0.00     0.000 C 
BRANCH  18  19
ATOM     19  C   UNL     1       2.290  20.529  14.918  1.00  0.00     0.000 C 
BRANCH  19  20
ATOM     20  C   UNL     1       3.687  19.990  15.277  1.00  0.00     0.000 C 
BRANCH  20  21
ATOM     21  C   UNL     1       3.816  18.454  15.256  1.00  0.00     0.000 C 
BRANCH  21  22
ATOM     22  C   UNL     1       3.022  17.750  14.138  1.00  0.00     0.000 C 
BRANCH  22  23
ATOM     23  C   UNL     1       3.860  17.286  12.933  1.00  0.00     0.000 C 
BRANCH  23  24
ATOM     24  C   UNL     1       4.957  16.278  13.320  1.00  0.00    -0.000 C 
BRANCH  24  25
ATOM     25  C   UNL     1       4.729  14.891  12.696  1.00  0.00    -0.000 C 
BRANCH  25  26
ATOM     26  C   UNL     1       3.743  14.935  11.515  1.00  0.00    -0.000 C 
BRANCH  26  27
ATOM     27  C   UNL     1       4.310  15.703  10.308  1.00  0.00    -0.000 C 
BRANCH  27  28
ATOM     28  C   UNL     1       3.654  15.317   8.962  1.00  0.00    -0.000 C 
BRANCH  28  29
ATOM     29  C   UNL     1       3.393  16.516   8.032  1.00  0.00    -0.000 C 
BRANCH  29  30
ATOM     30  C   UNL     1       4.266  16.553   6.762  1.00  0.00    -0.000 C 
BRANCH  30  31
ATOM     31  C   UNL     1       3.488  16.415   5.440  1.00  0.00    -0.003 C 
ATOM     32  C   UNL     1       4.170  17.126   4.271  1.00  0.00     0.004 C 
ENDBRANCH  30  31
ENDBRANCH  29  30
ENDBRANCH  28  29
ENDBRANCH  27  28
ENDBRANCH  26  27
ENDBRANCH  25  26
ENDBRANCH  24  25
ENDBRANCH  23  24
ENDBRANCH  22  23
ENDBRANCH  21  22
ENDBRANCH  20  21
ENDBRANCH  19  20
ENDBRANCH  18  19
ENDBRANCH   1  18
TORSDOF 28
ENDMDL
