MODEL 1
REMARK VINA RESULT:    -2.939      0.000      0.000
REMARK INTER + INTRA:          -3.718
REMARK INTER:                  -3.455
REMARK INTRA:                  -0.264
REMARK UNBOUND:                -0.264
REMARK SMILES O=c1cc(-c2ccc(O)c(O)c2)oc2cc(O)cc(O)c12
REMARK SMILES IDX 4 1 3 2 2 3 1 4 21 5 19 6 18 7 16 8 15 9 14 10 13 11 5 12
REMARK SMILES IDX 6 13 7 14 8 15 12 16 10 17 9 18 11 20 20 22 17 24
REMARK H PARENT 9 19 11 21 20 23 17 25
REMARK Flexibility Score: inf
ROOT
ATOM      1  C   UNL     1      13.470 -12.751  29.249  1.00  0.00     0.138 A 
ATOM      2  C   UNL     1      13.816 -13.120  27.941  1.00  0.00     0.100 A 
ATOM      3  C   UNL     1      14.569 -14.275  27.725  1.00  0.00     0.197 A 
ATOM      4  O   UNL     1      14.916 -14.546  26.546  1.00  0.00    -0.289 OA
ATOM      5  C   UNL     1      14.951 -15.081  28.825  1.00  0.00     0.107 A 
ATOM      6  C   UNL     1      15.684 -16.301  28.721  1.00  0.00     0.134 A 
ATOM      7  C   UNL     1      16.107 -16.953  29.886  1.00  0.00     0.093 A 
ATOM      8  C   UNL     1      15.770 -16.461  31.150  1.00  0.00     0.123 A 
ATOM      9  C   UNL     1      15.009 -15.300  31.260  1.00  0.00     0.094 A 
ATOM     10  C   UNL     1      14.601 -14.607  30.118  1.00  0.00     0.146 A 
ATOM     11  O   UNL     1      13.888 -13.496  30.267  1.00  0.00    -0.456 OA
ENDROOT
BRANCH   1  12
ATOM     12  C   UNL     1      12.671 -11.534  29.535  1.00  0.00     0.021 A 
ATOM     13  C   UNL     1      13.306 -10.397  30.059  1.00  0.00     0.016 A 
ATOM     14  C   UNL     1      12.574  -9.243  30.343  1.00  0.00     0.051 A 
ATOM     15  C   UNL     1      11.195  -9.199  30.121  1.00  0.00     0.157 A 
ATOM     16  C   UNL     1      11.279 -11.496  29.324  1.00  0.00     0.062 A 
ATOM     17  C   UNL     1      10.537 -10.342  29.610  1.00  0.00     0.158 A 
BRANCH  15  18
ATOM     18  O   UNL     1      10.522  -8.012  30.421  1.00  0.00    -0.504 OA
ATOM     19  H   UNL     1      10.942  -7.095  30.365  1.00  0.00     0.293 HD
ENDBRANCH  15  18
BRANCH  17  20
ATOM     20  O   UNL     1       9.161 -10.379  29.378  1.00  0.00    -0.504 OA
ATOM     21  H   UNL     1       8.548 -11.100  29.729  1.00  0.00     0.293 HD
ENDBRANCH  17  20
ENDBRANCH   1  12
BRANCH   6  22
ATOM     22  O   UNL     1      15.999 -16.923  27.509  1.00  0.00    -0.507 OA
ATOM     23  H   UNL     1      16.503 -17.793  27.421  1.00  0.00     0.293 HD
ENDBRANCH   6  22
BRANCH   8  24
ATOM     24  O   UNL     1      16.181 -17.124  32.303  1.00  0.00    -0.508 OA
ATOM     25  H   UNL     1      16.119 -16.689  33.216  1.00  0.00     0.293 HD
ENDBRANCH   8  24
TORSDOF 5
ENDMDL
MODEL 2
REMARK VINA RESULT:    -1.972      4.459      5.911
REMARK INTER + INTRA:          -2.582
REMARK INTER:                  -2.287
REMARK INTRA:                  -0.295
REMARK UNBOUND:                -0.264
REMARK SMILES O=c1cc(-c2ccc(O)c(O)c2)oc2cc(O)cc(O)c12
REMARK SMILES IDX 4 1 3 2 2 3 1 4 21 5 19 6 18 7 16 8 15 9 14 10 13 11 5 12
REMARK SMILES IDX 6 13 7 14 8 15 12 16 10 17 9 18 11 20 20 22 17 24
REMARK H PARENT 9 19 11 21 20 23 17 25
REMARK Flexibility Score: inf
ROOT
ATOM      1  C   UNL     1      14.137  -9.334  27.155  1.00  0.00     0.138 A 
ATOM      2  C   UNL     1      13.157  -8.948  28.079  1.00  0.00     0.100 A 
ATOM      3  C   UNL     1      12.831  -9.799  29.137  1.00  0.00     0.197 A 
ATOM      4  O   UNL     1      11.904  -9.453  29.914  1.00  0.00    -0.289 OA
ATOM      5  C   UNL     1      13.515 -11.030  29.285  1.00  0.00     0.107 A 
ATOM      6  C   UNL     1      13.296 -11.957  30.347  1.00  0.00     0.134 A 
ATOM      7  C   UNL     1      13.949 -13.196  30.326  1.00  0.00     0.093 A 
ATOM      8  C   UNL     1      14.858 -13.515  29.315  1.00  0.00     0.123 A 
ATOM      9  C   UNL     1      15.118 -12.594  28.304  1.00  0.00     0.094 A 
ATOM     10  C   UNL     1      14.458 -11.364  28.276  1.00  0.00     0.146 A 
ATOM     11  O   UNL     1      14.725 -10.519  27.286  1.00  0.00    -0.456 OA
ENDROOT
BRANCH   1  12
ATOM     12  C   UNL     1      14.521  -8.468  26.013  1.00  0.00     0.021 A 
ATOM     13  C   UNL     1      14.685  -7.089  26.215  1.00  0.00     0.016 A 
ATOM     14  C   UNL     1      15.038  -6.253  25.154  1.00  0.00     0.051 A 
ATOM     15  C   UNL     1      15.226  -6.770  23.869  1.00  0.00     0.157 A 
ATOM     16  C   UNL     1      14.696  -8.988  24.715  1.00  0.00     0.062 A 
ATOM     17  C   UNL     1      15.047  -8.155  23.645  1.00  0.00     0.158 A 
BRANCH  15  18
ATOM     18  O   UNL     1      15.585  -5.881  22.853  1.00  0.00    -0.504 OA
ATOM     19  H   UNL     1      16.498  -5.851  22.425  1.00  0.00     0.293 HD
ENDBRANCH  15  18
BRANCH  17  20
ATOM     20  O   UNL     1      15.202  -8.741  22.388  1.00  0.00    -0.504 OA
ATOM     21  H   UNL     1      14.633  -8.515  21.585  1.00  0.00     0.293 HD
ENDBRANCH  17  20
ENDBRANCH   1  12
BRANCH   6  22
ATOM     22  O   UNL     1      12.474 -11.704  31.449  1.00  0.00    -0.507 OA
ATOM     23  H   UNL     1      11.814 -10.943  31.514  1.00  0.00     0.293 HD
ENDBRANCH   6  22
BRANCH   8  24
ATOM     24  O   UNL     1      15.514 -14.743  29.310  1.00  0.00    -0.508 OA
ATOM     25  H   UNL     1      16.494 -14.822  29.554  1.00  0.00     0.293 HD
ENDBRANCH   8  24
TORSDOF 5
ENDMDL
MODEL 3
REMARK VINA RESULT:    -0.951      9.063     13.401
REMARK INTER + INTRA:          -1.381
REMARK INTER:                  -1.117
REMARK INTRA:                  -0.264
REMARK UNBOUND:                -0.264
REMARK SMILES O=c1cc(-c2ccc(O)c(O)c2)oc2cc(O)cc(O)c12
REMARK SMILES IDX 4 1 3 2 2 3 1 4 21 5 19 6 18 7 16 8 15 9 14 10 13 11 5 12
REMARK SMILES IDX 6 13 7 14 8 15 12 16 10 17 9 18 11 20 20 22 17 24
REMARK H PARENT 9 19 11 21 20 23 17 25
REMARK Flexibility Score: inf
ROOT
ATOM      1  C   UNL     1      15.497  -2.920  26.919  1.00  0.00     0.138 A 
ATOM      2  C   UNL     1      15.763  -2.582  28.254  1.00  0.00     0.100 A 
ATOM      3  C   UNL     1      15.768  -1.241  28.639  1.00  0.00     0.197 A 
ATOM      4  O   UNL     1      16.071  -0.966  29.830  1.00  0.00    -0.289 OA
ATOM      5  C   UNL     1      15.474  -0.235  27.688  1.00  0.00     0.107 A 
ATOM      6  C   UNL     1      15.410   1.161  27.976  1.00  0.00     0.134 A 
ATOM      7  C   UNL     1      15.226   2.074  26.930  1.00  0.00     0.093 A 
ATOM      8  C   UNL     1      15.042   1.636  25.616  1.00  0.00     0.123 A 
ATOM      9  C   UNL     1      15.049   0.273  25.333  1.00  0.00     0.094 A 
ATOM     10  C   UNL     1      15.265  -0.662  26.349  1.00  0.00     0.146 A 
ATOM     11  O   UNL     1      15.279  -1.953  26.034  1.00  0.00    -0.456 OA
ENDROOT
BRANCH   1  12
ATOM     12  C   UNL     1      15.480  -4.330  26.456  1.00  0.00     0.021 A 
ATOM     13  C   UNL     1      14.254  -4.946  26.163  1.00  0.00     0.016 A 
ATOM     14  C   UNL     1      14.211  -6.274  25.734  1.00  0.00     0.051 A 
ATOM     15  C   UNL     1      15.386  -7.018  25.596  1.00  0.00     0.157 A 
ATOM     16  C   UNL     1      16.664  -5.083  26.332  1.00  0.00     0.062 A 
ATOM     17  C   UNL     1      16.629  -6.416  25.904  1.00  0.00     0.158 A 
BRANCH  15  18
ATOM     18  O   UNL     1      15.275  -8.339  25.156  1.00  0.00    -0.504 OA
ATOM     19  H   UNL     1      14.726  -9.046  25.623  1.00  0.00     0.293 HD
ENDBRANCH  15  18
BRANCH  17  20
ATOM     20  O   UNL     1      17.842  -7.100  25.805  1.00  0.00    -0.504 OA
ATOM     21  H   UNL     1      18.717  -6.665  25.552  1.00  0.00     0.293 HD
ENDBRANCH  17  20
ENDBRANCH   1  12
BRANCH   6  22
ATOM     22  O   UNL     1      15.497   1.698  29.264  1.00  0.00    -0.507 OA
ATOM     23  H   UNL     1      16.090   1.343  29.998  1.00  0.00     0.293 HD
ENDBRANCH   6  22
BRANCH   8  24
ATOM     24  O   UNL     1      14.843   2.550  24.584  1.00  0.00    -0.508 OA
ATOM     25  H   UNL     1      15.064   3.532  24.696  1.00  0.00     0.293 HD
ENDBRANCH   8  24
TORSDOF 5
ENDMDL
MODEL 4
REMARK VINA RESULT:    -0.501      1.588      6.863
REMARK INTER + INTRA:          -0.853
REMARK INTER:                  -0.575
REMARK INTRA:                  -0.278
REMARK UNBOUND:                -0.264
REMARK SMILES O=c1cc(-c2ccc(O)c(O)c2)oc2cc(O)cc(O)c12
REMARK SMILES IDX 4 1 3 2 2 3 1 4 21 5 19 6 18 7 16 8 15 9 14 10 13 11 5 12
REMARK SMILES IDX 6 13 7 14 8 15 12 16 10 17 9 18 11 20 20 22 17 24
REMARK H PARENT 9 19 11 21 20 23 17 25
REMARK Flexibility Score: inf
ROOT
ATOM      1  C   UNL     1      13.599 -12.687  28.800  1.00  0.00     0.138 A 
ATOM      2  C   UNL     1      12.349 -12.307  28.291  1.00  0.00     0.100 A 
ATOM      3  C   UNL     1      11.690 -11.202  28.831  1.00  0.00     0.197 A 
ATOM      4  O   UNL     1      10.542 -10.924  28.396  1.00  0.00    -0.289 OA
ATOM      5  C   UNL     1      12.301 -10.456  29.868  1.00  0.00     0.107 A 
ATOM      6  C   UNL     1      11.741  -9.288  30.466  1.00  0.00     0.134 A 
ATOM      7  C   UNL     1      12.383  -8.700  31.563  1.00  0.00     0.093 A 
ATOM      8  C   UNL     1      13.596  -9.201  32.043  1.00  0.00     0.123 A 
ATOM      9  C   UNL     1      14.177 -10.309  31.430  1.00  0.00     0.094 A 
ATOM     10  C   UNL     1      13.545 -10.939  30.356  1.00  0.00     0.146 A 
ATOM     11  O   UNL     1      14.126 -12.002  29.810  1.00  0.00    -0.456 OA
ENDROOT
BRANCH   1  12
ATOM     12  C   UNL     1      14.343 -13.853  28.262  1.00  0.00     0.021 A 
ATOM     13  C   UNL     1      14.712 -13.873  26.908  1.00  0.00     0.016 A 
ATOM     14  C   UNL     1      15.405 -14.962  26.377  1.00  0.00     0.051 A 
ATOM     15  C   UNL     1      15.737 -16.058  27.179  1.00  0.00     0.157 A 
ATOM     16  C   UNL     1      14.663 -14.963  29.068  1.00  0.00     0.062 A 
ATOM     17  C   UNL     1      15.356 -16.060  28.542  1.00  0.00     0.158 A 
BRANCH  15  18
ATOM     18  O   UNL     1      16.436 -17.112  26.588  1.00  0.00    -0.504 OA
ATOM     19  H   UNL     1      15.999 -17.857  26.065  1.00  0.00     0.293 HD
ENDBRANCH  15  18
BRANCH  17  20
ATOM     20  O   UNL     1      15.638 -17.125  29.400  1.00  0.00    -0.504 OA
ATOM     21  H   UNL     1      15.365 -18.080  29.224  1.00  0.00     0.293 HD
ENDBRANCH  17  20
ENDBRANCH   1  12
BRANCH   6  22
ATOM     22  O   UNL     1      10.580  -8.657  30.011  1.00  0.00    -0.507 OA
ATOM     23  H   UNL     1      10.147  -8.822  29.114  1.00  0.00     0.293 HD
ENDBRANCH   6  22
BRANCH   8  24
ATOM     24  O   UNL     1      14.235  -8.601  33.124  1.00  0.00    -0.508 OA
ATOM     25  H   UNL     1      15.245  -8.567  33.191  1.00  0.00     0.293 HD
ENDBRANCH   8  24
TORSDOF 5
ENDMDL
MODEL 5
REMARK VINA RESULT:    -0.337      1.658      7.208
REMARK INTER + INTRA:          -0.660
REMARK INTER:                  -0.393
REMARK INTRA:                  -0.268
REMARK UNBOUND:                -0.264
REMARK SMILES O=c1cc(-c2ccc(O)c(O)c2)oc2cc(O)cc(O)c12
REMARK SMILES IDX 4 1 3 2 2 3 1 4 21 5 19 6 18 7 16 8 15 9 14 10 13 11 5 12
REMARK SMILES IDX 6 13 7 14 8 15 12 16 10 17 9 18 11 20 20 22 17 24
REMARK H PARENT 9 19 11 21 20 23 17 25
REMARK Flexibility Score: inf
ROOT
ATOM      1  C   UNL     1      13.962 -12.761  28.788  1.00  0.00     0.138 A 
ATOM      2  C   UNL     1      14.662 -11.869  29.612  1.00  0.00     0.100 A 
ATOM      3  C   UNL     1      13.986 -10.803  30.208  1.00  0.00     0.197 A 
ATOM      4  O   UNL     1      14.653  -9.984  30.892  1.00  0.00    -0.289 OA
ATOM      5  C   UNL     1      12.593 -10.650  30.001  1.00  0.00     0.107 A 
ATOM      6  C   UNL     1      11.793  -9.626  30.591  1.00  0.00     0.134 A 
ATOM      7  C   UNL     1      10.448  -9.504  30.221  1.00  0.00     0.093 A 
ATOM      8  C   UNL     1       9.860 -10.406  29.331  1.00  0.00     0.123 A 
ATOM      9  C   UNL     1      10.621 -11.441  28.792  1.00  0.00     0.094 A 
ATOM     10  C   UNL     1      11.974 -11.570  29.113  1.00  0.00     0.146 A 
ATOM     11  O   UNL     1      12.667 -12.563  28.566  1.00  0.00    -0.456 OA
ENDROOT
BRANCH   1  12
ATOM     12  C   UNL     1      14.632 -13.910  28.130  1.00  0.00     0.021 A 
ATOM     13  C   UNL     1      14.744 -13.937  26.731  1.00  0.00     0.016 A 
ATOM     14  C   UNL     1      15.362 -15.011  26.089  1.00  0.00     0.051 A 
ATOM     15  C   UNL     1      15.873 -16.085  26.824  1.00  0.00     0.157 A 
ATOM     16  C   UNL     1      15.132 -14.999  28.871  1.00  0.00     0.062 A 
ATOM     17  C   UNL     1      15.752 -16.081  28.233  1.00  0.00     0.158 A 
BRANCH  15  18
ATOM     18  O   UNL     1      16.486 -17.125  26.121  1.00  0.00    -0.504 OA
ATOM     19  H   UNL     1      16.043 -17.639  25.373  1.00  0.00     0.293 HD
ENDBRANCH  15  18
BRANCH  17  20
ATOM     20  O   UNL     1      16.223 -17.125  29.032  1.00  0.00    -0.504 OA
ATOM     21  H   UNL     1      15.632 -17.704  29.610  1.00  0.00     0.293 HD
ENDBRANCH  17  20
ENDBRANCH   1  12
BRANCH   6  22
ATOM     22  O   UNL     1      12.260  -8.727  31.554  1.00  0.00    -0.507 OA
ATOM     23  H   UNL     1      12.981  -8.039  31.400  1.00  0.00     0.293 HD
ENDBRANCH   6  22
BRANCH   8  24
ATOM     24  O   UNL     1       8.518 -10.286  28.981  1.00  0.00    -0.508 OA
ATOM     25  H   UNL     1       8.221  -9.696  28.213  1.00  0.00     0.293 HD
ENDBRANCH   8  24
TORSDOF 5
ENDMDL
MODEL 6
REMARK VINA RESULT:    -0.303      4.573      6.533
REMARK INTER + INTRA:          -0.620
REMARK INTER:                  -0.355
REMARK INTRA:                  -0.265
REMARK UNBOUND:                -0.264
REMARK SMILES O=c1cc(-c2ccc(O)c(O)c2)oc2cc(O)cc(O)c12
REMARK SMILES IDX 4 1 3 2 2 3 1 4 21 5 19 6 18 7 16 8 15 9 14 10 13 11 5 12
REMARK SMILES IDX 6 13 7 14 8 15 12 16 10 17 9 18 11 20 20 22 17 24
REMARK H PARENT 9 19 11 21 20 23 17 25
REMARK Flexibility Score: inf
ROOT
ATOM      1  C   UNL     1      14.180  -9.379  26.841  1.00  0.00     0.138 A 
ATOM      2  C   UNL     1      15.074 -10.313  27.382  1.00  0.00     0.100 A 
ATOM      3  C   UNL     1      14.649 -11.165  28.403  1.00  0.00     0.197 A 
ATOM      4  O   UNL     1      15.492 -11.950  28.910  1.00  0.00    -0.289 OA
ATOM      5  C   UNL     1      13.311 -11.100  28.862  1.00  0.00     0.107 A 
ATOM      6  C   UNL     1      12.756 -11.947  29.868  1.00  0.00     0.134 A 
ATOM      7  C   UNL     1      11.453 -11.713  30.324  1.00  0.00     0.093 A 
ATOM      8  C   UNL     1      10.665 -10.703  29.766  1.00  0.00     0.123 A 
ATOM      9  C   UNL     1      11.180  -9.907  28.746  1.00  0.00     0.094 A 
ATOM     10  C   UNL     1      12.488 -10.092  28.293  1.00  0.00     0.146 A 
ATOM     11  O   UNL     1      12.946  -9.301  27.328  1.00  0.00    -0.456 OA
ENDROOT
BRANCH   1  12
ATOM     12  C   UNL     1      14.579  -8.449  25.755  1.00  0.00     0.021 A 
ATOM     13  C   UNL     1      14.728  -7.082  26.035  1.00  0.00     0.016 A 
ATOM     14  C   UNL     1      15.095  -6.187  25.028  1.00  0.00     0.051 A 
ATOM     15  C   UNL     1      15.312  -6.633  23.721  1.00  0.00     0.157 A 
ATOM     16  C   UNL     1      14.784  -8.897  24.436  1.00  0.00     0.062 A 
ATOM     17  C   UNL     1      15.149  -8.005  23.420  1.00  0.00     0.158 A 
BRANCH  15  18
ATOM     18  O   UNL     1      15.683  -5.688  22.762  1.00  0.00    -0.504 OA
ATOM     19  H   UNL     1      15.940  -4.735  22.977  1.00  0.00     0.293 HD
ENDBRANCH  15  18
BRANCH  17  20
ATOM     20  O   UNL     1      15.333  -8.521  22.135  1.00  0.00    -0.504 OA
ATOM     21  H   UNL     1      14.587  -8.661  21.470  1.00  0.00     0.293 HD
ENDBRANCH  17  20
ENDBRANCH   1  12
BRANCH   6  22
ATOM     22  O   UNL     1      13.428 -13.036  30.430  1.00  0.00    -0.507 OA
ATOM     23  H   UNL     1      14.222 -12.968  31.049  1.00  0.00     0.293 HD
ENDBRANCH   6  22
BRANCH   8  24
ATOM     24  O   UNL     1       9.364 -10.487  30.215  1.00  0.00    -0.508 OA
ATOM     25  H   UNL     1       8.915  -9.583  30.126  1.00  0.00     0.293 HD
ENDBRANCH   8  24
TORSDOF 5
ENDMDL
MODEL 7
REMARK VINA RESULT:    -0.200      1.170      2.703
REMARK INTER + INTRA:          -0.499
REMARK INTER:                  -0.231
REMARK INTRA:                  -0.268
REMARK UNBOUND:                -0.264
REMARK SMILES O=c1cc(-c2ccc(O)c(O)c2)oc2cc(O)cc(O)c12
REMARK SMILES IDX 4 1 3 2 2 3 1 4 21 5 19 6 18 7 16 8 15 9 14 10 13 11 5 12
REMARK SMILES IDX 6 13 7 14 8 15 12 16 10 17 9 18 11 20 20 22 17 24
REMARK H PARENT 9 19 11 21 20 23 17 25
REMARK Flexibility Score: inf
ROOT
ATOM      1  C   UNL     1      13.563 -12.839  29.761  1.00  0.00     0.138 A 
ATOM      2  C   UNL     1      13.903 -13.648  30.855  1.00  0.00     0.100 A 
ATOM      3  C   UNL     1      14.652 -14.807  30.650  1.00  0.00     0.197 A 
ATOM      4  O   UNL     1      14.888 -15.545  31.642  1.00  0.00    -0.289 OA
ATOM      5  C   UNL     1      15.090 -15.140  29.345  1.00  0.00     0.107 A 
ATOM      6  C   UNL     1      15.894 -16.275  29.023  1.00  0.00     0.134 A 
ATOM      7  C   UNL     1      16.168 -16.567  27.681  1.00  0.00     0.093 A 
ATOM      8  C   UNL     1      15.719 -15.731  26.655  1.00  0.00     0.123 A 
ATOM      9  C   UNL     1      14.980 -14.593  26.964  1.00  0.00     0.094 A 
ATOM     10  C   UNL     1      14.659 -14.292  28.290  1.00  0.00     0.146 A 
ATOM     11  O   UNL     1      13.939 -13.203  28.540  1.00  0.00    -0.456 OA
ENDROOT
BRANCH   1  12
ATOM     12  C   UNL     1      12.768 -11.596  29.923  1.00  0.00     0.021 A 
ATOM     13  C   UNL     1      13.391 -10.434  30.403  1.00  0.00     0.016 A 
ATOM     14  C   UNL     1      12.663  -9.255  30.572  1.00  0.00     0.051 A 
ATOM     15  C   UNL     1      11.297  -9.211  30.275  1.00  0.00     0.157 A 
ATOM     16  C   UNL     1      11.389 -11.557  29.637  1.00  0.00     0.062 A 
ATOM     17  C   UNL     1      10.651 -10.379  29.807  1.00  0.00     0.158 A 
BRANCH  15  18
ATOM     18  O   UNL     1      10.628  -7.999  30.459  1.00  0.00    -0.504 OA
ATOM     19  H   UNL     1      10.651  -7.465  31.315  1.00  0.00     0.293 HD
ENDBRANCH  15  18
BRANCH  17  20
ATOM     20  O   UNL     1       9.288 -10.415  29.505  1.00  0.00    -0.504 OA
ATOM     21  H   UNL     1       8.567 -10.036  30.101  1.00  0.00     0.293 HD
ENDBRANCH  17  20
ENDBRANCH   1  12
BRANCH   6  22
ATOM     22  O   UNL     1      16.462 -17.125  29.976  1.00  0.00    -0.507 OA
ATOM     23  H   UNL     1      17.445 -17.163  30.201  1.00  0.00     0.293 HD
ENDBRANCH   6  22
BRANCH   8  24
ATOM     24  O   UNL     1      16.009 -16.022  25.325  1.00  0.00    -0.508 OA
ATOM     25  H   UNL     1      16.457 -16.891  25.057  1.00  0.00     0.293 HD
ENDBRANCH   8  24
TORSDOF 5
ENDMDL
MODEL 8
REMARK VINA RESULT:     0.054     11.156     13.254
REMARK INTER + INTRA:          -0.200
REMARK INTER:                   0.067
REMARK INTRA:                  -0.267
REMARK UNBOUND:                -0.264
REMARK SMILES O=c1cc(-c2ccc(O)c(O)c2)oc2cc(O)cc(O)c12
REMARK SMILES IDX 4 1 3 2 2 3 1 4 21 5 19 6 18 7 16 8 15 9 14 10 13 11 5 12
REMARK SMILES IDX 6 13 7 14 8 15 12 16 10 17 9 18 11 20 20 22 17 24
REMARK H PARENT 9 19 11 21 20 23 17 25
REMARK Flexibility Score: inf
ROOT
ATOM      1  C   UNL     1      16.179  -0.702  26.969  1.00  0.00     0.138 A 
ATOM      2  C   UNL     1      15.429  -1.290  27.997  1.00  0.00     0.100 A 
ATOM      3  C   UNL     1      16.038  -2.194  28.867  1.00  0.00     0.197 A 
ATOM      4  O   UNL     1      15.324  -2.752  29.740  1.00  0.00    -0.289 OA
ATOM      5  C   UNL     1      17.417  -2.487  28.725  1.00  0.00     0.107 A 
ATOM      6  C   UNL     1      18.153  -3.361  29.579  1.00  0.00     0.134 A 
ATOM      7  C   UNL     1      19.485  -3.665  29.271  1.00  0.00     0.093 A 
ATOM      8  C   UNL     1      20.124  -3.079  28.176  1.00  0.00     0.123 A 
ATOM      9  C   UNL     1      19.428  -2.183  27.368  1.00  0.00     0.094 A 
ATOM     10  C   UNL     1      18.089  -1.885  27.628  1.00  0.00     0.146 A 
ATOM     11  O   UNL     1      17.457  -1.036  26.824  1.00  0.00    -0.456 OA
ENDROOT
BRANCH   1  12
ATOM     12  C   UNL     1      15.581   0.266  26.016  1.00  0.00     0.021 A 
ATOM     13  C   UNL     1      15.409   1.603  26.405  1.00  0.00     0.016 A 
ATOM     14  C   UNL     1      14.841   2.530  25.529  1.00  0.00     0.051 A 
ATOM     15  C   UNL     1      14.423   2.144  24.253  1.00  0.00     0.157 A 
ATOM     16  C   UNL     1      15.146  -0.128  24.736  1.00  0.00     0.062 A 
ATOM     17  C   UNL     1      14.573   0.795  23.852  1.00  0.00     0.158 A 
BRANCH  15  18
ATOM     18  O   UNL     1      13.868   3.121  23.423  1.00  0.00    -0.504 OA
ATOM     19  H   UNL     1      14.102   3.233  22.447  1.00  0.00     0.293 HD
ENDBRANCH  15  18
BRANCH  17  20
ATOM     20  O   UNL     1      14.165   0.332  22.600  1.00  0.00    -0.504 OA
ATOM     21  H   UNL     1      14.800   0.069  21.861  1.00  0.00     0.293 HD
ENDBRANCH  17  20
ENDBRANCH   1  12
BRANCH   6  22
ATOM     22  O   UNL     1      17.636  -3.933  30.745  1.00  0.00    -0.507 OA
ATOM     23  H   UNL     1      16.725  -4.361  30.824  1.00  0.00     0.293 HD
ENDBRANCH   6  22
BRANCH   8  24
ATOM     24  O   UNL     1      21.453  -3.375  27.886  1.00  0.00    -0.508 OA
ATOM     25  H   UNL     1      22.201  -3.135  28.526  1.00  0.00     0.293 HD
ENDBRANCH   8  24
TORSDOF 5
ENDMDL
