MODEL 1
REMARK VINA RESULT:    -5.678      0.000      0.000
REMARK INTER + INTRA:         -10.283
REMARK INTER:                  -8.998
REMARK INTRA:                  -1.285
REMARK UNBOUND:                -1.285
REMARK SMILES C[C@@H]1O[C@@H](O[C@H]2CC[C@@]3(C)[C@H](CC[C@@]4(C)[C@@H]3C=C[C@]35OC[C@@]6(CCC(C)(C)C[C@H]63)[C@H](O)C[C@]45C)[C@@]2(C)CO)[C@H](O)[C@@H](O[C@H]2O[C@@H](CO)[C@H](O)[C@@H](O)[C@@H]2O)[C@@H]1O
REMARK SMILES IDX 1 1 2 2 54 3 41 4 39 5 4 6 3 7 55 8 42 10 43 11 52 12 44 13
REMARK SMILES IDX 50 14 45 15 48 16 53 17 51 19 46 21 47 22 49 24 5 26 6 27
REMARK SMILES IDX 7 28 35 29 8 30 11 31 36 32 9 33 12 34 10 35 16 36 13 37
REMARK SMILES IDX 14 38 17 39 15 40 33 41 18 42 19 43 32 44 34 45 29 46 20 47
REMARK SMILES IDX 30 48 22 49 28 50 21 51 23 52 25 53 24 54 26 55 27 56 37 57
REMARK SMILES IDX 38 58 31 60 40 62
REMARK H PARENT 55 9 53 18 51 20 47 23 49 25 38 59 31 61 40 63
REMARK Flexibility Score: inf
ROOT
ATOM      1  C   UNL     1      22.350  32.043  31.060  1.00  0.00     0.041 C 
ATOM      2  C   UNL     1      21.005  32.008  30.322  1.00  0.00     0.150 C 
ATOM      3  C   UNL     1      19.960  33.101  30.783  1.00  0.00     0.175 C 
ATOM      4  C   UNL     1      19.646  34.017  29.612  1.00  0.00     0.186 C 
ATOM      5  C   UNL     1      20.978  34.389  28.956  1.00  0.00     0.202 C 
ATOM      6  C   UNL     1      21.540  33.153  28.220  1.00  0.00     0.282 C 
ATOM      7  O   UNL     1      21.202  31.930  28.896  1.00  0.00    -0.344 OA
ENDROOT
BRANCH   3   8
ATOM      8  O   UNL     1      20.400  33.896  31.870  1.00  0.00    -0.388 OA
ATOM      9  H   UNL     1      19.769  33.732  32.614  1.00  0.00     0.211 HD
ENDBRANCH   3   8
BRANCH   4  10
ATOM     10  O   UNL     1      18.868  33.268  28.692  1.00  0.00    -0.341 OA
BRANCH  10  11
ATOM     11  C   UNL     1      17.751  33.951  28.149  1.00  0.00     0.282 C 
ATOM     12  C   UNL     1      17.277  35.164  29.006  1.00  0.00     0.202 C 
ATOM     13  O   UNL     1      16.686  33.017  28.012  1.00  0.00    -0.341 OA
ATOM     14  C   UNL     1      16.574  34.710  30.316  1.00  0.00     0.179 C 
ATOM     15  C   UNL     1      16.262  32.428  29.257  1.00  0.00     0.178 C 
ATOM     16  C   UNL     1      16.689  33.194  30.552  1.00  0.00     0.177 C 
BRANCH  12  17
ATOM     17  O   UNL     1      16.418  35.981  28.241  1.00  0.00    -0.385 OA
ATOM     18  H   UNL     1      15.582  35.460  28.077  1.00  0.00     0.211 HD
ENDBRANCH  12  17
BRANCH  14  19
ATOM     19  O   UNL     1      17.124  35.397  31.407  1.00  0.00    -0.387 OA
ATOM     20  H   UNL     1      16.682  35.058  32.237  1.00  0.00     0.211 HD
ENDBRANCH  14  19
BRANCH  15  21
ATOM     21  C   UNL     1      16.660  30.942  29.318  1.00  0.00     0.191 C 
BRANCH  21  22
ATOM     22  O   UNL     1      17.770  30.750  30.148  1.00  0.00    -0.394 OA
ATOM     23  H   UNL     1      18.556  31.162  29.703  1.00  0.00     0.210 HD
ENDBRANCH  21  22
ENDBRANCH  15  21
BRANCH  16  24
ATOM     24  O   UNL     1      15.875  32.849  31.639  1.00  0.00    -0.387 OA
ATOM     25  H   UNL     1      16.469  32.464  32.338  1.00  0.00     0.211 HD
ENDBRANCH  16  24
ENDBRANCH  10  11
ENDBRANCH   4  10
BRANCH   6  26
ATOM     26  O   UNL     1      20.957  33.124  26.903  1.00  0.00    -0.346 OA
BRANCH  26  27
ATOM     27  C   UNL     1      21.870  33.151  25.797  1.00  0.00     0.130 C 
ATOM     28  C   UNL     1      21.634  31.921  24.893  1.00  0.00     0.033 C 
ATOM     29  C   UNL     1      21.848  34.504  24.943  1.00  0.00     0.020 C 
ATOM     30  C   UNL     1      20.388  31.915  23.976  1.00  0.00     0.010 C 
ATOM     31  C   UNL     1      20.903  34.439  23.627  1.00  0.00     0.006 C 
ATOM     32  C   UNL     1      23.340  34.812  24.594  1.00  0.00     0.017 C 
ATOM     33  C   UNL     1      19.795  33.300  23.555  1.00  0.00    -0.022 C 
ATOM     34  C   UNL     1      21.685  34.561  22.309  1.00  0.00     0.005 C 
ATOM     35  C   UNL     1      18.751  33.650  24.659  1.00  0.00     0.012 C 
ATOM     36  C   UNL     1      19.067  33.168  22.079  1.00  0.00     0.024 C 
ATOM     37  C   UNL     1      20.754  34.864  21.147  1.00  0.00     0.008 C 
ATOM     38  C   UNL     1      19.851  33.661  20.756  1.00  0.00    -0.017 C 
ATOM     39  C   UNL     1      17.598  33.619  22.034  1.00  0.00    -0.024 C 
ATOM     40  C   UNL     1      20.882  32.557  20.310  1.00  0.00     0.013 C 
ATOM     41  C   UNL     1      18.849  34.068  19.513  1.00  0.00     0.009 C 
ATOM     42  C   UNL     1      16.846  33.539  20.938  1.00  0.00     0.005 C 
ATOM     43  C   UNL     1      17.433  33.343  19.573  1.00  0.00     0.096 C 
ATOM     44  C   UNL     1      19.469  33.851  18.071  1.00  0.00     0.043 C 
ATOM     45  C   UNL     1      18.541  35.618  19.577  1.00  0.00     0.015 C 
ATOM     46  C   UNL     1      17.332  31.884  19.095  1.00  0.00     0.037 C 
ATOM     47  O   UNL     1      16.578  34.006  18.637  1.00  0.00    -0.369 OA
ATOM     48  C   UNL     1      18.994  32.598  17.261  1.00  0.00     0.124 C 
ATOM     49  C   UNL     1      17.547  32.082  17.612  1.00  0.00     0.026 C 
ATOM     50  C   UNL     1      17.939  30.606  19.724  1.00  0.00     0.014 C 
ATOM     51  C   UNL     1      16.579  33.262  17.428  1.00  0.00     0.171 C 
ATOM     52  C   UNL     1      17.162  30.817  16.781  1.00  0.00     0.013 C 
ATOM     53  C   UNL     1      17.598  29.324  18.864  1.00  0.00    -0.035 C 
ATOM     54  C   UNL     1      16.672  29.628  17.645  1.00  0.00     0.007 C 
ATOM     55  C   UNL     1      16.876  28.295  19.758  1.00  0.00     0.011 C 
ATOM     56  C   UNL     1      18.899  28.643  18.367  1.00  0.00     0.011 C 
BRANCH  29  57
ATOM     57  C   UNL     1      21.359  35.733  25.773  1.00  0.00     0.165 C 
BRANCH  57  58
ATOM     58  O   UNL     1      22.289  36.125  26.753  1.00  0.00    -0.396 OA
ATOM     59  H   UNL     1      23.082  36.491  26.281  1.00  0.00     0.210 HD
ENDBRANCH  57  58
ENDBRANCH  29  57
BRANCH  48  60
ATOM     60  O   UNL     1      19.932  31.562  17.347  1.00  0.00    -0.392 OA
ATOM     61  H   UNL     1      19.754  30.956  16.571  1.00  0.00     0.210 HD
ENDBRANCH  48  60
ENDBRANCH  26  27
ENDBRANCH   6  26
BRANCH   5  62
ATOM     62  O   UNL     1      21.933  34.868  29.878  1.00  0.00    -0.385 OA
ATOM     63  H   UNL     1      22.621  35.363  29.353  1.00  0.00     0.211 HD
ENDBRANCH   5  62
TORSDOF 14
ENDMDL
MODEL 2
REMARK VINA RESULT:    -4.797      1.966      3.437
REMARK INTER + INTRA:          -8.886
REMARK INTER:                  -8.027
REMARK INTRA:                  -0.859
REMARK UNBOUND:                -1.285
REMARK SMILES C[C@@H]1O[C@@H](O[C@H]2CC[C@@]3(C)[C@H](CC[C@@]4(C)[C@@H]3C=C[C@]35OC[C@@]6(CCC(C)(C)C[C@H]63)[C@H](O)C[C@]45C)[C@@]2(C)CO)[C@H](O)[C@@H](O[C@H]2O[C@@H](CO)[C@H](O)[C@@H](O)[C@@H]2O)[C@@H]1O
REMARK SMILES IDX 1 1 2 2 54 3 41 4 39 5 4 6 3 7 55 8 42 10 43 11 52 12 44 13
REMARK SMILES IDX 50 14 45 15 48 16 53 17 51 19 46 21 47 22 49 24 5 26 6 27
REMARK SMILES IDX 7 28 35 29 8 30 11 31 36 32 9 33 12 34 10 35 16 36 13 37
REMARK SMILES IDX 14 38 17 39 15 40 33 41 18 42 19 43 32 44 34 45 29 46 20 47
REMARK SMILES IDX 30 48 22 49 28 50 21 51 23 52 25 53 24 54 26 55 27 56 37 57
REMARK SMILES IDX 38 58 31 60 40 62
REMARK H PARENT 55 9 53 18 51 20 47 23 49 25 38 59 31 61 40 63
REMARK Flexibility Score: inf
ROOT
ATOM      1  C   UNL     1      22.032  33.316  31.389  1.00  0.00     0.041 C 
ATOM      2  C   UNL     1      20.568  33.338  30.928  1.00  0.00     0.150 C 
ATOM      3  C   UNL     1      19.694  34.508  31.531  1.00  0.00     0.175 C 
ATOM      4  C   UNL     1      19.205  35.400  30.402  1.00  0.00     0.186 C 
ATOM      5  C   UNL     1      20.402  35.666  29.485  1.00  0.00     0.202 C 
ATOM      6  C   UNL     1      20.742  34.374  28.711  1.00  0.00     0.282 C 
ATOM      7  O   UNL     1      20.479  33.198  29.495  1.00  0.00    -0.344 OA
ENDROOT
BRANCH   3   8
ATOM      8  O   UNL     1      20.379  35.311  32.475  1.00  0.00    -0.388 OA
ATOM      9  H   UNL     1      21.186  35.656  32.020  1.00  0.00     0.211 HD
ENDBRANCH   3   8
BRANCH   4  10
ATOM     10  O   UNL     1      18.224  34.668  29.685  1.00  0.00    -0.341 OA
BRANCH  10  11
ATOM     11  C   UNL     1      17.027  34.406  30.397  1.00  0.00     0.282 C 
ATOM     12  C   UNL     1      16.889  32.929  30.876  1.00  0.00     0.202 C 
ATOM     13  O   UNL     1      15.930  34.738  29.554  1.00  0.00    -0.341 OA
ATOM     14  C   UNL     1      16.597  31.959  29.697  1.00  0.00     0.179 C 
ATOM     15  C   UNL     1      15.877  33.972  28.334  1.00  0.00     0.178 C 
ATOM     16  C   UNL     1      16.710  32.649  28.326  1.00  0.00     0.177 C 
BRANCH  12  17
ATOM     17  O   UNL     1      15.877  32.837  31.854  1.00  0.00    -0.385 OA
ATOM     18  H   UNL     1      15.772  33.745  32.257  1.00  0.00     0.211 HD
ENDBRANCH  12  17
BRANCH  14  19
ATOM     19  O   UNL     1      17.482  30.873  29.749  1.00  0.00    -0.387 OA
ATOM     20  H   UNL     1      17.820  30.709  28.824  1.00  0.00     0.211 HD
ENDBRANCH  14  19
BRANCH  15  21
ATOM     21  C   UNL     1      16.208  34.861  27.120  1.00  0.00     0.191 C 
BRANCH  21  22
ATOM     22  O   UNL     1      17.236  35.762  27.420  1.00  0.00    -0.394 OA
ATOM     23  H   UNL     1      17.096  36.083  28.350  1.00  0.00     0.210 HD
ENDBRANCH  21  22
ENDBRANCH  15  21
BRANCH  16  24
ATOM     24  O   UNL     1      16.249  31.764  27.342  1.00  0.00    -0.387 OA
ATOM     25  H   UNL     1      15.621  32.272  26.763  1.00  0.00     0.211 HD
ENDBRANCH  16  24
ENDBRANCH  10  11
ENDBRANCH   4  10
BRANCH   6  26
ATOM     26  O   UNL     1      19.912  34.335  27.535  1.00  0.00    -0.346 OA
BRANCH  26  27
ATOM     27  C   UNL     1      19.894  33.100  26.803  1.00  0.00     0.130 C 
ATOM     28  C   UNL     1      18.740  33.116  25.778  1.00  0.00     0.033 C 
ATOM     29  C   UNL     1      21.280  32.718  26.101  1.00  0.00     0.020 C 
ATOM     30  C   UNL     1      18.906  33.972  24.500  1.00  0.00     0.010 C 
ATOM     31  C   UNL     1      21.376  33.161  24.544  1.00  0.00     0.006 C 
ATOM     32  C   UNL     1      21.447  31.177  26.296  1.00  0.00     0.017 C 
ATOM     33  C   UNL     1      20.365  34.269  24.016  1.00  0.00    -0.022 C 
ATOM     34  C   UNL     1      21.476  31.970  23.578  1.00  0.00     0.005 C 
ATOM     35  C   UNL     1      20.770  35.594  24.732  1.00  0.00     0.012 C 
ATOM     36  C   UNL     1      20.378  34.459  22.376  1.00  0.00     0.024 C 
ATOM     37  C   UNL     1      21.929  32.421  22.199  1.00  0.00     0.008 C 
ATOM     38  C   UNL     1      20.848  33.233  21.434  1.00  0.00    -0.017 C 
ATOM     39  C   UNL     1      20.983  35.782  21.878  1.00  0.00    -0.024 C 
ATOM     40  C   UNL     1      19.663  32.208  21.273  1.00  0.00     0.013 C 
ATOM     41  C   UNL     1      21.415  33.715  19.964  1.00  0.00     0.009 C 
ATOM     42  C   UNL     1      21.033  36.120  20.591  1.00  0.00     0.005 C 
ATOM     43  C   UNL     1      20.840  35.122  19.490  1.00  0.00     0.096 C 
ATOM     44  C   UNL     1      21.201  32.661  18.800  1.00  0.00     0.043 C 
ATOM     45  C   UNL     1      22.984  33.897  20.045  1.00  0.00     0.015 C 
ATOM     46  C   UNL     1      19.423  35.175  18.892  1.00  0.00     0.037 C 
ATOM     47  O   UNL     1      21.632  35.549  18.378  1.00  0.00    -0.369 OA
ATOM     48  C   UNL     1      20.044  32.935  17.782  1.00  0.00     0.124 C 
ATOM     49  C   UNL     1      19.667  34.452  17.587  1.00  0.00     0.026 C 
ATOM     50  C   UNL     1      18.061  34.927  19.584  1.00  0.00     0.014 C 
ATOM     51  C   UNL     1      20.949  35.198  17.184  1.00  0.00     0.171 C 
ATOM     52  C   UNL     1      18.489  34.635  16.577  1.00  0.00     0.013 C 
ATOM     53  C   UNL     1      16.863  35.059  18.561  1.00  0.00    -0.035 C 
ATOM     54  C   UNL     1      17.319  35.487  17.130  1.00  0.00     0.007 C 
ATOM     55  C   UNL     1      15.875  36.125  19.077  1.00  0.00     0.011 C 
ATOM     56  C   UNL     1      16.073  33.728  18.475  1.00  0.00     0.011 C 
BRANCH  29  57
ATOM     57  C   UNL     1      22.514  33.357  26.815  1.00  0.00     0.165 C 
BRANCH  57  58
ATOM     58  O   UNL     1      23.209  34.256  25.985  1.00  0.00    -0.396 OA
ATOM     59  H   UNL     1      22.559  34.618  25.327  1.00  0.00     0.210 HD
ENDBRANCH  57  58
ENDBRANCH  29  57
BRANCH  48  60
ATOM     60  O   UNL     1      18.912  32.171  18.093  1.00  0.00    -0.392 OA
ATOM     61  H   UNL     1      18.178  32.502  17.500  1.00  0.00     0.210 HD
ENDBRANCH  48  60
ENDBRANCH  26  27
ENDBRANCH   6  26
BRANCH   5  62
ATOM     62  O   UNL     1      21.542  36.119  30.181  1.00  0.00    -0.385 OA
ATOM     63  H   UNL     1      22.215  36.385  29.496  1.00  0.00     0.211 HD
ENDBRANCH   5  62
TORSDOF 14
ENDMDL
MODEL 3
REMARK VINA RESULT:    -3.942      2.967      6.360
REMARK INTER + INTRA:          -7.532
REMARK INTER:                  -7.582
REMARK INTRA:                   0.050
REMARK UNBOUND:                -1.285
REMARK SMILES C[C@@H]1O[C@@H](O[C@H]2CC[C@@]3(C)[C@H](CC[C@@]4(C)[C@@H]3C=C[C@]35OC[C@@]6(CCC(C)(C)C[C@H]63)[C@H](O)C[C@]45C)[C@@]2(C)CO)[C@H](O)[C@@H](O[C@H]2O[C@@H](CO)[C@H](O)[C@@H](O)[C@@H]2O)[C@@H]1O
REMARK SMILES IDX 1 1 2 2 54 3 41 4 39 5 4 6 3 7 55 8 42 10 43 11 52 12 44 13
REMARK SMILES IDX 50 14 45 15 48 16 53 17 51 19 46 21 47 22 49 24 5 26 6 27
REMARK SMILES IDX 7 28 35 29 8 30 11 31 36 32 9 33 12 34 10 35 16 36 13 37
REMARK SMILES IDX 14 38 17 39 15 40 33 41 18 42 19 43 32 44 34 45 29 46 20 47
REMARK SMILES IDX 30 48 22 49 28 50 21 51 23 52 25 53 24 54 26 55 27 56 37 57
REMARK SMILES IDX 38 58 31 60 40 62
REMARK H PARENT 55 9 53 18 51 20 47 23 49 25 38 59 31 61 40 63
REMARK Flexibility Score: inf
ROOT
ATOM      1  C   UNL     1      19.202  35.839  34.825  1.00  0.00     0.041 C 
ATOM      2  C   UNL     1      20.413  35.312  34.044  1.00  0.00     0.150 C 
ATOM      3  C   UNL     1      20.788  33.804  34.329  1.00  0.00     0.175 C 
ATOM      4  C   UNL     1      20.648  33.002  33.045  1.00  0.00     0.186 C 
ATOM      5  C   UNL     1      19.317  33.403  32.404  1.00  0.00     0.202 C 
ATOM      6  C   UNL     1      19.439  34.837  31.843  1.00  0.00     0.282 C 
ATOM      7  O   UNL     1      20.310  35.651  32.645  1.00  0.00    -0.344 OA
ENDROOT
BRANCH   3   8
ATOM      8  O   UNL     1      19.995  33.192  35.330  1.00  0.00    -0.388 OA
ATOM      9  H   UNL     1      19.100  33.051  34.935  1.00  0.00     0.211 HD
ENDBRANCH   3   8
BRANCH   4  10
ATOM     10  O   UNL     1      21.711  33.391  32.190  1.00  0.00    -0.341 OA
BRANCH  10  11
ATOM     11  C   UNL     1      22.788  32.473  32.112  1.00  0.00     0.282 C 
ATOM     12  C   UNL     1      22.982  31.617  33.399  1.00  0.00     0.202 C 
ATOM     13  O   UNL     1      23.977  33.210  31.845  1.00  0.00    -0.341 OA
ATOM     14  C   UNL     1      23.561  32.454  34.574  1.00  0.00     0.179 C 
ATOM     15  C   UNL     1      24.309  34.172  32.866  1.00  0.00     0.178 C 
ATOM     16  C   UNL     1      23.619  33.958  34.253  1.00  0.00     0.177 C 
BRANCH  12  17
ATOM     17  O   UNL     1      23.816  30.515  33.118  1.00  0.00    -0.385 OA
ATOM     18  H   UNL     1      24.755  30.853  33.099  1.00  0.00     0.211 HD
ENDBRANCH  12  17
BRANCH  14  19
ATOM     19  O   UNL     1      22.787  32.250  35.725  1.00  0.00    -0.387 OA
ATOM     20  H   UNL     1      22.646  33.138  36.160  1.00  0.00     0.211 HD
ENDBRANCH  14  19
BRANCH  15  21
ATOM     21  C   UNL     1      24.108  35.607  32.345  1.00  0.00     0.191 C 
BRANCH  21  22
ATOM     22  O   UNL     1      23.085  35.659  31.391  1.00  0.00    -0.394 OA
ATOM     23  H   UNL     1      22.223  35.754  31.876  1.00  0.00     0.210 HD
ENDBRANCH  21  22
ENDBRANCH  15  21
BRANCH  16  24
ATOM     24  O   UNL     1      24.322  34.606  35.277  1.00  0.00    -0.387 OA
ATOM     25  H   UNL     1      23.710  34.670  36.057  1.00  0.00     0.211 HD
ENDBRANCH  16  24
ENDBRANCH  10  11
ENDBRANCH   4  10
BRANCH   6  26
ATOM     26  O   UNL     1      19.993  34.744  30.517  1.00  0.00    -0.346 OA
BRANCH  26  27
ATOM     27  C   UNL     1      19.420  35.603  29.521  1.00  0.00     0.130 C 
ATOM     28  C   UNL     1      20.525  36.116  28.572  1.00  0.00     0.033 C 
ATOM     29  C   UNL     1      18.210  34.958  28.696  1.00  0.00     0.020 C 
ATOM     30  C   UNL     1      21.101  35.137  27.522  1.00  0.00     0.010 C 
ATOM     31  C   UNL     1      18.651  34.300  27.281  1.00  0.00     0.006 C 
ATOM     32  C   UNL     1      17.156  36.099  28.523  1.00  0.00     0.017 C 
ATOM     33  C   UNL     1      20.187  33.951  27.064  1.00  0.00    -0.022 C 
ATOM     34  C   UNL     1      18.048  35.017  26.062  1.00  0.00     0.005 C 
ATOM     35  C   UNL     1      20.505  32.786  28.050  1.00  0.00     0.012 C 
ATOM     36  C   UNL     1      20.564  33.527  25.513  1.00  0.00     0.024 C 
ATOM     37  C   UNL     1      18.179  34.167  24.809  1.00  0.00     0.008 C 
ATOM     38  C   UNL     1      19.641  34.054  24.296  1.00  0.00    -0.017 C 
ATOM     39  C   UNL     1      20.926  32.047  25.312  1.00  0.00    -0.024 C 
ATOM     40  C   UNL     1      20.025  35.541  23.947  1.00  0.00     0.013 C 
ATOM     41  C   UNL     1      19.713  33.097  22.956  1.00  0.00     0.009 C 
ATOM     42  C   UNL     1      21.298  31.542  24.136  1.00  0.00     0.005 C 
ATOM     43  C   UNL     1      21.064  32.261  22.843  1.00  0.00     0.096 C 
ATOM     44  C   UNL     1      19.474  33.862  21.589  1.00  0.00     0.043 C 
ATOM     45  C   UNL     1      18.550  32.028  23.016  1.00  0.00     0.015 C 
ATOM     46  C   UNL     1      22.328  32.971  22.329  1.00  0.00     0.037 C 
ATOM     47  O   UNL     1      20.864  31.271  21.830  1.00  0.00    -0.369 OA
ATOM     48  C   UNL     1      20.729  34.175  20.707  1.00  0.00     0.124 C 
ATOM     49  C   UNL     1      21.938  33.179  20.883  1.00  0.00     0.026 C 
ATOM     50  C   UNL     1      23.158  34.094  22.997  1.00  0.00     0.014 C 
ATOM     51  C   UNL     1      21.410  31.761  20.614  1.00  0.00     0.171 C 
ATOM     52  C   UNL     1      23.156  33.577  19.990  1.00  0.00     0.013 C 
ATOM     53  C   UNL     1      24.365  34.541  22.079  1.00  0.00    -0.035 C 
ATOM     54  C   UNL     1      24.488  33.700  20.770  1.00  0.00     0.007 C 
ATOM     55  C   UNL     1      25.682  34.382  22.866  1.00  0.00     0.011 C 
ATOM     56  C   UNL     1      24.245  36.044  21.719  1.00  0.00     0.011 C 
BRANCH  29  57
ATOM     57  C   UNL     1      17.471  33.834  29.490  1.00  0.00     0.165 C 
BRANCH  57  58
ATOM     58  O   UNL     1      16.206  33.538  28.950  1.00  0.00    -0.396 OA
ATOM     59  H   UNL     1      16.258  32.631  28.550  1.00  0.00     0.210 HD
ENDBRANCH  57  58
ENDBRANCH  29  57
BRANCH  48  60
ATOM     60  O   UNL     1      21.142  35.502  20.877  1.00  0.00    -0.392 OA
ATOM     61  H   UNL     1      21.346  35.852  19.963  1.00  0.00     0.210 HD
ENDBRANCH  48  60
ENDBRANCH  26  27
ENDBRANCH   6  26
BRANCH   5  62
ATOM     62  O   UNL     1      18.229  33.333  33.300  1.00  0.00    -0.385 OA
ATOM     63  H   UNL     1      17.504  33.905  32.922  1.00  0.00     0.211 HD
ENDBRANCH   5  62
TORSDOF 14
ENDMDL
MODEL 4
REMARK VINA RESULT:    -3.583      3.370     11.698
REMARK INTER + INTRA:          -6.962
REMARK INTER:                  -6.316
REMARK INTRA:                  -0.647
REMARK UNBOUND:                -1.285
REMARK SMILES C[C@@H]1O[C@@H](O[C@H]2CC[C@@]3(C)[C@H](CC[C@@]4(C)[C@@H]3C=C[C@]35OC[C@@]6(CCC(C)(C)C[C@H]63)[C@H](O)C[C@]45C)[C@@]2(C)CO)[C@H](O)[C@@H](O[C@H]2O[C@@H](CO)[C@H](O)[C@@H](O)[C@@H]2O)[C@@H]1O
REMARK SMILES IDX 1 1 2 2 54 3 41 4 39 5 4 6 3 7 55 8 42 10 43 11 52 12 44 13
REMARK SMILES IDX 50 14 45 15 48 16 53 17 51 19 46 21 47 22 49 24 5 26 6 27
REMARK SMILES IDX 7 28 35 29 8 30 11 31 36 32 9 33 12 34 10 35 16 36 13 37
REMARK SMILES IDX 14 38 17 39 15 40 33 41 18 42 19 43 32 44 34 45 29 46 20 47
REMARK SMILES IDX 30 48 22 49 28 50 21 51 23 52 25 53 24 54 26 55 27 56 37 57
REMARK SMILES IDX 38 58 31 60 40 62
REMARK H PARENT 55 9 53 18 51 20 47 23 49 25 38 59 31 61 40 63
REMARK Flexibility Score: inf
ROOT
ATOM      1  C   UNL     1      16.398  34.354  23.366  1.00  0.00     0.041 C 
ATOM      2  C   UNL     1      17.678  33.520  23.510  1.00  0.00     0.150 C 
ATOM      3  C   UNL     1      18.987  34.196  22.938  1.00  0.00     0.175 C 
ATOM      4  C   UNL     1      19.978  34.407  24.071  1.00  0.00     0.186 C 
ATOM      5  C   UNL     1      19.200  35.002  25.247  1.00  0.00     0.202 C 
ATOM      6  C   UNL     1      18.289  33.913  25.853  1.00  0.00     0.282 C 
ATOM      7  O   UNL     1      17.807  33.002  24.850  1.00  0.00    -0.344 OA
ENDROOT
BRANCH   3   8
ATOM      8  O   UNL     1      18.760  35.441  22.301  1.00  0.00    -0.388 OA
ATOM      9  H   UNL     1      17.872  35.382  21.871  1.00  0.00     0.211 HD
ENDBRANCH   3   8
BRANCH   4  10
ATOM     10  O   UNL     1      20.470  33.128  24.439  1.00  0.00    -0.341 OA
BRANCH  10  11
ATOM     11  C   UNL     1      21.875  33.049  24.607  1.00  0.00     0.282 C 
ATOM     12  C   UNL     1      22.673  34.061  23.730  1.00  0.00     0.202 C 
ATOM     13  O   UNL     1      22.283  31.722  24.294  1.00  0.00    -0.341 OA
ATOM     14  C   UNL     1      22.662  33.664  22.227  1.00  0.00     0.179 C 
ATOM     15  C   UNL     1      21.992  31.325  22.939  1.00  0.00     0.178 C 
ATOM     16  C   UNL     1      21.711  32.491  21.935  1.00  0.00     0.177 C 
BRANCH  12  17
ATOM     17  O   UNL     1      23.998  34.164  24.206  1.00  0.00    -0.385 OA
ATOM     18  H   UNL     1      24.555  33.538  23.664  1.00  0.00     0.211 HD
ENDBRANCH  12  17
BRANCH  14  19
ATOM     19  O   UNL     1      22.294  34.771  21.451  1.00  0.00    -0.387 OA
ATOM     20  H   UNL     1      22.110  35.533  22.071  1.00  0.00     0.211 HD
ENDBRANCH  14  19
BRANCH  15  21
ATOM     21  C   UNL     1      20.873  30.267  22.912  1.00  0.00     0.191 C 
BRANCH  21  22
ATOM     22  O   UNL     1      19.675  30.812  22.435  1.00  0.00    -0.394 OA
ATOM     23  H   UNL     1      19.901  31.618  21.899  1.00  0.00     0.210 HD
ENDBRANCH  21  22
ENDBRANCH  15  21
BRANCH  16  24
ATOM     24  O   UNL     1      21.905  32.079  20.610  1.00  0.00    -0.387 OA
ATOM     25  H   UNL     1      22.724  31.514  20.596  1.00  0.00     0.211 HD
ENDBRANCH  16  24
ENDBRANCH  10  11
ENDBRANCH   4  10
BRANCH   6  26
ATOM     26  O   UNL     1      19.069  33.169  26.809  1.00  0.00    -0.346 OA
BRANCH  26  27
ATOM     27  C   UNL     1      18.399  32.775  28.015  1.00  0.00     0.130 C 
ATOM     28  C   UNL     1      19.239  31.712  28.757  1.00  0.00     0.033 C 
ATOM     29  C   UNL     1      18.010  33.982  28.990  1.00  0.00     0.020 C 
ATOM     30  C   UNL     1      20.508  32.177  29.510  1.00  0.00     0.010 C 
ATOM     31  C   UNL     1      19.089  34.254  30.169  1.00  0.00     0.006 C 
ATOM     32  C   UNL     1      16.590  33.640  29.546  1.00  0.00     0.017 C 
ATOM     33  C   UNL     1      20.556  33.665  29.992  1.00  0.00    -0.022 C 
ATOM     34  C   UNL     1      18.532  33.990  31.577  1.00  0.00     0.005 C 
ATOM     35  C   UNL     1      21.195  34.456  28.809  1.00  0.00     0.012 C 
ATOM     36  C   UNL     1      21.491  33.780  31.348  1.00  0.00     0.024 C 
ATOM     37  C   UNL     1      19.430  34.599  32.642  1.00  0.00     0.008 C 
ATOM     38  C   UNL     1      20.785  33.855  32.799  1.00  0.00    -0.017 C 
ATOM     39  C   UNL     1      22.647  34.790  31.260  1.00  0.00    -0.024 C 
ATOM     40  C   UNL     1      20.360  32.408  33.255  1.00  0.00     0.013 C 
ATOM     41  C   UNL     1      21.718  34.584  33.946  1.00  0.00     0.009 C 
ATOM     42  C   UNL     1      23.525  34.978  32.243  1.00  0.00     0.005 C 
ATOM     43  C   UNL     1      23.279  34.503  33.643  1.00  0.00     0.096 C 
ATOM     44  C   UNL     1      21.461  34.072  35.423  1.00  0.00     0.043 C 
ATOM     45  C   UNL     1      21.370  36.125  33.999  1.00  0.00     0.015 C 
ATOM     46  C   UNL     1      24.023  33.194  33.957  1.00  0.00     0.037 C 
ATOM     47  O   UNL     1      23.929  35.417  34.529  1.00  0.00    -0.369 OA
ATOM     48  C   UNL     1      22.512  33.090  36.041  1.00  0.00     0.124 C 
ATOM     49  C   UNL     1      23.974  33.225  35.468  1.00  0.00     0.026 C 
ATOM     50  C   UNL     1      23.888  31.807  33.282  1.00  0.00     0.014 C 
ATOM     51  C   UNL     1      24.407  34.688  35.649  1.00  0.00     0.171 C 
ATOM     52  C   UNL     1      24.952  32.194  36.116  1.00  0.00     0.013 C 
ATOM     53  C   UNL     1      24.837  30.741  33.963  1.00  0.00    -0.035 C 
ATOM     54  C   UNL     1      25.738  31.346  35.085  1.00  0.00     0.007 C 
ATOM     55  C   UNL     1      25.764  30.135  32.891  1.00  0.00     0.011 C 
ATOM     56  C   UNL     1      24.006  29.568  34.544  1.00  0.00     0.011 C 
BRANCH  29  57
ATOM     57  C   UNL     1      17.837  35.337  28.233  1.00  0.00     0.165 C 
BRANCH  57  58
ATOM     58  O   UNL     1      16.511  35.557  27.819  1.00  0.00    -0.396 OA
ATOM     59  H   UNL     1      16.280  34.845  27.166  1.00  0.00     0.210 HD
ENDBRANCH  57  58
ENDBRANCH  29  57
BRANCH  48  60
ATOM     60  O   UNL     1      22.063  31.765  35.967  1.00  0.00    -0.392 OA
ATOM     61  H   UNL     1      22.129  31.500  35.005  1.00  0.00     0.210 HD
ENDBRANCH  48  60
ENDBRANCH  26  27
ENDBRANCH   6  26
BRANCH   5  62
ATOM     62  O   UNL     1      18.425  36.125  24.886  1.00  0.00    -0.385 OA
ATOM     63  H   UNL     1      17.474  35.826  24.862  1.00  0.00     0.211 HD
ENDBRANCH   5  62
TORSDOF 14
ENDMDL
MODEL 5
REMARK VINA RESULT:    -3.502      1.609      2.922
REMARK INTER + INTRA:          -6.834
REMARK INTER:                  -4.970
REMARK INTRA:                  -1.865
REMARK UNBOUND:                -1.285
REMARK SMILES C[C@@H]1O[C@@H](O[C@H]2CC[C@@]3(C)[C@H](CC[C@@]4(C)[C@@H]3C=C[C@]35OC[C@@]6(CCC(C)(C)C[C@H]63)[C@H](O)C[C@]45C)[C@@]2(C)CO)[C@H](O)[C@@H](O[C@H]2O[C@@H](CO)[C@H](O)[C@@H](O)[C@@H]2O)[C@@H]1O
REMARK SMILES IDX 1 1 2 2 54 3 41 4 39 5 4 6 3 7 55 8 42 10 43 11 52 12 44 13
REMARK SMILES IDX 50 14 45 15 48 16 53 17 51 19 46 21 47 22 49 24 5 26 6 27
REMARK SMILES IDX 7 28 35 29 8 30 11 31 36 32 9 33 12 34 10 35 16 36 13 37
REMARK SMILES IDX 14 38 17 39 15 40 33 41 18 42 19 43 32 44 34 45 29 46 20 47
REMARK SMILES IDX 30 48 22 49 28 50 21 51 23 52 25 53 24 54 26 55 27 56 37 57
REMARK SMILES IDX 38 58 31 60 40 62
REMARK H PARENT 55 9 53 18 51 20 47 23 49 25 38 59 31 61 40 63
REMARK Flexibility Score: inf
ROOT
ATOM      1  C   UNL     1      18.963  30.384  29.745  1.00  0.00     0.041 C 
ATOM      2  C   UNL     1      19.501  31.811  29.921  1.00  0.00     0.150 C 
ATOM      3  C   UNL     1      20.921  31.910  30.608  1.00  0.00     0.175 C 
ATOM      4  C   UNL     1      21.904  32.540  29.635  1.00  0.00     0.186 C 
ATOM      5  C   UNL     1      21.700  31.857  28.280  1.00  0.00     0.202 C 
ATOM      6  C   UNL     1      20.356  32.320  27.679  1.00  0.00     0.282 C 
ATOM      7  O   UNL     1      19.371  32.564  28.698  1.00  0.00    -0.344 OA
ENDROOT
BRANCH   3   8
ATOM      8  O   UNL     1      21.444  30.664  31.033  1.00  0.00    -0.388 OA
ATOM      9  H   UNL     1      22.305  30.544  30.563  1.00  0.00     0.211 HD
ENDBRANCH   3   8
BRANCH   4  10
ATOM     10  O   UNL     1      21.560  33.911  29.521  1.00  0.00    -0.341 OA
BRANCH  10  11
ATOM     11  C   UNL     1      22.416  34.807  30.209  1.00  0.00     0.282 C 
ATOM     12  C   UNL     1      22.895  34.281  31.595  1.00  0.00     0.202 C 
ATOM     13  O   UNL     1      21.720  36.038  30.379  1.00  0.00    -0.341 OA
ATOM     14  C   UNL     1      21.754  34.297  32.650  1.00  0.00     0.179 C 
ATOM     15  C   UNL     1      20.510  35.923  31.154  1.00  0.00     0.178 C 
ATOM     16  C   UNL     1      20.386  34.635  32.033  1.00  0.00     0.177 C 
BRANCH  12  17
ATOM     17  O   UNL     1      23.993  35.047  32.042  1.00  0.00    -0.385 OA
ATOM     18  H   UNL     1      24.441  34.526  32.766  1.00  0.00     0.211 HD
ENDBRANCH  12  17
BRANCH  14  19
ATOM     19  O   UNL     1      21.685  33.051  33.288  1.00  0.00    -0.387 OA
ATOM     20  H   UNL     1      22.607  32.664  33.305  1.00  0.00     0.211 HD
ENDBRANCH  14  19
BRANCH  15  21
ATOM     21  C   UNL     1      19.273  36.125  30.261  1.00  0.00     0.191 C 
BRANCH  21  22
ATOM     22  O   UNL     1      19.413  35.448  29.044  1.00  0.00    -0.394 OA
ATOM     23  H   UNL     1      19.926  36.035  28.429  1.00  0.00     0.210 HD
ENDBRANCH  21  22
ENDBRANCH  15  21
BRANCH  16  24
ATOM     24  O   UNL     1      19.461  34.815  33.070  1.00  0.00    -0.387 OA
ATOM     25  H   UNL     1      19.839  35.499  33.684  1.00  0.00     0.211 HD
ENDBRANCH  16  24
ENDBRANCH  10  11
ENDBRANCH   4  10
BRANCH   6  26
ATOM     26  O   UNL     1      20.593  33.550  26.968  1.00  0.00    -0.346 OA
BRANCH  26  27
ATOM     27  C   UNL     1      21.609  33.520  25.956  1.00  0.00     0.130 C 
ATOM     28  C   UNL     1      21.395  32.299  25.034  1.00  0.00     0.033 C 
ATOM     29  C   UNL     1      21.744  34.866  25.102  1.00  0.00     0.020 C 
ATOM     30  C   UNL     1      20.245  32.354  24.001  1.00  0.00     0.010 C 
ATOM     31  C   UNL     1      20.930  34.845  23.700  1.00  0.00     0.006 C 
ATOM     32  C   UNL     1      23.278  35.090  24.899  1.00  0.00     0.017 C 
ATOM     33  C   UNL     1      19.772  33.768  23.523  1.00  0.00    -0.022 C 
ATOM     34  C   UNL     1      21.841  34.915  22.465  1.00  0.00     0.005 C 
ATOM     35  C   UNL     1      18.647  34.181  24.520  1.00  0.00     0.012 C 
ATOM     36  C   UNL     1      19.185  33.665  21.983  1.00  0.00     0.024 C 
ATOM     37  C   UNL     1      21.045  35.261  21.217  1.00  0.00     0.008 C 
ATOM     38  C   UNL     1      20.120  34.107  20.742  1.00  0.00    -0.017 C 
ATOM     39  C   UNL     1      17.754  34.197  21.794  1.00  0.00    -0.024 C 
ATOM     40  C   UNL     1      21.126  32.945  20.399  1.00  0.00     0.013 C 
ATOM     41  C   UNL     1      19.266  34.560  19.406  1.00  0.00     0.009 C 
ATOM     42  C   UNL     1      17.109  34.150  20.630  1.00  0.00     0.005 C 
ATOM     43  C   UNL     1      17.814  33.913  19.329  1.00  0.00     0.096 C 
ATOM     44  C   UNL     1      20.011  34.299  18.032  1.00  0.00     0.043 C 
ATOM     45  C   UNL     1      19.039  36.124  19.439  1.00  0.00     0.015 C 
ATOM     46  C   UNL     1      17.679  32.459  18.846  1.00  0.00     0.037 C 
ATOM     47  O   UNL     1      17.092  34.616  18.314  1.00  0.00    -0.369 OA
ATOM     48  C   UNL     1      19.548  33.069  17.182  1.00  0.00     0.124 C 
ATOM     49  C   UNL     1      18.048  32.636  17.390  1.00  0.00     0.026 C 
ATOM     50  C   UNL     1      18.151  31.154  19.532  1.00  0.00     0.014 C 
ATOM     51  C   UNL     1      17.169  33.866  17.112  1.00  0.00     0.171 C 
ATOM     52  C   UNL     1      17.676  31.388  16.527  1.00  0.00     0.013 C 
ATOM     53  C   UNL     1      17.825  29.887  18.645  1.00  0.00    -0.035 C 
ATOM     54  C   UNL     1      17.040  30.233  17.341  1.00  0.00     0.007 C 
ATOM     55  C   UNL     1      16.965  28.905  19.465  1.00  0.00     0.011 C 
ATOM     56  C   UNL     1      19.129  29.132  18.277  1.00  0.00     0.011 C 
BRANCH  29  57
ATOM     57  C   UNL     1      21.245  36.125  25.879  1.00  0.00     0.165 C 
BRANCH  57  58
ATOM     58  O   UNL     1      21.624  36.106  27.234  1.00  0.00    -0.396 OA
ATOM     59  H   UNL     1      20.997  35.501  27.710  1.00  0.00     0.210 HD
ENDBRANCH  57  58
ENDBRANCH  29  57
BRANCH  48  60
ATOM     60  O   UNL     1      20.415  31.984  17.359  1.00  0.00    -0.392 OA
ATOM     61  H   UNL     1      21.312  32.373  17.573  1.00  0.00     0.210 HD
ENDBRANCH  48  60
ENDBRANCH  26  27
ENDBRANCH   6  26
BRANCH   5  62
ATOM     62  O   UNL     1      21.726  30.448  28.362  1.00  0.00    -0.385 OA
ATOM     63  H   UNL     1      22.622  30.194  28.719  1.00  0.00     0.211 HD
ENDBRANCH   5  62
TORSDOF 14
ENDMDL
MODEL 6
REMARK VINA RESULT:    -2.798      2.447      5.079
REMARK INTER + INTRA:          -5.718
REMARK INTER:                  -7.182
REMARK INTRA:                   1.464
REMARK UNBOUND:                -1.285
REMARK SMILES C[C@@H]1O[C@@H](O[C@H]2CC[C@@]3(C)[C@H](CC[C@@]4(C)[C@@H]3C=C[C@]35OC[C@@]6(CCC(C)(C)C[C@H]63)[C@H](O)C[C@]45C)[C@@]2(C)CO)[C@H](O)[C@@H](O[C@H]2O[C@@H](CO)[C@H](O)[C@@H](O)[C@@H]2O)[C@@H]1O
REMARK SMILES IDX 1 1 2 2 54 3 41 4 39 5 4 6 3 7 55 8 42 10 43 11 52 12 44 13
REMARK SMILES IDX 50 14 45 15 48 16 53 17 51 19 46 21 47 22 49 24 5 26 6 27
REMARK SMILES IDX 7 28 35 29 8 30 11 31 36 32 9 33 12 34 10 35 16 36 13 37
REMARK SMILES IDX 14 38 17 39 15 40 33 41 18 42 19 43 32 44 34 45 29 46 20 47
REMARK SMILES IDX 30 48 22 49 28 50 21 51 23 52 25 53 24 54 26 55 27 56 37 57
REMARK SMILES IDX 38 58 31 60 40 62
REMARK H PARENT 55 9 53 18 51 20 47 23 49 25 38 59 31 61 40 63
REMARK Flexibility Score: inf
ROOT
ATOM      1  C   UNL     1      21.486  31.287  29.173  1.00  0.00     0.041 C 
ATOM      2  C   UNL     1      20.782  32.050  30.303  1.00  0.00     0.150 C 
ATOM      3  C   UNL     1      21.723  32.976  31.172  1.00  0.00     0.175 C 
ATOM      4  C   UNL     1      21.274  34.421  31.028  1.00  0.00     0.186 C 
ATOM      5  C   UNL     1      21.033  34.674  29.538  1.00  0.00     0.202 C 
ATOM      6  C   UNL     1      19.756  33.925  29.099  1.00  0.00     0.282 C 
ATOM      7  O   UNL     1      19.584  32.694  29.822  1.00  0.00    -0.344 OA
ENDROOT
BRANCH   3   8
ATOM      8  O   UNL     1      23.094  32.894  30.824  1.00  0.00    -0.388 OA
ATOM      9  H   UNL     1      23.420  33.823  30.741  1.00  0.00     0.211 HD
ENDBRANCH   3   8
BRANCH   4  10
ATOM     10  O   UNL     1      20.045  34.549  31.726  1.00  0.00    -0.341 OA
BRANCH  10  11
ATOM     11  C   UNL     1      20.040  35.510  32.767  1.00  0.00     0.282 C 
ATOM     12  C   UNL     1      20.723  35.021  34.080  1.00  0.00     0.202 C 
ATOM     13  O   UNL     1      18.687  35.863  33.035  1.00  0.00    -0.341 OA
ATOM     14  C   UNL     1      19.861  33.964  34.825  1.00  0.00     0.179 C 
ATOM     15  C   UNL     1      17.871  34.757  33.471  1.00  0.00     0.178 C 
ATOM     16  C   UNL     1      18.646  33.507  34.000  1.00  0.00     0.177 C 
BRANCH  12  17
ATOM     17  O   UNL     1      20.988  36.124  34.919  1.00  0.00    -0.385 OA
ATOM     18  H   UNL     1      21.181  35.763  35.829  1.00  0.00     0.211 HD
ENDBRANCH  12  17
BRANCH  14  19
ATOM     19  O   UNL     1      20.654  32.853  35.148  1.00  0.00    -0.387 OA
ATOM     20  H   UNL     1      20.428  32.577  36.081  1.00  0.00     0.211 HD
ENDBRANCH  14  19
BRANCH  15  21
ATOM     21  C   UNL     1      16.849  34.376  32.384  1.00  0.00     0.191 C 
BRANCH  21  22
ATOM     22  O   UNL     1      17.227  33.200  31.726  1.00  0.00    -0.394 OA
ATOM     23  H   UNL     1      18.046  33.397  31.200  1.00  0.00     0.210 HD
ENDBRANCH  21  22
ENDBRANCH  15  21
BRANCH  16  24
ATOM     24  O   UNL     1      17.830  32.708  34.812  1.00  0.00    -0.387 OA
ATOM     25  H   UNL     1      18.419  32.036  35.248  1.00  0.00     0.211 HD
ENDBRANCH  16  24
ENDBRANCH  10  11
ENDBRANCH   4  10
BRANCH   6  26
ATOM     26  O   UNL     1      18.629  34.778  29.375  1.00  0.00    -0.346 OA
BRANCH  26  27
ATOM     27  C   UNL     1      18.174  35.608  28.297  1.00  0.00     0.130 C 
ATOM     28  C   UNL     1      19.384  36.125  27.487  1.00  0.00     0.033 C 
ATOM     29  C   UNL     1      17.091  34.927  27.338  1.00  0.00     0.020 C 
ATOM     30  C   UNL     1      20.105  35.138  26.539  1.00  0.00     0.010 C 
ATOM     31  C   UNL     1      17.720  34.252  26.005  1.00  0.00     0.006 C 
ATOM     32  C   UNL     1      16.049  36.044  27.009  1.00  0.00     0.017 C 
ATOM     33  C   UNL     1      19.277  33.928  25.992  1.00  0.00    -0.022 C 
ATOM     34  C   UNL     1      17.266  34.936  24.705  1.00  0.00     0.005 C 
ATOM     35  C   UNL     1      19.485  32.787  27.034  1.00  0.00     0.012 C 
ATOM     36  C   UNL     1      19.855  33.484  24.510  1.00  0.00     0.024 C 
ATOM     37  C   UNL     1      17.570  34.066  23.495  1.00  0.00     0.008 C 
ATOM     38  C   UNL     1      19.088  33.971  23.175  1.00  0.00    -0.017 C 
ATOM     39  C   UNL     1      20.264  32.007  24.387  1.00  0.00    -0.024 C 
ATOM     40  C   UNL     1      19.489  35.459  22.849  1.00  0.00     0.013 C 
ATOM     41  C   UNL     1      19.346  32.992  21.875  1.00  0.00     0.009 C 
ATOM     42  C   UNL     1      20.792  31.488  23.279  1.00  0.00     0.005 C 
ATOM     43  C   UNL     1      20.713  32.180  21.952  1.00  0.00     0.096 C 
ATOM     44  C   UNL     1      19.272  33.728  20.474  1.00  0.00     0.043 C 
ATOM     45  C   UNL     1      18.202  31.902  21.808  1.00  0.00     0.015 C 
ATOM     46  C   UNL     1      22.022  32.903  21.590  1.00  0.00     0.037 C 
ATOM     47  O   UNL     1      20.661  31.168  20.942  1.00  0.00    -0.369 OA
ATOM     48  C   UNL     1      20.624  34.049  19.753  1.00  0.00     0.124 C 
ATOM     49  C   UNL     1      21.816  33.079  20.102  1.00  0.00     0.026 C 
ATOM     50  C   UNL     1      22.741  34.054  22.335  1.00  0.00     0.014 C 
ATOM     51  C   UNL     1      21.350  31.646  19.797  1.00  0.00     0.171 C 
ATOM     52  C   UNL     1      23.131  33.483  19.363  1.00  0.00     0.013 C 
ATOM     53  C   UNL     1      24.048  34.507  21.571  1.00  0.00    -0.035 C 
ATOM     54  C   UNL     1      24.351  33.645  20.305  1.00  0.00     0.007 C 
ATOM     55  C   UNL     1      25.256  34.386  22.522  1.00  0.00     0.011 C 
ATOM     56  C   UNL     1      23.950  36.001  21.167  1.00  0.00     0.011 C 
BRANCH  29  57
ATOM     57  C   UNL     1      16.274  33.804  28.053  1.00  0.00     0.165 C 
BRANCH  57  58
ATOM     58  O   UNL     1      15.903  34.159  29.363  1.00  0.00    -0.396 OA
ATOM     59  H   UNL     1      15.354  33.417  29.729  1.00  0.00     0.210 HD
ENDBRANCH  57  58
ENDBRANCH  29  57
BRANCH  48  60
ATOM     60  O   UNL     1      20.990  35.386  19.948  1.00  0.00    -0.392 OA
ATOM     61  H   UNL     1      21.667  35.598  19.243  1.00  0.00     0.210 HD
ENDBRANCH  48  60
ENDBRANCH  26  27
ENDBRANCH   6  26
BRANCH   5  62
ATOM     62  O   UNL     1      22.119  34.279  28.728  1.00  0.00    -0.385 OA
ATOM     63  H   UNL     1      22.470  35.104  28.290  1.00  0.00     0.211 HD
ENDBRANCH   5  62
TORSDOF 14
ENDMDL
