MODEL 1
REMARK VINA RESULT:    -4.110      0.000      0.000
REMARK INTER + INTRA:         -16.423
REMARK INTER:                 -10.837
REMARK INTRA:                  -5.586
REMARK UNBOUND:                -5.586
REMARK SMILES CCCCCCCCCCCCCCCCCCCCCCCCCCCCCC(=O)[O-]
REMARK SMILES IDX 16 1 17 2 18 3 19 4 20 5 21 6 22 7 23 8 24 9 25 10 26 11
REMARK SMILES IDX 27 12 28 13 29 14 30 15 31 16 32 17 15 18 14 19 13 20 12 21
REMARK SMILES IDX 11 22 10 23 9 24 8 25 7 26 6 27 5 28 4 29 3 30 2 31 1 32
REMARK H PARENT
REMARK Flexibility Score: inf
ROOT
ATOM      1  C   UNL     1      13.777  16.710  21.729  1.00  0.00     0.000 C 
ENDROOT
BRANCH   1   2
ATOM      2  C   UNL     1      13.355  17.405  23.036  1.00  0.00     0.000 C 
BRANCH   2   3
ATOM      3  C   UNL     1      13.806  18.873  23.097  1.00  0.00     0.000 C 
BRANCH   3   4
ATOM      4  C   UNL     1      14.345  19.270  24.482  1.00  0.00     0.000 C 
BRANCH   4   5
ATOM      5  C   UNL     1      15.080  18.113  25.179  1.00  0.00     0.000 C 
BRANCH   5   6
ATOM      6  C   UNL     1      14.618  17.909  26.630  1.00  0.00     0.000 C 
BRANCH   6   7
ATOM      7  C   UNL     1      13.134  17.519  26.680  1.00  0.00     0.000 C 
BRANCH   7   8
ATOM      8  C   UNL     1      12.262  18.559  27.410  1.00  0.00     0.000 C 
BRANCH   8   9
ATOM      9  C   UNL     1      13.032  19.745  28.021  1.00  0.00     0.000 C 
BRANCH   9  10
ATOM     10  C   UNL     1      12.769  21.106  27.349  1.00  0.00     0.000 C 
BRANCH  10  11
ATOM     11  C   UNL     1      11.660  21.065  26.276  1.00  0.00     0.000 C 
BRANCH  11  12
ATOM     12  C   UNL     1      12.078  21.767  24.973  1.00  0.00     0.000 C 
BRANCH  12  13
ATOM     13  C   UNL     1      11.521  23.197  24.871  1.00  0.00     0.006 C 
BRANCH  13  14
ATOM     14  C   UNL     1      12.623  24.261  24.936  1.00  0.00     0.053 C 
BRANCH  14  15
ATOM     15  C   UNL     1      12.920  24.618  26.358  1.00  0.00     0.041 C 
ATOM     16  O   UNL     1      14.100  24.884  26.712  1.00  0.00    -0.550 OA
ATOM     17  O   UNL     1      11.905  24.604  27.305  1.00  0.00    -0.550 OA
ENDBRANCH  14  15
ENDBRANCH  13  14
ENDBRANCH  12  13
ENDBRANCH  11  12
ENDBRANCH  10  11
ENDBRANCH   9  10
ENDBRANCH   8   9
ENDBRANCH   7   8
ENDBRANCH   6   7
ENDBRANCH   5   6
ENDBRANCH   4   5
ENDBRANCH   3   4
ENDBRANCH   2   3
ENDBRANCH   1   2
BRANCH   1  18
ATOM     18  C   UNL     1      15.276  16.377  21.698  1.00  0.00     0.000 C 
BRANCH  18  19
ATOM     19  C   UNL     1      16.071  17.311  20.769  1.00  0.00     0.000 C 
BRANCH  19  20
ATOM     20  C   UNL     1      17.240  18.003  21.488  1.00  0.00     0.000 C 
BRANCH  20  21
ATOM     21  C   UNL     1      17.076  19.529  21.543  1.00  0.00     0.000 C 
BRANCH  21  22
ATOM     22  C   UNL     1      18.118  20.164  22.476  1.00  0.00     0.000 C 
BRANCH  22  23
ATOM     23  C   UNL     1      17.482  20.883  23.681  1.00  0.00     0.000 C 
BRANCH  23  24
ATOM     24  C   UNL     1      16.848  22.250  23.361  1.00  0.00    -0.000 C 
BRANCH  24  25
ATOM     25  C   UNL     1      15.308  22.264  23.336  1.00  0.00    -0.000 C 
BRANCH  25  26
ATOM     26  C   UNL     1      14.716  22.966  22.095  1.00  0.00    -0.000 C 
BRANCH  26  27
ATOM     27  C   UNL     1      14.792  22.092  20.834  1.00  0.00    -0.000 C 
BRANCH  27  28
ATOM     28  C   UNL     1      14.067  22.762  19.657  1.00  0.00    -0.000 C 
BRANCH  28  29
ATOM     29  C   UNL     1      12.714  22.104  19.345  1.00  0.00    -0.000 C 
BRANCH  29  30
ATOM     30  C   UNL     1      12.447  20.861  20.213  1.00  0.00    -0.000 C 
BRANCH  30  31
ATOM     31  C   UNL     1      11.479  21.148  21.370  1.00  0.00    -0.003 C 
ATOM     32  C   UNL     1      10.671  22.430  21.163  1.00  0.00     0.004 C 
ENDBRANCH  30  31
ENDBRANCH  29  30
ENDBRANCH  28  29
ENDBRANCH  27  28
ENDBRANCH  26  27
ENDBRANCH  25  26
ENDBRANCH  24  25
ENDBRANCH  23  24
ENDBRANCH  22  23
ENDBRANCH  21  22
ENDBRANCH  20  21
ENDBRANCH  19  20
ENDBRANCH  18  19
ENDBRANCH   1  18
TORSDOF 28
ENDMDL
MODEL 2
REMARK VINA RESULT:    -4.034      3.828      6.065
REMARK INTER + INTRA:         -16.224
REMARK INTER:                 -11.702
REMARK INTRA:                  -4.522
REMARK UNBOUND:                -5.586
REMARK SMILES CCCCCCCCCCCCCCCCCCCCCCCCCCCCCC(=O)[O-]
REMARK SMILES IDX 16 1 17 2 18 3 19 4 20 5 21 6 22 7 23 8 24 9 25 10 26 11
REMARK SMILES IDX 27 12 28 13 29 14 30 15 31 16 32 17 15 18 14 19 13 20 12 21
REMARK SMILES IDX 11 22 10 23 9 24 8 25 7 26 6 27 5 28 4 29 3 30 2 31 1 32
REMARK H PARENT
REMARK Flexibility Score: inf
ROOT
ATOM      1  C   UNL     1      13.493  17.394  26.555  1.00  0.00     0.000 C 
ENDROOT
BRANCH   1   2
ATOM      2  C   UNL     1      12.564  18.280  27.403  1.00  0.00     0.000 C 
BRANCH   2   3
ATOM      3  C   UNL     1      13.240  19.586  27.851  1.00  0.00     0.000 C 
BRANCH   3   4
ATOM      4  C   UNL     1      12.512  20.838  27.334  1.00  0.00     0.000 C 
BRANCH   4   5
ATOM      5  C   UNL     1      12.310  21.894  28.433  1.00  0.00     0.000 C 
BRANCH   5   6
ATOM      6  C   UNL     1      12.942  21.482  29.771  1.00  0.00     0.000 C 
BRANCH   6   7
ATOM      7  C   UNL     1      11.862  21.265  30.841  1.00  0.00     0.000 C 
BRANCH   7   8
ATOM      8  C   UNL     1      11.369  19.807  30.914  1.00  0.00     0.000 C 
BRANCH   8   9
ATOM      9  C   UNL     1       9.872  19.607  30.609  1.00  0.00     0.000 C 
BRANCH   9  10
ATOM     10  C   UNL     1       9.538  19.354  29.127  1.00  0.00     0.000 C 
BRANCH  10  11
ATOM     11  C   UNL     1       9.213  17.879  28.807  1.00  0.00     0.000 C 
BRANCH  11  12
ATOM     12  C   UNL     1       9.456  16.950  30.009  1.00  0.00     0.000 C 
BRANCH  12  13
ATOM     13  C   UNL     1      10.657  16.014  29.795  1.00  0.00     0.006 C 
BRANCH  13  14
ATOM     14  C   UNL     1      10.972  15.172  31.038  1.00  0.00     0.053 C 
BRANCH  14  15
ATOM     15  C   UNL     1      10.082  13.970  31.094  1.00  0.00     0.041 C 
ATOM     16  O   UNL     1       9.741  13.384  30.032  1.00  0.00    -0.550 OA
ATOM     17  O   UNL     1       9.583  13.530  32.313  1.00  0.00    -0.550 OA
ENDBRANCH  14  15
ENDBRANCH  13  14
ENDBRANCH  12  13
ENDBRANCH  11  12
ENDBRANCH  10  11
ENDBRANCH   9  10
ENDBRANCH   8   9
ENDBRANCH   7   8
ENDBRANCH   6   7
ENDBRANCH   5   6
ENDBRANCH   4   5
ENDBRANCH   3   4
ENDBRANCH   2   3
ENDBRANCH   1   2
BRANCH   1  18
ATOM     18  C   UNL     1      14.862  18.045  26.309  1.00  0.00     0.000 C 
BRANCH  18  19
ATOM     19  C   UNL     1      15.172  18.226  24.812  1.00  0.00     0.000 C 
BRANCH  19  20
ATOM     20  C   UNL     1      13.908  18.188  23.939  1.00  0.00     0.000 C 
BRANCH  20  21
ATOM     21  C   UNL     1      14.217  18.389  22.448  1.00  0.00     0.000 C 
BRANCH  21  22
ATOM     22  C   UNL     1      15.281  17.393  21.964  1.00  0.00     0.000 C 
BRANCH  22  23
ATOM     23  C   UNL     1      16.352  18.048  21.071  1.00  0.00     0.000 C 
BRANCH  23  24
ATOM     24  C   UNL     1      17.494  18.746  21.833  1.00  0.00    -0.000 C 
BRANCH  24  25
ATOM     25  C   UNL     1      17.349  20.274  21.967  1.00  0.00    -0.000 C 
BRANCH  25  26
ATOM     26  C   UNL     1      17.423  20.778  23.424  1.00  0.00    -0.000 C 
BRANCH  26  27
ATOM     27  C   UNL     1      16.619  22.069  23.639  1.00  0.00    -0.000 C 
BRANCH  27  28
ATOM     28  C   UNL     1      15.210  21.759  24.164  1.00  0.00    -0.000 C 
BRANCH  28  29
ATOM     29  C   UNL     1      14.125  21.951  23.093  1.00  0.00    -0.000 C 
BRANCH  29  30
ATOM     30  C   UNL     1      14.632  22.745  21.875  1.00  0.00    -0.000 C 
BRANCH  30  31
ATOM     31  C   UNL     1      14.417  21.994  20.553  1.00  0.00    -0.003 C 
ATOM     32  C   UNL     1      13.228  22.529  19.753  1.00  0.00     0.004 C 
ENDBRANCH  30  31
ENDBRANCH  29  30
ENDBRANCH  28  29
ENDBRANCH  27  28
ENDBRANCH  26  27
ENDBRANCH  25  26
ENDBRANCH  24  25
ENDBRANCH  23  24
ENDBRANCH  22  23
ENDBRANCH  21  22
ENDBRANCH  20  21
ENDBRANCH  19  20
ENDBRANCH  18  19
ENDBRANCH   1  18
TORSDOF 28
ENDMDL
MODEL 3
REMARK VINA RESULT:    -4.033      4.369      8.355
REMARK INTER + INTRA:         -16.220
REMARK INTER:                 -12.556
REMARK INTRA:                  -3.664
REMARK UNBOUND:                -5.586
REMARK SMILES CCCCCCCCCCCCCCCCCCCCCCCCCCCCCC(=O)[O-]
REMARK SMILES IDX 16 1 17 2 18 3 19 4 20 5 21 6 22 7 23 8 24 9 25 10 26 11
REMARK SMILES IDX 27 12 28 13 29 14 30 15 31 16 32 17 15 18 14 19 13 20 12 21
REMARK SMILES IDX 11 22 10 23 9 24 8 25 7 26 6 27 5 28 4 29 3 30 2 31 1 32
REMARK H PARENT
REMARK Flexibility Score: inf
ROOT
ATOM      1  C   UNL     1      14.102  22.925  19.414  1.00  0.00     0.000 C 
ENDROOT
BRANCH   1   2
ATOM      2  C   UNL     1      12.569  22.806  19.351  1.00  0.00     0.000 C 
BRANCH   2   3
ATOM      3  C   UNL     1      11.875  24.171  19.226  1.00  0.00     0.000 C 
BRANCH   3   4
ATOM      4  C   UNL     1      11.392  24.717  20.580  1.00  0.00     0.000 C 
BRANCH   4   5
ATOM      5  C   UNL     1      10.190  25.665  20.434  1.00  0.00     0.000 C 
BRANCH   5   6
ATOM      6  C   UNL     1       9.090  25.090  19.529  1.00  0.00     0.000 C 
BRANCH   6   7
ATOM      7  C   UNL     1       8.445  26.196  18.682  1.00  0.00     0.000 C 
BRANCH   7   8
ATOM      8  C   UNL     1       8.361  25.840  17.186  1.00  0.00     0.000 C 
BRANCH   8   9
ATOM      9  C   UNL     1       9.616  25.161  16.604  1.00  0.00     0.000 C 
BRANCH   9  10
ATOM     10  C   UNL     1       9.366  23.800  15.929  1.00  0.00     0.000 C 
BRANCH  10  11
ATOM     11  C   UNL     1       9.578  22.593  16.869  1.00  0.00     0.000 C 
BRANCH  11  12
ATOM     12  C   UNL     1       9.992  21.322  16.109  1.00  0.00     0.000 C 
BRANCH  12  13
ATOM     13  C   UNL     1      10.908  20.411  16.941  1.00  0.00     0.006 C 
BRANCH  13  14
ATOM     14  C   UNL     1      11.669  19.398  16.076  1.00  0.00     0.053 C 
BRANCH  14  15
ATOM     15  C   UNL     1      11.109  18.023  16.266  1.00  0.00     0.041 C 
ATOM     16  O   UNL     1      11.854  17.082  16.649  1.00  0.00    -0.550 OA
ATOM     17  O   UNL     1       9.777  17.768  15.968  1.00  0.00    -0.550 OA
ENDBRANCH  14  15
ENDBRANCH  13  14
ENDBRANCH  12  13
ENDBRANCH  11  12
ENDBRANCH  10  11
ENDBRANCH   9  10
ENDBRANCH   8   9
ENDBRANCH   7   8
ENDBRANCH   6   7
ENDBRANCH   5   6
ENDBRANCH   4   5
ENDBRANCH   3   4
ENDBRANCH   2   3
ENDBRANCH   1   2
BRANCH   1  18
ATOM     18  C   UNL     1      14.700  22.184  20.620  1.00  0.00     0.000 C 
BRANCH  18  19
ATOM     19  C   UNL     1      13.735  21.144  21.215  1.00  0.00     0.000 C 
BRANCH  19  20
ATOM     20  C   UNL     1      14.468  19.931  21.809  1.00  0.00     0.000 C 
BRANCH  20  21
ATOM     21  C   UNL     1      15.967  19.929  21.479  1.00  0.00     0.000 C 
BRANCH  21  22
ATOM     22  C   UNL     1      16.812  19.727  22.745  1.00  0.00     0.000 C 
BRANCH  22  23
ATOM     23  C   UNL     1      17.409  21.043  23.282  1.00  0.00     0.000 C 
BRANCH  23  24
ATOM     24  C   UNL     1      16.407  21.963  24.005  1.00  0.00    -0.000 C 
BRANCH  24  25
ATOM     25  C   UNL     1      16.867  23.424  24.172  1.00  0.00    -0.000 C 
BRANCH  25  26
ATOM     26  C   UNL     1      15.714  24.448  24.098  1.00  0.00    -0.000 C 
BRANCH  26  27
ATOM     27  C   UNL     1      14.344  23.777  23.917  1.00  0.00    -0.000 C 
BRANCH  27  28
ATOM     28  C   UNL     1      13.240  24.588  24.612  1.00  0.00    -0.000 C 
BRANCH  28  29
ATOM     29  C   UNL     1      13.658  25.082  26.006  1.00  0.00    -0.000 C 
BRANCH  29  30
ATOM     30  C   UNL     1      13.700  23.947  27.046  1.00  0.00    -0.000 C 
BRANCH  30  31
ATOM     31  C   UNL     1      12.443  23.066  27.008  1.00  0.00    -0.003 C 
ATOM     32  C   UNL     1      12.744  21.619  26.615  1.00  0.00     0.004 C 
ENDBRANCH  30  31
ENDBRANCH  29  30
ENDBRANCH  28  29
ENDBRANCH  27  28
ENDBRANCH  26  27
ENDBRANCH  25  26
ENDBRANCH  24  25
ENDBRANCH  23  24
ENDBRANCH  22  23
ENDBRANCH  21  22
ENDBRANCH  20  21
ENDBRANCH  19  20
ENDBRANCH  18  19
ENDBRANCH   1  18
TORSDOF 28
ENDMDL
MODEL 4
REMARK VINA RESULT:    -4.028      1.810      5.661
REMARK INTER + INTRA:         -16.208
REMARK INTER:                 -10.881
REMARK INTRA:                  -5.328
REMARK UNBOUND:                -5.586
REMARK SMILES CCCCCCCCCCCCCCCCCCCCCCCCCCCCCC(=O)[O-]
REMARK SMILES IDX 16 1 17 2 18 3 19 4 20 5 21 6 22 7 23 8 24 9 25 10 26 11
REMARK SMILES IDX 27 12 28 13 29 14 30 15 31 16 32 17 15 18 14 19 13 20 12 21
REMARK SMILES IDX 11 22 10 23 9 24 8 25 7 26 6 27 5 28 4 29 3 30 2 31 1 32
REMARK H PARENT
REMARK Flexibility Score: inf
ROOT
ATOM      1  C   UNL     1      11.687  24.658  20.766  1.00  0.00     0.000 C 
ENDROOT
BRANCH   1   2
ATOM      2  C   UNL     1      12.064  23.742  19.588  1.00  0.00     0.000 C 
BRANCH   2   3
ATOM      3  C   UNL     1      13.563  23.405  19.558  1.00  0.00     0.000 C 
BRANCH   3   4
ATOM      4  C   UNL     1      13.889  22.088  20.280  1.00  0.00     0.000 C 
BRANCH   4   5
ATOM      5  C   UNL     1      12.717  21.094  20.245  1.00  0.00     0.000 C 
BRANCH   5   6
ATOM      6  C   UNL     1      12.728  20.124  21.436  1.00  0.00     0.000 C 
BRANCH   6   7
ATOM      7  C   UNL     1      13.082  20.861  22.736  1.00  0.00     0.000 C 
BRANCH   7   8
ATOM      8  C   UNL     1      13.035  19.950  23.978  1.00  0.00     0.000 C 
BRANCH   8   9
ATOM      9  C   UNL     1      13.251  18.450  23.697  1.00  0.00     0.000 C 
BRANCH   9  10
ATOM     10  C   UNL     1      14.355  17.783  24.539  1.00  0.00     0.000 C 
BRANCH  10  11
ATOM     11  C   UNL     1      14.562  18.438  25.922  1.00  0.00     0.000 C 
BRANCH  11  12
ATOM     12  C   UNL     1      13.698  17.786  27.015  1.00  0.00     0.000 C 
BRANCH  12  13
ATOM     13  C   UNL     1      12.511  18.669  27.432  1.00  0.00     0.006 C 
BRANCH  13  14
ATOM     14  C   UNL     1      12.948  20.072  27.869  1.00  0.00     0.053 C 
BRANCH  14  15
ATOM     15  C   UNL     1      12.519  20.337  29.278  1.00  0.00     0.041 C 
ATOM     16  O   UNL     1      12.524  21.513  29.732  1.00  0.00    -0.550 OA
ATOM     17  O   UNL     1      12.168  19.281  30.108  1.00  0.00    -0.550 OA
ENDBRANCH  14  15
ENDBRANCH  13  14
ENDBRANCH  12  13
ENDBRANCH  11  12
ENDBRANCH  10  11
ENDBRANCH   9  10
ENDBRANCH   8   9
ENDBRANCH   7   8
ENDBRANCH   6   7
ENDBRANCH   5   6
ENDBRANCH   4   5
ENDBRANCH   3   4
ENDBRANCH   2   3
ENDBRANCH   1   2
BRANCH   1  18
ATOM     18  C   UNL     1      10.839  23.936  21.824  1.00  0.00     0.000 C 
BRANCH  18  19
ATOM     19  C   UNL     1      11.284  24.258  23.261  1.00  0.00     0.000 C 
BRANCH  19  20
ATOM     20  C   UNL     1      12.804  24.134  23.450  1.00  0.00     0.000 C 
BRANCH  20  21
ATOM     21  C   UNL     1      13.230  24.299  24.916  1.00  0.00     0.000 C 
BRANCH  21  22
ATOM     22  C   UNL     1      14.760  24.295  25.051  1.00  0.00     0.000 C 
BRANCH  22  23
ATOM     23  C   UNL     1      15.460  23.544  23.902  1.00  0.00     0.000 C 
BRANCH  23  24
ATOM     24  C   UNL     1      16.983  23.383  24.065  1.00  0.00    -0.000 C 
BRANCH  24  25
ATOM     25  C   UNL     1      17.542  22.011  23.642  1.00  0.00    -0.000 C 
BRANCH  25  26
ATOM     26  C   UNL     1      16.669  21.282  22.598  1.00  0.00    -0.000 C 
BRANCH  26  27
ATOM     27  C   UNL     1      16.774  19.754  22.710  1.00  0.00    -0.000 C 
BRANCH  27  28
ATOM     28  C   UNL     1      16.199  19.071  21.460  1.00  0.00    -0.000 C 
BRANCH  28  29
ATOM     29  C   UNL     1      16.812  17.684  21.209  1.00  0.00    -0.000 C 
BRANCH  29  30
ATOM     30  C   UNL     1      15.767  16.556  21.278  1.00  0.00    -0.000 C 
BRANCH  30  31
ATOM     31  C   UNL     1      14.438  16.942  20.612  1.00  0.00    -0.003 C 
ATOM     32  C   UNL     1      13.445  15.781  20.551  1.00  0.00     0.004 C 
ENDBRANCH  30  31
ENDBRANCH  29  30
ENDBRANCH  28  29
ENDBRANCH  27  28
ENDBRANCH  26  27
ENDBRANCH  25  26
ENDBRANCH  24  25
ENDBRANCH  23  24
ENDBRANCH  22  23
ENDBRANCH  21  22
ENDBRANCH  20  21
ENDBRANCH  19  20
ENDBRANCH  18  19
ENDBRANCH   1  18
TORSDOF 28
ENDMDL
MODEL 5
REMARK VINA RESULT:    -4.027      3.884      7.860
REMARK INTER + INTRA:         -16.204
REMARK INTER:                 -12.034
REMARK INTRA:                  -4.171
REMARK UNBOUND:                -5.586
REMARK SMILES CCCCCCCCCCCCCCCCCCCCCCCCCCCCCC(=O)[O-]
REMARK SMILES IDX 16 1 17 2 18 3 19 4 20 5 21 6 22 7 23 8 24 9 25 10 26 11
REMARK SMILES IDX 27 12 28 13 29 14 30 15 31 16 32 17 15 18 14 19 13 20 12 21
REMARK SMILES IDX 11 22 10 23 9 24 8 25 7 26 6 27 5 28 4 29 3 30 2 31 1 32
REMARK H PARENT
REMARK Flexibility Score: inf
ROOT
ATOM      1  C   UNL     1      11.556  22.662  18.859  1.00  0.00     0.000 C 
ENDROOT
BRANCH   1   2
ATOM      2  C   UNL     1      12.847  21.882  19.166  1.00  0.00     0.000 C 
BRANCH   2   3
ATOM      3  C   UNL     1      14.004  22.799  19.592  1.00  0.00     0.000 C 
BRANCH   3   4
ATOM      4  C   UNL     1      14.626  22.384  20.936  1.00  0.00     0.000 C 
BRANCH   4   5
ATOM      5  C   UNL     1      13.602  22.396  22.084  1.00  0.00     0.000 C 
BRANCH   5   6
ATOM      6  C   UNL     1      14.267  22.441  23.468  1.00  0.00     0.000 C 
BRANCH   6   7
ATOM      7  C   UNL     1      15.480  23.382  23.460  1.00  0.00     0.000 C 
BRANCH   7   8
ATOM      8  C   UNL     1      16.691  22.812  24.224  1.00  0.00     0.000 C 
BRANCH   8   9
ATOM      9  C   UNL     1      17.677  21.992  23.369  1.00  0.00     0.000 C 
BRANCH   9  10
ATOM     10  C   UNL     1      17.355  20.489  23.265  1.00  0.00     0.000 C 
BRANCH  10  11
ATOM     11  C   UNL     1      17.487  19.923  21.835  1.00  0.00     0.000 C 
BRANCH  11  12
ATOM     12  C   UNL     1      16.509  18.768  21.568  1.00  0.00     0.000 C 
BRANCH  12  13
ATOM     13  C   UNL     1      15.141  18.989  22.234  1.00  0.00     0.006 C 
BRANCH  13  14
ATOM     14  C   UNL     1      14.778  17.866  23.214  1.00  0.00     0.053 C 
BRANCH  14  15
ATOM     15  C   UNL     1      14.419  18.435  24.550  1.00  0.00     0.041 C 
ATOM     16  O   UNL     1      13.427  19.202  24.668  1.00  0.00    -0.550 OA
ATOM     17  O   UNL     1      15.213  18.164  25.657  1.00  0.00    -0.550 OA
ENDBRANCH  14  15
ENDBRANCH  13  14
ENDBRANCH  12  13
ENDBRANCH  11  12
ENDBRANCH  10  11
ENDBRANCH   9  10
ENDBRANCH   8   9
ENDBRANCH   7   8
ENDBRANCH   6   7
ENDBRANCH   5   6
ENDBRANCH   4   5
ENDBRANCH   3   4
ENDBRANCH   2   3
ENDBRANCH   1   2
BRANCH   1  18
ATOM     18  C   UNL     1      11.612  24.112  19.362  1.00  0.00     0.000 C 
BRANCH  18  19
ATOM     19  C   UNL     1      10.253  24.826  19.265  1.00  0.00     0.000 C 
BRANCH  19  20
ATOM     20  C   UNL     1       9.458  24.416  18.015  1.00  0.00     0.000 C 
BRANCH  20  21
ATOM     21  C   UNL     1       9.869  25.214  16.769  1.00  0.00     0.000 C 
BRANCH  21  22
ATOM     22  C   UNL     1       9.507  24.456  15.483  1.00  0.00     0.000 C 
BRANCH  22  23
ATOM     23  C   UNL     1       8.063  24.722  15.018  1.00  0.00     0.000 C 
BRANCH  23  24
ATOM     24  C   UNL     1       7.232  23.458  14.726  1.00  0.00    -0.000 C 
BRANCH  24  25
ATOM     25  C   UNL     1       8.044  22.152  14.627  1.00  0.00    -0.000 C 
BRANCH  25  26
ATOM     26  C   UNL     1       7.699  21.125  15.726  1.00  0.00    -0.000 C 
BRANCH  26  27
ATOM     27  C   UNL     1       8.820  20.979  16.766  1.00  0.00    -0.000 C 
BRANCH  27  28
ATOM     28  C   UNL     1      10.196  20.915  16.085  1.00  0.00    -0.000 C 
BRANCH  28  29
ATOM     29  C   UNL     1      10.754  19.485  16.013  1.00  0.00    -0.000 C 
BRANCH  29  30
ATOM     30  C   UNL     1       9.923  18.485  16.837  1.00  0.00    -0.000 C 
BRANCH  30  31
ATOM     31  C   UNL     1      10.791  17.626  17.770  1.00  0.00    -0.003 C 
ATOM     32  C   UNL     1      11.584  18.460  18.777  1.00  0.00     0.004 C 
ENDBRANCH  30  31
ENDBRANCH  29  30
ENDBRANCH  28  29
ENDBRANCH  27  28
ENDBRANCH  26  27
ENDBRANCH  25  26
ENDBRANCH  24  25
ENDBRANCH  23  24
ENDBRANCH  22  23
ENDBRANCH  21  22
ENDBRANCH  20  21
ENDBRANCH  19  20
ENDBRANCH  18  19
ENDBRANCH   1  18
TORSDOF 28
ENDMDL
MODEL 6
REMARK VINA RESULT:    -4.025      3.441      6.262
REMARK INTER + INTRA:         -16.199
REMARK INTER:                 -11.599
REMARK INTRA:                  -4.600
REMARK UNBOUND:                -5.586
REMARK SMILES CCCCCCCCCCCCCCCCCCCCCCCCCCCCCC(=O)[O-]
REMARK SMILES IDX 16 1 17 2 18 3 19 4 20 5 21 6 22 7 23 8 24 9 25 10 26 11
REMARK SMILES IDX 27 12 28 13 29 14 30 15 31 16 32 17 15 18 14 19 13 20 12 21
REMARK SMILES IDX 11 22 10 23 9 24 8 25 7 26 6 27 5 28 4 29 3 30 2 31 1 32
REMARK H PARENT
REMARK Flexibility Score: inf
ROOT
ATOM      1  C   UNL     1      12.774  21.267  24.230  1.00  0.00     0.000 C 
ENDROOT
BRANCH   1   2
ATOM      2  C   UNL     1      13.827  22.275  24.726  1.00  0.00     0.000 C 
BRANCH   2   3
ATOM      3  C   UNL     1      14.243  23.278  23.639  1.00  0.00     0.000 C 
BRANCH   3   4
ATOM      4  C   UNL     1      15.537  22.867  22.917  1.00  0.00     0.000 C 
BRANCH   4   5
ATOM      5  C   UNL     1      16.686  22.572  23.895  1.00  0.00     0.000 C 
BRANCH   5   6
ATOM      6  C   UNL     1      17.433  21.274  23.555  1.00  0.00     0.000 C 
BRANCH   6   7
ATOM      7  C   UNL     1      17.067  20.787  22.145  1.00  0.00     0.000 C 
BRANCH   7   8
ATOM      8  C   UNL     1      17.426  19.307  21.906  1.00  0.00     0.000 C 
BRANCH   8   9
ATOM      9  C   UNL     1      16.243  18.404  21.508  1.00  0.00     0.000 C 
BRANCH   9  10
ATOM     10  C   UNL     1      14.933  18.673  22.272  1.00  0.00     0.000 C 
BRANCH  10  11
ATOM     11  C   UNL     1      14.796  17.857  23.576  1.00  0.00     0.000 C 
BRANCH  11  12
ATOM     12  C   UNL     1      15.092  18.699  24.828  1.00  0.00     0.000 C 
BRANCH  12  13
ATOM     13  C   UNL     1      15.044  17.869  26.121  1.00  0.00     0.006 C 
BRANCH  13  14
ATOM     14  C   UNL     1      13.925  18.322  27.067  1.00  0.00     0.053 C 
BRANCH  14  15
ATOM     15  C   UNL     1      12.591  17.890  26.544  1.00  0.00     0.041 C 
ATOM     16  O   UNL     1      11.662  18.729  26.406  1.00  0.00    -0.550 OA
ATOM     17  O   UNL     1      12.356  16.551  26.260  1.00  0.00    -0.550 OA
ENDBRANCH  14  15
ENDBRANCH  13  14
ENDBRANCH  12  13
ENDBRANCH  11  12
ENDBRANCH  10  11
ENDBRANCH   9  10
ENDBRANCH   8   9
ENDBRANCH   7   8
ENDBRANCH   6   7
ENDBRANCH   5   6
ENDBRANCH   4   5
ENDBRANCH   3   4
ENDBRANCH   2   3
ENDBRANCH   1   2
BRANCH   1  18
ATOM     18  C   UNL     1      12.131  21.696  22.903  1.00  0.00     0.000 C 
BRANCH  18  19
ATOM     19  C   UNL     1      11.653  20.499  22.062  1.00  0.00     0.000 C 
BRANCH  19  20
ATOM     20  C   UNL     1      12.195  20.534  20.625  1.00  0.00     0.000 C 
BRANCH  20  21
ATOM     21  C   UNL     1      13.391  21.484  20.469  1.00  0.00     0.000 C 
BRANCH  21  22
ATOM     22  C   UNL     1      13.299  22.280  19.159  1.00  0.00     0.000 C 
BRANCH  22  23
ATOM     23  C   UNL     1      13.060  23.785  19.389  1.00  0.00     0.000 C 
BRANCH  23  24
ATOM     24  C   UNL     1      11.647  24.149  19.884  1.00  0.00    -0.000 C 
BRANCH  24  25
ATOM     25  C   UNL     1      10.496  23.673  18.976  1.00  0.00    -0.000 C 
BRANCH  25  26
ATOM     26  C   UNL     1       9.270  24.610  18.989  1.00  0.00    -0.000 C 
BRANCH  26  27
ATOM     27  C   UNL     1       8.796  24.977  17.575  1.00  0.00    -0.000 C 
BRANCH  27  28
ATOM     28  C   UNL     1       9.972  24.988  16.587  1.00  0.00    -0.000 C 
BRANCH  28  29
ATOM     29  C   UNL     1       9.602  24.390  15.221  1.00  0.00    -0.000 C 
BRANCH  29  30
ATOM     30  C   UNL     1       8.650  23.186  15.342  1.00  0.00    -0.000 C 
BRANCH  30  31
ATOM     31  C   UNL     1       7.476  23.263  14.354  1.00  0.00    -0.003 C 
ATOM     32  C   UNL     1       6.439  24.317  14.746  1.00  0.00     0.004 C 
ENDBRANCH  30  31
ENDBRANCH  29  30
ENDBRANCH  28  29
ENDBRANCH  27  28
ENDBRANCH  26  27
ENDBRANCH  25  26
ENDBRANCH  24  25
ENDBRANCH  23  24
ENDBRANCH  22  23
ENDBRANCH  21  22
ENDBRANCH  20  21
ENDBRANCH  19  20
ENDBRANCH  18  19
ENDBRANCH   1  18
TORSDOF 28
ENDMDL
MODEL 7
REMARK VINA RESULT:    -4.025      3.031      5.007
REMARK INTER + INTRA:         -16.198
REMARK INTER:                 -11.397
REMARK INTRA:                  -4.801
REMARK UNBOUND:                -5.586
REMARK SMILES CCCCCCCCCCCCCCCCCCCCCCCCCCCCCC(=O)[O-]
REMARK SMILES IDX 16 1 17 2 18 3 19 4 20 5 21 6 22 7 23 8 24 9 25 10 26 11
REMARK SMILES IDX 27 12 28 13 29 14 30 15 31 16 32 17 15 18 14 19 13 20 12 21
REMARK SMILES IDX 11 22 10 23 9 24 8 25 7 26 6 27 5 28 4 29 3 30 2 31 1 32
REMARK H PARENT
REMARK Flexibility Score: inf
ROOT
ATOM      1  C   UNL     1      12.755  18.602  27.708  1.00  0.00     0.000 C 
ENDROOT
BRANCH   1   2
ATOM      2  C   UNL     1      11.908  17.381  27.310  1.00  0.00     0.000 C 
BRANCH   2   3
ATOM      3  C   UNL     1      12.194  16.152  28.187  1.00  0.00     0.000 C 
BRANCH   3   4
ATOM      4  C   UNL     1      11.274  16.075  29.418  1.00  0.00     0.000 C 
BRANCH   4   5
ATOM      5  C   UNL     1      12.038  15.696  30.697  1.00  0.00     0.000 C 
BRANCH   5   6
ATOM      6  C   UNL     1      11.803  16.693  31.842  1.00  0.00     0.000 C 
BRANCH   6   7
ATOM      7  C   UNL     1      11.431  18.077  31.293  1.00  0.00     0.000 C 
BRANCH   7   8
ATOM      8  C   UNL     1      10.426  18.830  32.186  1.00  0.00     0.000 C 
BRANCH   8   9
ATOM      9  C   UNL     1       9.194  19.394  31.453  1.00  0.00     0.000 C 
BRANCH   9  10
ATOM     10  C   UNL     1       9.172  19.148  29.933  1.00  0.00     0.000 C 
BRANCH  10  11
ATOM     11  C   UNL     1       9.425  20.420  29.095  1.00  0.00     0.000 C 
BRANCH  11  12
ATOM     12  C   UNL     1       9.315  21.706  29.931  1.00  0.00     0.000 C 
BRANCH  12  13
ATOM     13  C   UNL     1      10.573  22.583  29.831  1.00  0.00     0.006 C 
BRANCH  13  14
ATOM     14  C   UNL     1      11.833  21.767  29.514  1.00  0.00     0.053 C 
BRANCH  14  15
ATOM     15  C   UNL     1      12.695  21.644  30.732  1.00  0.00     0.041 C 
ATOM     16  O   UNL     1      13.896  21.280  30.624  1.00  0.00    -0.550 OA
ATOM     17  O   UNL     1      12.156  21.875  31.991  1.00  0.00    -0.550 OA
ENDBRANCH  14  15
ENDBRANCH  13  14
ENDBRANCH  12  13
ENDBRANCH  11  12
ENDBRANCH  10  11
ENDBRANCH   9  10
ENDBRANCH   8   9
ENDBRANCH   7   8
ENDBRANCH   6   7
ENDBRANCH   5   6
ENDBRANCH   4   5
ENDBRANCH   3   4
ENDBRANCH   2   3
ENDBRANCH   1   2
BRANCH   1  18
ATOM     18  C   UNL     1      13.567  19.163  26.531  1.00  0.00     0.000 C 
BRANCH  18  19
ATOM     19  C   UNL     1      14.652  18.187  26.041  1.00  0.00     0.000 C 
BRANCH  19  20
ATOM     20  C   UNL     1      14.834  18.225  24.516  1.00  0.00     0.000 C 
BRANCH  20  21
ATOM     21  C   UNL     1      15.821  19.311  24.067  1.00  0.00     0.000 C 
BRANCH  21  22
ATOM     22  C   UNL     1      15.947  19.347  22.537  1.00  0.00     0.000 C 
BRANCH  22  23
ATOM     23  C   UNL     1      16.411  20.717  22.006  1.00  0.00     0.000 C 
BRANCH  23  24
ATOM     24  C   UNL     1      15.297  21.586  21.391  1.00  0.00    -0.000 C 
BRANCH  24  25
ATOM     25  C   UNL     1      13.941  20.877  21.214  1.00  0.00    -0.000 C 
BRANCH  25  26
ATOM     26  C   UNL     1      12.782  21.561  21.970  1.00  0.00    -0.000 C 
BRANCH  26  27
ATOM     27  C   UNL     1      12.629  21.039  23.406  1.00  0.00    -0.000 C 
BRANCH  27  28
ATOM     28  C   UNL     1      12.699  22.191  24.420  1.00  0.00    -0.000 C 
BRANCH  28  29
ATOM     29  C   UNL     1      14.131  22.465  24.905  1.00  0.00    -0.000 C 
BRANCH  29  30
ATOM     30  C   UNL     1      14.710  23.770  24.328  1.00  0.00    -0.000 C 
BRANCH  30  31
ATOM     31  C   UNL     1      13.803  24.982  24.589  1.00  0.00    -0.003 C 
ATOM     32  C   UNL     1      14.057  25.631  25.950  1.00  0.00     0.004 C 
ENDBRANCH  30  31
ENDBRANCH  29  30
ENDBRANCH  28  29
ENDBRANCH  27  28
ENDBRANCH  26  27
ENDBRANCH  25  26
ENDBRANCH  24  25
ENDBRANCH  23  24
ENDBRANCH  22  23
ENDBRANCH  21  22
ENDBRANCH  20  21
ENDBRANCH  19  20
ENDBRANCH  18  19
ENDBRANCH   1  18
TORSDOF 28
ENDMDL
MODEL 8
REMARK VINA RESULT:    -4.022      2.826      5.953
REMARK INTER + INTRA:         -16.192
REMARK INTER:                 -10.771
REMARK INTRA:                  -5.421
REMARK UNBOUND:                -5.586
REMARK SMILES CCCCCCCCCCCCCCCCCCCCCCCCCCCCCC(=O)[O-]
REMARK SMILES IDX 16 1 17 2 18 3 19 4 20 5 21 6 22 7 23 8 24 9 25 10 26 11
REMARK SMILES IDX 27 12 28 13 29 14 30 15 31 16 32 17 15 18 14 19 13 20 12 21
REMARK SMILES IDX 11 22 10 23 9 24 8 25 7 26 6 27 5 28 4 29 3 30 2 31 1 32
REMARK H PARENT
REMARK Flexibility Score: inf
ROOT
ATOM      1  C   UNL     1      14.303  22.658  19.612  1.00  0.00     0.000 C 
ENDROOT
BRANCH   1   2
ATOM      2  C   UNL     1      14.562  22.421  21.110  1.00  0.00     0.000 C 
BRANCH   2   3
ATOM      3  C   UNL     1      15.285  21.092  21.382  1.00  0.00     0.000 C 
BRANCH   3   4
ATOM      4  C   UNL     1      16.345  21.210  22.490  1.00  0.00     0.000 C 
BRANCH   4   5
ATOM      5  C   UNL     1      17.238  19.962  22.582  1.00  0.00     0.000 C 
BRANCH   5   6
ATOM      6  C   UNL     1      17.434  19.275  21.222  1.00  0.00     0.000 C 
BRANCH   6   7
ATOM      7  C   UNL     1      17.105  17.778  21.315  1.00  0.00     0.000 C 
BRANCH   7   8
ATOM      8  C   UNL     1      15.608  17.475  21.114  1.00  0.00     0.000 C 
BRANCH   8   9
ATOM      9  C   UNL     1      14.891  16.878  22.341  1.00  0.00     0.000 C 
BRANCH   9  10
ATOM     10  C   UNL     1      14.133  17.898  23.211  1.00  0.00     0.000 C 
BRANCH  10  11
ATOM     11  C   UNL     1      14.735  18.081  24.621  1.00  0.00     0.000 C 
BRANCH  11  12
ATOM     12  C   UNL     1      14.381  19.444  25.239  1.00  0.00     0.000 C 
BRANCH  12  13
ATOM     13  C   UNL     1      13.363  20.227  24.394  1.00  0.00     0.006 C 
BRANCH  13  14
ATOM     14  C   UNL     1      13.377  21.729  24.703  1.00  0.00     0.053 C 
BRANCH  14  15
ATOM     15  C   UNL     1      12.737  21.994  26.030  1.00  0.00     0.041 C 
ATOM     16  O   UNL     1      13.255  22.818  26.830  1.00  0.00    -0.550 OA
ATOM     17  O   UNL     1      11.601  21.290  26.407  1.00  0.00    -0.550 OA
ENDBRANCH  14  15
ENDBRANCH  13  14
ENDBRANCH  12  13
ENDBRANCH  11  12
ENDBRANCH  10  11
ENDBRANCH   9  10
ENDBRANCH   8   9
ENDBRANCH   7   8
ENDBRANCH   6   7
ENDBRANCH   5   6
ENDBRANCH   4   5
ENDBRANCH   3   4
ENDBRANCH   2   3
ENDBRANCH   1   2
BRANCH   1  18
ATOM     18  C   UNL     1      13.091  23.567  19.361  1.00  0.00     0.000 C 
BRANCH  18  19
ATOM     19  C   UNL     1      11.774  22.780  19.244  1.00  0.00     0.000 C 
BRANCH  19  20
ATOM     20  C   UNL     1      11.989  21.336  18.765  1.00  0.00     0.000 C 
BRANCH  20  21
ATOM     21  C   UNL     1      11.325  20.304  19.687  1.00  0.00     0.000 C 
BRANCH  21  22
ATOM     22  C   UNL     1      12.294  19.161  20.026  1.00  0.00     0.000 C 
BRANCH  22  23
ATOM     23  C   UNL     1      11.637  17.771  19.927  1.00  0.00     0.000 C 
BRANCH  23  24
ATOM     24  C   UNL     1      12.496  16.695  19.235  1.00  0.00    -0.000 C 
BRANCH  24  25
ATOM     25  C   UNL     1      11.771  15.887  18.141  1.00  0.00    -0.000 C 
BRANCH  25  26
ATOM     26  C   UNL     1      12.208  16.256  16.708  1.00  0.00    -0.000 C 
BRANCH  26  27
ATOM     27  C   UNL     1      11.453  17.476  16.160  1.00  0.00    -0.000 C 
BRANCH  27  28
ATOM     28  C   UNL     1       9.946  17.360  16.435  1.00  0.00    -0.000 C 
BRANCH  28  29
ATOM     29  C   UNL     1       9.351  18.649  17.020  1.00  0.00    -0.000 C 
BRANCH  29  30
ATOM     30  C   UNL     1       9.822  19.910  16.273  1.00  0.00    -0.000 C 
BRANCH  30  31
ATOM     31  C   UNL     1       8.938  21.132  16.563  1.00  0.00    -0.003 C 
ATOM     32  C   UNL     1       9.501  22.425  15.971  1.00  0.00     0.004 C 
ENDBRANCH  30  31
ENDBRANCH  29  30
ENDBRANCH  28  29
ENDBRANCH  27  28
ENDBRANCH  26  27
ENDBRANCH  25  26
ENDBRANCH  24  25
ENDBRANCH  23  24
ENDBRANCH  22  23
ENDBRANCH  21  22
ENDBRANCH  20  21
ENDBRANCH  19  20
ENDBRANCH  18  19
ENDBRANCH   1  18
TORSDOF 28
ENDMDL
MODEL 9
REMARK VINA RESULT:    -4.021      2.246      4.471
REMARK INTER + INTRA:         -16.190
REMARK INTER:                 -11.750
REMARK INTRA:                  -4.441
REMARK UNBOUND:                -5.586
REMARK SMILES CCCCCCCCCCCCCCCCCCCCCCCCCCCCCC(=O)[O-]
REMARK SMILES IDX 16 1 17 2 18 3 19 4 20 5 21 6 22 7 23 8 24 9 25 10 26 11
REMARK SMILES IDX 27 12 28 13 29 14 30 15 31 16 32 17 15 18 14 19 13 20 12 21
REMARK SMILES IDX 11 22 10 23 9 24 8 25 7 26 6 27 5 28 4 29 3 30 2 31 1 32
REMARK H PARENT
REMARK Flexibility Score: inf
ROOT
ATOM      1  C   UNL     1      13.610  18.930  27.021  1.00  0.00     0.000 C 
ENDROOT
BRANCH   1   2
ATOM      2  C   UNL     1      12.333  18.164  27.412  1.00  0.00     0.000 C 
BRANCH   2   3
ATOM      3  C   UNL     1      12.516  16.640  27.346  1.00  0.00     0.000 C 
BRANCH   3   4
ATOM      4  C   UNL     1      11.836  15.910  28.517  1.00  0.00     0.000 C 
BRANCH   4   5
ATOM      5  C   UNL     1      11.013  16.862  29.402  1.00  0.00     0.000 C 
BRANCH   5   6
ATOM      6  C   UNL     1      11.380  16.750  30.889  1.00  0.00     0.000 C 
BRANCH   6   7
ATOM      7  C   UNL     1      11.052  18.053  31.632  1.00  0.00     0.000 C 
BRANCH   7   8
ATOM      8  C   UNL     1      10.909  19.264  30.691  1.00  0.00     0.000 C 
BRANCH   8   9
ATOM      9  C   UNL     1      11.947  20.383  30.902  1.00  0.00     0.000 C 
BRANCH   9  10
ATOM     10  C   UNL     1      12.257  21.227  29.651  1.00  0.00     0.000 C 
BRANCH  10  11
ATOM     11  C   UNL     1      11.073  21.333  28.665  1.00  0.00     0.000 C 
BRANCH  11  12
ATOM     12  C   UNL     1      11.385  22.250  27.471  1.00  0.00     0.000 C 
BRANCH  12  13
ATOM     13  C   UNL     1      12.872  22.633  27.395  1.00  0.00     0.006 C 
BRANCH  13  14
ATOM     14  C   UNL     1      13.333  22.907  25.958  1.00  0.00     0.053 C 
BRANCH  14  15
ATOM     15  C   UNL     1      14.348  24.008  25.937  1.00  0.00     0.041 C 
ATOM     16  O   UNL     1      15.413  23.875  25.278  1.00  0.00    -0.550 OA
ATOM     17  O   UNL     1      14.142  25.156  26.689  1.00  0.00    -0.550 OA
ENDBRANCH  14  15
ENDBRANCH  13  14
ENDBRANCH  12  13
ENDBRANCH  11  12
ENDBRANCH  10  11
ENDBRANCH   9  10
ENDBRANCH   8   9
ENDBRANCH   7   8
ENDBRANCH   6   7
ENDBRANCH   5   6
ENDBRANCH   4   5
ENDBRANCH   3   4
ENDBRANCH   2   3
ENDBRANCH   1   2
BRANCH   1  18
ATOM     18  C   UNL     1      14.710  18.003  26.483  1.00  0.00     0.000 C 
BRANCH  18  19
ATOM     19  C   UNL     1      15.260  18.464  25.122  1.00  0.00     0.000 C 
BRANCH  19  20
ATOM     20  C   UNL     1      14.399  19.561  24.477  1.00  0.00     0.000 C 
BRANCH  20  21
ATOM     21  C   UNL     1      15.239  20.609  23.733  1.00  0.00     0.000 C 
BRANCH  21  22
ATOM     22  C   UNL     1      16.656  20.086  23.457  1.00  0.00     0.000 C 
BRANCH  22  23
ATOM     23  C   UNL     1      16.957  19.940  21.952  1.00  0.00     0.000 C 
BRANCH  23  24
ATOM     24  C   UNL     1      17.146  18.491  21.466  1.00  0.00    -0.000 C 
BRANCH  24  25
ATOM     25  C   UNL     1      15.862  17.797  20.971  1.00  0.00    -0.000 C 
BRANCH  25  26
ATOM     26  C   UNL     1      15.396  16.638  21.878  1.00  0.00    -0.000 C 
BRANCH  26  27
ATOM     27  C   UNL     1      13.884  16.673  22.145  1.00  0.00    -0.000 C 
BRANCH  27  28
ATOM     28  C   UNL     1      13.219  17.833  21.389  1.00  0.00    -0.000 C 
BRANCH  28  29
ATOM     29  C   UNL     1      11.946  17.400  20.645  1.00  0.00    -0.000 C 
BRANCH  29  30
ATOM     30  C   UNL     1      12.140  17.361  19.118  1.00  0.00    -0.000 C 
BRANCH  30  31
ATOM     31  C   UNL     1      12.906  16.113  18.654  1.00  0.00    -0.003 C 
ATOM     32  C   UNL     1      12.006  15.088  17.961  1.00  0.00     0.004 C 
ENDBRANCH  30  31
ENDBRANCH  29  30
ENDBRANCH  28  29
ENDBRANCH  27  28
ENDBRANCH  26  27
ENDBRANCH  25  26
ENDBRANCH  24  25
ENDBRANCH  23  24
ENDBRANCH  22  23
ENDBRANCH  21  22
ENDBRANCH  20  21
ENDBRANCH  19  20
ENDBRANCH  18  19
ENDBRANCH   1  18
TORSDOF 28
ENDMDL
