MODEL 1
REMARK VINA RESULT:    -5.050      0.000      0.000
REMARK INTER + INTRA:         -10.960
REMARK INTER:                  -9.184
REMARK INTRA:                  -1.776
REMARK UNBOUND:                -1.776
REMARK SMILES CCCCCC=CCC=CCCCCCCCC(=O)[O-]
REMARK SMILES IDX 11 1 12 2 13 3 14 4 15 5 16 6 17 7 18 8 19 9 20 10 10 11
REMARK SMILES IDX 9 12 8 13 7 14 6 15 5 16 4 17 3 18 2 19 1 20
REMARK H PARENT
REMARK Flexibility Score: inf
ROOT
ATOM      1  C   UNL     1       2.704  42.813  69.884  1.00  0.00     0.027 C 
ENDROOT
BRANCH   1   2
ATOM      2  C   UNL     1       2.199  43.750  68.770  1.00  0.00     0.004 C 
BRANCH   2   3
ATOM      3  C   UNL     1       3.003  43.648  67.463  1.00  0.00     0.000 C 
BRANCH   3   4
ATOM      4  C   UNL     1       3.089  44.984  66.706  1.00  0.00     0.000 C 
BRANCH   4   5
ATOM      5  C   UNL     1       3.602  44.805  65.262  1.00  0.00     0.000 C 
BRANCH   5   6
ATOM      6  C   UNL     1       4.142  46.103  64.636  1.00  0.00     0.006 C 
BRANCH   6   7
ATOM      7  C   UNL     1       4.716  47.073  65.675  1.00  0.00     0.053 C 
BRANCH   7   8
ATOM      8  C   UNL     1       4.515  48.488  65.234  1.00  0.00     0.041 C 
ATOM      9  O   UNL     1       3.398  49.049  65.395  1.00  0.00    -0.550 OA
ATOM     10  O   UNL     1       5.573  49.206  64.691  1.00  0.00    -0.550 OA
ENDBRANCH   7   8
ENDBRANCH   6   7
ENDBRANCH   5   6
ENDBRANCH   4   5
ENDBRANCH   3   4
ENDBRANCH   2   3
ENDBRANCH   1   2
BRANCH   1  11
ATOM     11  C   UNL     1       2.817  43.513  71.216  1.00  0.00    -0.031 C 
ATOM     12  C   UNL     1       3.895  44.207  71.626  1.00  0.00    -0.027 C 
BRANCH  12  13
ATOM     13  C   UNL     1       5.178  44.340  70.843  1.00  0.00     0.054 C 
BRANCH  13  14
ATOM     14  C   UNL     1       5.125  45.515  69.907  1.00  0.00    -0.027 C 
ATOM     15  C   UNL     1       6.039  46.497  69.959  1.00  0.00    -0.031 C 
BRANCH  15  16
ATOM     16  C   UNL     1       5.986  47.669  69.019  1.00  0.00     0.027 C 
BRANCH  16  17
ATOM     17  C   UNL     1       7.374  48.309  68.858  1.00  0.00     0.004 C 
BRANCH  17  18
ATOM     18  C   UNL     1       7.842  48.342  67.395  1.00  0.00     0.000 C 
BRANCH  18  19
ATOM     19  C   UNL     1       8.589  47.065  66.983  1.00  0.00    -0.003 C 
ATOM     20  C   UNL     1       9.606  46.658  68.045  1.00  0.00     0.004 C 
ENDBRANCH  18  19
ENDBRANCH  17  18
ENDBRANCH  16  17
ENDBRANCH  15  16
ENDBRANCH  13  14
ENDBRANCH  12  13
ENDBRANCH   1  11
TORSDOF 14
ENDMDL
MODEL 2
REMARK VINA RESULT:    -5.037     11.570     13.715
REMARK INTER + INTRA:         -10.935
REMARK INTER:                  -8.270
REMARK INTRA:                  -2.664
REMARK UNBOUND:                -1.776
REMARK SMILES CCCCCC=CCC=CCCCCCCCC(=O)[O-]
REMARK SMILES IDX 11 1 12 2 13 3 14 4 15 5 16 6 17 7 18 8 19 9 20 10 10 11
REMARK SMILES IDX 9 12 8 13 7 14 6 15 5 16 4 17 3 18 2 19 1 20
REMARK H PARENT
REMARK Flexibility Score: inf
ROOT
ATOM      1  C   UNL     1       2.383  35.678  71.031  1.00  0.00     0.027 C 
ENDROOT
BRANCH   1   2
ATOM      2  C   UNL     1       3.828  35.282  71.389  1.00  0.00     0.004 C 
BRANCH   2   3
ATOM      3  C   UNL     1       4.875  35.781  70.378  1.00  0.00     0.000 C 
BRANCH   3   4
ATOM      4  C   UNL     1       6.185  34.975  70.425  1.00  0.00     0.000 C 
BRANCH   4   5
ATOM      5  C   UNL     1       6.014  33.627  71.156  1.00  0.00     0.000 C 
BRANCH   5   6
ATOM      6  C   UNL     1       7.262  32.729  71.088  1.00  0.00     0.006 C 
BRANCH   6   7
ATOM      7  C   UNL     1       7.342  31.727  72.246  1.00  0.00     0.053 C 
BRANCH   7   8
ATOM      8  C   UNL     1       7.402  32.447  73.555  1.00  0.00     0.041 C 
ATOM      9  O   UNL     1       6.421  32.407  74.345  1.00  0.00    -0.550 OA
ATOM     10  O   UNL     1       8.558  33.121  73.927  1.00  0.00    -0.550 OA
ENDBRANCH   7   8
ENDBRANCH   6   7
ENDBRANCH   5   6
ENDBRANCH   4   5
ENDBRANCH   3   4
ENDBRANCH   2   3
ENDBRANCH   1   2
BRANCH   1  11
ATOM     11  C   UNL     1       2.274  36.257  69.641  1.00  0.00    -0.031 C 
ATOM     12  C   UNL     1       1.650  35.656  68.610  1.00  0.00    -0.027 C 
BRANCH  12  13
ATOM     13  C   UNL     1       1.019  34.288  68.669  1.00  0.00     0.054 C 
BRANCH  13  14
ATOM     14  C   UNL     1       1.911  33.249  68.047  1.00  0.00    -0.027 C 
ATOM     15  C   UNL     1       3.096  32.926  68.586  1.00  0.00    -0.031 C 
BRANCH  15  16
ATOM     16  C   UNL     1       3.985  31.885  67.965  1.00  0.00     0.027 C 
BRANCH  16  17
ATOM     17  C   UNL     1       5.400  32.437  67.731  1.00  0.00     0.004 C 
BRANCH  17  18
ATOM     18  C   UNL     1       5.392  33.789  67.001  1.00  0.00     0.000 C 
BRANCH  18  19
ATOM     19  C   UNL     1       6.795  34.404  66.880  1.00  0.00    -0.003 C 
ATOM     20  C   UNL     1       7.859  33.451  67.418  1.00  0.00     0.004 C 
ENDBRANCH  18  19
ENDBRANCH  17  18
ENDBRANCH  16  17
ENDBRANCH  15  16
ENDBRANCH  13  14
ENDBRANCH  12  13
ENDBRANCH   1  11
TORSDOF 14
ENDMDL
MODEL 3
REMARK VINA RESULT:    -5.017     11.033     13.020
REMARK INTER + INTRA:         -10.899
REMARK INTER:                  -8.412
REMARK INTRA:                  -2.487
REMARK UNBOUND:                -1.776
REMARK SMILES CCCCCC=CCC=CCCCCCCCC(=O)[O-]
REMARK SMILES IDX 11 1 12 2 13 3 14 4 15 5 16 6 17 7 18 8 19 9 20 10 10 11
REMARK SMILES IDX 9 12 8 13 7 14 6 15 5 16 4 17 3 18 2 19 1 20
REMARK H PARENT
REMARK Flexibility Score: inf
ROOT
ATOM      1  C   UNL     1       1.831  36.091  68.706  1.00  0.00     0.027 C 
ENDROOT
BRANCH   1   2
ATOM      2  C   UNL     1       0.856  35.250  67.859  1.00  0.00     0.004 C 
BRANCH   2   3
ATOM      3  C   UNL     1       0.732  33.789  68.326  1.00  0.00     0.000 C 
BRANCH   3   4
ATOM      4  C   UNL     1       1.807  32.873  67.716  1.00  0.00     0.000 C 
BRANCH   4   5
ATOM      5  C   UNL     1       2.893  32.485  68.741  1.00  0.00     0.000 C 
BRANCH   5   6
ATOM      6  C   UNL     1       4.307  32.410  68.139  1.00  0.00     0.006 C 
BRANCH   6   7
ATOM      7  C   UNL     1       4.679  33.657  67.330  1.00  0.00     0.053 C 
BRANCH   7   8
ATOM      8  C   UNL     1       6.149  33.682  67.056  1.00  0.00     0.041 C 
ATOM      9  O   UNL     1       6.694  34.729  66.614  1.00  0.00    -0.550 OA
ATOM     10  O   UNL     1       6.929  32.567  67.335  1.00  0.00    -0.550 OA
ENDBRANCH   7   8
ENDBRANCH   6   7
ENDBRANCH   5   6
ENDBRANCH   4   5
ENDBRANCH   3   4
ENDBRANCH   2   3
ENDBRANCH   1   2
BRANCH   1  11
ATOM     11  C   UNL     1       1.707  35.799  70.182  1.00  0.00    -0.031 C 
ATOM     12  C   UNL     1       2.746  35.708  71.033  1.00  0.00    -0.027 C 
BRANCH  12  13
ATOM     13  C   UNL     1       4.196  35.821  70.631  1.00  0.00     0.054 C 
BRANCH  13  14
ATOM     14  C   UNL     1       4.948  34.557  70.945  1.00  0.00    -0.027 C 
ATOM     15  C   UNL     1       6.241  34.409  70.618  1.00  0.00    -0.031 C 
BRANCH  15  16
ATOM     16  C   UNL     1       6.992  33.146  70.937  1.00  0.00     0.027 C 
BRANCH  16  17
ATOM     17  C   UNL     1       6.134  32.193  71.783  1.00  0.00     0.004 C 
BRANCH  17  18
ATOM     18  C   UNL     1       6.533  32.201  73.267  1.00  0.00     0.000 C 
BRANCH  18  19
ATOM     19  C   UNL     1       8.051  32.088  73.472  1.00  0.00    -0.003 C 
ATOM     20  C   UNL     1       8.614  33.355  74.110  1.00  0.00     0.004 C 
ENDBRANCH  18  19
ENDBRANCH  17  18
ENDBRANCH  16  17
ENDBRANCH  15  16
ENDBRANCH  13  14
ENDBRANCH  12  13
ENDBRANCH   1  11
TORSDOF 14
ENDMDL
MODEL 4
REMARK VINA RESULT:    -5.013     12.055     14.614
REMARK INTER + INTRA:         -10.893
REMARK INTER:                  -7.819
REMARK INTRA:                  -3.074
REMARK UNBOUND:                -1.776
REMARK SMILES CCCCCC=CCC=CCCCCCCCC(=O)[O-]
REMARK SMILES IDX 11 1 12 2 13 3 14 4 15 5 16 6 17 7 18 8 19 9 20 10 10 11
REMARK SMILES IDX 9 12 8 13 7 14 6 15 5 16 4 17 3 18 2 19 1 20
REMARK H PARENT
REMARK Flexibility Score: inf
ROOT
ATOM      1  C   UNL     1       8.425  32.101  67.355  1.00  0.00     0.027 C 
ENDROOT
BRANCH   1   2
ATOM      2  C   UNL     1       8.510  33.519  67.951  1.00  0.00     0.004 C 
BRANCH   2   3
ATOM      3  C   UNL     1       7.214  34.335  67.797  1.00  0.00     0.000 C 
BRANCH   3   4
ATOM      4  C   UNL     1       6.556  34.673  69.146  1.00  0.00     0.000 C 
BRANCH   4   5
ATOM      5  C   UNL     1       7.313  34.050  70.337  1.00  0.00     0.000 C 
BRANCH   5   6
ATOM      6  C   UNL     1       6.434  33.144  71.218  1.00  0.00     0.006 C 
BRANCH   6   7
ATOM      7  C   UNL     1       7.241  32.090  71.985  1.00  0.00     0.053 C 
BRANCH   7   8
ATOM      8  C   UNL     1       7.444  32.519  73.403  1.00  0.00     0.041 C 
ATOM      9  O   UNL     1       8.542  33.020  73.762  1.00  0.00    -0.550 OA
ATOM     10  O   UNL     1       6.405  32.411  74.319  1.00  0.00    -0.550 OA
ENDBRANCH   7   8
ENDBRANCH   6   7
ENDBRANCH   5   6
ENDBRANCH   4   5
ENDBRANCH   3   4
ENDBRANCH   2   3
ENDBRANCH   1   2
BRANCH   1  11
ATOM     11  C   UNL     1       8.293  31.038  68.418  1.00  0.00    -0.031 C 
ATOM     12  C   UNL     1       7.184  30.305  68.633  1.00  0.00    -0.027 C 
BRANCH  12  13
ATOM     13  C   UNL     1       5.885  30.476  67.885  1.00  0.00     0.054 C 
BRANCH  13  14
ATOM     14  C   UNL     1       4.848  31.150  68.741  1.00  0.00    -0.027 C 
ATOM     15  C   UNL     1       4.215  32.262  68.335  1.00  0.00    -0.031 C 
BRANCH  15  16
ATOM     16  C   UNL     1       3.177  32.931  69.191  1.00  0.00     0.027 C 
BRANCH  16  17
ATOM     17  C   UNL     1       2.710  34.252  68.559  1.00  0.00     0.004 C 
BRANCH  17  18
ATOM     18  C   UNL     1       2.304  35.298  69.609  1.00  0.00     0.000 C 
BRANCH  18  19
ATOM     19  C   UNL     1       2.654  34.865  71.041  1.00  0.00    -0.003 C 
ATOM     20  C   UNL     1       3.824  35.679  71.588  1.00  0.00     0.004 C 
ENDBRANCH  18  19
ENDBRANCH  17  18
ENDBRANCH  16  17
ENDBRANCH  15  16
ENDBRANCH  13  14
ENDBRANCH  12  13
ENDBRANCH   1  11
TORSDOF 14
ENDMDL
MODEL 5
REMARK VINA RESULT:    -5.013      3.085      5.373
REMARK INTER + INTRA:         -10.892
REMARK INTER:                  -9.724
REMARK INTRA:                  -1.168
REMARK UNBOUND:                -1.776
REMARK SMILES CCCCCC=CCC=CCCCCCCCC(=O)[O-]
REMARK SMILES IDX 11 1 12 2 13 3 14 4 15 5 16 6 17 7 18 8 19 9 20 10 10 11
REMARK SMILES IDX 9 12 8 13 7 14 6 15 5 16 4 17 3 18 2 19 1 20
REMARK H PARENT
REMARK Flexibility Score: inf
ROOT
ATOM      1  C   UNL     1       3.455  46.100  64.221  1.00  0.00     0.027 C 
ENDROOT
BRANCH   1   2
ATOM      2  C   UNL     1       3.620  44.568  64.192  1.00  0.00     0.004 C 
BRANCH   2   3
ATOM      3  C   UNL     1       3.002  43.855  65.407  1.00  0.00     0.000 C 
BRANCH   3   4
ATOM      4  C   UNL     1       3.069  44.696  66.694  1.00  0.00     0.000 C 
BRANCH   4   5
ATOM      5  C   UNL     1       2.283  44.050  67.854  1.00  0.00     0.000 C 
BRANCH   5   6
ATOM      6  C   UNL     1       3.168  43.247  68.824  1.00  0.00     0.006 C 
BRANCH   6   7
ATOM      7  C   UNL     1       2.631  43.243  70.259  1.00  0.00     0.053 C 
BRANCH   7   8
ATOM      8  C   UNL     1       3.738  43.505  71.230  1.00  0.00     0.041 C 
ATOM      9  O   UNL     1       4.867  42.974  71.062  1.00  0.00    -0.550 OA
ATOM     10  O   UNL     1       3.538  44.376  72.295  1.00  0.00    -0.550 OA
ENDBRANCH   7   8
ENDBRANCH   6   7
ENDBRANCH   5   6
ENDBRANCH   4   5
ENDBRANCH   3   4
ENDBRANCH   2   3
ENDBRANCH   1   2
BRANCH   1  11
ATOM     11  C   UNL     1       4.754  46.822  63.963  1.00  0.00    -0.031 C 
ATOM     12  C   UNL     1       5.384  47.608  64.857  1.00  0.00    -0.027 C 
BRANCH  12  13
ATOM     13  C   UNL     1       4.856  47.935  66.232  1.00  0.00     0.054 C 
BRANCH  13  14
ATOM     14  C   UNL     1       5.978  48.200  67.197  1.00  0.00    -0.027 C 
ATOM     15  C   UNL     1       5.916  49.200  68.090  1.00  0.00    -0.031 C 
BRANCH  15  16
ATOM     16  C   UNL     1       7.037  49.461  69.057  1.00  0.00     0.027 C 
BRANCH  16  17
ATOM     17  C   UNL     1       7.337  48.213  69.903  1.00  0.00     0.004 C 
BRANCH  17  18
ATOM     18  C   UNL     1       8.810  48.132  70.332  1.00  0.00     0.000 C 
BRANCH  18  19
ATOM     19  C   UNL     1       9.779  48.216  69.143  1.00  0.00    -0.003 C 
ATOM     20  C   UNL     1      10.752  47.040  69.145  1.00  0.00     0.004 C 
ENDBRANCH  18  19
ENDBRANCH  17  18
ENDBRANCH  16  17
ENDBRANCH  15  16
ENDBRANCH  13  14
ENDBRANCH  12  13
ENDBRANCH   1  11
TORSDOF 14
ENDMDL
MODEL 6
REMARK VINA RESULT:    -4.971     11.536     14.263
REMARK INTER + INTRA:         -10.816
REMARK INTER:                  -8.518
REMARK INTRA:                  -2.298
REMARK UNBOUND:                -1.776
REMARK SMILES CCCCCC=CCC=CCCCCCCCC(=O)[O-]
REMARK SMILES IDX 11 1 12 2 13 3 14 4 15 5 16 6 17 7 18 8 19 9 20 10 10 11
REMARK SMILES IDX 9 12 8 13 7 14 6 15 5 16 4 17 3 18 2 19 1 20
REMARK H PARENT
REMARK Flexibility Score: inf
ROOT
ATOM      1  C   UNL     1       8.204  32.951  67.414  1.00  0.00     0.027 C 
ENDROOT
BRANCH   1   2
ATOM      2  C   UNL     1       8.494  31.505  67.861  1.00  0.00     0.004 C 
BRANCH   2   3
ATOM      3  C   UNL     1       7.343  30.859  68.650  1.00  0.00     0.000 C 
BRANCH   3   4
ATOM      4  C   UNL     1       7.438  31.113  70.165  1.00  0.00     0.000 C 
BRANCH   4   5
ATOM      5  C   UNL     1       6.067  31.452  70.786  1.00  0.00     0.000 C 
BRANCH   5   6
ATOM      6  C   UNL     1       6.168  32.247  72.101  1.00  0.00     0.006 C 
BRANCH   6   7
ATOM      7  C   UNL     1       7.531  32.923  72.287  1.00  0.00     0.053 C 
BRANCH   7   8
ATOM      8  C   UNL     1       8.166  32.473  73.564  1.00  0.00     0.041 C 
ATOM      9  O   UNL     1       8.779  33.299  74.291  1.00  0.00    -0.550 OA
ATOM     10  O   UNL     1       8.040  31.153  73.978  1.00  0.00    -0.550 OA
ENDBRANCH   7   8
ENDBRANCH   6   7
ENDBRANCH   5   6
ENDBRANCH   4   5
ENDBRANCH   3   4
ENDBRANCH   2   3
ENDBRANCH   1   2
BRANCH   1  11
ATOM     11  C   UNL     1       6.728  33.264  67.407  1.00  0.00    -0.031 C 
ATOM     12  C   UNL     1       6.138  34.190  68.186  1.00  0.00    -0.027 C 
BRANCH  12  13
ATOM     13  C   UNL     1       6.853  35.014  69.228  1.00  0.00     0.054 C 
BRANCH  13  14
ATOM     14  C   UNL     1       5.895  35.531  70.265  1.00  0.00    -0.027 C 
ATOM     15  C   UNL     1       4.640  35.065  70.358  1.00  0.00    -0.031 C 
BRANCH  15  16
ATOM     16  C   UNL     1       3.685  35.581  71.397  1.00  0.00     0.027 C 
BRANCH  16  17
ATOM     17  C   UNL     1       2.258  35.677  70.835  1.00  0.00     0.004 C 
BRANCH  17  18
ATOM     18  C   UNL     1       2.214  36.334  69.446  1.00  0.00     0.000 C 
BRANCH  18  19
ATOM     19  C   UNL     1       0.964  35.939  68.645  1.00  0.00    -0.003 C 
ATOM     20  C   UNL     1       1.168  34.605  67.933  1.00  0.00     0.004 C 
ENDBRANCH  18  19
ENDBRANCH  17  18
ENDBRANCH  16  17
ENDBRANCH  15  16
ENDBRANCH  13  14
ENDBRANCH  12  13
ENDBRANCH   1  11
TORSDOF 14
ENDMDL
MODEL 7
REMARK VINA RESULT:    -4.958     11.410     13.915
REMARK INTER + INTRA:         -10.792
REMARK INTER:                  -7.862
REMARK INTRA:                  -2.930
REMARK UNBOUND:                -1.776
REMARK SMILES CCCCCC=CCC=CCCCCCCCC(=O)[O-]
REMARK SMILES IDX 11 1 12 2 13 3 14 4 15 5 16 6 17 7 18 8 19 9 20 10 10 11
REMARK SMILES IDX 9 12 8 13 7 14 6 15 5 16 4 17 3 18 2 19 1 20
REMARK H PARENT
REMARK Flexibility Score: inf
ROOT
ATOM      1  C   UNL     1       6.627  31.462  66.876  1.00  0.00     0.027 C 
ENDROOT
BRANCH   1   2
ATOM      2  C   UNL     1       5.860  30.838  68.057  1.00  0.00     0.004 C 
BRANCH   2   3
ATOM      3  C   UNL     1       4.692  31.703  68.564  1.00  0.00     0.000 C 
BRANCH   3   4
ATOM      4  C   UNL     1       4.223  32.740  67.530  1.00  0.00     0.000 C 
BRANCH   4   5
ATOM      5  C   UNL     1       3.640  34.004  68.196  1.00  0.00     0.000 C 
BRANCH   5   6
ATOM      6  C   UNL     1       3.736  33.988  69.733  1.00  0.00     0.006 C 
BRANCH   6   7
ATOM      7  C   UNL     1       4.000  35.375  70.329  1.00  0.00     0.053 C 
BRANCH   7   8
ATOM      8  C   UNL     1       2.813  35.842  71.110  1.00  0.00     0.041 C 
ATOM      9  O   UNL     1       2.842  35.836  72.370  1.00  0.00    -0.550 OA
ATOM     10  O   UNL     1       1.692  36.330  70.450  1.00  0.00    -0.550 OA
ENDBRANCH   7   8
ENDBRANCH   6   7
ENDBRANCH   5   6
ENDBRANCH   4   5
ENDBRANCH   3   4
ENDBRANCH   2   3
ENDBRANCH   1   2
BRANCH   1  11
ATOM     11  C   UNL     1       8.077  31.717  67.204  1.00  0.00    -0.031 C 
ATOM     12  C   UNL     1       8.569  32.895  67.634  1.00  0.00    -0.027 C 
BRANCH  12  13
ATOM     13  C   UNL     1       7.756  34.156  67.793  1.00  0.00     0.054 C 
BRANCH  13  14
ATOM     14  C   UNL     1       7.370  34.377  69.229  1.00  0.00    -0.027 C 
ATOM     15  C   UNL     1       7.468  33.399  70.142  1.00  0.00    -0.031 C 
BRANCH  15  16
ATOM     16  C   UNL     1       7.085  33.623  71.579  1.00  0.00     0.027 C 
BRANCH  16  17
ATOM     17  C   UNL     1       6.119  32.533  72.068  1.00  0.00     0.004 C 
BRANCH  17  18
ATOM     18  C   UNL     1       6.583  31.119  71.684  1.00  0.00     0.000 C 
BRANCH  18  19
ATOM     19  C   UNL     1       7.780  30.641  72.521  1.00  0.00    -0.003 C 
ATOM     20  C   UNL     1       7.490  30.766  74.014  1.00  0.00     0.004 C 
ENDBRANCH  18  19
ENDBRANCH  17  18
ENDBRANCH  16  17
ENDBRANCH  15  16
ENDBRANCH  13  14
ENDBRANCH  12  13
ENDBRANCH   1  11
TORSDOF 14
ENDMDL
MODEL 8
REMARK VINA RESULT:    -4.900     11.190     13.878
REMARK INTER + INTRA:         -10.687
REMARK INTER:                  -8.093
REMARK INTRA:                  -2.595
REMARK UNBOUND:                -1.776
REMARK SMILES CCCCCC=CCC=CCCCCCCCC(=O)[O-]
REMARK SMILES IDX 11 1 12 2 13 3 14 4 15 5 16 6 17 7 18 8 19 9 20 10 10 11
REMARK SMILES IDX 9 12 8 13 7 14 6 15 5 16 4 17 3 18 2 19 1 20
REMARK H PARENT
REMARK Flexibility Score: inf
ROOT
ATOM      1  C   UNL     1       5.135  35.705  70.543  1.00  0.00     0.027 C 
ENDROOT
BRANCH   1   2
ATOM      2  C   UNL     1       6.235  34.670  70.238  1.00  0.00     0.004 C 
BRANCH   2   3
ATOM      3  C   UNL     1       6.095  33.365  71.040  1.00  0.00     0.000 C 
BRANCH   3   4
ATOM      4  C   UNL     1       7.321  32.446  70.908  1.00  0.00     0.000 C 
BRANCH   4   5
ATOM      5  C   UNL     1       6.973  31.102  70.234  1.00  0.00     0.000 C 
BRANCH   5   6
ATOM      6  C   UNL     1       7.984  30.677  69.153  1.00  0.00     0.006 C 
BRANCH   6   7
ATOM      7  C   UNL     1       7.592  31.151  67.749  1.00  0.00     0.053 C 
BRANCH   7   8
ATOM      8  C   UNL     1       8.472  32.280  67.315  1.00  0.00     0.041 C 
ATOM      9  O   UNL     1       9.655  32.054  66.944  1.00  0.00    -0.550 OA
ATOM     10  O   UNL     1       7.974  33.576  67.271  1.00  0.00    -0.550 OA
ENDBRANCH   7   8
ENDBRANCH   6   7
ENDBRANCH   5   6
ENDBRANCH   4   5
ENDBRANCH   3   4
ENDBRANCH   2   3
ENDBRANCH   1   2
BRANCH   1  11
ATOM     11  C   UNL     1       4.019  35.128  71.379  1.00  0.00    -0.031 C 
ATOM     12  C   UNL     1       2.712  35.393  71.197  1.00  0.00    -0.027 C 
BRANCH  12  13
ATOM     13  C   UNL     1       2.167  36.354  70.170  1.00  0.00     0.054 C 
BRANCH  13  14
ATOM     14  C   UNL     1       1.773  35.637  68.908  1.00  0.00    -0.027 C 
ATOM     15  C   UNL     1       1.193  34.428  68.938  1.00  0.00    -0.031 C 
BRANCH  15  16
ATOM     16  C   UNL     1       0.796  33.715  67.676  1.00  0.00     0.027 C 
BRANCH  16  17
ATOM     17  C   UNL     1       1.699  32.496  67.425  1.00  0.00     0.004 C 
BRANCH  17  18
ATOM     18  C   UNL     1       2.679  32.240  68.580  1.00  0.00     0.000 C 
BRANCH  18  19
ATOM     19  C   UNL     1       4.146  32.247  68.124  1.00  0.00    -0.003 C 
ATOM     20  C   UNL     1       4.458  33.492  67.299  1.00  0.00     0.004 C 
ENDBRANCH  18  19
ENDBRANCH  17  18
ENDBRANCH  16  17
ENDBRANCH  15  16
ENDBRANCH  13  14
ENDBRANCH  12  13
ENDBRANCH   1  11
TORSDOF 14
ENDMDL
MODEL 9
REMARK VINA RESULT:    -4.867      2.336      6.015
REMARK INTER + INTRA:         -10.627
REMARK INTER:                  -9.503
REMARK INTRA:                  -1.125
REMARK UNBOUND:                -1.776
REMARK SMILES CCCCCC=CCC=CCCCCCCCC(=O)[O-]
REMARK SMILES IDX 11 1 12 2 13 3 14 4 15 5 16 6 17 7 18 8 19 9 20 10 10 11
REMARK SMILES IDX 9 12 8 13 7 14 6 15 5 16 4 17 3 18 2 19 1 20
REMARK H PARENT
REMARK Flexibility Score: inf
ROOT
ATOM      1  C   UNL     1       4.117  45.986  65.047  1.00  0.00     0.027 C 
ENDROOT
BRANCH   1   2
ATOM      2  C   UNL     1       3.926  47.479  64.718  1.00  0.00     0.004 C 
BRANCH   2   3
ATOM      3  C   UNL     1       5.209  48.315  64.869  1.00  0.00     0.000 C 
BRANCH   3   4
ATOM      4  C   UNL     1       5.105  49.376  65.979  1.00  0.00     0.000 C 
BRANCH   4   5
ATOM      5  C   UNL     1       5.992  49.035  67.195  1.00  0.00     0.000 C 
BRANCH   5   6
ATOM      6  C   UNL     1       7.484  48.887  66.845  1.00  0.00     0.006 C 
BRANCH   6   7
ATOM      7  C   UNL     1       7.999  47.453  67.018  1.00  0.00     0.053 C 
BRANCH   7   8
ATOM      8  C   UNL     1       8.797  47.335  68.277  1.00  0.00     0.041 C 
ATOM      9  O   UNL     1       8.326  47.756  69.367  1.00  0.00    -0.550 OA
ATOM     10  O   UNL     1      10.040  46.714  68.258  1.00  0.00    -0.550 OA
ENDBRANCH   7   8
ENDBRANCH   6   7
ENDBRANCH   5   6
ENDBRANCH   4   5
ENDBRANCH   3   4
ENDBRANCH   2   3
ENDBRANCH   1   2
BRANCH   1  11
ATOM     11  C   UNL     1       3.482  45.086  64.016  1.00  0.00    -0.031 C 
ATOM     12  C   UNL     1       3.238  43.773  64.193  1.00  0.00    -0.027 C 
BRANCH  12  13
ATOM     13  C   UNL     1       3.619  42.989  65.424  1.00  0.00     0.054 C 
BRANCH  13  14
ATOM     14  C   UNL     1       2.670  43.262  66.558  1.00  0.00    -0.027 C 
ATOM     15  C   UNL     1       3.113  43.534  67.795  1.00  0.00    -0.031 C 
BRANCH  15  16
ATOM     16  C   UNL     1       2.163  43.810  68.927  1.00  0.00     0.027 C 
BRANCH  16  17
ATOM     17  C   UNL     1       2.478  42.921  70.140  1.00  0.00     0.004 C 
BRANCH  17  18
ATOM     18  C   UNL     1       2.838  43.736  71.392  1.00  0.00     0.000 C 
BRANCH  18  19
ATOM     19  C   UNL     1       4.329  44.103  71.450  1.00  0.00    -0.003 C 
ATOM     20  C   UNL     1       5.200  42.926  71.019  1.00  0.00     0.004 C 
ENDBRANCH  18  19
ENDBRANCH  17  18
ENDBRANCH  16  17
ENDBRANCH  15  16
ENDBRANCH  13  14
ENDBRANCH  12  13
ENDBRANCH   1  11
TORSDOF 14
ENDMDL
