MODEL 1
REMARK VINA RESULT:    -6.214      0.000      0.000
REMARK INTER + INTRA:          -6.577
REMARK INTER:                  -6.577
REMARK INTRA:                   0.000
REMARK UNBOUND:                 0.000
REMARK SMILES O=c1ccc2cc(O)c(O)cc2o1
REMARK SMILES IDX 4 1 3 2 2 3 1 4 13 5 12 6 11 7 9 8 7 9 6 10 5 11 8 12 10 14
REMARK H PARENT 8 13 10 15
REMARK Flexibility Score: inf
ROOT
ATOM      1  C   UNL     1      72.882  41.383  -3.676  1.00  0.00     0.019 A 
ATOM      2  C   UNL     1      73.267  40.923  -4.935  1.00  0.00     0.094 A 
ATOM      3  C   UNL     1      74.049  41.749  -5.748  1.00  0.00     0.336 A 
ATOM      4  O   UNL     1      74.407  41.353  -6.888  1.00  0.00    -0.246 OA
ATOM      5  O   UNL     1      74.420  42.956  -5.325  1.00  0.00    -0.423 OA
ATOM      6  C   UNL     1      74.075  43.432  -4.131  1.00  0.00     0.142 A 
ATOM      7  C   UNL     1      74.495  44.707  -3.740  1.00  0.00     0.098 A 
ATOM      8  C   UNL     1      74.135  45.216  -2.486  1.00  0.00     0.161 A 
ATOM      9  C   UNL     1      73.348  44.442  -1.613  1.00  0.00     0.158 A 
ATOM     10  C   UNL     1      72.925  43.163  -2.001  1.00  0.00     0.062 A 
ATOM     11  C   UNL     1      73.286  42.654  -3.256  1.00  0.00     0.022 A 
ENDROOT
BRANCH   9  12
ATOM     12  O   UNL     1      72.990  44.948  -0.364  1.00  0.00    -0.504 OA
ATOM     13  H   UNL     1      72.081  45.365  -0.201  1.00  0.00     0.293 HD
ENDBRANCH   9  12
BRANCH   8  14
ATOM     14  O   UNL     1      74.568  46.492  -2.125  1.00  0.00    -0.504 OA
ATOM     15  H   UNL     1      74.280  46.933  -1.261  1.00  0.00     0.293 HD
ENDBRANCH   8  14
TORSDOF 2
ENDMDL
MODEL 2
REMARK VINA RESULT:    -6.160      1.158      2.267
REMARK INTER + INTRA:          -6.520
REMARK INTER:                  -6.520
REMARK INTRA:                   0.000
REMARK UNBOUND:                 0.000
REMARK SMILES O=c1ccc2cc(O)c(O)cc2o1
REMARK SMILES IDX 4 1 3 2 2 3 1 4 13 5 12 6 11 7 9 8 7 9 6 10 5 11 8 12 10 14
REMARK H PARENT 8 13 10 15
REMARK Flexibility Score: inf
ROOT
ATOM      1  C   UNL     1      74.507  42.866  -5.361  1.00  0.00     0.019 A 
ATOM      2  C   UNL     1      73.994  41.629  -5.748  1.00  0.00     0.094 A 
ATOM      3  C   UNL     1      73.120  40.958  -4.887  1.00  0.00     0.336 A 
ATOM      4  O   UNL     1      72.645  39.840  -5.218  1.00  0.00    -0.246 OA
ATOM      5  O   UNL     1      72.785  41.494  -3.716  1.00  0.00    -0.423 OA
ATOM      6  C   UNL     1      73.251  42.672  -3.308  1.00  0.00     0.142 A 
ATOM      7  C   UNL     1      72.864  43.185  -2.066  1.00  0.00     0.098 A 
ATOM      8  C   UNL     1      73.350  44.423  -1.630  1.00  0.00     0.161 A 
ATOM      9  C   UNL     1      74.235  45.156  -2.443  1.00  0.00     0.158 A 
ATOM     10  C   UNL     1      74.626  44.645  -3.689  1.00  0.00     0.062 A 
ATOM     11  C   UNL     1      74.138  43.406  -4.125  1.00  0.00     0.022 A 
ENDROOT
BRANCH   9  12
ATOM     12  O   UNL     1      74.720  46.390  -2.009  1.00  0.00    -0.504 OA
ATOM     13  H   UNL     1      75.689  46.656  -2.143  1.00  0.00     0.293 HD
ENDBRANCH   9  12
BRANCH   8  14
ATOM     14  O   UNL     1      72.946  44.908  -0.387  1.00  0.00    -0.504 OA
ATOM     15  H   UNL     1      72.893  44.315   0.432  1.00  0.00     0.293 HD
ENDBRANCH   8  14
TORSDOF 2
ENDMDL
MODEL 3
REMARK VINA RESULT:    -6.142      3.417      4.746
REMARK INTER + INTRA:          -6.501
REMARK INTER:                  -6.501
REMARK INTRA:                   0.000
REMARK UNBOUND:                 0.000
REMARK SMILES O=c1ccc2cc(O)c(O)cc2o1
REMARK SMILES IDX 4 1 3 2 2 3 1 4 13 5 12 6 11 7 9 8 7 9 6 10 5 11 8 12 10 14
REMARK H PARENT 8 13 10 15
REMARK Flexibility Score: inf
ROOT
ATOM      1  C   UNL     1      71.366  39.374  -8.093  1.00  0.00     0.019 A 
ATOM      2  C   UNL     1      72.224  39.415  -9.191  1.00  0.00     0.094 A 
ATOM      3  C   UNL     1      73.509  39.943  -9.028  1.00  0.00     0.336 A 
ATOM      4  O   UNL     1      74.298  39.990 -10.008  1.00  0.00    -0.246 OA
ATOM      5  O   UNL     1      73.905  40.398  -7.842  1.00  0.00    -0.423 OA
ATOM      6  C   UNL     1      73.118  40.377  -6.768  1.00  0.00     0.142 A 
ATOM      7  C   UNL     1      73.589  40.869  -5.547  1.00  0.00     0.098 A 
ATOM      8  C   UNL     1      72.768  40.850  -4.414  1.00  0.00     0.161 A 
ATOM      9  C   UNL     1      71.461  40.335  -4.501  1.00  0.00     0.158 A 
ATOM     10  C   UNL     1      70.985  39.840  -5.724  1.00  0.00     0.062 A 
ATOM     11  C   UNL     1      71.808  39.858  -6.858  1.00  0.00     0.022 A 
ENDROOT
BRANCH   9  12
ATOM     12  O   UNL     1      70.643  40.316  -3.372  1.00  0.00    -0.504 OA
ATOM     13  H   UNL     1      71.024  40.187  -2.442  1.00  0.00     0.293 HD
ENDBRANCH   9  12
BRANCH   8  14
ATOM     14  O   UNL     1      73.266  41.349  -3.210  1.00  0.00    -0.504 OA
ATOM     15  H   UNL     1      72.682  41.848  -2.551  1.00  0.00     0.293 HD
ENDBRANCH   8  14
TORSDOF 2
ENDMDL
MODEL 4
REMARK VINA RESULT:    -6.044      2.445      6.126
REMARK INTER + INTRA:          -6.398
REMARK INTER:                  -6.398
REMARK INTRA:                   0.000
REMARK UNBOUND:                 0.000
REMARK SMILES O=c1ccc2cc(O)c(O)cc2o1
REMARK SMILES IDX 4 1 3 2 2 3 1 4 13 5 12 6 11 7 9 8 7 9 6 10 5 11 8 12 10 14
REMARK H PARENT 8 13 10 15
REMARK Flexibility Score: inf
ROOT
ATOM      1  C   UNL     1      75.001  42.230  -5.722  1.00  0.00     0.019 A 
ATOM      2  C   UNL     1      74.787  42.662  -4.414  1.00  0.00     0.094 A 
ATOM      3  C   UNL     1      73.730  42.111  -3.682  1.00  0.00     0.336 A 
ATOM      4  O   UNL     1      73.521  42.488  -2.499  1.00  0.00    -0.246 OA
ATOM      5  O   UNL     1      72.942  41.188  -4.227  1.00  0.00    -0.423 OA
ATOM      6  C   UNL     1      73.111  40.747  -5.472  1.00  0.00     0.142 A 
ATOM      7  C   UNL     1      72.251  39.775  -5.992  1.00  0.00     0.098 A 
ATOM      8  C   UNL     1      72.422  39.307  -7.300  1.00  0.00     0.161 A 
ATOM      9  C   UNL     1      73.464  39.816  -8.098  1.00  0.00     0.158 A 
ATOM     10  C   UNL     1      74.329  40.791  -7.580  1.00  0.00     0.062 A 
ATOM     11  C   UNL     1      74.157  41.258  -6.270  1.00  0.00     0.022 A 
ENDROOT
BRANCH   9  12
ATOM     12  O   UNL     1      73.635  39.349  -9.401  1.00  0.00    -0.504 OA
ATOM     13  H   UNL     1      74.550  39.309  -9.834  1.00  0.00     0.293 HD
ENDBRANCH   9  12
BRANCH   8  14
ATOM     14  O   UNL     1      71.548  38.337  -7.791  1.00  0.00    -0.504 OA
ATOM     15  H   UNL     1      71.871  37.544  -8.330  1.00  0.00     0.293 HD
ENDBRANCH   8  14
TORSDOF 2
ENDMDL
MODEL 5
REMARK VINA RESULT:    -5.939      3.308      4.897
REMARK INTER + INTRA:          -6.286
REMARK INTER:                  -6.286
REMARK INTRA:                   0.000
REMARK UNBOUND:                 0.000
REMARK SMILES O=c1ccc2cc(O)c(O)cc2o1
REMARK SMILES IDX 4 1 3 2 2 3 1 4 13 5 12 6 11 7 9 8 7 9 6 10 5 11 8 12 10 14
REMARK H PARENT 8 13 10 15
REMARK Flexibility Score: inf
ROOT
ATOM      1  C   UNL     1      74.531  40.697  -7.574  1.00  0.00     0.019 A 
ATOM      2  C   UNL     1      74.228  40.140  -8.815  1.00  0.00     0.094 A 
ATOM      3  C   UNL     1      72.998  39.497  -8.988  1.00  0.00     0.336 A 
ATOM      4  O   UNL     1      72.706  38.988 -10.102  1.00  0.00    -0.246 OA
ATOM      5  O   UNL     1      72.131  39.420  -7.981  1.00  0.00    -0.423 OA
ATOM      6  C   UNL     1      72.380  39.939  -6.781  1.00  0.00     0.142 A 
ATOM      7  C   UNL     1      71.431  39.827  -5.761  1.00  0.00     0.098 A 
ATOM      8  C   UNL     1      71.685  40.368  -4.496  1.00  0.00     0.161 A 
ATOM      9  C   UNL     1      72.903  41.030  -4.246  1.00  0.00     0.158 A 
ATOM     10  C   UNL     1      73.858  41.144  -5.267  1.00  0.00     0.062 A 
ATOM     11  C   UNL     1      73.602  40.602  -6.533  1.00  0.00     0.022 A 
ENDROOT
BRANCH   9  12
ATOM     12  O   UNL     1      73.157  41.570  -2.986  1.00  0.00    -0.504 OA
ATOM     13  H   UNL     1      73.449  40.989  -2.209  1.00  0.00     0.293 HD
ENDBRANCH   9  12
BRANCH   8  14
ATOM     14  O   UNL     1      70.719  40.240  -3.498  1.00  0.00    -0.504 OA
ATOM     15  H   UNL     1      69.974  40.915  -3.379  1.00  0.00     0.293 HD
ENDBRANCH   8  14
TORSDOF 2
ENDMDL
MODEL 6
REMARK VINA RESULT:    -5.934      2.940      6.067
REMARK INTER + INTRA:          -6.281
REMARK INTER:                  -6.281
REMARK INTRA:                   0.000
REMARK UNBOUND:                 0.000
REMARK SMILES O=c1ccc2cc(O)c(O)cc2o1
REMARK SMILES IDX 4 1 3 2 2 3 1 4 13 5 12 6 11 7 9 8 7 9 6 10 5 11 8 12 10 14
REMARK H PARENT 8 13 10 15
REMARK Flexibility Score: inf
ROOT
ATOM      1  C   UNL     1      71.181  39.826  -4.906  1.00  0.00     0.019 A 
ATOM      2  C   UNL     1      71.378  40.600  -3.763  1.00  0.00     0.094 A 
ATOM      3  C   UNL     1      72.540  41.371  -3.658  1.00  0.00     0.336 A 
ATOM      4  O   UNL     1      72.737  42.076  -2.634  1.00  0.00    -0.246 OA
ATOM      5  O   UNL     1      73.443  41.365  -4.636  1.00  0.00    -0.423 OA
ATOM      6  C   UNL     1      73.294  40.642  -5.743  1.00  0.00     0.142 A 
ATOM      7  C   UNL     1      74.277  40.675  -6.737  1.00  0.00     0.098 A 
ATOM      8  C   UNL     1      74.128  39.917  -7.904  1.00  0.00     0.161 A 
ATOM      9  C   UNL     1      72.984  39.115  -8.080  1.00  0.00     0.158 A 
ATOM     10  C   UNL     1      71.996  39.079  -7.086  1.00  0.00     0.062 A 
ATOM     11  C   UNL     1      72.146  39.839  -5.918  1.00  0.00     0.022 A 
ENDROOT
BRANCH   9  12
ATOM     12  O   UNL     1      72.834  38.360  -9.243  1.00  0.00    -0.504 OA
ATOM     13  H   UNL     1      73.252  37.441  -9.336  1.00  0.00     0.293 HD
ENDBRANCH   9  12
BRANCH   8  14
ATOM     14  O   UNL     1      75.125  39.970  -8.878  1.00  0.00    -0.504 OA
ATOM     15  H   UNL     1      74.950  40.325  -9.809  1.00  0.00     0.293 HD
ENDBRANCH   8  14
TORSDOF 2
ENDMDL
MODEL 7
REMARK VINA RESULT:    -5.818      1.177      5.020
REMARK INTER + INTRA:          -6.158
REMARK INTER:                  -6.158
REMARK INTRA:                   0.000
REMARK UNBOUND:                 0.000
REMARK SMILES O=c1ccc2cc(O)c(O)cc2o1
REMARK SMILES IDX 4 1 3 2 2 3 1 4 13 5 12 6 11 7 9 8 7 9 6 10 5 11 8 12 10 14
REMARK H PARENT 8 13 10 15
REMARK Flexibility Score: inf
ROOT
ATOM      1  C   UNL     1      74.276  45.137  -3.335  1.00  0.00     0.019 A 
ATOM      2  C   UNL     1      73.725  45.515  -2.112  1.00  0.00     0.094 A 
ATOM      3  C   UNL     1      72.929  44.601  -1.414  1.00  0.00     0.336 A 
ATOM      4  O   UNL     1      72.422  44.924  -0.308  1.00  0.00    -0.246 OA
ATOM      5  O   UNL     1      72.703  43.387  -1.912  1.00  0.00    -0.423 OA
ATOM      6  C   UNL     1      73.211  42.985  -3.075  1.00  0.00     0.142 A 
ATOM      7  C   UNL     1      72.940  41.698  -3.548  1.00  0.00     0.098 A 
ATOM      8  C   UNL     1      73.469  41.268  -4.771  1.00  0.00     0.161 A 
ATOM      9  C   UNL     1      74.278  42.134  -5.530  1.00  0.00     0.158 A 
ATOM     10  C   UNL     1      74.553  43.426  -5.059  1.00  0.00     0.062 A 
ATOM     11  C   UNL     1      74.023  43.855  -3.834  1.00  0.00     0.022 A 
ENDROOT
BRANCH   9  12
ATOM     12  O   UNL     1      74.806  41.706  -6.747  1.00  0.00    -0.504 OA
ATOM     13  H   UNL     1      74.301  41.067  -7.350  1.00  0.00     0.293 HD
ENDBRANCH   9  12
BRANCH   8  14
ATOM     14  O   UNL     1      73.180  39.978  -5.216  1.00  0.00    -0.504 OA
ATOM     15  H   UNL     1      72.353  39.769  -5.761  1.00  0.00     0.293 HD
ENDBRANCH   8  14
TORSDOF 2
ENDMDL
MODEL 8
REMARK VINA RESULT:    -5.573      3.846      6.624
REMARK INTER + INTRA:          -5.899
REMARK INTER:                  -5.899
REMARK INTRA:                   0.000
REMARK UNBOUND:                 0.000
REMARK SMILES O=c1ccc2cc(O)c(O)cc2o1
REMARK SMILES IDX 4 1 3 2 2 3 1 4 13 5 12 6 11 7 9 8 7 9 6 10 5 11 8 12 10 14
REMARK H PARENT 8 13 10 15
REMARK Flexibility Score: inf
ROOT
ATOM      1  C   UNL     1      73.841  41.361  -5.273  1.00  0.00     0.019 A 
ATOM      2  C   UNL     1      72.941  41.162  -4.227  1.00  0.00     0.094 A 
ATOM      3  C   UNL     1      71.837  40.327  -4.432  1.00  0.00     0.336 A 
ATOM      4  O   UNL     1      71.013  40.134  -3.500  1.00  0.00    -0.246 OA
ATOM      5  O   UNL     1      71.652  39.732  -5.608  1.00  0.00    -0.423 OA
ATOM      6  C   UNL     1      72.486  39.894  -6.632  1.00  0.00     0.142 A 
ATOM      7  C   UNL     1      72.240  39.244  -7.845  1.00  0.00     0.098 A 
ATOM      8  C   UNL     1      73.112  39.410  -8.926  1.00  0.00     0.161 A 
ATOM      9  C   UNL     1      74.245  40.236  -8.795  1.00  0.00     0.158 A 
ATOM     10  C   UNL     1      74.496  40.891  -7.581  1.00  0.00     0.062 A 
ATOM     11  C   UNL     1      73.622  40.723  -6.498  1.00  0.00     0.022 A 
ENDROOT
BRANCH   9  12
ATOM     12  O   UNL     1      75.115  40.402  -9.872  1.00  0.00    -0.504 OA
ATOM     13  H   UNL     1      75.400  39.619 -10.449  1.00  0.00     0.293 HD
ENDBRANCH   9  12
BRANCH   8  14
ATOM     14  O   UNL     1      72.839  38.748 -10.123  1.00  0.00    -0.504 OA
ATOM     15  H   UNL     1      72.093  38.069 -10.205  1.00  0.00     0.293 HD
ENDBRANCH   8  14
TORSDOF 2
ENDMDL
MODEL 9
REMARK VINA RESULT:    -5.561      2.039      5.407
REMARK INTER + INTRA:          -5.886
REMARK INTER:                  -5.886
REMARK INTRA:                   0.000
REMARK UNBOUND:                 0.000
REMARK SMILES O=c1ccc2cc(O)c(O)cc2o1
REMARK SMILES IDX 4 1 3 2 2 3 1 4 13 5 12 6 11 7 9 8 7 9 6 10 5 11 8 12 10 14
REMARK H PARENT 8 13 10 15
REMARK Flexibility Score: inf
ROOT
ATOM      1  C   UNL     1      74.481  42.920  -4.506  1.00  0.00     0.019 A 
ATOM      2  C   UNL     1      74.346  43.705  -3.363  1.00  0.00     0.094 A 
ATOM      3  C   UNL     1      73.324  43.412  -2.454  1.00  0.00     0.336 A 
ATOM      4  O   UNL     1      73.186  44.110  -1.416  1.00  0.00    -0.246 OA
ATOM      5  O   UNL     1      72.493  42.397  -2.680  1.00  0.00    -0.423 OA
ATOM      6  C   UNL     1      72.586  41.622  -3.759  1.00  0.00     0.142 A 
ATOM      7  C   UNL     1      71.684  40.570  -3.943  1.00  0.00     0.098 A 
ATOM      8  C   UNL     1      71.775  39.751  -5.074  1.00  0.00     0.161 A 
ATOM      9  C   UNL     1      72.778  39.986  -6.033  1.00  0.00     0.158 A 
ATOM     10  C   UNL     1      73.685  41.040  -5.852  1.00  0.00     0.062 A 
ATOM     11  C   UNL     1      73.594  41.859  -4.718  1.00  0.00     0.022 A 
ENDROOT
BRANCH   9  12
ATOM     12  O   UNL     1      72.870  39.170  -7.160  1.00  0.00    -0.504 OA
ATOM     13  H   UNL     1      73.596  39.304  -7.854  1.00  0.00     0.293 HD
ENDBRANCH   9  12
BRANCH   8  14
ATOM     14  O   UNL     1      70.860  38.710  -5.230  1.00  0.00    -0.504 OA
ATOM     15  H   UNL     1      70.849  37.906  -4.616  1.00  0.00     0.293 HD
ENDBRANCH   8  14
TORSDOF 2
ENDMDL
