MODEL 1
REMARK VINA RESULT:    -4.215      0.000      0.000
REMARK INTER + INTRA:          -6.749
REMARK INTER:                  -6.186
REMARK INTRA:                  -0.564
REMARK UNBOUND:                -0.564
REMARK SMILES O=C([O-])CCCCCCCC(=O)[O-]
REMARK SMILES IDX 7 1 6 2 5 3 4 4 2 5 1 6 3 7 8 8 9 9 10 10 11 11 12 12 13 13
REMARK H PARENT
REMARK Flexibility Score: inf
ROOT
ATOM      1  C   UNL     1     173.911 171.484 150.342  1.00  0.00     0.000 C 
ENDROOT
BRANCH   1   2
ATOM      2  C   UNL     1     175.328 170.913 150.119  1.00  0.00     0.000 C 
BRANCH   2   3
ATOM      3  C   UNL     1     175.487 169.505 150.720  1.00  0.00     0.006 C 
BRANCH   3   4
ATOM      4  C   UNL     1     174.698 169.337 152.025  1.00  0.00     0.053 C 
BRANCH   4   5
ATOM      5  C   UNL     1     175.423 168.470 153.006  1.00  0.00     0.041 C 
ATOM      6  O   UNL     1     176.125 168.989 153.915  1.00  0.00    -0.550 OA
ATOM      7  O   UNL     1     175.353 167.087 152.898  1.00  0.00    -0.550 OA
ENDBRANCH   4   5
ENDBRANCH   3   4
ENDBRANCH   2   3
ENDBRANCH   1   2
BRANCH   1   8
ATOM      8  C   UNL     1     173.782 172.972 149.970  1.00  0.00     0.000 C 
BRANCH   8   9
ATOM      9  C   UNL     1     173.665 173.886 151.197  1.00  0.00     0.006 C 
BRANCH   9  10
ATOM     10  C   UNL     1     175.047 174.237 151.754  1.00  0.00     0.053 C 
BRANCH  10  11
ATOM     11  C   UNL     1     175.168 173.793 153.177  1.00  0.00     0.041 C 
ATOM     12  O   UNL     1     175.027 174.623 154.113  1.00  0.00    -0.550 OA
ATOM     13  O   UNL     1     175.488 172.473 153.469  1.00  0.00    -0.550 OA
ENDBRANCH  10  11
ENDBRANCH   9  10
ENDBRANCH   8   9
ENDBRANCH   1   8
TORSDOF 8
ENDMDL
MODEL 2
REMARK VINA RESULT:    -4.146      0.572      4.663
REMARK INTER + INTRA:          -6.649
REMARK INTER:                  -6.119
REMARK INTRA:                  -0.530
REMARK UNBOUND:                -0.564
REMARK SMILES O=C([O-])CCCCCCCC(=O)[O-]
REMARK SMILES IDX 7 1 6 2 5 3 4 4 2 5 1 6 3 7 8 8 9 9 10 10 11 11 12 12 13 13
REMARK H PARENT
REMARK Flexibility Score: inf
ROOT
ATOM      1  C   UNL     1     173.827 171.883 150.117  1.00  0.00     0.000 C 
ENDROOT
BRANCH   1   2
ATOM      2  C   UNL     1     174.089 173.381 149.846  1.00  0.00     0.000 C 
BRANCH   2   3
ATOM      3  C   UNL     1     174.776 174.074 151.036  1.00  0.00     0.006 C 
BRANCH   3   4
ATOM      4  C   UNL     1     174.071 173.778 152.367  1.00  0.00     0.053 C 
BRANCH   4   5
ATOM      5  C   UNL     1     175.024 173.810 153.521  1.00  0.00     0.041 C 
ATOM      6  O   UNL     1     175.250 174.892 154.127  1.00  0.00    -0.550 OA
ATOM      7  O   UNL     1     175.691 172.654 153.907  1.00  0.00    -0.550 OA
ENDBRANCH   4   5
ENDBRANCH   3   4
ENDBRANCH   2   3
ENDBRANCH   1   2
BRANCH   1   8
ATOM      8  C   UNL     1     175.108 171.031 150.152  1.00  0.00     0.000 C 
BRANCH   8   9
ATOM      9  C   UNL     1     174.887 169.647 150.777  1.00  0.00     0.006 C 
BRANCH   9  10
ATOM     10  C   UNL     1     174.619 169.760 152.280  1.00  0.00     0.053 C 
BRANCH  10  11
ATOM     11  C   UNL     1     175.400 168.729 153.031  1.00  0.00     0.041 C 
ATOM     12  O   UNL     1     175.366 167.523 152.671  1.00  0.00    -0.550 OA
ATOM     13  O   UNL     1     176.125 169.092 154.160  1.00  0.00    -0.550 OA
ENDBRANCH  10  11
ENDBRANCH   9  10
ENDBRANCH   8   9
ENDBRANCH   1   8
TORSDOF 8
ENDMDL
MODEL 3
REMARK VINA RESULT:    -4.094      0.843      1.438
REMARK INTER + INTRA:          -6.572
REMARK INTER:                  -6.073
REMARK INTRA:                  -0.498
REMARK UNBOUND:                -0.564
REMARK SMILES O=C([O-])CCCCCCCC(=O)[O-]
REMARK SMILES IDX 7 1 6 2 5 3 4 4 2 5 1 6 3 7 8 8 9 9 10 10 11 11 12 12 13 13
REMARK H PARENT
REMARK Flexibility Score: inf
ROOT
ATOM      1  C   UNL     1     172.616 172.117 150.150  1.00  0.00     0.000 C 
ENDROOT
BRANCH   1   2
ATOM      2  C   UNL     1     173.359 170.764 150.182  1.00  0.00     0.000 C 
BRANCH   2   3
ATOM      3  C   UNL     1     174.883 170.942 150.310  1.00  0.00     0.006 C 
BRANCH   3   4
ATOM      4  C   UNL     1     175.611 169.603 150.488  1.00  0.00     0.053 C 
BRANCH   4   5
ATOM      5  C   UNL     1     175.330 168.989 151.824  1.00  0.00     0.041 C 
ATOM      6  O   UNL     1     175.372 169.694 152.868  1.00  0.00    -0.550 OA
ATOM      7  O   UNL     1     175.055 167.631 151.923  1.00  0.00    -0.550 OA
ENDBRANCH   4   5
ENDBRANCH   3   4
ENDBRANCH   2   3
ENDBRANCH   1   2
BRANCH   1   8
ATOM      8  C   UNL     1     173.546 173.326 149.942  1.00  0.00     0.000 C 
BRANCH   8   9
ATOM      9  C   UNL     1     173.620 174.240 151.172  1.00  0.00     0.006 C 
BRANCH   9  10
ATOM     10  C   UNL     1     175.026 174.233 151.777  1.00  0.00     0.053 C 
BRANCH  10  11
ATOM     11  C   UNL     1     174.981 173.783 153.203  1.00  0.00     0.041 C 
ATOM     12  O   UNL     1     175.811 172.936 153.627  1.00  0.00    -0.550 OA
ATOM     13  O   UNL     1     173.990 174.261 154.052  1.00  0.00    -0.550 OA
ENDBRANCH  10  11
ENDBRANCH   9  10
ENDBRANCH   8   9
ENDBRANCH   1   8
TORSDOF 8
ENDMDL
MODEL 4
REMARK VINA RESULT:    -4.076      1.098      4.664
REMARK INTER + INTRA:          -6.546
REMARK INTER:                  -6.053
REMARK INTRA:                  -0.493
REMARK UNBOUND:                -0.564
REMARK SMILES O=C([O-])CCCCCCCC(=O)[O-]
REMARK SMILES IDX 7 1 6 2 5 3 4 4 2 5 1 6 3 7 8 8 9 9 10 10 11 11 12 12 13 13
REMARK H PARENT
REMARK Flexibility Score: inf
ROOT
ATOM      1  C   UNL     1     172.779 172.789 150.105  1.00  0.00     0.000 C 
ENDROOT
BRANCH   1   2
ATOM      2  C   UNL     1     174.112 173.370 149.586  1.00  0.00     0.000 C 
BRANCH   2   3
ATOM      3  C   UNL     1     174.946 174.005 150.712  1.00  0.00     0.006 C 
BRANCH   3   4
ATOM      4  C   UNL     1     174.132 174.200 151.998  1.00  0.00     0.053 C 
BRANCH   4   5
ATOM      5  C   UNL     1     174.871 173.712 153.205  1.00  0.00     0.041 C 
ATOM      6  O   UNL     1     174.954 174.435 154.233  1.00  0.00    -0.550 OA
ATOM      7  O   UNL     1     175.498 172.472 153.183  1.00  0.00    -0.550 OA
ENDBRANCH   4   5
ENDBRANCH   3   4
ENDBRANCH   2   3
ENDBRANCH   1   2
BRANCH   1   8
ATOM      8  C   UNL     1     172.702 171.254 150.022  1.00  0.00     0.000 C 
BRANCH   8   9
ATOM      9  C   UNL     1     174.035 170.570 150.353  1.00  0.00     0.006 C 
BRANCH   9  10
ATOM     10  C   UNL     1     173.836 169.074 150.608  1.00  0.00     0.053 C 
BRANCH  10  11
ATOM     11  C   UNL     1     174.891 168.554 151.533  1.00  0.00     0.041 C 
ATOM     12  O   UNL     1     175.752 169.336 152.015  1.00  0.00    -0.550 OA
ATOM     13  O   UNL     1     174.954 167.196 151.823  1.00  0.00    -0.550 OA
ENDBRANCH  10  11
ENDBRANCH   9  10
ENDBRANCH   8   9
ENDBRANCH   1   8
TORSDOF 8
ENDMDL
MODEL 5
REMARK VINA RESULT:    -4.005      1.508      4.545
REMARK INTER + INTRA:          -6.441
REMARK INTER:                  -5.725
REMARK INTRA:                  -0.716
REMARK UNBOUND:                -0.564
REMARK SMILES O=C([O-])CCCCCCCC(=O)[O-]
REMARK SMILES IDX 7 1 6 2 5 3 4 4 2 5 1 6 3 7 8 8 9 9 10 10 11 11 12 12 13 13
REMARK H PARENT
REMARK Flexibility Score: inf
ROOT
ATOM      1  C   UNL     1     173.931 173.361 149.738  1.00  0.00     0.000 C 
ENDROOT
BRANCH   1   2
ATOM      2  C   UNL     1     174.920 174.125 150.645  1.00  0.00     0.000 C 
BRANCH   2   3
ATOM      3  C   UNL     1     174.411 174.237 152.093  1.00  0.00     0.006 C 
BRANCH   3   4
ATOM      4  C   UNL     1     175.481 173.837 153.117  1.00  0.00     0.053 C 
BRANCH   4   5
ATOM      5  C   UNL     1     175.066 172.642 153.918  1.00  0.00     0.041 C 
ATOM      6  O   UNL     1     175.915 172.011 154.603  1.00  0.00    -0.550 OA
ATOM      7  O   UNL     1     173.749 172.202 153.882  1.00  0.00    -0.550 OA
ENDBRANCH   4   5
ENDBRANCH   3   4
ENDBRANCH   2   3
ENDBRANCH   1   2
BRANCH   1   8
ATOM      8  C   UNL     1     173.696 171.904 150.173  1.00  0.00     0.000 C 
BRANCH   8   9
ATOM      9  C   UNL     1     174.979 171.062 150.160  1.00  0.00     0.006 C 
BRANCH   9  10
ATOM     10  C   UNL     1     174.997 170.072 151.328  1.00  0.00     0.053 C 
BRANCH  10  11
ATOM     11  C   UNL     1     174.808 168.673 150.833  1.00  0.00     0.041 C 
ATOM     12  O   UNL     1     175.046 167.696 151.590  1.00  0.00    -0.550 OA
ATOM     13  O   UNL     1     174.417 168.448 149.518  1.00  0.00    -0.550 OA
ENDBRANCH  10  11
ENDBRANCH   9  10
ENDBRANCH   8   9
ENDBRANCH   1   8
TORSDOF 8
ENDMDL
MODEL 6
REMARK VINA RESULT:    -3.954      1.752      5.574
REMARK INTER + INTRA:          -6.368
REMARK INTER:                  -5.914
REMARK INTRA:                  -0.454
REMARK UNBOUND:                -0.564
REMARK SMILES O=C([O-])CCCCCCCC(=O)[O-]
REMARK SMILES IDX 7 1 6 2 5 3 4 4 2 5 1 6 3 7 8 8 9 9 10 10 11 11 12 12 13 13
REMARK H PARENT
REMARK Flexibility Score: inf
ROOT
ATOM      1  C   UNL     1     173.993 171.581 150.161  1.00  0.00     0.000 C 
ENDROOT
BRANCH   1   2
ATOM      2  C   UNL     1     174.053 173.091 149.845  1.00  0.00     0.000 C 
BRANCH   2   3
ATOM      3  C   UNL     1     173.876 173.955 151.106  1.00  0.00     0.006 C 
BRANCH   3   4
ATOM      4  C   UNL     1     175.214 174.265 151.791  1.00  0.00     0.053 C 
BRANCH   4   5
ATOM      5  C   UNL     1     175.260 173.734 153.190  1.00  0.00     0.041 C 
ATOM      6  O   UNL     1     175.538 172.523 153.399  1.00  0.00    -0.550 OA
ATOM      7  O   UNL     1     174.962 174.566 154.261  1.00  0.00    -0.550 OA
ENDBRANCH   4   5
ENDBRANCH   3   4
ENDBRANCH   2   3
ENDBRANCH   1   2
BRANCH   1   8
ATOM      8  C   UNL     1     175.372 170.898 150.174  1.00  0.00     0.000 C 
BRANCH   8   9
ATOM      9  C   UNL     1     175.319 169.454 150.690  1.00  0.00     0.006 C 
BRANCH   9  10
ATOM     10  C   UNL     1     174.025 168.762 150.251  1.00  0.00     0.053 C 
BRANCH  10  11
ATOM     11  C   UNL     1     174.329 167.463 149.574  1.00  0.00     0.041 C 
ATOM     12  O   UNL     1     174.188 167.351 148.328  1.00  0.00    -0.550 OA
ATOM     13  O   UNL     1     174.718 166.361 150.326  1.00  0.00    -0.550 OA
ENDBRANCH  10  11
ENDBRANCH   9  10
ENDBRANCH   8   9
ENDBRANCH   1   8
TORSDOF 8
ENDMDL
MODEL 7
REMARK VINA RESULT:    -3.907      1.469      2.520
REMARK INTER + INTRA:          -6.298
REMARK INTER:                  -5.613
REMARK INTRA:                  -0.685
REMARK UNBOUND:                -0.564
REMARK SMILES O=C([O-])CCCCCCCC(=O)[O-]
REMARK SMILES IDX 7 1 6 2 5 3 4 4 2 5 1 6 3 7 8 8 9 9 10 10 11 11 12 12 13 13
REMARK H PARENT
REMARK Flexibility Score: inf
ROOT
ATOM      1  C   UNL     1     173.934 173.912 151.100  1.00  0.00     0.000 C 
ENDROOT
BRANCH   1   2
ATOM      2  C   UNL     1     173.841 172.803 150.030  1.00  0.00     0.000 C 
BRANCH   2   3
ATOM      3  C   UNL     1     173.995 171.397 150.637  1.00  0.00     0.006 C 
BRANCH   3   4
ATOM      4  C   UNL     1     175.322 170.737 150.243  1.00  0.00     0.053 C 
BRANCH   4   5
ATOM      5  C   UNL     1     175.387 169.308 150.686  1.00  0.00     0.041 C 
ATOM      6  O   UNL     1     175.868 169.014 151.813  1.00  0.00    -0.550 OA
ATOM      7  O   UNL     1     174.948 168.296 149.841  1.00  0.00    -0.550 OA
ENDBRANCH   4   5
ENDBRANCH   3   4
ENDBRANCH   2   3
ENDBRANCH   1   2
BRANCH   1   8
ATOM      8  C   UNL     1     175.376 174.352 151.408  1.00  0.00     0.000 C 
BRANCH   8   9
ATOM      9  C   UNL     1     175.715 174.282 152.903  1.00  0.00     0.006 C 
BRANCH   9  10
ATOM     10  C   UNL     1     174.519 173.776 153.713  1.00  0.00     0.053 C 
BRANCH  10  11
ATOM     11  C   UNL     1     174.888 172.545 154.480  1.00  0.00     0.041 C 
ATOM     12  O   UNL     1     175.415 171.566 153.890  1.00  0.00    -0.550 OA
ATOM     13  O   UNL     1     174.603 172.460 155.838  1.00  0.00    -0.550 OA
ENDBRANCH  10  11
ENDBRANCH   9  10
ENDBRANCH   8   9
ENDBRANCH   1   8
TORSDOF 8
ENDMDL
MODEL 8
REMARK VINA RESULT:    -3.881      2.811      4.268
REMARK INTER + INTRA:          -6.259
REMARK INTER:                  -5.472
REMARK INTRA:                  -0.787
REMARK UNBOUND:                -0.564
REMARK SMILES O=C([O-])CCCCCCCC(=O)[O-]
REMARK SMILES IDX 7 1 6 2 5 3 4 4 2 5 1 6 3 7 8 8 9 9 10 10 11 11 12 12 13 13
REMARK H PARENT
REMARK Flexibility Score: inf
ROOT
ATOM      1  C   UNL     1     174.244 172.502 150.153  1.00  0.00     0.000 C 
ENDROOT
BRANCH   1   2
ATOM      2  C   UNL     1     174.887 173.890 150.362  1.00  0.00     0.000 C 
BRANCH   2   3
ATOM      3  C   UNL     1     175.118 174.204 151.850  1.00  0.00     0.006 C 
BRANCH   3   4
ATOM      4  C   UNL     1     175.064 172.945 152.725  1.00  0.00     0.053 C 
BRANCH   4   5
ATOM      5  C   UNL     1     174.976 173.282 154.181  1.00  0.00     0.041 C 
ATOM      6  O   UNL     1     175.077 172.374 155.049  1.00  0.00    -0.550 OA
ATOM      7  O   UNL     1     174.748 174.593 154.581  1.00  0.00    -0.550 OA
ENDBRANCH   4   5
ENDBRANCH   3   4
ENDBRANCH   2   3
ENDBRANCH   1   2
BRANCH   1   8
ATOM      8  C   UNL     1     172.764 172.565 149.734  1.00  0.00     0.000 C 
BRANCH   8   9
ATOM      9  C   UNL     1     171.811 172.087 150.837  1.00  0.00     0.006 C 
BRANCH   9  10
ATOM     10  C   UNL     1     170.721 173.127 151.109  1.00  0.00     0.053 C 
BRANCH  10  11
ATOM     11  C   UNL     1     171.313 174.363 151.708  1.00  0.00     0.041 C 
ATOM     12  O   UNL     1     171.839 174.324 152.851  1.00  0.00    -0.550 OA
ATOM     13  O   UNL     1     171.238 175.572 151.025  1.00  0.00    -0.550 OA
ENDBRANCH  10  11
ENDBRANCH   9  10
ENDBRANCH   8   9
ENDBRANCH   1   8
TORSDOF 8
ENDMDL
MODEL 9
REMARK VINA RESULT:    -3.803     10.878     12.786
REMARK INTER + INTRA:          -6.145
REMARK INTER:                  -5.552
REMARK INTRA:                  -0.593
REMARK UNBOUND:                -0.564
REMARK SMILES O=C([O-])CCCCCCCC(=O)[O-]
REMARK SMILES IDX 7 1 6 2 5 3 4 4 2 5 1 6 3 7 8 8 9 9 10 10 11 11 12 12 13 13
REMARK H PARENT
REMARK Flexibility Score: inf
ROOT
ATOM      1  C   UNL     1     174.278 160.738 150.207  1.00  0.00     0.000 C 
ENDROOT
BRANCH   1   2
ATOM      2  C   UNL     1     175.573 161.309 150.825  1.00  0.00     0.000 C 
BRANCH   2   3
ATOM      3  C   UNL     1     176.123 160.414 151.949  1.00  0.00     0.006 C 
BRANCH   3   4
ATOM      4  C   UNL     1     175.698 160.900 153.341  1.00  0.00     0.053 C 
BRANCH   4   5
ATOM      5  C   UNL     1     175.513 159.763 154.296  1.00  0.00     0.041 C 
ATOM      6  O   UNL     1     175.545 158.574 153.880  1.00  0.00    -0.550 OA
ATOM      7  O   UNL     1     175.270 160.015 155.640  1.00  0.00    -0.550 OA
ENDBRANCH   4   5
ENDBRANCH   3   4
ENDBRANCH   2   3
ENDBRANCH   1   2
BRANCH   1   8
ATOM      8  C   UNL     1     174.257 159.201 150.133  1.00  0.00     0.000 C 
BRANCH   8   9
ATOM      9  C   UNL     1     172.876 158.608 150.444  1.00  0.00     0.006 C 
BRANCH   9  10
ATOM     10  C   UNL     1     172.553 158.720 151.936  1.00  0.00     0.053 C 
BRANCH  10  11
ATOM     11  C   UNL     1     171.457 157.773 152.309  1.00  0.00     0.041 C 
ATOM     12  O   UNL     1     171.633 156.933 153.231  1.00  0.00    -0.550 OA
ATOM     13  O   UNL     1     170.260 157.783 151.604  1.00  0.00    -0.550 OA
ENDBRANCH  10  11
ENDBRANCH   9  10
ENDBRANCH   8   9
ENDBRANCH   1   8
TORSDOF 8
ENDMDL
