MODEL 1
REMARK VINA RESULT:    -5.268      0.000      0.000
REMARK INTER + INTRA:          -5.967
REMARK INTER:                  -5.730
REMARK INTRA:                  -0.237
REMARK UNBOUND:                -0.237
REMARK SMILES O=C([O-])c1ccccc1O
REMARK SMILES IDX 4 1 9 2 5 3 8 4 6 5 7 6 2 7 1 8 3 9 10 10
REMARK H PARENT 10 11
REMARK Flexibility Score: inf
ROOT
ATOM      1  C   UNL     1      16.931  -3.663  16.970  1.00  0.00     0.039 A 
ATOM      2  C   UNL     1      15.704  -3.007  17.249  1.00  0.00     0.124 A 
ATOM      3  C   UNL     1      16.920  -4.799  16.137  1.00  0.00     0.014 A 
ATOM      4  C   UNL     1      14.524  -3.460  16.647  1.00  0.00     0.047 A 
ATOM      5  C   UNL     1      15.731  -5.249  15.561  1.00  0.00     0.001 A 
ATOM      6  C   UNL     1      14.536  -4.574  15.808  1.00  0.00     0.004 A 
ENDROOT
BRANCH   1   7
ATOM      7  C   UNL     1      18.228  -3.177  17.489  1.00  0.00     0.075 C 
ATOM      8  O   UNL     1      18.402  -3.043  18.729  1.00  0.00    -0.545 OA
ATOM      9  O   UNL     1      19.291  -2.930  16.629  1.00  0.00    -0.545 OA
ENDBRANCH   1   7
BRANCH   2  10
ATOM     10  O   UNL     1      15.612  -1.936  18.140  1.00  0.00    -0.507 OA
ATOM     11  H   UNL     1      14.822  -1.787  18.752  1.00  0.00     0.293 HD
ENDBRANCH   2  10
TORSDOF 2
ENDMDL
MODEL 2
REMARK VINA RESULT:    -5.233      6.263      7.582
REMARK INTER + INTRA:          -5.929
REMARK INTER:                  -5.691
REMARK INTRA:                  -0.237
REMARK UNBOUND:                -0.237
REMARK SMILES O=C([O-])c1ccccc1O
REMARK SMILES IDX 4 1 9 2 5 3 8 4 6 5 7 6 2 7 1 8 3 9 10 10
REMARK H PARENT 10 11
REMARK Flexibility Score: inf
ROOT
ATOM      1  C   UNL     1      14.558  -5.639  10.913  1.00  0.00     0.039 A 
ATOM      2  C   UNL     1      15.876  -5.530  10.401  1.00  0.00     0.124 A 
ATOM      3  C   UNL     1      14.379  -6.061  12.246  1.00  0.00     0.014 A 
ATOM      4  C   UNL     1      16.969  -5.780  11.240  1.00  0.00     0.047 A 
ATOM      5  C   UNL     1      15.480  -6.325  13.063  1.00  0.00     0.001 A 
ATOM      6  C   UNL     1      16.773  -6.176  12.563  1.00  0.00     0.004 A 
ENDROOT
BRANCH   1   7
ATOM      7  C   UNL     1      13.363  -5.292  10.114  1.00  0.00     0.075 C 
ATOM      8  O   UNL     1      12.571  -4.399  10.516  1.00  0.00    -0.545 OA
ATOM      9  O   UNL     1      13.134  -5.891   8.881  1.00  0.00    -0.545 OA
ENDBRANCH   1   7
BRANCH   2  10
ATOM     10  O   UNL     1      16.138  -5.214   9.066  1.00  0.00    -0.507 OA
ATOM     11  H   UNL     1      15.521  -5.459   8.304  1.00  0.00     0.293 HD
ENDBRANCH   2  10
TORSDOF 2
ENDMDL
MODEL 3
REMARK VINA RESULT:    -5.190      1.007      2.180
REMARK INTER + INTRA:          -5.881
REMARK INTER:                  -5.644
REMARK INTRA:                  -0.237
REMARK UNBOUND:                -0.237
REMARK SMILES O=C([O-])c1ccccc1O
REMARK SMILES IDX 4 1 9 2 5 3 8 4 6 5 7 6 2 7 1 8 3 9 10 10
REMARK H PARENT 10 11
REMARK Flexibility Score: inf
ROOT
ATOM      1  C   UNL     1      16.856  -3.653  17.006  1.00  0.00     0.039 A 
ATOM      2  C   UNL     1      16.733  -4.809  16.193  1.00  0.00     0.124 A 
ATOM      3  C   UNL     1      15.698  -2.910  17.312  1.00  0.00     0.014 A 
ATOM      4  C   UNL     1      15.466  -5.224  15.767  1.00  0.00     0.047 A 
ATOM      5  C   UNL     1      14.445  -3.328  16.861  1.00  0.00     0.001 A 
ATOM      6  C   UNL     1      14.327  -4.489  16.098  1.00  0.00     0.004 A 
ENDROOT
BRANCH   1   7
ATOM      7  C   UNL     1      18.149  -3.216  17.575  1.00  0.00     0.075 C 
ATOM      8  O   UNL     1      18.287  -3.110  18.822  1.00  0.00    -0.545 OA
ATOM      9  O   UNL     1      19.246  -2.984  16.753  1.00  0.00    -0.545 OA
ENDBRANCH   1   7
BRANCH   2  10
ATOM     10  O   UNL     1      17.839  -5.545  15.763  1.00  0.00    -0.507 OA
ATOM     11  H   UNL     1      18.194  -5.513  14.817  1.00  0.00     0.293 HD
ENDBRANCH   2  10
TORSDOF 2
ENDMDL
MODEL 4
REMARK VINA RESULT:    -5.128      5.991      7.193
REMARK INTER + INTRA:          -5.814
REMARK INTER:                  -5.572
REMARK INTRA:                  -0.243
REMARK UNBOUND:                -0.237
REMARK SMILES O=C([O-])c1ccccc1O
REMARK SMILES IDX 4 1 9 2 5 3 8 4 6 5 7 6 2 7 1 8 3 9 10 10
REMARK H PARENT 10 11
REMARK Flexibility Score: inf
ROOT
ATOM      1  C   UNL     1      14.656  -5.571  10.994  1.00  0.00     0.039 A 
ATOM      2  C   UNL     1      14.480  -5.971  12.343  1.00  0.00     0.124 A 
ATOM      3  C   UNL     1      15.963  -5.470  10.479  1.00  0.00     0.014 A 
ATOM      4  C   UNL     1      15.596  -6.316  13.115  1.00  0.00     0.047 A 
ATOM      5  C   UNL     1      17.067  -5.799  11.269  1.00  0.00     0.001 A 
ATOM      6  C   UNL     1      16.883  -6.231  12.582  1.00  0.00     0.004 A 
ENDROOT
BRANCH   1   7
ATOM      7  C   UNL     1      13.516  -5.291  10.093  1.00  0.00     0.075 C 
ATOM      8  O   UNL     1      13.398  -5.920   9.009  1.00  0.00    -0.545 OA
ATOM      9  O   UNL     1      12.527  -4.385  10.458  1.00  0.00    -0.545 OA
ENDBRANCH   1   7
BRANCH   2  10
ATOM     10  O   UNL     1      13.227  -6.003  12.959  1.00  0.00    -0.507 OA
ATOM     11  H   UNL     1      12.367  -5.767  12.484  1.00  0.00     0.293 HD
ENDBRANCH   2  10
TORSDOF 2
ENDMDL
MODEL 5
REMARK VINA RESULT:    -4.924      2.664      4.113
REMARK INTER + INTRA:          -5.592
REMARK INTER:                  -5.342
REMARK INTRA:                  -0.250
REMARK UNBOUND:                -0.237
REMARK SMILES O=C([O-])c1ccccc1O
REMARK SMILES IDX 4 1 9 2 5 3 8 4 6 5 7 6 2 7 1 8 3 9 10 10
REMARK H PARENT 10 11
REMARK Flexibility Score: inf
ROOT
ATOM      1  C   UNL     1      15.627  -4.350  16.072  1.00  0.00     0.039 A 
ATOM      2  C   UNL     1      17.007  -4.549  16.331  1.00  0.00     0.124 A 
ATOM      3  C   UNL     1      14.930  -3.375  16.812  1.00  0.00     0.014 A 
ATOM      4  C   UNL     1      17.661  -3.737  17.265  1.00  0.00     0.047 A 
ATOM      5  C   UNL     1      15.594  -2.587  17.754  1.00  0.00     0.001 A 
ATOM      6  C   UNL     1      16.959  -2.761  17.974  1.00  0.00     0.004 A 
ENDROOT
BRANCH   1   7
ATOM      7  C   UNL     1      14.898  -5.102  15.027  1.00  0.00     0.075 C 
ATOM      8  O   UNL     1      14.224  -4.487  14.159  1.00  0.00    -0.545 OA
ATOM      9  O   UNL     1      15.000  -6.486  14.945  1.00  0.00    -0.545 OA
ENDBRANCH   1   7
BRANCH   2  10
ATOM     10  O   UNL     1      17.749  -5.559  15.713  1.00  0.00    -0.507 OA
ATOM     11  H   UNL     1      17.883  -6.476  16.115  1.00  0.00     0.293 HD
ENDBRANCH   2  10
TORSDOF 2
ENDMDL
MODEL 6
REMARK VINA RESULT:    -4.903      5.004      5.837
REMARK INTER + INTRA:          -5.569
REMARK INTER:                  -5.320
REMARK INTRA:                  -0.249
REMARK UNBOUND:                -0.237
REMARK SMILES O=C([O-])c1ccccc1O
REMARK SMILES IDX 4 1 9 2 5 3 8 4 6 5 7 6 2 7 1 8 3 9 10 10
REMARK H PARENT 10 11
REMARK Flexibility Score: inf
ROOT
ATOM      1  C   UNL     1      15.522  -5.632  12.155  1.00  0.00     0.039 A 
ATOM      2  C   UNL     1      14.140  -5.651  11.836  1.00  0.00     0.124 A 
ATOM      3  C   UNL     1      16.463  -5.620  11.107  1.00  0.00     0.014 A 
ATOM      4  C   UNL     1      13.738  -5.595  10.496  1.00  0.00     0.047 A 
ATOM      5  C   UNL     1      16.044  -5.584   9.775  1.00  0.00     0.001 A 
ATOM      6  C   UNL     1      14.684  -5.562   9.471  1.00  0.00     0.004 A 
ENDROOT
BRANCH   1   7
ATOM      7  C   UNL     1      16.015  -5.586  13.550  1.00  0.00     0.075 C 
ATOM      8  O   UNL     1      15.524  -6.354  14.419  1.00  0.00    -0.545 OA
ATOM      9  O   UNL     1      17.067  -4.750  13.905  1.00  0.00    -0.545 OA
ENDBRANCH   1   7
BRANCH   2  10
ATOM     10  O   UNL     1      13.146  -5.761  12.810  1.00  0.00    -0.507 OA
ATOM     11  H   UNL     1      12.433  -6.478  12.800  1.00  0.00     0.293 HD
ENDBRANCH   2  10
TORSDOF 2
ENDMDL
MODEL 7
REMARK VINA RESULT:    -4.868      5.093      6.227
REMARK INTER + INTRA:          -5.532
REMARK INTER:                  -5.302
REMARK INTRA:                  -0.230
REMARK UNBOUND:                -0.237
REMARK SMILES O=C([O-])c1ccccc1O
REMARK SMILES IDX 4 1 9 2 5 3 8 4 6 5 7 6 2 7 1 8 3 9 10 10
REMARK H PARENT 10 11
REMARK Flexibility Score: inf
ROOT
ATOM      1  C   UNL     1      16.040  -5.274  11.689  1.00  0.00     0.039 A 
ATOM      2  C   UNL     1      15.453  -5.288  10.398  1.00  0.00     0.124 A 
ATOM      3  C   UNL     1      15.203  -5.162  12.816  1.00  0.00     0.014 A 
ATOM      4  C   UNL     1      14.059  -5.255  10.271  1.00  0.00     0.047 A 
ATOM      5  C   UNL     1      13.816  -5.110  12.670  1.00  0.00     0.001 A 
ATOM      6  C   UNL     1      13.244  -5.166  11.400  1.00  0.00     0.004 A 
ENDROOT
BRANCH   1   7
ATOM      7  C   UNL     1      17.499  -5.408  11.900  1.00  0.00     0.075 C 
ATOM      8  O   UNL     1      18.120  -6.389  11.412  1.00  0.00    -0.545 OA
ATOM      9  O   UNL     1      18.213  -4.426  12.575  1.00  0.00    -0.545 OA
ENDBRANCH   1   7
BRANCH   2  10
ATOM     10  O   UNL     1      16.214  -5.298   9.227  1.00  0.00    -0.507 OA
ATOM     11  H   UNL     1      15.978  -5.851   8.415  1.00  0.00     0.293 HD
ENDBRANCH   2  10
TORSDOF 2
ENDMDL
MODEL 8
REMARK VINA RESULT:    -4.850      2.523      3.457
REMARK INTER + INTRA:          -5.512
REMARK INTER:                  -5.269
REMARK INTRA:                  -0.243
REMARK UNBOUND:                -0.237
REMARK SMILES O=C([O-])c1ccccc1O
REMARK SMILES IDX 4 1 9 2 5 3 8 4 6 5 7 6 2 7 1 8 3 9 10 10
REMARK H PARENT 10 11
REMARK Flexibility Score: inf
ROOT
ATOM      1  C   UNL     1      16.102  -4.145  16.006  1.00  0.00     0.039 A 
ATOM      2  C   UNL     1      15.228  -3.282  16.715  1.00  0.00     0.124 A 
ATOM      3  C   UNL     1      17.446  -4.240  16.417  1.00  0.00     0.014 A 
ATOM      4  C   UNL     1      15.696  -2.595  17.842  1.00  0.00     0.047 A 
ATOM      5  C   UNL     1      17.901  -3.532  17.532  1.00  0.00     0.001 A 
ATOM      6  C   UNL     1      17.025  -2.718  18.248  1.00  0.00     0.004 A 
ENDROOT
BRANCH   1   7
ATOM      7  C   UNL     1      15.649  -4.978  14.870  1.00  0.00     0.075 C 
ATOM      8  O   UNL     1      14.806  -4.525  14.051  1.00  0.00    -0.545 OA
ATOM      9  O   UNL     1      16.193  -6.238  14.651  1.00  0.00    -0.545 OA
ENDBRANCH   1   7
BRANCH   2  10
ATOM     10  O   UNL     1      13.910  -3.055  16.315  1.00  0.00    -0.507 OA
ATOM     11  H   UNL     1      13.151  -3.695  16.508  1.00  0.00     0.293 HD
ENDBRANCH   2  10
TORSDOF 2
ENDMDL
MODEL 9
REMARK VINA RESULT:    -4.836      4.847      6.165
REMARK INTER + INTRA:          -5.497
REMARK INTER:                  -5.254
REMARK INTRA:                  -0.243
REMARK UNBOUND:                -0.237
REMARK SMILES O=C([O-])c1ccccc1O
REMARK SMILES IDX 4 1 9 2 5 3 8 4 6 5 7 6 2 7 1 8 3 9 10 10
REMARK H PARENT 10 11
REMARK Flexibility Score: inf
ROOT
ATOM      1  C   UNL     1      15.390  -6.070  12.448  1.00  0.00     0.039 A 
ATOM      2  C   UNL     1      16.597  -5.973  11.710  1.00  0.00     0.124 A 
ATOM      3  C   UNL     1      14.174  -5.766  11.806  1.00  0.00     0.014 A 
ATOM      4  C   UNL     1      16.554  -5.641  10.351  1.00  0.00     0.047 A 
ATOM      5  C   UNL     1      14.150  -5.417  10.455  1.00  0.00     0.001 A 
ATOM      6  C   UNL     1      15.338  -5.363   9.726  1.00  0.00     0.004 A 
ENDROOT
BRANCH   1   7
ATOM      7  C   UNL     1      15.354  -6.515  13.859  1.00  0.00     0.075 C 
ATOM      8  O   UNL     1      15.952  -7.568  14.205  1.00  0.00    -0.545 OA
ATOM      9  O   UNL     1      14.724  -5.747  14.831  1.00  0.00    -0.545 OA
ENDBRANCH   1   7
BRANCH   2  10
ATOM     10  O   UNL     1      17.852  -6.162  12.295  1.00  0.00    -0.507 OA
ATOM     11  H   UNL     1      18.022  -6.814  13.048  1.00  0.00     0.293 HD
ENDBRANCH   2  10
TORSDOF 2
ENDMDL
