MODEL 1
REMARK VINA RESULT:    -3.580      0.000      0.000
REMARK INTER + INTRA:          -7.190
REMARK INTER:                  -5.673
REMARK INTRA:                  -1.518
REMARK UNBOUND:                -1.518
REMARK SMILES CCCCCCCCCCCC(=O)[O-]
REMARK SMILES IDX 7 1 8 2 9 3 10 4 11 5 12 6 13 7 14 8 6 9 5 10 4 11 3 12 2 13
REMARK SMILES IDX 1 14
REMARK H PARENT
REMARK Flexibility Score: inf
ROOT
ATOM      1  C   UNL     1     186.939 188.555 169.607  1.00  0.00     0.000 C 
ENDROOT
BRANCH   1   2
ATOM      2  C   UNL     1     188.304 188.336 170.270  1.00  0.00     0.000 C 
BRANCH   2   3
ATOM      3  C   UNL     1     188.265 187.140 171.229  1.00  0.00     0.000 C 
BRANCH   3   4
ATOM      4  C   UNL     1     189.681 186.661 171.568  1.00  0.00     0.006 C 
BRANCH   4   5
ATOM      5  C   UNL     1     189.705 185.148 171.809  1.00  0.00     0.053 C 
BRANCH   5   6
ATOM      6  C   UNL     1     189.552 184.848 173.268  1.00  0.00     0.041 C 
ATOM      7  O   UNL     1     188.953 183.806 173.641  1.00  0.00    -0.550 OA
ATOM      8  O   UNL     1     190.028 185.746 174.215  1.00  0.00    -0.550 OA
ENDBRANCH   5   6
ENDBRANCH   4   5
ENDBRANCH   3   4
ENDBRANCH   2   3
ENDBRANCH   1   2
BRANCH   1   9
ATOM      9  C   UNL     1     185.910 187.539 170.117  1.00  0.00     0.000 C 
BRANCH   9  10
ATOM     10  C   UNL     1     185.187 186.854 168.947  1.00  0.00    -0.000 C 
BRANCH  10  11
ATOM     11  C   UNL     1     186.160 186.258 167.917  1.00  0.00    -0.000 C 
BRANCH  11  12
ATOM     12  C   UNL     1     186.801 184.946 168.399  1.00  0.00    -0.000 C 
BRANCH  12  13
ATOM     13  C   UNL     1     188.333 184.960 168.277  1.00  0.00    -0.003 C 
ATOM     14  C   UNL     1     188.842 186.086 167.377  1.00  0.00     0.004 C 
ENDBRANCH  12  13
ENDBRANCH  11  12
ENDBRANCH  10  11
ENDBRANCH   9  10
ENDBRANCH   1   9
TORSDOF 10
ENDMDL
MODEL 2
REMARK VINA RESULT:    -3.560      0.997      2.673
REMARK INTER + INTRA:          -7.158
REMARK INTER:                  -5.567
REMARK INTRA:                  -1.591
REMARK UNBOUND:                -1.518
REMARK SMILES CCCCCCCCCCCC(=O)[O-]
REMARK SMILES IDX 7 1 8 2 9 3 10 4 11 5 12 6 13 7 14 8 6 9 5 10 4 11 3 12 2 13
REMARK SMILES IDX 1 14
REMARK H PARENT
REMARK Flexibility Score: inf
ROOT
ATOM      1  C   UNL     1     188.689 185.438 167.726  1.00  0.00     0.000 C 
ENDROOT
BRANCH   1   2
ATOM      2  C   UNL     1     189.852 185.479 168.723  1.00  0.00     0.000 C 
BRANCH   2   3
ATOM      3  C   UNL     1     189.401 185.022 170.116  1.00  0.00     0.000 C 
BRANCH   3   4
ATOM      4  C   UNL     1     189.523 186.162 171.134  1.00  0.00     0.006 C 
BRANCH   4   5
ATOM      5  C   UNL     1     188.569 185.948 172.314  1.00  0.00     0.053 C 
BRANCH   5   6
ATOM      6  C   UNL     1     189.259 185.212 173.418  1.00  0.00     0.041 C 
ATOM      7  O   UNL     1     189.026 183.989 173.608  1.00  0.00    -0.550 OA
ATOM      8  O   UNL     1     190.125 185.888 174.269  1.00  0.00    -0.550 OA
ENDBRANCH   5   6
ENDBRANCH   4   5
ENDBRANCH   3   4
ENDBRANCH   2   3
ENDBRANCH   1   2
BRANCH   1   9
ATOM      9  C   UNL     1     187.434 184.833 168.368  1.00  0.00     0.000 C 
BRANCH   9  10
ATOM     10  C   UNL     1     186.254 185.814 168.302  1.00  0.00    -0.000 C 
BRANCH  10  11
ATOM     11  C   UNL     1     185.942 186.456 169.663  1.00  0.00    -0.000 C 
BRANCH  11  12
ATOM     12  C   UNL     1     185.833 187.988 169.584  1.00  0.00    -0.000 C 
BRANCH  12  13
ATOM     13  C   UNL     1     187.072 188.698 170.152  1.00  0.00    -0.003 C 
ATOM     14  C   UNL     1     188.145 188.948 169.093  1.00  0.00     0.004 C 
ENDBRANCH  12  13
ENDBRANCH  11  12
ENDBRANCH  10  11
ENDBRANCH   9  10
ENDBRANCH   1   9
TORSDOF 10
ENDMDL
MODEL 3
REMARK VINA RESULT:    -3.558      1.158      1.396
REMARK INTER + INTRA:          -7.156
REMARK INTER:                  -5.714
REMARK INTRA:                  -1.441
REMARK UNBOUND:                -1.518
REMARK SMILES CCCCCCCCCCCC(=O)[O-]
REMARK SMILES IDX 7 1 8 2 9 3 10 4 11 5 12 6 13 7 14 8 6 9 5 10 4 11 3 12 2 13
REMARK SMILES IDX 1 14
REMARK H PARENT
REMARK Flexibility Score: inf
ROOT
ATOM      1  C   UNL     1     187.030 188.369 170.127  1.00  0.00     0.000 C 
ENDROOT
BRANCH   1   2
ATOM      2  C   UNL     1     188.289 187.766 170.759  1.00  0.00     0.000 C 
BRANCH   2   3
ATOM      3  C   UNL     1     187.954 186.496 171.551  1.00  0.00     0.000 C 
BRANCH   3   4
ATOM      4  C   UNL     1     189.192 185.605 171.712  1.00  0.00     0.006 C 
BRANCH   4   5
ATOM      5  C   UNL     1     189.508 185.368 173.192  1.00  0.00     0.053 C 
BRANCH   5   6
ATOM      6  C   UNL     1     190.607 186.277 173.644  1.00  0.00     0.041 C 
ATOM      7  O   UNL     1     190.743 186.548 174.866  1.00  0.00    -0.550 OA
ATOM      8  O   UNL     1     191.451 186.865 172.710  1.00  0.00    -0.550 OA
ENDBRANCH   5   6
ENDBRANCH   4   5
ENDBRANCH   3   4
ENDBRANCH   2   3
ENDBRANCH   1   2
BRANCH   1   9
ATOM      9  C   UNL     1     185.785 187.553 170.493  1.00  0.00     0.000 C 
BRANCH   9  10
ATOM     10  C   UNL     1     184.993 187.163 169.236  1.00  0.00    -0.000 C 
BRANCH  10  11
ATOM     11  C   UNL     1     185.886 186.571 168.134  1.00  0.00    -0.000 C 
BRANCH  11  12
ATOM     12  C   UNL     1     186.275 185.109 168.409  1.00  0.00    -0.000 C 
BRANCH  12  13
ATOM     13  C   UNL     1     187.788 184.869 168.288  1.00  0.00    -0.003 C 
ATOM     14  C   UNL     1     188.493 185.953 167.472  1.00  0.00     0.004 C 
ENDBRANCH  12  13
ENDBRANCH  11  12
ENDBRANCH  10  11
ENDBRANCH   9  10
ENDBRANCH   1   9
TORSDOF 10
ENDMDL
MODEL 4
REMARK VINA RESULT:    -3.517      0.928      1.800
REMARK INTER + INTRA:          -7.091
REMARK INTER:                  -5.482
REMARK INTRA:                  -1.609
REMARK UNBOUND:                -1.518
REMARK SMILES CCCCCCCCCCCC(=O)[O-]
REMARK SMILES IDX 7 1 8 2 9 3 10 4 11 5 12 6 13 7 14 8 6 9 5 10 4 11 3 12 2 13
REMARK SMILES IDX 1 14
REMARK H PARENT
REMARK Flexibility Score: inf
ROOT
ATOM      1  C   UNL     1     185.768 186.949 169.814  1.00  0.00     0.000 C 
ENDROOT
BRANCH   1   2
ATOM      2  C   UNL     1     186.741 188.133 169.812  1.00  0.00     0.000 C 
BRANCH   2   3
ATOM      3  C   UNL     1     187.955 187.850 170.706  1.00  0.00     0.000 C 
BRANCH   3   4
ATOM      4  C   UNL     1     187.792 186.518 171.447  1.00  0.00     0.006 C 
BRANCH   4   5
ATOM      5  C   UNL     1     189.156 185.924 171.813  1.00  0.00     0.053 C 
BRANCH   5   6
ATOM      6  C   UNL     1     189.154 185.443 173.230  1.00  0.00     0.041 C 
ATOM      7  O   UNL     1     190.239 185.303 173.854  1.00  0.00    -0.550 OA
ATOM      8  O   UNL     1     187.956 185.102 173.846  1.00  0.00    -0.550 OA
ENDBRANCH   5   6
ENDBRANCH   4   5
ENDBRANCH   3   4
ENDBRANCH   2   3
ENDBRANCH   1   2
BRANCH   1   9
ATOM      9  C   UNL     1     185.613 186.361 168.406  1.00  0.00     0.000 C 
BRANCH   9  10
ATOM     10  C   UNL     1     186.355 185.022 168.283  1.00  0.00    -0.000 C 
BRANCH  10  11
ATOM     11  C   UNL     1     187.602 185.117 167.389  1.00  0.00    -0.000 C 
BRANCH  11  12
ATOM     12  C   UNL     1     188.910 185.131 168.197  1.00  0.00    -0.000 C 
BRANCH  12  13
ATOM     13  C   UNL     1     189.860 186.258 167.761  1.00  0.00    -0.003 C 
ATOM     14  C   UNL     1     189.123 187.432 167.116  1.00  0.00     0.004 C 
ENDBRANCH  12  13
ENDBRANCH  11  12
ENDBRANCH  10  11
ENDBRANCH   9  10
ENDBRANCH   1   9
TORSDOF 10
ENDMDL
MODEL 5
REMARK VINA RESULT:    -3.490      1.074      2.133
REMARK INTER + INTRA:          -7.048
REMARK INTER:                  -5.455
REMARK INTRA:                  -1.593
REMARK UNBOUND:                -1.518
REMARK SMILES CCCCCCCCCCCC(=O)[O-]
REMARK SMILES IDX 7 1 8 2 9 3 10 4 11 5 12 6 13 7 14 8 6 9 5 10 4 11 3 12 2 13
REMARK SMILES IDX 1 14
REMARK H PARENT
REMARK Flexibility Score: inf
ROOT
ATOM      1  C   UNL     1     189.751 188.799 169.455  1.00  0.00     0.000 C 
ENDROOT
BRANCH   1   2
ATOM      2  C   UNL     1     190.015 187.746 170.537  1.00  0.00     0.000 C 
BRANCH   2   3
ATOM      3  C   UNL     1     190.058 186.336 169.934  1.00  0.00     0.000 C 
BRANCH   3   4
ATOM      4  C   UNL     1     189.364 185.324 170.853  1.00  0.00     0.006 C 
BRANCH   4   5
ATOM      5  C   UNL     1     188.852 186.002 172.128  1.00  0.00     0.053 C 
BRANCH   5   6
ATOM      6  C   UNL     1     189.389 185.308 173.340  1.00  0.00     0.041 C 
ATOM      7  O   UNL     1     189.098 184.102 173.561  1.00  0.00    -0.550 OA
ATOM      8  O   UNL     1     190.170 186.006 174.252  1.00  0.00    -0.550 OA
ENDBRANCH   5   6
ENDBRANCH   4   5
ENDBRANCH   3   4
ENDBRANCH   2   3
ENDBRANCH   1   2
BRANCH   1   9
ATOM      9  C   UNL     1     188.289 188.759 168.992  1.00  0.00     0.000 C 
BRANCH   9  10
ATOM     10  C   UNL     1     187.331 188.884 170.186  1.00  0.00    -0.000 C 
BRANCH  10  11
ATOM     11  C   UNL     1     186.206 187.837 170.153  1.00  0.00    -0.000 C 
BRANCH  11  12
ATOM     12  C   UNL     1     186.029 187.202 168.763  1.00  0.00    -0.000 C 
BRANCH  12  13
ATOM     13  C   UNL     1     186.031 185.666 168.813  1.00  0.00    -0.003 C 
ATOM     14  C   UNL     1     187.131 185.050 167.949  1.00  0.00     0.004 C 
ENDBRANCH  12  13
ENDBRANCH  11  12
ENDBRANCH  10  11
ENDBRANCH   9  10
ENDBRANCH   1   9
TORSDOF 10
ENDMDL
MODEL 6
REMARK VINA RESULT:    -3.483      3.329      5.423
REMARK INTER + INTRA:          -7.037
REMARK INTER:                  -5.423
REMARK INTRA:                  -1.614
REMARK UNBOUND:                -1.518
REMARK SMILES CCCCCCCCCCCC(=O)[O-]
REMARK SMILES IDX 7 1 8 2 9 3 10 4 11 5 12 6 13 7 14 8 6 9 5 10 4 11 3 12 2 13
REMARK SMILES IDX 1 14
REMARK H PARENT
REMARK Flexibility Score: inf
ROOT
ATOM      1  C   UNL     1     188.522 185.399 167.390  1.00  0.00     0.000 C 
ENDROOT
BRANCH   1   2
ATOM      2  C   UNL     1     187.195 184.939 168.002  1.00  0.00     0.000 C 
BRANCH   2   3
ATOM      3  C   UNL     1     186.144 186.055 167.939  1.00  0.00     0.000 C 
BRANCH   3   4
ATOM      4  C   UNL     1     185.579 186.357 169.333  1.00  0.00     0.006 C 
BRANCH   4   5
ATOM      5  C   UNL     1     185.078 187.802 169.420  1.00  0.00     0.053 C 
BRANCH   5   6
ATOM      6  C   UNL     1     183.585 187.834 169.519  1.00  0.00     0.041 C 
ATOM      7  O   UNL     1     182.892 188.196 168.532  1.00  0.00    -0.550 OA
ATOM      8  O   UNL     1     182.962 187.508 170.717  1.00  0.00    -0.550 OA
ENDBRANCH   5   6
ENDBRANCH   4   5
ENDBRANCH   3   4
ENDBRANCH   2   3
ENDBRANCH   1   2
BRANCH   1   9
ATOM      9  C   UNL     1     188.497 186.902 167.085  1.00  0.00     0.000 C 
BRANCH   9  10
ATOM     10  C   UNL     1     189.393 187.677 168.064  1.00  0.00    -0.000 C 
BRANCH  10  11
ATOM     11  C   UNL     1     188.610 188.704 168.896  1.00  0.00    -0.000 C 
BRANCH  11  12
ATOM     12  C   UNL     1     188.656 188.403 170.404  1.00  0.00    -0.000 C 
BRANCH  12  13
ATOM     13  C   UNL     1     189.111 186.965 170.704  1.00  0.00    -0.003 C 
ATOM     14  C   UNL     1     188.241 186.280 171.757  1.00  0.00     0.004 C 
ENDBRANCH  12  13
ENDBRANCH  11  12
ENDBRANCH  10  11
ENDBRANCH   9  10
ENDBRANCH   1   9
TORSDOF 10
ENDMDL
MODEL 7
REMARK VINA RESULT:    -3.475      1.309      2.897
REMARK INTER + INTRA:          -7.024
REMARK INTER:                  -5.633
REMARK INTRA:                  -1.391
REMARK UNBOUND:                -1.518
REMARK SMILES CCCCCCCCCCCC(=O)[O-]
REMARK SMILES IDX 7 1 8 2 9 3 10 4 11 5 12 6 13 7 14 8 6 9 5 10 4 11 3 12 2 13
REMARK SMILES IDX 1 14
REMARK H PARENT
REMARK Flexibility Score: inf
ROOT
ATOM      1  C   UNL     1     189.178 187.181 168.161  1.00  0.00     0.000 C 
ENDROOT
BRANCH   1   2
ATOM      2  C   UNL     1     188.802 188.577 168.669  1.00  0.00     0.000 C 
BRANCH   2   3
ATOM      3  C   UNL     1     188.298 188.519 170.117  1.00  0.00     0.000 C 
BRANCH   3   4
ATOM      4  C   UNL     1     189.000 187.402 170.899  1.00  0.00     0.006 C 
BRANCH   4   5
ATOM      5  C   UNL     1     187.982 186.522 171.631  1.00  0.00     0.053 C 
BRANCH   5   6
ATOM      6  C   UNL     1     188.680 185.546 172.524  1.00  0.00     0.041 C 
ATOM      7  O   UNL     1     188.315 185.409 173.721  1.00  0.00    -0.550 OA
ATOM      8  O   UNL     1     189.767 184.823 172.048  1.00  0.00    -0.550 OA
ENDBRANCH   5   6
ENDBRANCH   4   5
ENDBRANCH   3   4
ENDBRANCH   2   3
ENDBRANCH   1   2
BRANCH   1   9
ATOM      9  C   UNL     1     188.027 186.557 167.362  1.00  0.00     0.000 C 
BRANCH   9  10
ATOM     10  C   UNL     1     187.473 185.314 168.074  1.00  0.00    -0.000 C 
BRANCH  10  11
ATOM     11  C   UNL     1     186.058 185.535 168.633  1.00  0.00    -0.000 C 
BRANCH  11  12
ATOM     12  C   UNL     1     185.473 186.902 168.241  1.00  0.00    -0.000 C 
BRANCH  12  13
ATOM     13  C   UNL     1     184.793 187.613 169.422  1.00  0.00    -0.003 C 
ATOM     14  C   UNL     1     183.366 188.055 169.101  1.00  0.00     0.004 C 
ENDBRANCH  12  13
ENDBRANCH  11  12
ENDBRANCH  10  11
ENDBRANCH   9  10
ENDBRANCH   1   9
TORSDOF 10
ENDMDL
MODEL 8
REMARK VINA RESULT:    -3.392      3.178      5.485
REMARK INTER + INTRA:          -6.892
REMARK INTER:                  -5.704
REMARK INTRA:                  -1.188
REMARK UNBOUND:                -1.518
REMARK SMILES CCCCCCCCCCCC(=O)[O-]
REMARK SMILES IDX 7 1 8 2 9 3 10 4 11 5 12 6 13 7 14 8 6 9 5 10 4 11 3 12 2 13
REMARK SMILES IDX 1 14
REMARK H PARENT
REMARK Flexibility Score: inf
ROOT
ATOM      1  C   UNL     1     188.525 185.060 169.406  1.00  0.00     0.000 C 
ENDROOT
BRANCH   1   2
ATOM      2  C   UNL     1     187.619 185.165 168.174  1.00  0.00     0.000 C 
BRANCH   2   3
ATOM      3  C   UNL     1     186.157 185.383 168.583  1.00  0.00     0.000 C 
BRANCH   3   4
ATOM      4  C   UNL     1     185.704 186.813 168.261  1.00  0.00     0.006 C 
BRANCH   4   5
ATOM      5  C   UNL     1     185.375 187.585 169.543  1.00  0.00     0.053 C 
BRANCH   5   6
ATOM      6  C   UNL     1     183.896 187.619 169.768  1.00  0.00     0.041 C 
ATOM      7  O   UNL     1     183.129 188.065 168.875  1.00  0.00    -0.550 OA
ATOM      8  O   UNL     1     183.368 187.203 170.984  1.00  0.00    -0.550 OA
ENDBRANCH   5   6
ENDBRANCH   4   5
ENDBRANCH   3   4
ENDBRANCH   2   3
ENDBRANCH   1   2
BRANCH   1   9
ATOM      9  C   UNL     1     189.264 186.379 169.660  1.00  0.00     0.000 C 
BRANCH   9  10
ATOM     10  C   UNL     1     188.800 187.026 170.974  1.00  0.00    -0.000 C 
BRANCH  10  11
ATOM     11  C   UNL     1     187.945 186.077 171.831  1.00  0.00    -0.000 C 
BRANCH  11  12
ATOM     12  C   UNL     1     188.664 185.631 173.115  1.00  0.00    -0.000 C 
BRANCH  12  13
ATOM     13  C   UNL     1     189.679 184.505 172.861  1.00  0.00    -0.003 C 
ATOM     14  C   UNL     1     191.123 184.952 173.085  1.00  0.00     0.004 C 
ENDBRANCH  12  13
ENDBRANCH  11  12
ENDBRANCH  10  11
ENDBRANCH   9  10
ENDBRANCH   1   9
TORSDOF 10
ENDMDL
MODEL 9
REMARK VINA RESULT:    -3.377      3.649      5.723
REMARK INTER + INTRA:          -6.869
REMARK INTER:                  -5.554
REMARK INTRA:                  -1.315
REMARK UNBOUND:                -1.518
REMARK SMILES CCCCCCCCCCCC(=O)[O-]
REMARK SMILES IDX 7 1 8 2 9 3 10 4 11 5 12 6 13 7 14 8 6 9 5 10 4 11 3 12 2 13
REMARK SMILES IDX 1 14
REMARK H PARENT
REMARK Flexibility Score: inf
ROOT
ATOM      1  C   UNL     1     186.680 185.038 167.923  1.00  0.00     0.000 C 
ENDROOT
BRANCH   1   2
ATOM      2  C   UNL     1     186.012 186.416 167.981  1.00  0.00     0.000 C 
BRANCH   2   3
ATOM      3  C   UNL     1     185.210 186.584 169.278  1.00  0.00     0.000 C 
BRANCH   3   4
ATOM      4  C   UNL     1     184.609 187.992 169.374  1.00  0.00     0.006 C 
BRANCH   4   5
ATOM      5  C   UNL     1     183.132 187.986 168.968  1.00  0.00     0.053 C 
BRANCH   5   6
ATOM      6  C   UNL     1     182.257 188.118 170.175  1.00  0.00     0.041 C 
ATOM      7  O   UNL     1     182.004 187.112 170.887  1.00  0.00    -0.550 OA
ATOM      8  O   UNL     1     181.681 189.344 170.485  1.00  0.00    -0.550 OA
ENDBRANCH   5   6
ENDBRANCH   4   5
ENDBRANCH   3   4
ENDBRANCH   2   3
ENDBRANCH   1   2
BRANCH   1   9
ATOM      9  C   UNL     1     188.209 185.165 167.941  1.00  0.00     0.000 C 
BRANCH   9  10
ATOM     10  C   UNL     1     188.755 185.023 169.370  1.00  0.00    -0.000 C 
BRANCH  10  11
ATOM     11  C   UNL     1     189.390 186.321 169.893  1.00  0.00    -0.000 C 
BRANCH  11  12
ATOM     12  C   UNL     1     188.496 187.048 170.912  1.00  0.00    -0.000 C 
BRANCH  12  13
ATOM     13  C   UNL     1     188.143 188.477 170.471  1.00  0.00    -0.003 C 
ATOM     14  C   UNL     1     188.618 188.791 169.053  1.00  0.00     0.004 C 
ENDBRANCH  12  13
ENDBRANCH  11  12
ENDBRANCH  10  11
ENDBRANCH   9  10
ENDBRANCH   1   9
TORSDOF 10
ENDMDL
