MODEL 1
REMARK VINA RESULT:    -3.036      0.000      0.000
REMARK INTER + INTRA:          -4.356
REMARK INTER:                  -3.924
REMARK INTRA:                  -0.432
REMARK UNBOUND:                -0.432
REMARK SMILES CCCCCCC(=O)[O-]
REMARK SMILES IDX 5 1 6 2 7 3 8 4 9 5 4 6 3 7 2 8 1 9
REMARK H PARENT
REMARK Flexibility Score: inf
ROOT
ATOM      1  C   UNL     1      22.000   1.692  26.820  1.00  0.00     0.006 C 
ENDROOT
BRANCH   1   2
ATOM      2  C   UNL     1      22.252   3.022  27.542  1.00  0.00     0.053 C 
BRANCH   2   3
ATOM      3  C   UNL     1      23.278   3.828  26.808  1.00  0.00     0.041 C 
ATOM      4  O   UNL     1      24.075   3.265  26.014  1.00  0.00    -0.550 OA
ATOM      5  O   UNL     1      23.321   5.207  26.966  1.00  0.00    -0.550 OA
ENDBRANCH   2   3
ENDBRANCH   1   2
BRANCH   1   6
ATOM      6  C   UNL     1      20.804   1.758  25.857  1.00  0.00     0.000 C 
BRANCH   6   7
ATOM      7  C   UNL     1      21.166   1.314  24.432  1.00  0.00    -0.000 C 
BRANCH   7   8
ATOM      8  C   UNL     1      21.640   2.504  23.590  1.00  0.00    -0.003 C 
ATOM      9  C   UNL     1      20.908   3.784  23.983  1.00  0.00     0.004 C 
ENDBRANCH   7   8
ENDBRANCH   6   7
ENDBRANCH   1   6
TORSDOF 5
ENDMDL
MODEL 2
REMARK VINA RESULT:    -3.021      3.708      4.666
REMARK INTER + INTRA:          -4.336
REMARK INTER:                  -4.157
REMARK INTRA:                  -0.179
REMARK UNBOUND:                -0.432
REMARK SMILES CCCCCCC(=O)[O-]
REMARK SMILES IDX 5 1 6 2 7 3 8 4 9 5 4 6 3 7 2 8 1 9
REMARK H PARENT
REMARK Flexibility Score: inf
ROOT
ATOM      1  C   UNL     1      19.304   4.902  24.584  1.00  0.00     0.006 C 
ENDROOT
BRANCH   1   2
ATOM      2  C   UNL     1      20.191   6.046  24.074  1.00  0.00     0.053 C 
BRANCH   2   3
ATOM      3  C   UNL     1      19.350   7.211  23.656  1.00  0.00     0.041 C 
ATOM      4  O   UNL     1      19.877   8.197  23.078  1.00  0.00    -0.550 OA
ATOM      5  O   UNL     1      17.977   7.186  23.861  1.00  0.00    -0.550 OA
ENDBRANCH   2   3
ENDBRANCH   1   2
BRANCH   1   6
ATOM      6  C   UNL     1      20.061   3.569  24.693  1.00  0.00     0.000 C 
BRANCH   6   7
ATOM      7  C   UNL     1      21.334   3.540  23.833  1.00  0.00    -0.000 C 
BRANCH   7   8
ATOM      8  C   UNL     1      22.061   2.198  23.974  1.00  0.00    -0.003 C 
ATOM      9  C   UNL     1      21.076   1.063  24.241  1.00  0.00     0.004 C 
ENDBRANCH   7   8
ENDBRANCH   6   7
ENDBRANCH   1   6
TORSDOF 5
ENDMDL
MODEL 3
REMARK VINA RESULT:    -3.006      2.220      3.796
REMARK INTER + INTRA:          -4.317
REMARK INTER:                  -3.902
REMARK INTRA:                  -0.414
REMARK UNBOUND:                -0.432
REMARK SMILES CCCCCCC(=O)[O-]
REMARK SMILES IDX 5 1 6 2 7 3 8 4 9 5 4 6 3 7 2 8 1 9
REMARK H PARENT
REMARK Flexibility Score: inf
ROOT
ATOM      1  C   UNL     1      20.781   4.453  24.418  1.00  0.00     0.006 C 
ENDROOT
BRANCH   1   2
ATOM      2  C   UNL     1      21.455   3.335  23.612  1.00  0.00     0.053 C 
BRANCH   2   3
ATOM      3  C   UNL     1      21.881   2.224  24.518  1.00  0.00     0.041 C 
ATOM      4  O   UNL     1      22.592   2.467  25.528  1.00  0.00    -0.550 OA
ATOM      5  O   UNL     1      21.453   0.925  24.274  1.00  0.00    -0.550 OA
ENDBRANCH   2   3
ENDBRANCH   1   2
BRANCH   1   6
ATOM      6  C   UNL     1      19.291   4.180  24.677  1.00  0.00     0.000 C 
BRANCH   6   7
ATOM      7  C   UNL     1      19.018   3.700  26.111  1.00  0.00    -0.000 C 
BRANCH   7   8
ATOM      8  C   UNL     1      18.543   2.243  26.120  1.00  0.00    -0.003 C 
ATOM      9  C   UNL     1      19.334   1.411  27.125  1.00  0.00     0.004 C 
ENDBRANCH   7   8
ENDBRANCH   6   7
ENDBRANCH   1   6
TORSDOF 5
ENDMDL
MODEL 4
REMARK VINA RESULT:    -2.982      1.226      1.888
REMARK INTER + INTRA:          -4.285
REMARK INTER:                  -4.060
REMARK INTRA:                  -0.225
REMARK UNBOUND:                -0.432
REMARK SMILES CCCCCCC(=O)[O-]
REMARK SMILES IDX 5 1 6 2 7 3 8 4 9 5 4 6 3 7 2 8 1 9
REMARK H PARENT
REMARK Flexibility Score: inf
ROOT
ATOM      1  C   UNL     1      23.044   2.933  24.639  1.00  0.00     0.006 C 
ENDROOT
BRANCH   1   2
ATOM      2  C   UNL     1      23.130   3.095  26.162  1.00  0.00     0.053 C 
BRANCH   2   3
ATOM      3  C   UNL     1      24.308   3.940  26.531  1.00  0.00     0.041 C 
ATOM      4  O   UNL     1      25.477   3.508  26.353  1.00  0.00    -0.550 OA
ATOM      5  O   UNL     1      24.115   5.224  27.025  1.00  0.00    -0.550 OA
ENDBRANCH   2   3
ENDBRANCH   1   2
BRANCH   1   6
ATOM      6  C   UNL     1      21.596   2.812  24.137  1.00  0.00     0.000 C 
BRANCH   6   7
ATOM      7  C   UNL     1      20.965   1.452  24.473  1.00  0.00    -0.000 C 
BRANCH   7   8
ATOM      8  C   UNL     1      19.877   1.601  25.541  1.00  0.00    -0.003 C 
ATOM      9  C   UNL     1      19.305   3.016  25.552  1.00  0.00     0.004 C 
ENDBRANCH   7   8
ENDBRANCH   6   7
ENDBRANCH   1   6
TORSDOF 5
ENDMDL
MODEL 5
REMARK VINA RESULT:    -2.958      2.520      3.820
REMARK INTER + INTRA:          -4.255
REMARK INTER:                  -4.051
REMARK INTRA:                  -0.204
REMARK UNBOUND:                -0.432
REMARK SMILES CCCCCCC(=O)[O-]
REMARK SMILES IDX 5 1 6 2 7 3 8 4 9 5 4 6 3 7 2 8 1 9
REMARK H PARENT
REMARK Flexibility Score: inf
ROOT
ATOM      1  C   UNL     1      21.386   3.658  23.642  1.00  0.00     0.006 C 
ENDROOT
BRANCH   1   2
ATOM      2  C   UNL     1      22.352   2.652  24.283  1.00  0.00     0.053 C 
BRANCH   2   3
ATOM      3  C   UNL     1      21.591   1.522  24.901  1.00  0.00     0.041 C 
ATOM      4  O   UNL     1      20.953   0.716  24.175  1.00  0.00    -0.550 OA
ATOM      5  O   UNL     1      21.628   1.331  26.276  1.00  0.00    -0.550 OA
ENDBRANCH   2   3
ENDBRANCH   1   2
BRANCH   1   6
ATOM      6  C   UNL     1      20.768   4.621  24.669  1.00  0.00     0.000 C 
BRANCH   6   7
ATOM      7  C   UNL     1      19.233   4.654  24.598  1.00  0.00    -0.000 C 
BRANCH   7   8
ATOM      8  C   UNL     1      18.740   5.978  24.005  1.00  0.00    -0.003 C 
ATOM      9  C   UNL     1      19.885   6.978  23.860  1.00  0.00     0.004 C 
ENDBRANCH   7   8
ENDBRANCH   6   7
ENDBRANCH   1   6
TORSDOF 5
ENDMDL
MODEL 6
REMARK VINA RESULT:    -2.950      1.045      1.627
REMARK INTER + INTRA:          -4.245
REMARK INTER:                  -3.946
REMARK INTRA:                  -0.299
REMARK UNBOUND:                -0.432
REMARK SMILES CCCCCCC(=O)[O-]
REMARK SMILES IDX 5 1 6 2 7 3 8 4 9 5 4 6 3 7 2 8 1 9
REMARK H PARENT
REMARK Flexibility Score: inf
ROOT
ATOM      1  C   UNL     1      21.818   3.791  26.940  1.00  0.00     0.006 C 
ENDROOT
BRANCH   1   2
ATOM      2  C   UNL     1      23.139   3.014  27.009  1.00  0.00     0.053 C 
BRANCH   2   3
ATOM      3  C   UNL     1      24.295   3.927  26.746  1.00  0.00     0.041 C 
ATOM      4  O   UNL     1      25.379   3.464  26.305  1.00  0.00    -0.550 OA
ATOM      5  O   UNL     1      24.158   5.295  26.941  1.00  0.00    -0.550 OA
ENDBRANCH   2   3
ENDBRANCH   1   2
BRANCH   1   6
ATOM      6  C   UNL     1      20.823   3.179  25.942  1.00  0.00     0.000 C 
BRANCH   6   7
ATOM      7  C   UNL     1      21.090   3.619  24.494  1.00  0.00    -0.000 C 
BRANCH   7   8
ATOM      8  C   UNL     1      21.565   2.439  23.641  1.00  0.00    -0.003 C 
ATOM      9  C   UNL     1      21.217   1.106  24.299  1.00  0.00     0.004 C 
ENDBRANCH   7   8
ENDBRANCH   6   7
ENDBRANCH   1   6
TORSDOF 5
ENDMDL
MODEL 7
REMARK VINA RESULT:    -2.926      3.139      4.359
REMARK INTER + INTRA:          -4.214
REMARK INTER:                  -3.994
REMARK INTRA:                  -0.220
REMARK UNBOUND:                -0.432
REMARK SMILES CCCCCCC(=O)[O-]
REMARK SMILES IDX 5 1 6 2 7 3 8 4 9 5 4 6 3 7 2 8 1 9
REMARK H PARENT
REMARK Flexibility Score: inf
ROOT
ATOM      1  C   UNL     1      20.892   4.566  23.963  1.00  0.00     0.006 C 
ENDROOT
BRANCH   1   2
ATOM      2  C   UNL     1      19.475   4.873  24.466  1.00  0.00     0.053 C 
BRANCH   2   3
ATOM      3  C   UNL     1      18.979   6.155  23.875  1.00  0.00     0.041 C 
ATOM      4  O   UNL     1      17.744   6.343  23.718  1.00  0.00    -0.550 OA
ATOM      5  O   UNL     1      19.877   7.161  23.544  1.00  0.00    -0.550 OA
ENDBRANCH   2   3
ENDBRANCH   1   2
BRANCH   1   6
ATOM      6  C   UNL     1      21.583   3.462  24.778  1.00  0.00     0.000 C 
BRANCH   6   7
ATOM      7  C   UNL     1      21.939   2.233  23.927  1.00  0.00    -0.000 C 
BRANCH   7   8
ATOM      8  C   UNL     1      21.011   1.057  24.247  1.00  0.00    -0.003 C 
ATOM      9  C   UNL     1      20.167   1.341  25.487  1.00  0.00     0.004 C 
ENDBRANCH   7   8
ENDBRANCH   6   7
ENDBRANCH   1   6
TORSDOF 5
ENDMDL
MODEL 8
REMARK VINA RESULT:    -2.900      2.193      3.148
REMARK INTER + INTRA:          -4.180
REMARK INTER:                  -3.770
REMARK INTRA:                  -0.411
REMARK UNBOUND:                -0.432
REMARK SMILES CCCCCCC(=O)[O-]
REMARK SMILES IDX 5 1 6 2 7 3 8 4 9 5 4 6 3 7 2 8 1 9
REMARK H PARENT
REMARK Flexibility Score: inf
ROOT
ATOM      1  C   UNL     1      19.086   3.432  26.109  1.00  0.00     0.006 C 
ENDROOT
BRANCH   1   2
ATOM      2  C   UNL     1      19.116   4.247  24.810  1.00  0.00     0.053 C 
BRANCH   2   3
ATOM      3  C   UNL     1      20.283   5.183  24.808  1.00  0.00     0.041 C 
ATOM      4  O   UNL     1      20.328   6.138  23.990  1.00  0.00    -0.550 OA
ATOM      5  O   UNL     1      21.299   5.028  25.742  1.00  0.00    -0.550 OA
ENDBRANCH   2   3
ENDBRANCH   1   2
BRANCH   1   6
ATOM      6  C   UNL     1      19.251   1.923  25.865  1.00  0.00     0.000 C 
BRANCH   6   7
ATOM      7  C   UNL     1      20.724   1.487  25.824  1.00  0.00    -0.000 C 
BRANCH   7   8
ATOM      8  C   UNL     1      21.138   1.089  24.403  1.00  0.00    -0.003 C 
ATOM      9  C   UNL     1      22.056   2.139  23.782  1.00  0.00     0.004 C 
ENDBRANCH   7   8
ENDBRANCH   6   7
ENDBRANCH   1   6
TORSDOF 5
ENDMDL
MODEL 9
REMARK VINA RESULT:    -2.856      2.285      3.126
REMARK INTER + INTRA:          -4.123
REMARK INTER:                  -3.889
REMARK INTRA:                  -0.234
REMARK UNBOUND:                -0.432
REMARK SMILES CCCCCCC(=O)[O-]
REMARK SMILES IDX 5 1 6 2 7 3 8 4 9 5 4 6 3 7 2 8 1 9
REMARK H PARENT
REMARK Flexibility Score: inf
ROOT
ATOM      1  C   UNL     1      20.986   1.373  24.659  1.00  0.00     0.006 C 
ENDROOT
BRANCH   1   2
ATOM      2  C   UNL     1      21.729   1.409  26.001  1.00  0.00     0.053 C 
BRANCH   2   3
ATOM      3  C   UNL     1      20.791   1.778  27.106  1.00  0.00     0.041 C 
ATOM      4  O   UNL     1      21.082   2.712  27.898  1.00  0.00    -0.550 OA
ATOM      5  O   UNL     1      19.573   1.123  27.231  1.00  0.00    -0.550 OA
ENDBRANCH   2   3
ENDBRANCH   1   2
BRANCH   1   6
ATOM      6  C   UNL     1      21.618   2.300  23.608  1.00  0.00     0.000 C 
BRANCH   6   7
ATOM      7  C   UNL     1      21.628   3.772  24.048  1.00  0.00    -0.000 C 
BRANCH   7   8
ATOM      8  C   UNL     1      20.203   4.286  24.276  1.00  0.00    -0.003 C 
ATOM      9  C   UNL     1      20.131   5.802  24.118  1.00  0.00     0.004 C 
ENDBRANCH   7   8
ENDBRANCH   6   7
ENDBRANCH   1   6
TORSDOF 5
ENDMDL
