MODEL 1
REMARK VINA RESULT:    -7.495      0.000      0.000
REMARK INTER + INTRA:          -8.152
REMARK INTER:                  -8.152
REMARK INTRA:                   0.000
REMARK UNBOUND:                 0.000
REMARK SMILES Cc1cc(O)c2c(c1)C(=O)c1cc(O)cc(O)c1C2=O
REMARK SMILES IDX 1 1 2 2 8 3 7 4 6 5 4 6 3 7 19 8 20 9 18 10 11 11 9 12 10 13
REMARK SMILES IDX 12 14 13 15 15 16 16 17 5 18 17 20 14 22
REMARK H PARENT 5 19 17 21 14 23
REMARK Flexibility Score: inf
ROOT
ATOM      1  C   UNL     1      42.020   6.123   0.693  1.00  0.00     0.044 C 
ATOM      2  C   UNL     1      41.067   5.543  -0.310  1.00  0.00    -0.047 A 
ATOM      3  C   UNL     1      39.689   5.730  -0.161  1.00  0.00     0.016 A 
ATOM      4  C   UNL     1      38.785   5.153  -1.070  1.00  0.00     0.038 A 
ATOM      5  C   UNL     1      39.268   4.356  -2.132  1.00  0.00     0.076 A 
ATOM      6  C   UNL     1      40.669   4.208  -2.305  1.00  0.00     0.127 A 
ATOM      7  C   UNL     1      41.547   4.774  -1.375  1.00  0.00     0.050 A 
ATOM      8  C   UNL     1      38.279   3.645  -2.983  1.00  0.00     0.201 C 
ATOM      9  O   UNL     1      38.586   2.545  -3.516  1.00  0.00    -0.288 OA
ATOM     10  C   UNL     1      36.877   4.132  -3.048  1.00  0.00     0.076 A 
ATOM     11  C   UNL     1      36.397   4.930  -1.984  1.00  0.00     0.041 A 
ATOM     12  C   UNL     1      37.328   5.382  -0.923  1.00  0.00     0.194 C 
ATOM     13  O   UNL     1      36.883   5.984   0.093  1.00  0.00    -0.289 OA
ATOM     14  C   UNL     1      35.041   5.295  -1.941  1.00  0.00     0.059 A 
ATOM     15  C   UNL     1      34.165   4.888  -2.950  1.00  0.00     0.120 A 
ATOM     16  C   UNL     1      34.642   4.135  -4.021  1.00  0.00     0.093 A 
ATOM     17  C   UNL     1      35.992   3.776  -4.098  1.00  0.00     0.131 A 
ENDROOT
BRANCH   6  18
ATOM     18  O   UNL     1      41.230   3.540  -3.396  1.00  0.00    -0.507 OA
ATOM     19  H   UNL     1      42.134   3.088  -3.368  1.00  0.00     0.293 HD
ENDBRANCH   6  18
BRANCH  17  20
ATOM     20  O   UNL     1      36.414   3.100  -5.246  1.00  0.00    -0.507 OA
ATOM     21  H   UNL     1      36.541   2.097  -5.289  1.00  0.00     0.293 HD
ENDBRANCH  17  20
BRANCH  15  22
ATOM     22  O   UNL     1      32.817   5.237  -2.903  1.00  0.00    -0.508 OA
ATOM     23  H   UNL     1      32.085   4.552  -3.054  1.00  0.00     0.293 HD
ENDBRANCH  15  22
TORSDOF 3
ENDMDL
MODEL 2
REMARK VINA RESULT:    -6.445      7.245      8.536
REMARK INTER + INTRA:          -7.010
REMARK INTER:                  -7.010
REMARK INTRA:                   0.000
REMARK UNBOUND:                 0.000
REMARK SMILES Cc1cc(O)c2c(c1)C(=O)c1cc(O)cc(O)c1C2=O
REMARK SMILES IDX 1 1 2 2 8 3 7 4 6 5 4 6 3 7 19 8 20 9 18 10 11 11 9 12 10 13
REMARK SMILES IDX 12 14 13 15 15 16 16 17 5 18 17 20 14 22
REMARK H PARENT 5 19 17 21 14 23
REMARK Flexibility Score: inf
ROOT
ATOM      1  C   UNL     1      39.963  -3.443   1.804  1.00  0.00     0.044 C 
ATOM      2  C   UNL     1      38.993  -3.582   0.668  1.00  0.00    -0.047 A 
ATOM      3  C   UNL     1      39.149  -2.812  -0.490  1.00  0.00     0.016 A 
ATOM      4  C   UNL     1      38.221  -2.902  -1.542  1.00  0.00     0.038 A 
ATOM      5  C   UNL     1      37.104  -3.758  -1.422  1.00  0.00     0.076 A 
ATOM      6  C   UNL     1      36.975  -4.572  -0.266  1.00  0.00     0.127 A 
ATOM      7  C   UNL     1      37.900  -4.449   0.775  1.00  0.00     0.050 A 
ATOM      8  C   UNL     1      36.070  -3.717  -2.488  1.00  0.00     0.201 C 
ATOM      9  O   UNL     1      34.867  -3.967  -2.207  1.00  0.00    -0.288 OA
ATOM     10  C   UNL     1      36.420  -3.198  -3.836  1.00  0.00     0.076 A 
ATOM     11  C   UNL     1      37.538  -2.341  -3.951  1.00  0.00     0.041 A 
ATOM     12  C   UNL     1      38.412  -2.105  -2.777  1.00  0.00     0.194 C 
ATOM     13  O   UNL     1      39.334  -1.246  -2.838  1.00  0.00    -0.289 OA
ATOM     14  C   UNL     1      37.820  -1.722  -5.181  1.00  0.00     0.059 A 
ATOM     15  C   UNL     1      37.011  -1.957  -6.295  1.00  0.00     0.120 A 
ATOM     16  C   UNL     1      35.931  -2.832  -6.196  1.00  0.00     0.093 A 
ATOM     17  C   UNL     1      35.642  -3.477  -4.989  1.00  0.00     0.131 A 
ENDROOT
BRANCH   6  18
ATOM     18  O   UNL     1      35.970  -5.531  -0.124  1.00  0.00    -0.507 OA
ATOM     19  H   UNL     1      35.392  -5.851  -0.890  1.00  0.00     0.293 HD
ENDBRANCH   6  18
BRANCH  17  20
ATOM     20  O   UNL     1      34.600  -4.409  -4.990  1.00  0.00    -0.507 OA
ATOM     21  H   UNL     1      33.666  -4.202  -5.317  1.00  0.00     0.293 HD
ENDBRANCH  17  20
BRANCH  15  22
ATOM     22  O   UNL     1      37.281  -1.334  -7.512  1.00  0.00    -0.508 OA
ATOM     23  H   UNL     1      38.155  -0.850  -7.679  1.00  0.00     0.293 HD
ENDBRANCH  15  22
TORSDOF 3
ENDMDL
MODEL 3
REMARK VINA RESULT:    -6.409      7.364      9.415
REMARK INTER + INTRA:          -6.972
REMARK INTER:                  -6.972
REMARK INTRA:                   0.000
REMARK UNBOUND:                 0.000
REMARK SMILES Cc1cc(O)c2c(c1)C(=O)c1cc(O)cc(O)c1C2=O
REMARK SMILES IDX 1 1 2 2 8 3 7 4 6 5 4 6 3 7 19 8 20 9 18 10 11 11 9 12 10 13
REMARK SMILES IDX 12 14 13 15 15 16 16 17 5 18 17 20 14 22
REMARK H PARENT 5 19 17 21 14 23
REMARK Flexibility Score: inf
ROOT
ATOM      1  C   UNL     1      37.085  -1.004  -7.666  1.00  0.00     0.044 C 
ATOM      2  C   UNL     1      36.907  -1.759  -6.382  1.00  0.00    -0.047 A 
ATOM      3  C   UNL     1      37.849  -1.635  -5.356  1.00  0.00     0.016 A 
ATOM      4  C   UNL     1      37.715  -2.372  -4.166  1.00  0.00     0.038 A 
ATOM      5  C   UNL     1      36.633  -3.267  -4.012  1.00  0.00     0.076 A 
ATOM      6  C   UNL     1      35.655  -3.354  -5.036  1.00  0.00     0.127 A 
ATOM      7  C   UNL     1      35.821  -2.626  -6.219  1.00  0.00     0.050 A 
ATOM      8  C   UNL     1      36.605  -4.135  -2.806  1.00  0.00     0.201 C 
ATOM      9  O   UNL     1      36.068  -5.273  -2.864  1.00  0.00    -0.288 OA
ATOM     10  C   UNL     1      37.374  -3.741  -1.597  1.00  0.00     0.076 A 
ATOM     11  C   UNL     1      38.456  -2.846  -1.755  1.00  0.00     0.041 A 
ATOM     12  C   UNL     1      38.702  -2.211  -3.072  1.00  0.00     0.194 C 
ATOM     13  O   UNL     1      39.738  -1.513  -3.253  1.00  0.00    -0.289 OA
ATOM     14  C   UNL     1      39.290  -2.557  -0.662  1.00  0.00     0.059 A 
ATOM     15  C   UNL     1      39.050  -3.137   0.586  1.00  0.00     0.120 A 
ATOM     16  C   UNL     1      37.960  -3.989   0.756  1.00  0.00     0.093 A 
ATOM     17  C   UNL     1      37.103  -4.277  -0.311  1.00  0.00     0.131 A 
ENDROOT
BRANCH   6  18
ATOM     18  O   UNL     1      34.494  -4.119  -4.910  1.00  0.00    -0.507 OA
ATOM     19  H   UNL     1      34.496  -5.104  -4.679  1.00  0.00     0.293 HD
ENDBRANCH   6  18
BRANCH  17  20
ATOM     20  O   UNL     1      35.981  -5.065  -0.042  1.00  0.00    -0.507 OA
ATOM     21  H   UNL     1      35.752  -5.416   0.879  1.00  0.00     0.293 HD
ENDBRANCH  17  20
BRANCH  15  22
ATOM     22  O   UNL     1      39.883  -2.863   1.668  1.00  0.00    -0.508 OA
ATOM     23  H   UNL     1      40.574  -2.123   1.633  1.00  0.00     0.293 HD
ENDBRANCH  15  22
TORSDOF 3
ENDMDL
MODEL 4
REMARK VINA RESULT:    -6.370     16.636     17.696
REMARK INTER + INTRA:          -6.929
REMARK INTER:                  -6.929
REMARK INTRA:                   0.000
REMARK UNBOUND:                 0.000
REMARK SMILES Cc1cc(O)c2c(c1)C(=O)c1cc(O)cc(O)c1C2=O
REMARK SMILES IDX 1 1 2 2 8 3 7 4 6 5 4 6 3 7 19 8 20 9 18 10 11 11 9 12 10 13
REMARK SMILES IDX 12 14 13 15 15 16 16 17 5 18 17 20 14 22
REMARK H PARENT 5 19 17 21 14 23
REMARK Flexibility Score: inf
ROOT
ATOM      1  C   UNL     1      33.356 -12.102   5.454  1.00  0.00     0.044 C 
ATOM      2  C   UNL     1      32.040 -11.571   4.968  1.00  0.00    -0.047 A 
ATOM      3  C   UNL     1      31.816 -10.191   4.909  1.00  0.00     0.016 A 
ATOM      4  C   UNL     1      30.571  -9.683   4.498  1.00  0.00     0.038 A 
ATOM      5  C   UNL     1      29.525 -10.572   4.164  1.00  0.00     0.076 A 
ATOM      6  C   UNL     1      29.772 -11.969   4.180  1.00  0.00     0.127 A 
ATOM      7  C   UNL     1      31.012 -12.450   4.613  1.00  0.00     0.050 A 
ATOM      8  C   UNL     1      28.183 -10.001   3.877  1.00  0.00     0.201 C 
ATOM      9  O   UNL     1      27.148 -10.671   4.136  1.00  0.00    -0.288 OA
ATOM     10  C   UNL     1      28.060  -8.579   3.465  1.00  0.00     0.076 A 
ATOM     11  C   UNL     1      29.109  -7.693   3.801  1.00  0.00     0.041 A 
ATOM     12  C   UNL     1      30.353  -8.219   4.409  1.00  0.00     0.194 C 
ATOM     13  O   UNL     1      31.238  -7.423   4.828  1.00  0.00    -0.289 OA
ATOM     14  C   UNL     1      28.968  -6.317   3.551  1.00  0.00     0.059 A 
ATOM     15  C   UNL     1      27.805  -5.819   2.959  1.00  0.00     0.120 A 
ATOM     16  C   UNL     1      26.785  -6.694   2.590  1.00  0.00     0.093 A 
ATOM     17  C   UNL     1      26.909  -8.070   2.809  1.00  0.00     0.131 A 
ENDROOT
BRANCH   6  18
ATOM     18  O   UNL     1      28.833 -12.908   3.748  1.00  0.00    -0.507 OA
ATOM     19  H   UNL     1      28.207 -12.754   2.969  1.00  0.00     0.293 HD
ENDBRANCH   6  18
BRANCH  17  20
ATOM     20  O   UNL     1      25.886  -8.894   2.329  1.00  0.00    -0.507 OA
ATOM     21  H   UNL     1      24.917  -8.795   2.598  1.00  0.00     0.293 HD
ENDBRANCH  17  20
BRANCH  15  22
ATOM     22  O   UNL     1      27.657  -4.454   2.722  1.00  0.00    -0.508 OA
ATOM     23  H   UNL     1      27.375  -3.815   3.456  1.00  0.00     0.293 HD
ENDBRANCH  15  22
TORSDOF 3
ENDMDL
MODEL 5
REMARK VINA RESULT:    -6.364      1.696      3.536
REMARK INTER + INTRA:          -6.923
REMARK INTER:                  -6.923
REMARK INTRA:                   0.000
REMARK UNBOUND:                 0.000
REMARK SMILES Cc1cc(O)c2c(c1)C(=O)c1cc(O)cc(O)c1C2=O
REMARK SMILES IDX 1 1 2 2 8 3 7 4 6 5 4 6 3 7 19 8 20 9 18 10 11 11 9 12 10 13
REMARK SMILES IDX 12 14 13 15 15 16 16 17 5 18 17 20 14 22
REMARK H PARENT 5 19 17 21 14 23
REMARK Flexibility Score: inf
ROOT
ATOM      1  C   UNL     1      41.867   0.869  -3.190  1.00  0.00     0.044 C 
ATOM      2  C   UNL     1      40.838   1.824  -2.659  1.00  0.00    -0.047 A 
ATOM      3  C   UNL     1      39.652   2.047  -3.367  1.00  0.00     0.016 A 
ATOM      4  C   UNL     1      38.703   2.973  -2.903  1.00  0.00     0.038 A 
ATOM      5  C   UNL     1      38.955   3.706  -1.722  1.00  0.00     0.076 A 
ATOM      6  C   UNL     1      40.138   3.443  -0.983  1.00  0.00     0.127 A 
ATOM      7  C   UNL     1      41.077   2.532  -1.477  1.00  0.00     0.050 A 
ATOM      8  C   UNL     1      37.999   4.778  -1.343  1.00  0.00     0.201 C 
ATOM      9  O   UNL     1      38.407   5.788  -0.710  1.00  0.00    -0.288 OA
ATOM     10  C   UNL     1      36.611   4.748  -1.871  1.00  0.00     0.076 A 
ATOM     11  C   UNL     1      36.362   4.013  -3.053  1.00  0.00     0.041 A 
ATOM     12  C   UNL     1      37.435   3.179  -3.643  1.00  0.00     0.194 C 
ATOM     13  O   UNL     1      37.261   2.624  -4.763  1.00  0.00    -0.289 OA
ATOM     14  C   UNL     1      35.096   4.072  -3.659  1.00  0.00     0.059 A 
ATOM     15  C   UNL     1      34.075   4.842  -3.095  1.00  0.00     0.120 A 
ATOM     16  C   UNL     1      34.304   5.536  -1.909  1.00  0.00     0.093 A 
ATOM     17  C   UNL     1      35.549   5.477  -1.274  1.00  0.00     0.131 A 
ENDROOT
BRANCH   6  18
ATOM     18  O   UNL     1      40.404   4.034   0.254  1.00  0.00    -0.507 OA
ATOM     19  H   UNL     1      39.738   4.607   0.754  1.00  0.00     0.293 HD
ENDBRANCH   6  18
BRANCH  17  20
ATOM     20  O   UNL     1      35.676   6.124  -0.042  1.00  0.00    -0.507 OA
ATOM     21  H   UNL     1      36.512   6.086   0.525  1.00  0.00     0.293 HD
ENDBRANCH  17  20
BRANCH  15  22
ATOM     22  O   UNL     1      32.822   4.913  -3.701  1.00  0.00    -0.508 OA
ATOM     23  H   UNL     1      32.720   4.922  -4.709  1.00  0.00     0.293 HD
ENDBRANCH  15  22
TORSDOF 3
ENDMDL
MODEL 6
REMARK VINA RESULT:    -6.127      8.490     10.776
REMARK INTER + INTRA:          -6.665
REMARK INTER:                  -6.665
REMARK INTRA:                   0.000
REMARK UNBOUND:                 0.000
REMARK SMILES Cc1cc(O)c2c(c1)C(=O)c1cc(O)cc(O)c1C2=O
REMARK SMILES IDX 1 1 2 2 8 3 7 4 6 5 4 6 3 7 19 8 20 9 18 10 11 11 9 12 10 13
REMARK SMILES IDX 12 14 13 15 15 16 16 17 5 18 17 20 14 22
REMARK H PARENT 5 19 17 21 14 23
REMARK Flexibility Score: inf
ROOT
ATOM      1  C   UNL     1      35.500  -9.498  -3.359  1.00  0.00     0.044 C 
ATOM      2  C   UNL     1      35.641  -8.025  -3.604  1.00  0.00    -0.047 A 
ATOM      3  C   UNL     1      36.783  -7.344  -3.168  1.00  0.00     0.016 A 
ATOM      4  C   UNL     1      36.906  -5.956  -3.353  1.00  0.00     0.038 A 
ATOM      5  C   UNL     1      35.856  -5.233  -3.963  1.00  0.00     0.076 A 
ATOM      6  C   UNL     1      34.721  -5.935  -4.446  1.00  0.00     0.127 A 
ATOM      7  C   UNL     1      34.613  -7.313  -4.231  1.00  0.00     0.050 A 
ATOM      8  C   UNL     1      35.958  -3.752  -4.009  1.00  0.00     0.201 C 
ATOM      9  O   UNL     1      34.912  -3.050  -3.986  1.00  0.00    -0.288 OA
ATOM     10  C   UNL     1      37.288  -3.100  -3.890  1.00  0.00     0.076 A 
ATOM     11  C   UNL     1      38.335  -3.826  -3.278  1.00  0.00     0.041 A 
ATOM     12  C   UNL     1      38.133  -5.249  -2.915  1.00  0.00     0.194 C 
ATOM     13  O   UNL     1      39.015  -5.865  -2.256  1.00  0.00    -0.289 OA
ATOM     14  C   UNL     1      39.566  -3.198  -3.024  1.00  0.00     0.059 A 
ATOM     15  C   UNL     1      39.768  -1.863  -3.383  1.00  0.00     0.120 A 
ATOM     16  C   UNL     1      38.752  -1.155  -4.022  1.00  0.00     0.093 A 
ATOM     17  C   UNL     1      37.525  -1.764  -4.305  1.00  0.00     0.131 A 
ENDROOT
BRANCH   6  18
ATOM     18  O   UNL     1      33.699  -5.315  -5.168  1.00  0.00    -0.507 OA
ATOM     19  H   UNL     1      33.097  -5.804  -5.816  1.00  0.00     0.293 HD
ENDBRANCH   6  18
BRANCH  17  20
ATOM     20  O   UNL     1      36.588  -1.020  -5.029  1.00  0.00    -0.507 OA
ATOM     21  H   UNL     1      35.588  -1.113  -4.909  1.00  0.00     0.293 HD
ENDBRANCH  17  20
BRANCH  15  22
ATOM     22  O   UNL     1      40.983  -1.233  -3.119  1.00  0.00    -0.508 OA
ATOM     23  H   UNL     1      41.716  -1.693  -2.593  1.00  0.00     0.293 HD
ENDBRANCH  15  22
TORSDOF 3
ENDMDL
MODEL 7
REMARK VINA RESULT:    -6.122      8.956     11.416
REMARK INTER + INTRA:          -6.659
REMARK INTER:                  -6.659
REMARK INTRA:                   0.000
REMARK UNBOUND:                 0.000
REMARK SMILES Cc1cc(O)c2c(c1)C(=O)c1cc(O)cc(O)c1C2=O
REMARK SMILES IDX 1 1 2 2 8 3 7 4 6 5 4 6 3 7 19 8 20 9 18 10 11 11 9 12 10 13
REMARK SMILES IDX 12 14 13 15 15 16 16 17 5 18 17 20 14 22
REMARK H PARENT 5 19 17 21 14 23
REMARK Flexibility Score: inf
ROOT
ATOM      1  C   UNL     1      31.970  -6.626  -5.771  1.00  0.00     0.044 C 
ATOM      2  C   UNL     1      32.933  -6.343  -4.657  1.00  0.00    -0.047 A 
ATOM      3  C   UNL     1      33.996  -5.453  -4.852  1.00  0.00     0.016 A 
ATOM      4  C   UNL     1      34.930  -5.215  -3.829  1.00  0.00     0.038 A 
ATOM      5  C   UNL     1      34.813  -5.898  -2.598  1.00  0.00     0.076 A 
ATOM      6  C   UNL     1      33.707  -6.763  -2.388  1.00  0.00     0.127 A 
ATOM      7  C   UNL     1      32.803  -6.999  -3.428  1.00  0.00     0.050 A 
ATOM      8  C   UNL     1      35.898  -5.732  -1.597  1.00  0.00     0.201 C 
ATOM      9  O   UNL     1      36.165  -6.670  -0.799  1.00  0.00    -0.288 OA
ATOM     10  C   UNL     1      36.787  -4.543  -1.663  1.00  0.00     0.076 A 
ATOM     11  C   UNL     1      36.901  -3.863  -2.898  1.00  0.00     0.041 A 
ATOM     12  C   UNL     1      36.034  -4.248  -4.036  1.00  0.00     0.194 C 
ATOM     13  O   UNL     1      36.218  -3.734  -5.173  1.00  0.00    -0.289 OA
ATOM     14  C   UNL     1      37.833  -2.820  -3.037  1.00  0.00     0.059 A 
ATOM     15  C   UNL     1      38.639  -2.441  -1.961  1.00  0.00     0.120 A 
ATOM     16  C   UNL     1      38.501  -3.082  -0.731  1.00  0.00     0.093 A 
ATOM     17  C   UNL     1      37.567  -4.108  -0.560  1.00  0.00     0.131 A 
ENDROOT
BRANCH   6  18
ATOM     18  O   UNL     1      33.452  -7.379  -1.161  1.00  0.00    -0.507 OA
ATOM     19  H   UNL     1      33.853  -7.069  -0.286  1.00  0.00     0.293 HD
ENDBRANCH   6  18
BRANCH  17  20
ATOM     20  O   UNL     1      37.422  -4.641   0.724  1.00  0.00    -0.507 OA
ATOM     21  H   UNL     1      37.197  -5.610   0.905  1.00  0.00     0.293 HD
ENDBRANCH  17  20
BRANCH  15  22
ATOM     22  O   UNL     1      39.573  -1.416  -2.100  1.00  0.00    -0.508 OA
ATOM     23  H   UNL     1      40.182  -1.360  -2.908  1.00  0.00     0.293 HD
ENDBRANCH  15  22
TORSDOF 3
ENDMDL
MODEL 8
REMARK VINA RESULT:    -6.048      8.074      9.379
REMARK INTER + INTRA:          -6.579
REMARK INTER:                  -6.579
REMARK INTRA:                   0.000
REMARK UNBOUND:                 0.000
REMARK SMILES Cc1cc(O)c2c(c1)C(=O)c1cc(O)cc(O)c1C2=O
REMARK SMILES IDX 1 1 2 2 8 3 7 4 6 5 4 6 3 7 19 8 20 9 18 10 11 11 9 12 10 13
REMARK SMILES IDX 12 14 13 15 15 16 16 17 5 18 17 20 14 22
REMARK H PARENT 5 19 17 21 14 23
REMARK Flexibility Score: inf
ROOT
ATOM      1  C   UNL     1      39.990  -0.368  -2.808  1.00  0.00     0.044 C 
ATOM      2  C   UNL     1      38.876  -1.252  -3.289  1.00  0.00    -0.047 A 
ATOM      3  C   UNL     1      38.487  -2.366  -2.538  1.00  0.00     0.016 A 
ATOM      4  C   UNL     1      37.476  -3.225  -3.001  1.00  0.00     0.038 A 
ATOM      5  C   UNL     1      36.861  -2.979  -4.249  1.00  0.00     0.076 A 
ATOM      6  C   UNL     1      37.227  -1.821  -4.985  1.00  0.00     0.127 A 
ATOM      7  C   UNL     1      38.250  -0.993  -4.513  1.00  0.00     0.050 A 
ATOM      8  C   UNL     1      35.903  -3.987  -4.772  1.00  0.00     0.201 C 
ATOM      9  O   UNL     1      35.775  -4.146  -6.015  1.00  0.00    -0.288 OA
ATOM     10  C   UNL     1      35.243  -4.932  -3.834  1.00  0.00     0.076 A 
ATOM     11  C   UNL     1      35.861  -5.177  -2.586  1.00  0.00     0.041 A 
ATOM     12  C   UNL     1      37.048  -4.386  -2.184  1.00  0.00     0.194 C 
ATOM     13  O   UNL     1      37.680  -4.684  -1.132  1.00  0.00    -0.289 OA
ATOM     14  C   UNL     1      35.344  -6.164  -1.731  1.00  0.00     0.059 A 
ATOM     15  C   UNL     1      34.213  -6.898  -2.098  1.00  0.00     0.120 A 
ATOM     16  C   UNL     1      33.577  -6.633  -3.310  1.00  0.00     0.093 A 
ATOM     17  C   UNL     1      34.060  -5.641  -4.169  1.00  0.00     0.131 A 
ENDROOT
BRANCH   6  18
ATOM     18  O   UNL     1      36.583  -1.440  -6.164  1.00  0.00    -0.507 OA
ATOM     19  H   UNL     1      36.119  -2.092  -6.782  1.00  0.00     0.293 HD
ENDBRANCH   6  18
BRANCH  17  20
ATOM     20  O   UNL     1      33.318  -5.369  -5.322  1.00  0.00    -0.507 OA
ATOM     21  H   UNL     1      32.348  -5.084  -5.308  1.00  0.00     0.293 HD
ENDBRANCH  17  20
BRANCH  15  22
ATOM     22  O   UNL     1      33.705  -7.886  -1.258  1.00  0.00    -0.508 OA
ATOM     23  H   UNL     1      34.296  -8.378  -0.598  1.00  0.00     0.293 HD
ENDBRANCH  15  22
TORSDOF 3
ENDMDL
MODEL 9
REMARK VINA RESULT:    -6.005      8.506     10.265
REMARK INTER + INTRA:          -6.532
REMARK INTER:                  -6.532
REMARK INTRA:                   0.000
REMARK UNBOUND:                 0.000
REMARK SMILES Cc1cc(O)c2c(c1)C(=O)c1cc(O)cc(O)c1C2=O
REMARK SMILES IDX 1 1 2 2 8 3 7 4 6 5 4 6 3 7 19 8 20 9 18 10 11 11 9 12 10 13
REMARK SMILES IDX 12 14 13 15 15 16 16 17 5 18 17 20 14 22
REMARK H PARENT 5 19 17 21 14 23
REMARK Flexibility Score: inf
ROOT
ATOM      1  C   UNL     1      36.683  -1.419  -7.378  1.00  0.00     0.044 C 
ATOM      2  C   UNL     1      36.820  -2.112  -6.054  1.00  0.00    -0.047 A 
ATOM      3  C   UNL     1      35.869  -3.055  -5.651  1.00  0.00     0.016 A 
ATOM      4  C   UNL     1      35.964  -3.678  -4.394  1.00  0.00     0.038 A 
ATOM      5  C   UNL     1      37.015  -3.332  -3.517  1.00  0.00     0.076 A 
ATOM      6  C   UNL     1      38.004  -2.411  -3.949  1.00  0.00     0.127 A 
ATOM      7  C   UNL     1      37.876  -1.789  -5.195  1.00  0.00     0.050 A 
ATOM      8  C   UNL     1      37.000  -3.901  -2.144  1.00  0.00     0.201 C 
ATOM      9  O   UNL     1      37.502  -3.250  -1.189  1.00  0.00    -0.288 OA
ATOM     10  C   UNL     1      36.229  -5.140  -1.868  1.00  0.00     0.076 A 
ATOM     11  C   UNL     1      35.177  -5.482  -2.748  1.00  0.00     0.041 A 
ATOM     12  C   UNL     1      34.968  -4.698  -3.989  1.00  0.00     0.194 C 
ATOM     13  O   UNL     1      33.957  -4.917  -4.712  1.00  0.00    -0.289 OA
ATOM     14  C   UNL     1      34.338  -6.568  -2.446  1.00  0.00     0.059 A 
ATOM     15  C   UNL     1      34.544  -7.323  -1.289  1.00  0.00     0.120 A 
ATOM     16  C   UNL     1      35.604  -7.013  -0.438  1.00  0.00     0.093 A 
ATOM     17  C   UNL     1      36.466  -5.950  -0.727  1.00  0.00     0.131 A 
ENDROOT
BRANCH   6  18
ATOM     18  O   UNL     1      39.139  -2.108  -3.193  1.00  0.00    -0.507 OA
ATOM     19  H   UNL     1      39.650  -2.795  -2.655  1.00  0.00     0.293 HD
ENDBRANCH   6  18
BRANCH  17  20
ATOM     20  O   UNL     1      37.559  -5.758   0.123  1.00  0.00    -0.507 OA
ATOM     21  H   UNL     1      37.500  -5.273   1.008  1.00  0.00     0.293 HD
ENDBRANCH  17  20
BRANCH  15  22
ATOM     22  O   UNL     1      33.705  -8.392  -0.980  1.00  0.00    -0.508 OA
ATOM     23  H   UNL     1      32.982  -8.702  -1.619  1.00  0.00     0.293 HD
ENDBRANCH  15  22
TORSDOF 3
ENDMDL
