MODEL 1
REMARK VINA RESULT:    11.409      0.000      0.000
REMARK INTER + INTRA:          25.111
REMARK INTER:                  26.083
REMARK INTRA:                  -0.972
REMARK UNBOUND:                -0.972
REMARK SMILES CCCCCCCCCCCCCCCCCCCCCCCC(=O)[O-]
REMARK SMILES IDX 13 1 14 2 15 3 16 4 17 5 18 6 19 7 20 8 21 9 22 10 23 11
REMARK SMILES IDX 24 12 25 13 26 14 12 15 11 16 10 17 9 18 8 19 7 20 6 21 5 22
REMARK SMILES IDX 4 23 3 24 2 25 1 26
REMARK H PARENT
REMARK Flexibility Score: inf
ROOT
ATOM      1  C   UNL     1     -29.979   7.091   4.336  1.00  0.00     0.000 C 
ENDROOT
BRANCH   1   2
ATOM      2  C   UNL     1     -30.018   7.697   2.923  1.00  0.00     0.000 C 
BRANCH   2   3
ATOM      3  C   UNL     1     -30.541   6.712   1.865  1.00  0.00     0.000 C 
BRANCH   3   4
ATOM      4  C   UNL     1     -31.399   7.402   0.794  1.00  0.00     0.000 C 
BRANCH   4   5
ATOM      5  C   UNL     1     -31.020   6.930  -0.616  1.00  0.00     0.000 C 
BRANCH   5   6
ATOM      6  C   UNL     1     -29.497   6.704  -0.772  1.00  0.00     0.000 C 
BRANCH   6   7
ATOM      7  C   UNL     1     -28.675   8.002  -0.693  1.00  0.00     0.000 C 
BRANCH   7   8
ATOM      8  C   UNL     1     -27.742   8.237  -1.894  1.00  0.00     0.000 C 
BRANCH   8   9
ATOM      9  C   UNL     1     -28.284   7.663  -3.224  1.00  0.00     0.000 C 
BRANCH   9  10
ATOM     10  C   UNL     1     -27.995   8.575  -4.430  1.00  0.00     0.006 C 
BRANCH  10  11
ATOM     11  C   UNL     1     -27.187   7.858  -5.518  1.00  0.00     0.053 C 
BRANCH  11  12
ATOM     12  C   UNL     1     -26.249   8.792  -6.218  1.00  0.00     0.041 C 
ATOM     13  O   UNL     1     -26.693   9.655  -7.020  1.00  0.00    -0.550 OA
ATOM     14  O   UNL     1     -24.881   8.686  -6.006  1.00  0.00    -0.550 OA
ENDBRANCH  11  12
ENDBRANCH  10  11
ENDBRANCH   9  10
ENDBRANCH   8   9
ENDBRANCH   7   8
ENDBRANCH   6   7
ENDBRANCH   5   6
ENDBRANCH   4   5
ENDBRANCH   3   4
ENDBRANCH   2   3
ENDBRANCH   1   2
BRANCH   1  15
ATOM     15  C   UNL     1     -28.824   7.681   5.150  1.00  0.00     0.000 C 
BRANCH  15  16
ATOM     16  C   UNL     1     -28.349   6.699   6.227  1.00  0.00     0.000 C 
BRANCH  16  17
ATOM     17  C   UNL     1     -26.859   6.338   6.097  1.00  0.00     0.000 C 
BRANCH  17  18
ATOM     18  C   UNL     1     -26.408   5.196   7.031  1.00  0.00    -0.000 C 
BRANCH  18  19
ATOM     19  C   UNL     1     -26.659   5.517   8.515  1.00  0.00    -0.000 C 
BRANCH  19  20
ATOM     20  C   UNL     1     -25.362   5.500   9.350  1.00  0.00    -0.000 C 
BRANCH  20  21
ATOM     21  C   UNL     1     -25.605   5.504  10.870  1.00  0.00    -0.000 C 
BRANCH  21  22
ATOM     22  C   UNL     1     -25.782   4.092  11.452  1.00  0.00    -0.000 C 
BRANCH  22  23
ATOM     23  C   UNL     1     -27.259   3.704  11.619  1.00  0.00    -0.000 C 
BRANCH  23  24
ATOM     24  C   UNL     1     -28.199   4.919  11.547  1.00  0.00    -0.000 C 
BRANCH  24  25
ATOM     25  C   UNL     1     -29.577   4.586  12.131  1.00  0.00    -0.003 C 
ATOM     26  C   UNL     1     -29.961   3.136  11.840  1.00  0.00     0.004 C 
ENDBRANCH  24  25
ENDBRANCH  23  24
ENDBRANCH  22  23
ENDBRANCH  21  22
ENDBRANCH  20  21
ENDBRANCH  19  20
ENDBRANCH  18  19
ENDBRANCH  17  18
ENDBRANCH  16  17
ENDBRANCH  15  16
ENDBRANCH   1  15
TORSDOF 22
ENDMDL
MODEL 2
REMARK VINA RESULT:    11.627      5.409     13.376
REMARK INTER + INTRA:          25.609
REMARK INTER:                  26.422
REMARK INTRA:                  -0.813
REMARK UNBOUND:                -0.972
REMARK SMILES CCCCCCCCCCCCCCCCCCCCCCCC(=O)[O-]
REMARK SMILES IDX 13 1 14 2 15 3 16 4 17 5 18 6 19 7 20 8 21 9 22 10 23 11
REMARK SMILES IDX 24 12 25 13 26 14 12 15 11 16 10 17 9 18 8 19 7 20 6 21 5 22
REMARK SMILES IDX 4 23 3 24 2 25 1 26
REMARK H PARENT
REMARK Flexibility Score: inf
ROOT
ATOM      1  C   UNL     1     -30.252   7.399   3.335  1.00  0.00     0.000 C 
ENDROOT
BRANCH   1   2
ATOM      2  C   UNL     1     -29.075   7.871   4.203  1.00  0.00     0.000 C 
BRANCH   2   3
ATOM      3  C   UNL     1     -29.157   7.360   5.651  1.00  0.00     0.000 C 
BRANCH   3   4
ATOM      4  C   UNL     1     -27.773   7.163   6.284  1.00  0.00     0.000 C 
BRANCH   4   5
ATOM      5  C   UNL     1     -27.648   5.781   6.938  1.00  0.00     0.000 C 
BRANCH   5   6
ATOM      6  C   UNL     1     -26.197   5.247   6.914  1.00  0.00     0.000 C 
BRANCH   6   7
ATOM      7  C   UNL     1     -25.605   5.015   8.315  1.00  0.00     0.000 C 
BRANCH   7   8
ATOM      8  C   UNL     1     -26.587   5.279   9.471  1.00  0.00     0.000 C 
BRANCH   8   9
ATOM      9  C   UNL     1     -25.940   5.175  10.872  1.00  0.00     0.000 C 
BRANCH   9  10
ATOM     10  C   UNL     1     -26.788   4.357  11.862  1.00  0.00     0.006 C 
BRANCH  10  11
ATOM     11  C   UNL     1     -27.973   3.666  11.176  1.00  0.00     0.053 C 
BRANCH  11  12
ATOM     12  C   UNL     1     -29.282   4.104  11.757  1.00  0.00     0.041 C 
ATOM     13  O   UNL     1     -29.522   5.328  11.931  1.00  0.00    -0.550 OA
ATOM     14  O   UNL     1     -30.222   3.156  12.137  1.00  0.00    -0.550 OA
ENDBRANCH  11  12
ENDBRANCH  10  11
ENDBRANCH   9  10
ENDBRANCH   8   9
ENDBRANCH   7   8
ENDBRANCH   6   7
ENDBRANCH   5   6
ENDBRANCH   4   5
ENDBRANCH   3   4
ENDBRANCH   2   3
ENDBRANCH   1   2
BRANCH   1  15
ATOM     15  C   UNL     1     -29.902   7.490   1.847  1.00  0.00     0.000 C 
BRANCH  15  16
ATOM     16  C   UNL     1     -30.843   6.621   1.003  1.00  0.00     0.000 C 
BRANCH  16  17
ATOM     17  C   UNL     1     -31.650   7.432  -0.025  1.00  0.00     0.000 C 
BRANCH  17  18
ATOM     18  C   UNL     1     -31.130   7.301  -1.473  1.00  0.00    -0.000 C 
BRANCH  18  19
ATOM     19  C   UNL     1     -29.682   6.783  -1.531  1.00  0.00    -0.000 C 
BRANCH  19  20
ATOM     20  C   UNL     1     -28.647   7.893  -1.254  1.00  0.00    -0.000 C 
BRANCH  20  21
ATOM     21  C   UNL     1     -27.683   8.145  -2.427  1.00  0.00    -0.000 C 
BRANCH  21  22
ATOM     22  C   UNL     1     -28.291   7.781  -3.791  1.00  0.00    -0.000 C 
BRANCH  22  23
ATOM     23  C   UNL     1     -27.254   7.803  -4.924  1.00  0.00    -0.000 C 
BRANCH  23  24
ATOM     24  C   UNL     1     -27.426   9.016  -5.855  1.00  0.00    -0.000 C 
BRANCH  24  25
ATOM     25  C   UNL     1     -26.461   8.939  -7.044  1.00  0.00    -0.003 C 
ATOM     26  C   UNL     1     -25.065   8.513  -6.593  1.00  0.00     0.004 C 
ENDBRANCH  24  25
ENDBRANCH  23  24
ENDBRANCH  22  23
ENDBRANCH  21  22
ENDBRANCH  20  21
ENDBRANCH  19  20
ENDBRANCH  18  19
ENDBRANCH  17  18
ENDBRANCH  16  17
ENDBRANCH  15  16
ENDBRANCH   1  15
TORSDOF 22
ENDMDL
