MODEL 1
REMARK VINA RESULT:    -3.628      0.000      0.000
REMARK INTER + INTRA:          -5.133
REMARK INTER:                  -4.901
REMARK INTRA:                  -0.232
REMARK UNBOUND:                -0.232
REMARK SMILES CCCCCCCC(=O)[O-]
REMARK SMILES IDX 5 1 6 2 7 3 8 4 9 5 10 6 4 7 3 8 2 9 1 10
REMARK H PARENT
REMARK Flexibility Score: inf
ROOT
ATOM      1  C   UNL     1       4.365  -3.893  -5.681  1.00  0.00     0.000 C 
ENDROOT
BRANCH   1   2
ATOM      2  C   UNL     1       5.095  -3.945  -7.033  1.00  0.00     0.006 C 
BRANCH   2   3
ATOM      3  C   UNL     1       4.205  -3.506  -8.203  1.00  0.00     0.053 C 
BRANCH   3   4
ATOM      4  C   UNL     1       4.884  -2.440  -9.003  1.00  0.00     0.041 C 
ATOM      5  O   UNL     1       6.054  -2.618  -9.433  1.00  0.00    -0.550 OA
ATOM      6  O   UNL     1       4.207  -1.268  -9.317  1.00  0.00    -0.550 OA
ENDBRANCH   3   4
ENDBRANCH   2   3
ENDBRANCH   1   2
BRANCH   1   7
ATOM      7  C   UNL     1       2.916  -3.398  -5.809  1.00  0.00     0.000 C 
BRANCH   7   8
ATOM      8  C   UNL     1       2.569  -2.421  -4.676  1.00  0.00    -0.000 C 
BRANCH   8   9
ATOM      9  C   UNL     1       1.905  -3.118  -3.477  1.00  0.00    -0.003 C 
ATOM     10  C   UNL     1       2.353  -2.542  -2.135  1.00  0.00     0.004 C 
ENDBRANCH   8   9
ENDBRANCH   7   8
ENDBRANCH   1   7
TORSDOF 6
ENDMDL
MODEL 2
REMARK VINA RESULT:    -3.511      3.066      4.651
REMARK INTER + INTRA:          -4.974
REMARK INTER:                  -4.336
REMARK INTRA:                  -0.638
REMARK UNBOUND:                -0.232
REMARK SMILES CCCCCCCC(=O)[O-]
REMARK SMILES IDX 5 1 6 2 7 3 8 4 9 5 10 6 4 7 3 8 2 9 1 10
REMARK H PARENT
REMARK Flexibility Score: inf
ROOT
ATOM      1  C   UNL     1       7.115  -2.992  -7.595  1.00  0.00     0.000 C 
ENDROOT
BRANCH   1   2
ATOM      2  C   UNL     1       5.837  -3.625  -8.167  1.00  0.00     0.006 C 
BRANCH   2   3
ATOM      3  C   UNL     1       4.559  -3.013  -7.579  1.00  0.00     0.053 C 
BRANCH   3   4
ATOM      4  C   UNL     1       3.864  -4.003  -6.700  1.00  0.00     0.041 C 
ATOM      5  O   UNL     1       3.071  -4.846  -7.197  1.00  0.00    -0.550 OA
ATOM      6  O   UNL     1       4.128  -4.028  -5.336  1.00  0.00    -0.550 OA
ENDBRANCH   3   4
ENDBRANCH   2   3
ENDBRANCH   1   2
BRANCH   1   7
ATOM      7  C   UNL     1       7.564  -3.648  -6.280  1.00  0.00     0.000 C 
BRANCH   7   8
ATOM      8  C   UNL     1       7.844  -5.145  -6.484  1.00  0.00    -0.000 C 
BRANCH   8   9
ATOM      9  C   UNL     1       6.985  -6.036  -5.574  1.00  0.00    -0.003 C 
ATOM     10  C   UNL     1       6.072  -6.977  -6.359  1.00  0.00     0.004 C 
ENDBRANCH   8   9
ENDBRANCH   7   8
ENDBRANCH   1   7
TORSDOF 6
ENDMDL
MODEL 3
REMARK VINA RESULT:    -3.497      2.996      3.786
REMARK INTER + INTRA:          -4.956
REMARK INTER:                  -4.663
REMARK INTRA:                  -0.293
REMARK UNBOUND:                -0.232
REMARK SMILES CCCCCCCC(=O)[O-]
REMARK SMILES IDX 5 1 6 2 7 3 8 4 9 5 10 6 4 7 3 8 2 9 1 10
REMARK H PARENT
REMARK Flexibility Score: inf
ROOT
ATOM      1  C   UNL     1       4.766  -3.605  -7.304  1.00  0.00     0.000 C 
ENDROOT
BRANCH   1   2
ATOM      2  C   UNL     1       5.570  -4.908  -7.434  1.00  0.00     0.006 C 
BRANCH   2   3
ATOM      3  C   UNL     1       6.807  -4.932  -6.526  1.00  0.00     0.053 C 
BRANCH   3   4
ATOM      4  C   UNL     1       6.703  -6.045  -5.532  1.00  0.00     0.041 C 
ATOM      5  O   UNL     1       5.675  -6.160  -4.815  1.00  0.00    -0.550 OA
ATOM      6  O   UNL     1       7.721  -6.985  -5.432  1.00  0.00    -0.550 OA
ENDBRANCH   3   4
ENDBRANCH   2   3
ENDBRANCH   1   2
BRANCH   1   7
ATOM      7  C   UNL     1       3.455  -3.793  -6.525  1.00  0.00     0.000 C 
BRANCH   7   8
ATOM      8  C   UNL     1       3.613  -3.331  -5.068  1.00  0.00    -0.000 C 
BRANCH   8   9
ATOM      9  C   UNL     1       2.312  -2.758  -4.485  1.00  0.00    -0.003 C 
ATOM     10  C   UNL     1       2.305  -2.741  -2.957  1.00  0.00     0.004 C 
ENDBRANCH   8   9
ENDBRANCH   7   8
ENDBRANCH   1   7
TORSDOF 6
ENDMDL
MODEL 4
REMARK VINA RESULT:    -3.454      3.002      4.039
REMARK INTER + INTRA:          -4.898
REMARK INTER:                  -4.527
REMARK INTRA:                  -0.371
REMARK UNBOUND:                -0.232
REMARK SMILES CCCCCCCC(=O)[O-]
REMARK SMILES IDX 5 1 6 2 7 3 8 4 9 5 10 6 4 7 3 8 2 9 1 10
REMARK H PARENT
REMARK Flexibility Score: inf
ROOT
ATOM      1  C   UNL     1       6.859  -4.002  -6.304  1.00  0.00     0.000 C 
ENDROOT
BRANCH   1   2
ATOM      2  C   UNL     1       6.845  -2.994  -7.465  1.00  0.00     0.006 C 
BRANCH   2   3
ATOM      3  C   UNL     1       8.019  -3.191  -8.433  1.00  0.00     0.053 C 
BRANCH   3   4
ATOM      4  C   UNL     1       8.824  -1.935  -8.538  1.00  0.00     0.041 C 
ATOM      5  O   UNL     1      10.051  -1.942  -8.253  1.00  0.00    -0.550 OA
ATOM      6  O   UNL     1       8.232  -0.765  -8.998  1.00  0.00    -0.550 OA
ENDBRANCH   3   4
ENDBRANCH   2   3
ENDBRANCH   1   2
BRANCH   1   7
ATOM      7  C   UNL     1       5.467  -4.575  -6.000  1.00  0.00     0.000 C 
BRANCH   7   8
ATOM      8  C   UNL     1       4.370  -3.733  -6.670  1.00  0.00    -0.000 C 
BRANCH   8   9
ATOM      9  C   UNL     1       3.380  -4.586  -7.479  1.00  0.00    -0.003 C 
ATOM     10  C   UNL     1       4.058  -5.742  -8.213  1.00  0.00     0.004 C 
ENDBRANCH   8   9
ENDBRANCH   7   8
ENDBRANCH   1   7
TORSDOF 6
ENDMDL
MODEL 5
REMARK VINA RESULT:    -3.438      3.377      4.638
REMARK INTER + INTRA:          -4.876
REMARK INTER:                  -4.313
REMARK INTRA:                  -0.563
REMARK UNBOUND:                -0.232
REMARK SMILES CCCCCCCC(=O)[O-]
REMARK SMILES IDX 5 1 6 2 7 3 8 4 9 5 10 6 4 7 3 8 2 9 1 10
REMARK H PARENT
REMARK Flexibility Score: inf
ROOT
ATOM      1  C   UNL     1       6.547  -2.762  -8.684  1.00  0.00     0.000 C 
ENDROOT
BRANCH   1   2
ATOM      2  C   UNL     1       5.162  -2.706  -8.021  1.00  0.00     0.006 C 
BRANCH   2   3
ATOM      3  C   UNL     1       4.246  -3.855  -8.465  1.00  0.00     0.053 C 
BRANCH   3   4
ATOM      4  C   UNL     1       3.762  -4.625  -7.279  1.00  0.00     0.041 C 
ATOM      5  O   UNL     1       3.694  -4.073  -6.149  1.00  0.00    -0.550 OA
ATOM      6  O   UNL     1       3.338  -5.939  -7.428  1.00  0.00    -0.550 OA
ENDBRANCH   3   4
ENDBRANCH   2   3
ENDBRANCH   1   2
BRANCH   1   7
ATOM      7  C   UNL     1       7.695  -2.675  -7.667  1.00  0.00     0.000 C 
BRANCH   7   8
ATOM      8  C   UNL     1       7.336  -3.419  -6.372  1.00  0.00    -0.000 C 
BRANCH   8   9
ATOM      9  C   UNL     1       7.826  -4.877  -6.373  1.00  0.00    -0.003 C 
ATOM     10  C   UNL     1       6.828  -5.836  -5.727  1.00  0.00     0.004 C 
ENDBRANCH   8   9
ENDBRANCH   7   8
ENDBRANCH   1   7
TORSDOF 6
ENDMDL
MODEL 6
REMARK VINA RESULT:    -3.419      3.545      4.938
REMARK INTER + INTRA:          -4.850
REMARK INTER:                  -4.548
REMARK INTRA:                  -0.302
REMARK UNBOUND:                -0.232
REMARK SMILES CCCCCCCC(=O)[O-]
REMARK SMILES IDX 5 1 6 2 7 3 8 4 9 5 10 6 4 7 3 8 2 9 1 10
REMARK H PARENT
REMARK Flexibility Score: inf
ROOT
ATOM      1  C   UNL     1       7.050  -3.663  -6.517  1.00  0.00     0.000 C 
ENDROOT
BRANCH   1   2
ATOM      2  C   UNL     1       6.706  -2.959  -7.839  1.00  0.00     0.006 C 
BRANCH   2   3
ATOM      3  C   UNL     1       7.839  -3.050  -8.870  1.00  0.00     0.053 C 
BRANCH   3   4
ATOM      4  C   UNL     1       8.778  -1.896  -8.716  1.00  0.00     0.041 C 
ATOM      5  O   UNL     1       8.389  -0.725  -8.968  1.00  0.00    -0.550 OA
ATOM      6  O   UNL     1      10.069  -2.106  -8.248  1.00  0.00    -0.550 OA
ENDBRANCH   3   4
ENDBRANCH   2   3
ENDBRANCH   1   2
BRANCH   1   7
ATOM      7  C   UNL     1       5.884  -4.502  -5.972  1.00  0.00     0.000 C 
BRANCH   7   8
ATOM      8  C   UNL     1       6.389  -5.836  -5.402  1.00  0.00    -0.000 C 
BRANCH   8   9
ATOM      9  C   UNL     1       7.745  -6.255  -5.992  1.00  0.00    -0.003 C 
ATOM     10  C   UNL     1       8.400  -7.398  -5.217  1.00  0.00     0.004 C 
ENDBRANCH   8   9
ENDBRANCH   7   8
ENDBRANCH   1   7
TORSDOF 6
ENDMDL
MODEL 7
REMARK VINA RESULT:    -3.412      3.667      4.842
REMARK INTER + INTRA:          -4.841
REMARK INTER:                  -4.301
REMARK INTRA:                  -0.539
REMARK UNBOUND:                -0.232
REMARK SMILES CCCCCCCC(=O)[O-]
REMARK SMILES IDX 5 1 6 2 7 3 8 4 9 5 10 6 4 7 3 8 2 9 1 10
REMARK H PARENT
REMARK Flexibility Score: inf
ROOT
ATOM      1  C   UNL     1       4.293  -3.677  -6.826  1.00  0.00     0.000 C 
ENDROOT
BRANCH   1   2
ATOM      2  C   UNL     1       3.314  -4.622  -7.542  1.00  0.00     0.006 C 
BRANCH   2   3
ATOM      3  C   UNL     1       4.023  -5.607  -8.481  1.00  0.00     0.053 C 
BRANCH   3   4
ATOM      4  C   UNL     1       4.049  -6.975  -7.878  1.00  0.00     0.041 C 
ATOM      5  O   UNL     1       3.420  -7.920  -8.422  1.00  0.00    -0.550 OA
ATOM      6  O   UNL     1       4.809  -7.220  -6.741  1.00  0.00    -0.550 OA
ENDBRANCH   3   4
ENDBRANCH   2   3
ENDBRANCH   1   2
BRANCH   1   7
ATOM      7  C   UNL     1       5.280  -3.004  -7.793  1.00  0.00     0.000 C 
BRANCH   7   8
ATOM      8  C   UNL     1       6.725  -3.156  -7.294  1.00  0.00    -0.000 C 
BRANCH   8   9
ATOM      9  C   UNL     1       6.853  -4.182  -6.157  1.00  0.00    -0.003 C 
ATOM     10  C   UNL     1       7.797  -5.333  -6.502  1.00  0.00     0.004 C 
ENDBRANCH   8   9
ENDBRANCH   7   8
ENDBRANCH   1   7
TORSDOF 6
ENDMDL
MODEL 8
REMARK VINA RESULT:    -3.401      3.993      5.279
REMARK INTER + INTRA:          -4.826
REMARK INTER:                  -4.205
REMARK INTRA:                  -0.621
REMARK UNBOUND:                -0.232
REMARK SMILES CCCCCCCC(=O)[O-]
REMARK SMILES IDX 5 1 6 2 7 3 8 4 9 5 10 6 4 7 3 8 2 9 1 10
REMARK H PARENT
REMARK Flexibility Score: inf
ROOT
ATOM      1  C   UNL     1       8.526  -4.086  -6.679  1.00  0.00     0.000 C 
ENDROOT
BRANCH   1   2
ATOM      2  C   UNL     1       7.965  -5.447  -7.119  1.00  0.00     0.006 C 
BRANCH   2   3
ATOM      3  C   UNL     1       7.728  -6.399  -5.938  1.00  0.00     0.053 C 
BRANCH   3   4
ATOM      4  C   UNL     1       6.270  -6.481  -5.619  1.00  0.00     0.041 C 
ATOM      5  O   UNL     1       5.704  -5.547  -4.992  1.00  0.00    -0.550 OA
ATOM      6  O   UNL     1       5.521  -7.567  -6.057  1.00  0.00    -0.550 OA
ENDBRANCH   3   4
ENDBRANCH   2   3
ENDBRANCH   1   2
BRANCH   1   7
ATOM      7  C   UNL     1       7.478  -2.965  -6.742  1.00  0.00     0.000 C 
BRANCH   7   8
ATOM      8  C   UNL     1       6.504  -3.191  -7.908  1.00  0.00    -0.000 C 
BRANCH   8   9
ATOM      9  C   UNL     1       5.033  -3.053  -7.485  1.00  0.00    -0.003 C 
ATOM     10  C   UNL     1       4.182  -4.252  -7.901  1.00  0.00     0.004 C 
ENDBRANCH   8   9
ENDBRANCH   7   8
ENDBRANCH   1   7
TORSDOF 6
ENDMDL
MODEL 9
REMARK VINA RESULT:    -3.321      3.733      4.967
REMARK INTER + INTRA:          -4.718
REMARK INTER:                  -4.128
REMARK INTRA:                  -0.590
REMARK UNBOUND:                -0.232
REMARK SMILES CCCCCCCC(=O)[O-]
REMARK SMILES IDX 5 1 6 2 7 3 8 4 9 5 10 6 4 7 3 8 2 9 1 10
REMARK H PARENT
REMARK Flexibility Score: inf
ROOT
ATOM      1  C   UNL     1       6.767  -2.972  -7.635  1.00  0.00     0.000 C 
ENDROOT
BRANCH   1   2
ATOM      2  C   UNL     1       6.996  -3.757  -6.334  1.00  0.00     0.006 C 
BRANCH   2   3
ATOM      3  C   UNL     1       7.588  -5.151  -6.580  1.00  0.00     0.053 C 
BRANCH   3   4
ATOM      4  C   UNL     1       7.113  -6.111  -5.536  1.00  0.00     0.041 C 
ATOM      5  O   UNL     1       5.979  -5.964  -5.008  1.00  0.00    -0.550 OA
ATOM      6  O   UNL     1       7.901  -7.198  -5.180  1.00  0.00    -0.550 OA
ENDBRANCH   3   4
ENDBRANCH   2   3
ENDBRANCH   1   2
BRANCH   1   7
ATOM      7  C   UNL     1       5.297  -2.981  -8.082  1.00  0.00     0.000 C 
BRANCH   7   8
ATOM      8  C   UNL     1       4.384  -3.470  -6.948  1.00  0.00    -0.000 C 
BRANCH   8   9
ATOM      9  C   UNL     1       3.402  -4.560  -7.407  1.00  0.00    -0.003 C 
ATOM     10  C   UNL     1       4.107  -5.785  -7.987  1.00  0.00     0.004 C 
ENDBRANCH   8   9
ENDBRANCH   7   8
ENDBRANCH   1   7
TORSDOF 6
ENDMDL
