MODEL 1
REMARK VINA RESULT:    -4.690      0.000      0.000
REMARK INTER + INTRA:          -5.407
REMARK INTER:                  -5.101
REMARK INTRA:                  -0.305
REMARK UNBOUND:                -0.305
REMARK SMILES CC(=O)c1cc(C)ccc1O
REMARK SMILES IDX 7 1 6 2 5 3 4 4 10 5 9 6 8 7 2 8 3 9 1 10 11 11
REMARK H PARENT 11 12
REMARK Flexibility Score: inf
ROOT
ATOM      1  C   UNL     1       3.077  -5.758  23.395  1.00  0.00     0.044 C 
ATOM      2  C   UNL     1       2.521  -4.958  22.253  1.00  0.00    -0.050 A 
ATOM      3  C   UNL     1       2.578  -5.460  20.946  1.00  0.00     0.019 A 
ATOM      4  C   UNL     1       2.102  -4.702  19.860  1.00  0.00     0.059 A 
ATOM      5  C   UNL     1       1.549  -3.421  20.106  1.00  0.00     0.126 A 
ATOM      6  C   UNL     1       1.529  -2.914  21.410  1.00  0.00     0.047 A 
ATOM      7  C   UNL     1       2.016  -3.671  22.476  1.00  0.00     0.007 A 
ENDROOT
BRANCH   4   8
ATOM      8  C   UNL     1       2.234  -5.248  18.487  1.00  0.00     0.163 C 
ATOM      9  O   UNL     1       2.551  -4.488  17.535  1.00  0.00    -0.294 OA
ATOM     10  C   UNL     1       2.088  -6.715  18.222  1.00  0.00     0.093 C 
ENDBRANCH   4   8
BRANCH   5  11
ATOM     11  O   UNL     1       0.987  -2.641  19.094  1.00  0.00    -0.507 OA
ATOM     12  H   UNL     1       0.022  -2.718  18.803  1.00  0.00     0.293 HD
ENDBRANCH   5  11
TORSDOF 2
ENDMDL
MODEL 2
REMARK VINA RESULT:    -4.657      2.909      4.064
REMARK INTER + INTRA:          -5.371
REMARK INTER:                  -5.066
REMARK INTRA:                  -0.304
REMARK UNBOUND:                -0.305
REMARK SMILES CC(=O)c1cc(C)ccc1O
REMARK SMILES IDX 7 1 6 2 5 3 4 4 10 5 9 6 8 7 2 8 3 9 1 10 11 11
REMARK H PARENT 11 12
REMARK Flexibility Score: inf
ROOT
ATOM      1  C   UNL     1       0.274  -0.839  21.212  1.00  0.00     0.044 C 
ATOM      2  C   UNL     1       0.432  -2.080  22.041  1.00  0.00    -0.050 A 
ATOM      3  C   UNL     1       1.370  -3.057  21.678  1.00  0.00     0.019 A 
ATOM      4  C   UNL     1       1.498  -4.246  22.419  1.00  0.00     0.059 A 
ATOM      5  C   UNL     1       0.672  -4.440  23.554  1.00  0.00     0.126 A 
ATOM      6  C   UNL     1      -0.285  -3.475  23.887  1.00  0.00     0.047 A 
ATOM      7  C   UNL     1      -0.410  -2.307  23.136  1.00  0.00     0.007 A 
ENDROOT
BRANCH   4   8
ATOM      8  C   UNL     1       2.462  -5.278  21.966  1.00  0.00     0.163 C 
ATOM      9  O   UNL     1       3.125  -5.934  22.812  1.00  0.00    -0.294 OA
ATOM     10  C   UNL     1       2.597  -5.625  20.515  1.00  0.00     0.093 C 
ENDBRANCH   4   8
BRANCH   5  11
ATOM     11  O   UNL     1       0.790  -5.557  24.384  1.00  0.00    -0.507 OA
ATOM     12  H   UNL     1       1.203  -6.431  24.086  1.00  0.00     0.293 HD
ENDBRANCH   5  11
TORSDOF 2
ENDMDL
MODEL 3
REMARK VINA RESULT:    -4.598      1.396      2.741
REMARK INTER + INTRA:          -5.307
REMARK INTER:                  -5.013
REMARK INTRA:                  -0.294
REMARK UNBOUND:                -0.305
REMARK SMILES CC(=O)c1cc(C)ccc1O
REMARK SMILES IDX 7 1 6 2 5 3 4 4 10 5 9 6 8 7 2 8 3 9 1 10 11 11
REMARK H PARENT 11 12
REMARK Flexibility Score: inf
ROOT
ATOM      1  C   UNL     1       2.180  -3.606  23.034  1.00  0.00     0.044 C 
ATOM      2  C   UNL     1       2.165  -4.095  21.615  1.00  0.00    -0.050 A 
ATOM      3  C   UNL     1       1.625  -3.294  20.599  1.00  0.00     0.019 A 
ATOM      4  C   UNL     1       1.563  -3.757  19.271  1.00  0.00     0.059 A 
ATOM      5  C   UNL     1       2.068  -5.046  18.969  1.00  0.00     0.126 A 
ATOM      6  C   UNL     1       2.573  -5.851  19.997  1.00  0.00     0.047 A 
ATOM      7  C   UNL     1       2.616  -5.384  21.311  1.00  0.00     0.007 A 
ENDROOT
BRANCH   4   8
ATOM      8  C   UNL     1       0.932  -2.900  18.238  1.00  0.00     0.163 C 
ATOM      9  O   UNL     1       1.603  -2.516  17.244  1.00  0.00    -0.294 OA
ATOM     10  C   UNL     1      -0.525  -2.557  18.303  1.00  0.00     0.093 C 
ENDBRANCH   4   8
BRANCH   5  11
ATOM     11  O   UNL     1       2.112  -5.546  17.666  1.00  0.00    -0.507 OA
ATOM     12  H   UNL     1       1.483  -5.245  16.933  1.00  0.00     0.293 HD
ENDBRANCH   5  11
TORSDOF 2
ENDMDL
MODEL 4
REMARK VINA RESULT:    -4.394      2.248      4.498
REMARK INTER + INTRA:          -5.085
REMARK INTER:                  -4.778
REMARK INTRA:                  -0.306
REMARK UNBOUND:                -0.305
REMARK SMILES CC(=O)c1cc(C)ccc1O
REMARK SMILES IDX 7 1 6 2 5 3 4 4 10 5 9 6 8 7 2 8 3 9 1 10 11 11
REMARK H PARENT 11 12
REMARK Flexibility Score: inf
ROOT
ATOM      1  C   UNL     1       1.223  -3.320  17.236  1.00  0.00     0.044 C 
ATOM      2  C   UNL     1       1.632  -3.935  18.543  1.00  0.00    -0.050 A 
ATOM      3  C   UNL     1       1.502  -3.210  19.735  1.00  0.00     0.019 A 
ATOM      4  C   UNL     1       1.923  -3.756  20.962  1.00  0.00     0.059 A 
ATOM      5  C   UNL     1       2.472  -5.062  20.979  1.00  0.00     0.126 A 
ATOM      6  C   UNL     1       2.630  -5.764  19.779  1.00  0.00     0.047 A 
ATOM      7  C   UNL     1       2.220  -5.205  18.568  1.00  0.00     0.007 A 
ENDROOT
BRANCH   4   8
ATOM      8  C   UNL     1       1.821  -2.933  22.191  1.00  0.00     0.163 C 
ATOM      9  O   UNL     1       2.760  -2.935  23.030  1.00  0.00    -0.294 OA
ATOM     10  C   UNL     1       0.656  -2.017  22.412  1.00  0.00     0.093 C 
ENDBRANCH   4   8
BRANCH   5  11
ATOM     11  O   UNL     1       2.842  -5.703  22.164  1.00  0.00    -0.507 OA
ATOM     12  H   UNL     1       2.551  -6.641  22.403  1.00  0.00     0.293 HD
ENDBRANCH   5  11
TORSDOF 2
ENDMDL
MODEL 5
REMARK VINA RESULT:    -4.331      3.824      5.806
REMARK INTER + INTRA:          -5.016
REMARK INTER:                  -4.762
REMARK INTRA:                  -0.254
REMARK UNBOUND:                -0.305
REMARK SMILES CC(=O)c1cc(C)ccc1O
REMARK SMILES IDX 7 1 6 2 5 3 4 4 10 5 9 6 8 7 2 8 3 9 1 10 11 11
REMARK H PARENT 11 12
REMARK Flexibility Score: inf
ROOT
ATOM      1  C   UNL     1       0.492  -0.909  21.024  1.00  0.00     0.044 C 
ATOM      2  C   UNL     1       0.525  -2.121  21.909  1.00  0.00    -0.050 A 
ATOM      3  C   UNL     1      -0.389  -2.248  22.965  1.00  0.00     0.019 A 
ATOM      4  C   UNL     1      -0.341  -3.356  23.831  1.00  0.00     0.059 A 
ATOM      5  C   UNL     1       0.639  -4.356  23.614  1.00  0.00     0.126 A 
ATOM      6  C   UNL     1       1.568  -4.202  22.579  1.00  0.00     0.047 A 
ATOM      7  C   UNL     1       1.518  -3.092  21.736  1.00  0.00     0.007 A 
ENDROOT
BRANCH   4   8
ATOM      8  C   UNL     1      -1.289  -3.422  24.970  1.00  0.00     0.163 C 
ATOM      9  O   UNL     1      -0.858  -3.370  26.152  1.00  0.00    -0.294 OA
ATOM     10  C   UNL     1      -2.769  -3.455  24.742  1.00  0.00     0.093 C 
ENDBRANCH   4   8
BRANCH   5  11
ATOM     11  O   UNL     1       0.703  -5.521  24.381  1.00  0.00    -0.507 OA
ATOM     12  H   UNL     1       0.321  -5.594  25.315  1.00  0.00     0.293 HD
ENDBRANCH   5  11
TORSDOF 2
ENDMDL
MODEL 6
REMARK VINA RESULT:    -4.208      3.098      4.927
REMARK INTER + INTRA:          -4.882
REMARK INTER:                  -4.575
REMARK INTRA:                  -0.307
REMARK UNBOUND:                -0.305
REMARK SMILES CC(=O)c1cc(C)ccc1O
REMARK SMILES IDX 7 1 6 2 5 3 4 4 10 5 9 6 8 7 2 8 3 9 1 10 11 11
REMARK H PARENT 11 12
REMARK Flexibility Score: inf
ROOT
ATOM      1  C   UNL     1       2.379  -5.374  20.101  1.00  0.00     0.044 C 
ATOM      2  C   UNL     1       2.395  -4.986  21.551  1.00  0.00    -0.050 A 
ATOM      3  C   UNL     1       1.796  -3.789  21.968  1.00  0.00     0.019 A 
ATOM      4  C   UNL     1       1.843  -3.391  23.317  1.00  0.00     0.059 A 
ATOM      5  C   UNL     1       2.495  -4.226  24.258  1.00  0.00     0.126 A 
ATOM      6  C   UNL     1       3.120  -5.401  23.825  1.00  0.00     0.047 A 
ATOM      7  C   UNL     1       3.077  -5.777  22.483  1.00  0.00     0.007 A 
ENDROOT
BRANCH   4   8
ATOM      8  C   UNL     1       1.246  -2.089  23.704  1.00  0.00     0.163 C 
ATOM      9  O   UNL     1       1.868  -1.320  24.484  1.00  0.00    -0.294 OA
ATOM     10  C   UNL     1      -0.048  -1.625  23.110  1.00  0.00     0.093 C 
ENDBRANCH   4   8
BRANCH   5  11
ATOM     11  O   UNL     1       2.518  -3.938  25.624  1.00  0.00    -0.507 OA
ATOM     12  H   UNL     1       2.185  -3.067  26.015  1.00  0.00     0.293 HD
ENDBRANCH   5  11
TORSDOF 2
ENDMDL
MODEL 7
REMARK VINA RESULT:    -4.100      6.104      7.856
REMARK INTER + INTRA:          -4.764
REMARK INTER:                  -4.468
REMARK INTRA:                  -0.297
REMARK UNBOUND:                -0.305
REMARK SMILES CC(=O)c1cc(C)ccc1O
REMARK SMILES IDX 7 1 6 2 5 3 4 4 10 5 9 6 8 7 2 8 3 9 1 10 11 11
REMARK H PARENT 11 12
REMARK Flexibility Score: inf
ROOT
ATOM      1  C   UNL     1      -5.461   0.919  17.505  1.00  0.00     0.044 C 
ATOM      2  C   UNL     1      -4.819   0.364  18.744  1.00  0.00    -0.050 A 
ATOM      3  C   UNL     1      -3.426   0.231  18.818  1.00  0.00     0.019 A 
ATOM      4  C   UNL     1      -2.813  -0.329  19.955  1.00  0.00     0.059 A 
ATOM      5  C   UNL     1      -3.627  -0.747  21.037  1.00  0.00     0.126 A 
ATOM      6  C   UNL     1      -5.019  -0.643  20.938  1.00  0.00     0.047 A 
ATOM      7  C   UNL     1      -5.613  -0.098  19.800  1.00  0.00     0.007 A 
ENDROOT
BRANCH   4   8
ATOM      8  C   UNL     1      -1.341  -0.503  19.968  1.00  0.00     0.163 C 
ATOM      9  O   UNL     1      -0.844  -1.635  20.209  1.00  0.00    -0.294 OA
ATOM     10  C   UNL     1      -0.426   0.625  19.604  1.00  0.00     0.093 C 
ENDBRANCH   4   8
BRANCH   5  11
ATOM     11  O   UNL     1      -3.092  -1.241  22.228  1.00  0.00    -0.507 OA
ATOM     12  H   UNL     1      -3.169  -2.208  22.514  1.00  0.00     0.293 HD
ENDBRANCH   5  11
TORSDOF 2
ENDMDL
MODEL 8
REMARK VINA RESULT:    -4.051      4.821      5.904
REMARK INTER + INTRA:          -4.711
REMARK INTER:                  -4.404
REMARK INTRA:                  -0.307
REMARK UNBOUND:                -0.305
REMARK SMILES CC(=O)c1cc(C)ccc1O
REMARK SMILES IDX 7 1 6 2 5 3 4 4 10 5 9 6 8 7 2 8 3 9 1 10 11 11
REMARK H PARENT 11 12
REMARK Flexibility Score: inf
ROOT
ATOM      1  C   UNL     1       2.977  -0.606  25.906  1.00  0.00     0.044 C 
ATOM      2  C   UNL     1       2.285  -1.836  25.395  1.00  0.00    -0.050 A 
ATOM      3  C   UNL     1       0.928  -1.788  25.045  1.00  0.00     0.019 A 
ATOM      4  C   UNL     1       0.255  -2.944  24.607  1.00  0.00     0.059 A 
ATOM      5  C   UNL     1       0.972  -4.162  24.510  1.00  0.00     0.126 A 
ATOM      6  C   UNL     1       2.317  -4.206  24.894  1.00  0.00     0.047 A 
ATOM      7  C   UNL     1       2.969  -3.056  25.339  1.00  0.00     0.007 A 
ENDROOT
BRANCH   4   8
ATOM      8  C   UNL     1      -1.194  -2.861  24.302  1.00  0.00     0.163 C 
ATOM      9  O   UNL     1      -1.978  -3.754  24.722  1.00  0.00    -0.294 OA
ATOM     10  C   UNL     1      -1.766  -1.680  23.581  1.00  0.00     0.093 C 
ENDBRANCH   4   8
BRANCH   5  11
ATOM     11  O   UNL     1       0.396  -5.332  24.012  1.00  0.00    -0.507 OA
ATOM     12  H   UNL     1      -0.080  -6.009  24.594  1.00  0.00     0.293 HD
ENDBRANCH   5  11
TORSDOF 2
ENDMDL
MODEL 9
REMARK VINA RESULT:    -3.935      3.249      4.600
REMARK INTER + INTRA:          -4.585
REMARK INTER:                  -4.456
REMARK INTRA:                  -0.128
REMARK UNBOUND:                -0.305
REMARK SMILES CC(=O)c1cc(C)ccc1O
REMARK SMILES IDX 7 1 6 2 5 3 4 4 10 5 9 6 8 7 2 8 3 9 1 10 11 11
REMARK H PARENT 11 12
REMARK Flexibility Score: inf
ROOT
ATOM      1  C   UNL     1       2.724  -0.540  25.955  1.00  0.00     0.044 C 
ATOM      2  C   UNL     1       1.984  -1.731  25.420  1.00  0.00    -0.050 A 
ATOM      3  C   UNL     1       2.472  -2.422  24.302  1.00  0.00     0.019 A 
ATOM      4  C   UNL     1       1.766  -3.513  23.762  1.00  0.00     0.059 A 
ATOM      5  C   UNL     1       0.553  -3.916  24.374  1.00  0.00     0.126 A 
ATOM      6  C   UNL     1       0.056  -3.198  25.468  1.00  0.00     0.047 A 
ATOM      7  C   UNL     1       0.761  -2.111  25.985  1.00  0.00     0.007 A 
ENDROOT
BRANCH   4   8
ATOM      8  C   UNL     1       2.288  -4.179  22.545  1.00  0.00     0.163 C 
ATOM      9  O   UNL     1       2.100  -3.659  21.413  1.00  0.00    -0.294 OA
ATOM     10  C   UNL     1       3.125  -5.417  22.640  1.00  0.00     0.093 C 
ENDBRANCH   4   8
BRANCH   5  11
ATOM     11  O   UNL     1      -0.166  -5.033  23.946  1.00  0.00    -0.507 OA
ATOM     12  H   UNL     1      -0.369  -5.826  24.540  1.00  0.00     0.293 HD
ENDBRANCH   5  11
TORSDOF 2
ENDMDL
