MODEL 1
REMARK VINA RESULT:    -2.879      0.000      0.000
REMARK INTER + INTRA:          -3.253
REMARK INTER:                  -3.215
REMARK INTRA:                  -0.038
REMARK UNBOUND:                -0.038
REMARK SMILES CCCC(=O)[O-]
REMARK SMILES IDX 3 1 4 2 5 3 6 4 2 5 1 6
REMARK H PARENT
REMARK Flexibility Score: inf
ROOT
ATOM      1  C   UNL     1     -16.125  -5.472 -31.848  1.00  0.00     0.052 C 
ENDROOT
BRANCH   1   2
ATOM      2  C   UNL     1     -15.375  -4.384 -32.554  1.00  0.00     0.041 C 
ATOM      3  O   UNL     1     -15.999  -3.462 -33.141  1.00  0.00    -0.550 OA
ATOM      4  O   UNL     1     -13.986  -4.408 -32.592  1.00  0.00    -0.550 OA
ENDBRANCH   1   2
BRANCH   1   5
ATOM      5  C   UNL     1     -15.381  -5.954 -30.596  1.00  0.00     0.003 C 
ATOM      6  C   UNL     1     -14.949  -7.416 -30.704  1.00  0.00     0.004 C 
ENDBRANCH   1   5
TORSDOF 2
ENDMDL
MODEL 2
REMARK VINA RESULT:    -2.876      2.009      3.802
REMARK INTER + INTRA:          -3.250
REMARK INTER:                  -3.239
REMARK INTRA:                  -0.011
REMARK UNBOUND:                -0.038
REMARK SMILES CCCC(=O)[O-]
REMARK SMILES IDX 3 1 4 2 5 3 6 4 2 5 1 6
REMARK H PARENT
REMARK Flexibility Score: inf
ROOT
ATOM      1  C   UNL     1     -15.806  -3.615 -32.968  1.00  0.00     0.052 C 
ENDROOT
BRANCH   1   2
ATOM      2  C   UNL     1     -15.245  -4.815 -32.270  1.00  0.00     0.041 C 
ATOM      3  O   UNL     1     -14.007  -4.908 -32.064  1.00  0.00    -0.550 OA
ATOM      4  O   UNL     1     -16.087  -5.848 -31.875  1.00  0.00    -0.550 OA
ENDBRANCH   1   2
BRANCH   1   5
ATOM      5  C   UNL     1     -14.701  -2.741 -33.573  1.00  0.00     0.003 C 
ATOM      6  C   UNL     1     -15.260  -1.538 -34.331  1.00  0.00     0.004 C 
ENDBRANCH   1   5
TORSDOF 2
ENDMDL
MODEL 3
REMARK VINA RESULT:    -2.837      2.063      2.590
REMARK INTER + INTRA:          -3.206
REMARK INTER:                  -3.197
REMARK INTRA:                  -0.009
REMARK UNBOUND:                -0.038
REMARK SMILES CCCC(=O)[O-]
REMARK SMILES IDX 3 1 4 2 5 3 6 4 2 5 1 6
REMARK H PARENT
REMARK Flexibility Score: inf
ROOT
ATOM      1  C   UNL     1     -14.944  -7.408 -30.674  1.00  0.00     0.052 C 
ENDROOT
BRANCH   1   2
ATOM      2  C   UNL     1     -15.578  -6.086 -30.979  1.00  0.00     0.041 C 
ATOM      3  O   UNL     1     -16.066  -5.864 -32.118  1.00  0.00    -0.550 OA
ATOM      4  O   UNL     1     -15.600  -5.085 -30.015  1.00  0.00    -0.550 OA
ENDBRANCH   1   2
BRANCH   1   5
ATOM      5  C   UNL     1     -13.618  -7.242 -29.923  1.00  0.00     0.003 C 
ATOM      6  C   UNL     1     -13.168  -8.535 -29.245  1.00  0.00     0.004 C 
ENDBRANCH   1   5
TORSDOF 2
ENDMDL
MODEL 4
REMARK VINA RESULT:    -2.737     26.992     27.475
REMARK INTER + INTRA:          -3.094
REMARK INTER:                  -3.027
REMARK INTRA:                  -0.067
REMARK UNBOUND:                -0.038
REMARK SMILES CCCC(=O)[O-]
REMARK SMILES IDX 3 1 4 2 5 3 6 4 2 5 1 6
REMARK H PARENT
REMARK Flexibility Score: inf
ROOT
ATOM      1  C   UNL     1       1.419   9.208 -14.908  1.00  0.00     0.052 C 
ENDROOT
BRANCH   1   2
ATOM      2  C   UNL     1       1.772  10.200 -15.973  1.00  0.00     0.041 C 
ATOM      3  O   UNL     1       2.966  10.322 -16.355  1.00  0.00    -0.550 OA
ATOM      4  O   UNL     1       0.788  11.013 -16.522  1.00  0.00    -0.550 OA
ENDBRANCH   1   2
BRANCH   1   5
ATOM      5  C   UNL     1       1.806   7.780 -15.312  1.00  0.00     0.003 C 
ATOM      6  C   UNL     1       1.101   7.326 -16.589  1.00  0.00     0.004 C 
ENDBRANCH   1   5
TORSDOF 2
ENDMDL
MODEL 5
REMARK VINA RESULT:    -2.719      2.976      3.932
REMARK INTER + INTRA:          -3.074
REMARK INTER:                  -3.067
REMARK INTRA:                  -0.008
REMARK UNBOUND:                -0.038
REMARK SMILES CCCC(=O)[O-]
REMARK SMILES IDX 3 1 4 2 5 3 6 4 2 5 1 6
REMARK H PARENT
REMARK Flexibility Score: inf
ROOT
ATOM      1  C   UNL     1     -15.386  -7.075 -30.829  1.00  0.00     0.052 C 
ENDROOT
BRANCH   1   2
ATOM      2  C   UNL     1     -14.249  -7.865 -30.258  1.00  0.00     0.041 C 
ATOM      3  O   UNL     1     -14.290  -9.123 -30.256  1.00  0.00    -0.550 OA
ATOM      4  O   UNL     1     -13.158  -7.211 -29.698  1.00  0.00    -0.550 OA
ENDBRANCH   1   2
BRANCH   1   5
ATOM      5  C   UNL     1     -14.944  -5.667 -31.249  1.00  0.00     0.003 C 
ATOM      6  C   UNL     1     -15.956  -4.993 -32.174  1.00  0.00     0.004 C 
ENDBRANCH   1   5
TORSDOF 2
ENDMDL
MODEL 6
REMARK VINA RESULT:    -2.666     27.160     27.630
REMARK INTER + INTRA:          -3.016
REMARK INTER:                  -2.967
REMARK INTRA:                  -0.049
REMARK UNBOUND:                -0.038
REMARK SMILES CCCC(=O)[O-]
REMARK SMILES IDX 3 1 4 2 5 3 6 4 2 5 1 6
REMARK H PARENT
REMARK Flexibility Score: inf
ROOT
ATOM      1  C   UNL     1       2.649  10.394 -16.209  1.00  0.00     0.052 C 
ENDROOT
BRANCH   1   2
ATOM      2  C   UNL     1       2.807  10.097 -17.668  1.00  0.00     0.041 C 
ATOM      3  O   UNL     1       3.948   9.875 -18.151  1.00  0.00    -0.550 OA
ATOM      4  O   UNL     1       1.696  10.098 -18.503  1.00  0.00    -0.550 OA
ENDBRANCH   1   2
BRANCH   1   5
ATOM      5  C   UNL     1       1.410   9.709 -15.621  1.00  0.00     0.003 C 
ATOM      6  C   UNL     1       1.688   8.265 -15.204  1.00  0.00     0.004 C 
ENDBRANCH   1   5
TORSDOF 2
ENDMDL
MODEL 7
REMARK VINA RESULT:    -2.659      1.996      3.205
REMARK INTER + INTRA:          -3.007
REMARK INTER:                  -2.972
REMARK INTRA:                  -0.035
REMARK UNBOUND:                -0.038
REMARK SMILES CCCC(=O)[O-]
REMARK SMILES IDX 3 1 4 2 5 3 6 4 2 5 1 6
REMARK H PARENT
REMARK Flexibility Score: inf
ROOT
ATOM      1  C   UNL     1     -16.125  -5.626 -31.736  1.00  0.00     0.052 C 
ENDROOT
BRANCH   1   2
ATOM      2  C   UNL     1     -15.036  -6.392 -31.048  1.00  0.00     0.041 C 
ATOM      3  O   UNL     1     -15.218  -7.592 -30.714  1.00  0.00    -0.550 OA
ATOM      4  O   UNL     1     -13.832  -5.768 -30.744  1.00  0.00    -0.550 OA
ENDBRANCH   1   2
BRANCH   1   5
ATOM      5  C   UNL     1     -15.888  -4.113 -31.664  1.00  0.00     0.003 C 
ATOM      6  C   UNL     1     -15.729  -3.484 -33.048  1.00  0.00     0.004 C 
ENDBRANCH   1   5
TORSDOF 2
ENDMDL
MODEL 8
REMARK VINA RESULT:    -2.622      3.531      4.612
REMARK INTER + INTRA:          -2.966
REMARK INTER:                  -2.951
REMARK INTRA:                  -0.015
REMARK UNBOUND:                -0.038
REMARK SMILES CCCC(=O)[O-]
REMARK SMILES IDX 3 1 4 2 5 3 6 4 2 5 1 6
REMARK H PARENT
REMARK Flexibility Score: inf
ROOT
ATOM      1  C   UNL     1     -13.107  -7.218 -29.489  1.00  0.00     0.052 C 
ENDROOT
BRANCH   1   2
ATOM      2  C   UNL     1     -14.225  -7.871 -30.243  1.00  0.00     0.041 C 
ATOM      3  O   UNL     1     -14.324  -9.125 -30.269  1.00  0.00    -0.550 OA
ATOM      4  O   UNL     1     -15.137  -7.093 -30.945  1.00  0.00    -0.550 OA
ENDBRANCH   1   2
BRANCH   1   5
ATOM      5  C   UNL     1     -12.170  -8.253 -28.855  1.00  0.00     0.003 C 
ATOM      6  C   UNL     1     -12.522  -8.536 -27.395  1.00  0.00     0.004 C 
ENDBRANCH   1   5
TORSDOF 2
ENDMDL
MODEL 9
REMARK VINA RESULT:    -2.611      3.258      3.550
REMARK INTER + INTRA:          -2.954
REMARK INTER:                  -2.900
REMARK INTRA:                  -0.054
REMARK UNBOUND:                -0.038
REMARK SMILES CCCC(=O)[O-]
REMARK SMILES IDX 3 1 4 2 5 3 6 4 2 5 1 6
REMARK H PARENT
REMARK Flexibility Score: inf
ROOT
ATOM      1  C   UNL     1     -15.607  -2.949 -33.271  1.00  0.00     0.052 C 
ENDROOT
BRANCH   1   2
ATOM      2  C   UNL     1     -15.318  -1.581 -33.809  1.00  0.00     0.041 C 
ATOM      3  O   UNL     1     -14.953  -1.435 -35.005  1.00  0.00    -0.550 OA
ATOM      4  O   UNL     1     -15.419  -0.471 -32.980  1.00  0.00    -0.550 OA
ENDBRANCH   1   2
BRANCH   1   5
ATOM      5  C   UNL     1     -14.343  -3.814 -33.210  1.00  0.00     0.003 C 
ATOM      6  C   UNL     1     -13.512  -3.541 -31.958  1.00  0.00     0.004 C 
ENDBRANCH   1   5
TORSDOF 2
ENDMDL
