MODEL 1
REMARK VINA RESULT:    -3.970      0.000      0.000
REMARK INTER + INTRA:          -5.053
REMARK INTER:                  -4.782
REMARK INTRA:                  -0.271
REMARK UNBOUND:                -0.271
REMARK SMILES NC(=O)C[C@H]([NH3+])C(=O)[O-]
REMARK SMILES IDX 4 1 5 2 6 3 7 7 8 8 9 9 2 10 3 11 1 12
REMARK H PARENT 6 4 6 5 6 6 1 13 1 14
REMARK Flexibility Score: inf
ROOT
ATOM      1  C   UNL     1      46.367  52.910  92.286  1.00  0.00     0.171 C 
ENDROOT
BRANCH   1   2
ATOM      2  C   UNL     1      45.505  51.826  91.606  1.00  0.00     0.237 C 
BRANCH   2   3
ATOM      3  N   UNL     1      44.232  52.376  91.120  1.00  0.00    -0.350 N 
ATOM      4  H   UNL     1      43.596  52.565  91.928  1.00  0.00     0.345 HD
ATOM      5  H   UNL     1      44.390  53.265  90.592  1.00  0.00     0.345 HD
ATOM      6  H   UNL     1      43.758  51.683  90.495  1.00  0.00     0.345 HD
ENDBRANCH   2   3
BRANCH   2   7
ATOM      7  C   UNL     1      45.250  50.698  92.572  1.00  0.00     0.100 C 
ATOM      8  O   UNL     1      46.193  50.214  93.253  1.00  0.00    -0.544 OA
ATOM      9  O   UNL     1      43.971  50.174  92.705  1.00  0.00    -0.544 OA
ENDBRANCH   2   7
ENDBRANCH   1   2
BRANCH   1  10
ATOM     10  C   UNL     1      46.009  54.286  91.802  1.00  0.00     0.223 C 
ATOM     11  O   UNL     1      45.007  54.878  92.285  1.00  0.00    -0.275 OA
ATOM     12  N   UNL     1      46.815  54.942  90.825  1.00  0.00    -0.369 N 
ATOM     13  H   UNL     1      47.662  54.477  90.431  1.00  0.00     0.159 HD
ATOM     14  H   UNL     1      46.569  55.904  90.498  1.00  0.00     0.159 HD
ENDBRANCH   1  10
TORSDOF 4
ENDMDL
MODEL 2
REMARK VINA RESULT:    -3.955      1.958      2.304
REMARK INTER + INTRA:          -5.035
REMARK INTER:                  -4.773
REMARK INTRA:                  -0.262
REMARK UNBOUND:                -0.271
REMARK SMILES NC(=O)C[C@H]([NH3+])C(=O)[O-]
REMARK SMILES IDX 4 1 5 2 6 3 7 7 8 8 9 9 2 10 3 11 1 12
REMARK H PARENT 6 4 6 5 6 6 1 13 1 14
REMARK Flexibility Score: inf
ROOT
ATOM      1  C   UNL     1      45.037  52.743  91.497  1.00  0.00     0.171 C 
ENDROOT
BRANCH   1   2
ATOM      2  C   UNL     1      45.936  51.802  92.326  1.00  0.00     0.237 C 
BRANCH   2   3
ATOM      3  N   UNL     1      47.208  52.448  92.682  1.00  0.00    -0.350 N 
ATOM      4  H   UNL     1      47.564  53.001  91.868  1.00  0.00     0.345 HD
ATOM      5  H   UNL     1      47.085  53.084  93.502  1.00  0.00     0.345 HD
ATOM      6  H   UNL     1      47.925  51.722  92.913  1.00  0.00     0.345 HD
ENDBRANCH   2   3
BRANCH   2   7
ATOM      7  C   UNL     1      46.193  50.533  91.556  1.00  0.00     0.100 C 
ATOM      8  O   UNL     1      45.241  49.909  91.018  1.00  0.00    -0.544 OA
ATOM      9  O   UNL     1      47.485  50.035  91.451  1.00  0.00    -0.544 OA
ENDBRANCH   2   7
ENDBRANCH   1   2
BRANCH   1  10
ATOM     10  C   UNL     1      45.422  54.182  91.682  1.00  0.00     0.223 C 
ATOM     11  O   UNL     1      46.429  54.643  91.080  1.00  0.00    -0.275 OA
ATOM     12  N   UNL     1      44.637  55.042  92.507  1.00  0.00    -0.369 N 
ATOM     13  H   UNL     1      43.787  54.684  92.995  1.00  0.00     0.159 HD
ATOM     14  H   UNL     1      44.902  56.046  92.625  1.00  0.00     0.159 HD
ENDBRANCH   1  10
TORSDOF 4
ENDMDL
MODEL 3
REMARK VINA RESULT:    -3.951      1.579      4.192
REMARK INTER + INTRA:          -5.031
REMARK INTER:                  -4.766
REMARK INTRA:                  -0.265
REMARK UNBOUND:                -0.271
REMARK SMILES NC(=O)C[C@H]([NH3+])C(=O)[O-]
REMARK SMILES IDX 4 1 5 2 6 3 7 7 8 8 9 9 2 10 3 11 1 12
REMARK H PARENT 6 4 6 5 6 6 1 13 1 14
REMARK Flexibility Score: inf
ROOT
ATOM      1  C   UNL     1      44.838  52.320  91.781  1.00  0.00     0.171 C 
ENDROOT
BRANCH   1   2
ATOM      2  C   UNL     1      46.165  53.104  91.687  1.00  0.00     0.237 C 
BRANCH   2   3
ATOM      3  N   UNL     1      47.071  52.762  92.793  1.00  0.00    -0.350 N 
ATOM      4  H   UNL     1      47.388  53.635  93.274  1.00  0.00     0.345 HD
ATOM      5  H   UNL     1      46.593  52.142  93.487  1.00  0.00     0.345 HD
ATOM      6  H   UNL     1      47.919  52.275  92.423  1.00  0.00     0.345 HD
ENDBRANCH   2   3
BRANCH   2   7
ATOM      7  C   UNL     1      45.884  54.583  91.682  1.00  0.00     0.100 C 
ATOM      8  O   UNL     1      44.972  55.063  92.407  1.00  0.00    -0.544 OA
ATOM      9  O   UNL     1      46.620  55.427  90.861  1.00  0.00    -0.544 OA
ENDBRANCH   2   7
ENDBRANCH   1   2
BRANCH   1  10
ATOM     10  C   UNL     1      45.075  50.843  91.904  1.00  0.00     0.223 C 
ATOM     11  O   UNL     1      45.398  50.352  93.019  1.00  0.00    -0.275 OA
ATOM     12  N   UNL     1      44.905  49.985  90.777  1.00  0.00    -0.369 N 
ATOM     13  H   UNL     1      44.615  50.371  89.851  1.00  0.00     0.159 HD
ATOM     14  H   UNL     1      45.060  48.956  90.869  1.00  0.00     0.159 HD
ENDBRANCH   1  10
TORSDOF 4
ENDMDL
MODEL 4
REMARK VINA RESULT:    -3.925      2.757      5.167
REMARK INTER + INTRA:          -5.000
REMARK INTER:                  -4.725
REMARK INTRA:                  -0.274
REMARK UNBOUND:                -0.271
REMARK SMILES NC(=O)C[C@H]([NH3+])C(=O)[O-]
REMARK SMILES IDX 4 1 5 2 6 3 7 7 8 8 9 9 2 10 3 11 1 12
REMARK H PARENT 6 4 6 5 6 6 1 13 1 14
REMARK Flexibility Score: inf
ROOT
ATOM      1  C   UNL     1      45.780  55.367  91.477  1.00  0.00     0.171 C 
ENDROOT
BRANCH   1   2
ATOM      2  C   UNL     1      45.082  56.197  92.575  1.00  0.00     0.237 C 
BRANCH   2   3
ATOM      3  N   UNL     1      43.800  55.597  92.970  1.00  0.00    -0.350 N 
ATOM      4  H   UNL     1      43.091  55.745  92.215  1.00  0.00     0.345 HD
ATOM      5  H   UNL     1      43.908  54.571  93.142  1.00  0.00     0.345 HD
ATOM      6  H   UNL     1      43.442  56.056  93.838  1.00  0.00     0.345 HD
ENDBRANCH   2   3
BRANCH   2   7
ATOM      7  C   UNL     1      44.869  57.607  92.089  1.00  0.00     0.100 C 
ATOM      8  O   UNL     1      43.818  58.234  92.389  1.00  0.00    -0.544 OA
ATOM      9  O   UNL     1      45.828  58.219  91.292  1.00  0.00    -0.544 OA
ENDBRANCH   2   7
ENDBRANCH   1   2
BRANCH   1  10
ATOM     10  C   UNL     1      45.768  53.901  91.799  1.00  0.00     0.223 C 
ATOM     11  O   UNL     1      44.883  53.158  91.298  1.00  0.00    -0.275 OA
ATOM     12  N   UNL     1      46.771  53.336  92.643  1.00  0.00    -0.369 N 
ATOM     13  H   UNL     1      47.526  53.933  93.048  1.00  0.00     0.159 HD
ATOM     14  H   UNL     1      46.766  52.314  92.856  1.00  0.00     0.159 HD
ENDBRANCH   1  10
TORSDOF 4
ENDMDL
MODEL 5
REMARK VINA RESULT:    -3.917      1.792      3.950
REMARK INTER + INTRA:          -4.990
REMARK INTER:                  -4.737
REMARK INTRA:                  -0.252
REMARK UNBOUND:                -0.271
REMARK SMILES NC(=O)C[C@H]([NH3+])C(=O)[O-]
REMARK SMILES IDX 4 1 5 2 6 3 7 7 8 8 9 9 2 10 3 11 1 12
REMARK H PARENT 6 4 6 5 6 6 1 13 1 14
REMARK Flexibility Score: inf
ROOT
ATOM      1  C   UNL     1      46.689  52.389  91.984  1.00  0.00     0.171 C 
ENDROOT
BRANCH   1   2
ATOM      2  C   UNL     1      45.341  53.140  91.972  1.00  0.00     0.237 C 
BRANCH   2   3
ATOM      3  N   UNL     1      44.425  52.586  90.965  1.00  0.00    -0.350 N 
ATOM      4  H   UNL     1      44.609  51.563  90.843  1.00  0.00     0.345 HD
ATOM      5  H   UNL     1      43.429  52.723  91.253  1.00  0.00     0.345 HD
ATOM      6  H   UNL     1      44.585  53.051  90.042  1.00  0.00     0.345 HD
ENDBRANCH   2   3
BRANCH   2   7
ATOM      7  C   UNL     1      45.576  54.605  91.713  1.00  0.00     0.100 C 
ATOM      8  O   UNL     1      46.475  54.976  90.914  1.00  0.00    -0.544 OA
ATOM      9  O   UNL     1      44.808  55.557  92.371  1.00  0.00    -0.544 OA
ENDBRANCH   2   7
ENDBRANCH   1   2
BRANCH   1  10
ATOM     10  C   UNL     1      46.505  50.923  92.247  1.00  0.00     0.223 C 
ATOM     11  O   UNL     1      46.013  50.184  91.352  1.00  0.00    -0.275 OA
ATOM     12  N   UNL     1      46.912  50.352  93.490  1.00  0.00    -0.369 N 
ATOM     13  H   UNL     1      47.343  50.944  94.233  1.00  0.00     0.159 HD
ATOM     14  H   UNL     1      46.792  49.329  93.664  1.00  0.00     0.159 HD
ENDBRANCH   1  10
TORSDOF 4
ENDMDL
MODEL 6
REMARK VINA RESULT:    -3.911      2.494      5.259
REMARK INTER + INTRA:          -4.983
REMARK INTER:                  -4.703
REMARK INTRA:                  -0.280
REMARK UNBOUND:                -0.271
REMARK SMILES NC(=O)C[C@H]([NH3+])C(=O)[O-]
REMARK SMILES IDX 4 1 5 2 6 3 7 7 8 8 9 9 2 10 3 11 1 12
REMARK H PARENT 6 4 6 5 6 6 1 13 1 14
REMARK Flexibility Score: inf
ROOT
ATOM      1  C   UNL     1      45.629  55.312  91.760  1.00  0.00     0.171 C 
ENDROOT
BRANCH   1   2
ATOM      2  C   UNL     1      46.350  55.962  90.561  1.00  0.00     0.237 C 
BRANCH   2   3
ATOM      3  N   UNL     1      47.638  55.309  90.288  1.00  0.00    -0.350 N 
ATOM      4  H   UNL     1      48.062  55.709  89.420  1.00  0.00     0.345 HD
ATOM      5  H   UNL     1      48.300  55.443  91.087  1.00  0.00     0.345 HD
ATOM      6  H   UNL     1      47.493  54.285  90.130  1.00  0.00     0.345 HD
ENDBRANCH   2   3
BRANCH   2   7
ATOM      7  C   UNL     1      46.557  57.430  90.827  1.00  0.00     0.100 C 
ATOM      8  O   UNL     1      47.564  58.028  90.363  1.00  0.00    -0.544 OA
ATOM      9  O   UNL     1      45.642  58.131  91.601  1.00  0.00    -0.544 OA
ENDBRANCH   2   7
ENDBRANCH   1   2
BRANCH   1  10
ATOM     10  C   UNL     1      45.646  53.813  91.670  1.00  0.00     0.223 C 
ATOM     11  O   UNL     1      46.555  53.162  92.251  1.00  0.00    -0.275 OA
ATOM     12  N   UNL     1      44.622  53.118  90.960  1.00  0.00    -0.369 N 
ATOM     13  H   UNL     1      43.848  53.640  90.493  1.00  0.00     0.159 HD
ATOM     14  H   UNL     1      44.631  52.075  90.909  1.00  0.00     0.159 HD
ENDBRANCH   1  10
TORSDOF 4
ENDMDL
MODEL 7
REMARK VINA RESULT:    -3.853      7.999      9.395
REMARK INTER + INTRA:          -4.912
REMARK INTER:                  -4.650
REMARK INTRA:                  -0.262
REMARK UNBOUND:                -0.271
REMARK SMILES NC(=O)C[C@H]([NH3+])C(=O)[O-]
REMARK SMILES IDX 4 1 5 2 6 3 7 7 8 8 9 9 2 10 3 11 1 12
REMARK H PARENT 6 4 6 5 6 6 1 13 1 14
REMARK Flexibility Score: inf
ROOT
ATOM      1  C   UNL     1      43.628  45.080  86.579  1.00  0.00     0.171 C 
ENDROOT
BRANCH   1   2
ATOM      2  C   UNL     1      43.627  46.623  86.549  1.00  0.00     0.237 C 
BRANCH   2   3
ATOM      3  N   UNL     1      44.885  47.152  86.004  1.00  0.00    -0.350 N 
ATOM      4  H   UNL     1      45.264  46.494  85.286  1.00  0.00     0.345 HD
ATOM      5  H   UNL     1      44.734  48.090  85.565  1.00  0.00     0.345 HD
ATOM      6  H   UNL     1      45.596  47.238  86.766  1.00  0.00     0.345 HD
ENDBRANCH   2   3
BRANCH   2   7
ATOM      7  C   UNL     1      43.394  47.159  87.938  1.00  0.00     0.100 C 
ATOM      8  O   UNL     1      44.206  47.973  88.453  1.00  0.00    -0.544 OA
ATOM      9  O   UNL     1      42.286  46.744  88.665  1.00  0.00    -0.544 OA
ENDBRANCH   2   7
ENDBRANCH   1   2
BRANCH   1  10
ATOM     10  C   UNL     1      43.968  44.501  85.237  1.00  0.00     0.223 C 
ATOM     11  O   UNL     1      45.153  44.155  84.986  1.00  0.00    -0.275 OA
ATOM     12  N   UNL     1      42.952  44.306  84.253  1.00  0.00    -0.369 N 
ATOM     13  H   UNL     1      41.961  44.565  84.451  1.00  0.00     0.159 HD
ATOM     14  H   UNL     1      43.191  43.893  83.324  1.00  0.00     0.159 HD
ENDBRANCH   1  10
TORSDOF 4
ENDMDL
MODEL 8
REMARK VINA RESULT:    -3.821      4.503      5.449
REMARK INTER + INTRA:          -4.874
REMARK INTER:                  -4.670
REMARK INTRA:                  -0.204
REMARK UNBOUND:                -0.271
REMARK SMILES NC(=O)C[C@H]([NH3+])C(=O)[O-]
REMARK SMILES IDX 4 1 5 2 6 3 7 7 8 8 9 9 2 10 3 11 1 12
REMARK H PARENT 6 4 6 5 6 6 1 13 1 14
REMARK Flexibility Score: inf
ROOT
ATOM      1  C   UNL     1      45.890  58.426  91.956  1.00  0.00     0.171 C 
ENDROOT
BRANCH   1   2
ATOM      2  C   UNL     1      44.454  57.948  92.256  1.00  0.00     0.237 C 
BRANCH   2   3
ATOM      3  N   UNL     1      43.770  58.851  93.192  1.00  0.00    -0.350 N 
ATOM      4  H   UNL     1      43.884  59.842  92.876  1.00  0.00     0.345 HD
ATOM      5  H   UNL     1      42.750  58.625  93.249  1.00  0.00     0.345 HD
ATOM      6  H   UNL     1      44.195  58.769  94.144  1.00  0.00     0.345 HD
ENDBRANCH   2   3
BRANCH   2   7
ATOM      7  C   UNL     1      44.489  56.549  92.814  1.00  0.00     0.100 C 
ATOM      8  O   UNL     1      44.955  55.600  92.130  1.00  0.00    -0.544 OA
ATOM      9  O   UNL     1      43.990  56.297  94.085  1.00  0.00    -0.544 OA
ENDBRANCH   2   7
ENDBRANCH   1   2
BRANCH   1  10
ATOM     10  C   UNL     1      46.294  58.113  90.545  1.00  0.00     0.223 C 
ATOM     11  O   UNL     1      45.969  58.895  89.612  1.00  0.00    -0.275 OA
ATOM     12  N   UNL     1      47.074  56.953  90.254  1.00  0.00    -0.369 N 
ATOM     13  H   UNL     1      47.373  56.306  91.017  1.00  0.00     0.159 HD
ATOM     14  H   UNL     1      47.363  56.744  89.273  1.00  0.00     0.159 HD
ENDBRANCH   1  10
TORSDOF 4
ENDMDL
MODEL 9
REMARK VINA RESULT:    -3.754      1.922      3.958
REMARK INTER + INTRA:          -4.794
REMARK INTER:                  -4.507
REMARK INTRA:                  -0.286
REMARK UNBOUND:                -0.271
REMARK SMILES NC(=O)C[C@H]([NH3+])C(=O)[O-]
REMARK SMILES IDX 4 1 5 2 6 3 7 7 8 8 9 9 2 10 3 11 1 12
REMARK H PARENT 6 4 6 5 6 6 1 13 1 14
REMARK Flexibility Score: inf
ROOT
ATOM      1  C   UNL     1      44.942  50.203  91.736  1.00  0.00     0.171 C 
ENDROOT
BRANCH   1   2
ATOM      2  C   UNL     1      44.838  51.722  91.987  1.00  0.00     0.237 C 
BRANCH   2   3
ATOM      3  N   UNL     1      44.126  52.400  90.895  1.00  0.00    -0.350 N 
ATOM      4  H   UNL     1      44.235  53.436  90.989  1.00  0.00     0.345 HD
ATOM      5  H   UNL     1      44.499  52.099  89.965  1.00  0.00     0.345 HD
ATOM      6  H   UNL     1      43.104  52.181  90.944  1.00  0.00     0.345 HD
ENDBRANCH   2   3
BRANCH   2   7
ATOM      7  C   UNL     1      46.216  52.307  92.152  1.00  0.00     0.100 C 
ATOM      8  O   UNL     1      46.371  53.550  92.284  1.00  0.00    -0.544 OA
ATOM      9  O   UNL     1      47.328  51.476  92.144  1.00  0.00    -0.544 OA
ENDBRANCH   2   7
ENDBRANCH   1   2
BRANCH   1  10
ATOM     10  C   UNL     1      43.830  49.709  90.858  1.00  0.00     0.223 C 
ATOM     11  O   UNL     1      42.632  49.905  91.196  1.00  0.00    -0.275 OA
ATOM     12  N   UNL     1      44.118  49.048  89.626  1.00  0.00    -0.369 N 
ATOM     13  H   UNL     1      45.104  48.898  89.319  1.00  0.00     0.159 HD
ATOM     14  H   UNL     1      43.341  48.715  89.012  1.00  0.00     0.159 HD
ENDBRANCH   1  10
TORSDOF 4
ENDMDL
