MODEL 1
REMARK VINA RESULT:    -4.887      0.000      0.000
REMARK INTER + INTRA:          -5.030
REMARK INTER:                  -5.030
REMARK INTRA:                   0.000
REMARK UNBOUND:                 0.000
REMARK SMILES O=c1ccc2cc(O)ccc2o1
REMARK SMILES IDX 9 1 10 2 11 3 5 4 4 5 3 6 2 7 1 8 12 9 6 10 7 11 8 12
REMARK H PARENT 8 13
REMARK Flexibility Score: inf
ROOT
ATOM      1  C   UNL     1       2.794 -13.463  15.085  1.00  0.00     0.050 A 
ATOM      2  C   UNL     1       4.173 -13.464  14.854  1.00  0.00     0.052 A 
ATOM      3  C   UNL     1       4.849 -14.671  14.650  1.00  0.00     0.138 A 
ATOM      4  C   UNL     1       4.134 -15.889  14.675  1.00  0.00     0.021 A 
ATOM      5  C   UNL     1       4.837 -17.079  14.466  1.00  0.00     0.019 A 
ATOM      6  C   UNL     1       6.212 -17.031  14.241  1.00  0.00     0.094 A 
ATOM      7  C   UNL     1       6.854 -15.788  14.229  1.00  0.00     0.336 A 
ATOM      8  O   UNL     1       8.096 -15.725  14.028  1.00  0.00    -0.246 OA
ATOM      9  O   UNL     1       6.162 -14.670  14.431  1.00  0.00    -0.423 OA
ATOM     10  C   UNL     1       2.750 -15.883  14.906  1.00  0.00     0.058 A 
ATOM     11  C   UNL     1       2.079 -14.668  15.110  1.00  0.00     0.116 A 
ENDROOT
BRANCH  11  12
ATOM     12  O   UNL     1       0.706 -14.646  15.340  1.00  0.00    -0.508 OA
ATOM     13  H   UNL     1       0.062 -15.164  14.754  1.00  0.00     0.293 HD
ENDBRANCH  11  12
TORSDOF 1
ENDMDL
MODEL 2
REMARK VINA RESULT:    -4.554      2.226      2.525
REMARK INTER + INTRA:          -4.687
REMARK INTER:                  -4.687
REMARK INTRA:                   0.000
REMARK UNBOUND:                 0.000
REMARK SMILES O=c1ccc2cc(O)ccc2o1
REMARK SMILES IDX 9 1 10 2 11 3 5 4 4 5 3 6 2 7 1 8 12 9 6 10 7 11 8 12
REMARK H PARENT 8 13
REMARK Flexibility Score: inf
ROOT
ATOM      1  C   UNL     1       2.339 -14.221  15.245  1.00  0.00     0.050 A 
ATOM      2  C   UNL     1       2.835 -15.204  14.384  1.00  0.00     0.052 A 
ATOM      3  C   UNL     1       3.678 -16.206  14.874  1.00  0.00     0.138 A 
ATOM      4  C   UNL     1       4.025 -16.222  16.243  1.00  0.00     0.021 A 
ATOM      5  C   UNL     1       4.869 -17.236  16.705  1.00  0.00     0.019 A 
ATOM      6  C   UNL     1       5.341 -18.196  15.809  1.00  0.00     0.094 A 
ATOM      7  C   UNL     1       4.954 -18.117  14.467  1.00  0.00     0.336 A 
ATOM      8  O   UNL     1       5.370 -18.973  13.643  1.00  0.00    -0.246 OA
ATOM      9  O   UNL     1       4.150 -17.141  14.053  1.00  0.00    -0.423 OA
ATOM     10  C   UNL     1       3.525 -15.234  17.104  1.00  0.00     0.058 A 
ATOM     11  C   UNL     1       2.680 -14.232  16.603  1.00  0.00     0.116 A 
ENDROOT
BRANCH  11  12
ATOM     12  O   UNL     1       2.175 -13.245  17.445  1.00  0.00    -0.508 OA
ATOM     13  H   UNL     1       2.213 -12.264  17.195  1.00  0.00     0.293 HD
ENDBRANCH  11  12
TORSDOF 1
ENDMDL
MODEL 3
REMARK VINA RESULT:    -4.372      1.822      1.919
REMARK INTER + INTRA:          -4.499
REMARK INTER:                  -4.499
REMARK INTRA:                   0.000
REMARK UNBOUND:                 0.000
REMARK SMILES O=c1ccc2cc(O)ccc2o1
REMARK SMILES IDX 9 1 10 2 11 3 5 4 4 5 3 6 2 7 1 8 12 9 6 10 7 11 8 12
REMARK H PARENT 8 13
REMARK Flexibility Score: inf
ROOT
ATOM      1  C   UNL     1       2.451 -14.195  16.560  1.00  0.00     0.050 A 
ATOM      2  C   UNL     1       3.607 -14.741  17.127  1.00  0.00     0.052 A 
ATOM      3  C   UNL     1       4.370 -15.668  16.411  1.00  0.00     0.138 A 
ATOM      4  C   UNL     1       3.970 -16.050  15.111  1.00  0.00     0.021 A 
ATOM      5  C   UNL     1       4.753 -16.978  14.419  1.00  0.00     0.019 A 
ATOM      6  C   UNL     1       5.898 -17.497  15.025  1.00  0.00     0.094 A 
ATOM      7  C   UNL     1       6.233 -17.071  16.315  1.00  0.00     0.336 A 
ATOM      8  O   UNL     1       7.261 -17.527  16.879  1.00  0.00    -0.246 OA
ATOM      9  O   UNL     1       5.469 -16.187  16.952  1.00  0.00    -0.423 OA
ATOM     10  C   UNL     1       2.810 -15.500  14.546  1.00  0.00     0.058 A 
ATOM     11  C   UNL     1       2.050 -14.571  15.272  1.00  0.00     0.116 A 
ENDROOT
BRANCH  11  12
ATOM     12  O   UNL     1       0.897 -14.016  14.723  1.00  0.00    -0.508 OA
ATOM     13  H   UNL     1       0.551 -14.302  13.814  1.00  0.00     0.293 HD
ENDBRANCH  11  12
TORSDOF 1
ENDMDL
MODEL 4
REMARK VINA RESULT:    -4.303      1.710      2.342
REMARK INTER + INTRA:          -4.429
REMARK INTER:                  -4.429
REMARK INTRA:                   0.000
REMARK UNBOUND:                 0.000
REMARK SMILES O=c1ccc2cc(O)ccc2o1
REMARK SMILES IDX 9 1 10 2 11 3 5 4 4 5 3 6 2 7 1 8 12 9 6 10 7 11 8 12
REMARK H PARENT 8 13
REMARK Flexibility Score: inf
ROOT
ATOM      1  C   UNL     1       2.046 -14.358  15.172  1.00  0.00     0.050 A 
ATOM      2  C   UNL     1       2.491 -15.619  14.763  1.00  0.00     0.052 A 
ATOM      3  C   UNL     1       3.860 -15.869  14.626  1.00  0.00     0.138 A 
ATOM      4  C   UNL     1       4.792 -14.844  14.904  1.00  0.00     0.021 A 
ATOM      5  C   UNL     1       6.154 -15.124  14.759  1.00  0.00     0.019 A 
ATOM      6  C   UNL     1       6.552 -16.396  14.347  1.00  0.00     0.094 A 
ATOM      7  C   UNL     1       5.573 -17.362  14.091  1.00  0.00     0.336 A 
ATOM      8  O   UNL     1       5.912 -18.516  13.718  1.00  0.00    -0.246 OA
ATOM      9  O   UNL     1       4.283 -17.070  14.236  1.00  0.00    -0.423 OA
ATOM     10  C   UNL     1       4.340 -13.581  15.314  1.00  0.00     0.058 A 
ATOM     11  C   UNL     1       2.965 -13.338  15.449  1.00  0.00     0.116 A 
ENDROOT
BRANCH  11  12
ATOM     12  O   UNL     1       2.502 -12.090  15.855  1.00  0.00    -0.508 OA
ATOM     13  H   UNL     1       1.877 -11.542  15.276  1.00  0.00     0.293 HD
ENDBRANCH  11  12
TORSDOF 1
ENDMDL
MODEL 5
REMARK VINA RESULT:    -4.253      2.506      4.804
REMARK INTER + INTRA:          -4.377
REMARK INTER:                  -4.377
REMARK INTRA:                   0.000
REMARK UNBOUND:                 0.000
REMARK SMILES O=c1ccc2cc(O)ccc2o1
REMARK SMILES IDX 9 1 10 2 11 3 5 4 4 5 3 6 2 7 1 8 12 9 6 10 7 11 8 12
REMARK H PARENT 8 13
REMARK Flexibility Score: inf
ROOT
ATOM      1  C   UNL     1       5.918 -19.266  14.623  1.00  0.00     0.050 A 
ATOM      2  C   UNL     1       5.216 -18.274  13.932  1.00  0.00     0.052 A 
ATOM      3  C   UNL     1       4.523 -17.285  14.637  1.00  0.00     0.138 A 
ATOM      4  C   UNL     1       4.535 -17.291  16.049  1.00  0.00     0.021 A 
ATOM      5  C   UNL     1       3.834 -16.289  16.726  1.00  0.00     0.019 A 
ATOM      6  C   UNL     1       3.147 -15.320  15.995  1.00  0.00     0.094 A 
ATOM      7  C   UNL     1       3.180 -15.376  14.598  1.00  0.00     0.336 A 
ATOM      8  O   UNL     1       2.567 -14.511  13.920  1.00  0.00    -0.246 OA
ATOM      9  O   UNL     1       3.855 -16.341  13.977  1.00  0.00    -0.423 OA
ATOM     10  C   UNL     1       5.241 -18.289  16.738  1.00  0.00     0.058 A 
ATOM     11  C   UNL     1       5.934 -19.277  16.023  1.00  0.00     0.116 A 
ENDROOT
BRANCH  11  12
ATOM     12  O   UNL     1       6.639 -20.274  16.694  1.00  0.00    -0.508 OA
ATOM     13  H   UNL     1       6.423 -20.522  17.652  1.00  0.00     0.293 HD
ENDBRANCH  11  12
TORSDOF 1
ENDMDL
MODEL 6
REMARK VINA RESULT:    -4.217      2.210      3.778
REMARK INTER + INTRA:          -4.340
REMARK INTER:                  -4.340
REMARK INTRA:                   0.000
REMARK UNBOUND:                 0.000
REMARK SMILES O=c1ccc2cc(O)ccc2o1
REMARK SMILES IDX 9 1 10 2 11 3 5 4 4 5 3 6 2 7 1 8 12 9 6 10 7 11 8 12
REMARK H PARENT 8 13
REMARK Flexibility Score: inf
ROOT
ATOM      1  C   UNL     1       6.625 -17.522  13.752  1.00  0.00     0.050 A 
ATOM      2  C   UNL     1       7.203 -16.270  13.987  1.00  0.00     0.052 A 
ATOM      3  C   UNL     1       6.423 -15.218  14.477  1.00  0.00     0.138 A 
ATOM      4  C   UNL     1       5.050 -15.425  14.735  1.00  0.00     0.021 A 
ATOM      5  C   UNL     1       4.296 -14.355  15.226  1.00  0.00     0.019 A 
ATOM      6  C   UNL     1       4.915 -13.124  15.444  1.00  0.00     0.094 A 
ATOM      7  C   UNL     1       6.280 -12.993  15.167  1.00  0.00     0.336 A 
ATOM      8  O   UNL     1       6.856 -11.890  15.357  1.00  0.00    -0.246 OA
ATOM      9  O   UNL     1       6.975 -14.028  14.700  1.00  0.00    -0.423 OA
ATOM     10  C   UNL     1       4.475 -16.682  14.498  1.00  0.00     0.058 A 
ATOM     11  C   UNL     1       5.264 -17.732  14.006  1.00  0.00     0.116 A 
ENDROOT
BRANCH  11  12
ATOM     12  O   UNL     1       4.707 -18.986  13.766  1.00  0.00    -0.508 OA
ATOM     13  H   UNL     1       4.588 -19.663  14.510  1.00  0.00     0.293 HD
ENDBRANCH  11  12
TORSDOF 1
ENDMDL
MODEL 7
REMARK VINA RESULT:    -4.148      2.326      3.638
REMARK INTER + INTRA:          -4.269
REMARK INTER:                  -4.269
REMARK INTRA:                   0.000
REMARK UNBOUND:                 0.000
REMARK SMILES O=c1ccc2cc(O)ccc2o1
REMARK SMILES IDX 9 1 10 2 11 3 5 4 4 5 3 6 2 7 1 8 12 9 6 10 7 11 8 12
REMARK H PARENT 8 13
REMARK Flexibility Score: inf
ROOT
ATOM      1  C   UNL     1       2.503 -15.665  15.108  1.00  0.00     0.050 A 
ATOM      2  C   UNL     1       2.461 -14.286  14.888  1.00  0.00     0.052 A 
ATOM      3  C   UNL     1       3.648 -13.569  14.703  1.00  0.00     0.138 A 
ATOM      4  C   UNL     1       4.888 -14.244  14.739  1.00  0.00     0.021 A 
ATOM      5  C   UNL     1       6.057 -13.501  14.550  1.00  0.00     0.019 A 
ATOM      6  C   UNL     1       5.968 -12.126  14.334  1.00  0.00     0.094 A 
ATOM      7  C   UNL     1       4.705 -11.525  14.311  1.00  0.00     0.336 A 
ATOM      8  O   UNL     1       4.603 -10.285  14.118  1.00  0.00    -0.246 OA
ATOM      9  O   UNL     1       3.607 -12.255  14.494  1.00  0.00    -0.423 OA
ATOM     10  C   UNL     1       4.924 -15.629  14.960  1.00  0.00     0.058 A 
ATOM     11  C   UNL     1       3.729 -16.340  15.145  1.00  0.00     0.116 A 
ENDROOT
BRANCH  11  12
ATOM     12  O   UNL     1       3.750 -17.715  15.365  1.00  0.00    -0.508 OA
ATOM     13  H   UNL     1       2.955 -18.200  15.765  1.00  0.00     0.293 HD
ENDBRANCH  11  12
TORSDOF 1
ENDMDL
MODEL 8
REMARK VINA RESULT:    -4.116      2.417      4.469
REMARK INTER + INTRA:          -4.236
REMARK INTER:                  -4.236
REMARK INTRA:                   0.000
REMARK UNBOUND:                 0.000
REMARK SMILES O=c1ccc2cc(O)ccc2o1
REMARK SMILES IDX 9 1 10 2 11 3 5 4 4 5 3 6 2 7 1 8 12 9 6 10 7 11 8 12
REMARK H PARENT 8 13
REMARK Flexibility Score: inf
ROOT
ATOM      1  C   UNL     1       4.455 -18.066  16.036  1.00  0.00     0.050 A 
ATOM      2  C   UNL     1       4.116 -17.118  17.006  1.00  0.00     0.052 A 
ATOM      3  C   UNL     1       3.747 -15.825  16.625  1.00  0.00     0.138 A 
ATOM      4  C   UNL     1       3.718 -15.478  15.256  1.00  0.00     0.021 A 
ATOM      5  C   UNL     1       3.344 -14.178  14.905  1.00  0.00     0.019 A 
ATOM      6  C   UNL     1       3.014 -13.266  15.907  1.00  0.00     0.094 A 
ATOM      7  C   UNL     1       3.065 -13.680  17.243  1.00  0.00     0.336 A 
ATOM      8  O   UNL     1       2.771 -12.871  18.162  1.00  0.00    -0.246 OA
ATOM      9  O   UNL     1       3.424 -14.924  17.550  1.00  0.00    -0.423 OA
ATOM     10  C   UNL     1       4.059 -16.432  14.286  1.00  0.00     0.058 A 
ATOM     11  C   UNL     1       4.428 -17.728  14.677  1.00  0.00     0.116 A 
ENDROOT
BRANCH  11  12
ATOM     12  O   UNL     1       4.769 -18.686  13.725  1.00  0.00    -0.508 OA
ATOM     13  H   UNL     1       4.806 -19.672  13.955  1.00  0.00     0.293 HD
ENDBRANCH  11  12
TORSDOF 1
ENDMDL
MODEL 9
REMARK VINA RESULT:    -4.085      1.623      4.149
REMARK INTER + INTRA:          -4.204
REMARK INTER:                  -4.204
REMARK INTRA:                   0.000
REMARK UNBOUND:                 0.000
REMARK SMILES O=c1ccc2cc(O)ccc2o1
REMARK SMILES IDX 9 1 10 2 11 3 5 4 4 5 3 6 2 7 1 8 12 9 6 10 7 11 8 12
REMARK H PARENT 8 13
REMARK Flexibility Score: inf
ROOT
ATOM      1  C   UNL     1       6.623 -16.401  14.401  1.00  0.00     0.050 A 
ATOM      2  C   UNL     1       6.195 -15.105  14.705  1.00  0.00     0.052 A 
ATOM      3  C   UNL     1       4.832 -14.833  14.859  1.00  0.00     0.138 A 
ATOM      4  C   UNL     1       3.889 -15.874  14.708  1.00  0.00     0.021 A 
ATOM      5  C   UNL     1       2.533 -15.572  14.869  1.00  0.00     0.019 A 
ATOM      6  C   UNL     1       2.153 -14.265  15.171  1.00  0.00     0.094 A 
ATOM      7  C   UNL     1       3.144 -13.286  15.307  1.00  0.00     0.336 A 
ATOM      8  O   UNL     1       2.821 -12.100  15.579  1.00  0.00    -0.246 OA
ATOM      9  O   UNL     1       4.427 -13.599  15.148  1.00  0.00    -0.423 OA
ATOM     10  C   UNL     1       4.322 -17.172  14.404  1.00  0.00     0.058 A 
ATOM     11  C   UNL     1       5.692 -17.436  14.250  1.00  0.00     0.116 A 
ENDROOT
BRANCH  11  12
ATOM     12  O   UNL     1       6.137 -18.721  13.948  1.00  0.00    -0.508 OA
ATOM     13  H   UNL     1       5.652 -19.543  14.288  1.00  0.00     0.293 HD
ENDBRANCH  11  12
TORSDOF 1
ENDMDL
