MODEL 1
REMARK VINA RESULT:    -4.550      0.000      0.000
REMARK INTER + INTRA:          -7.510
REMARK INTER:                  -6.945
REMARK INTRA:                  -0.565
REMARK UNBOUND:                -0.565
REMARK SMILES O=C([O-])CCCCCCCCC(=O)[O-]
REMARK SMILES IDX 7 1 6 2 5 3 4 4 2 5 1 6 3 7 8 8 9 9 10 10 11 11 12 12 13 13
REMARK SMILES IDX 14 14
REMARK H PARENT
REMARK Flexibility Score: inf
ROOT
ATOM      1  C   UNL     1       1.143 -21.218  -7.888  1.00  0.00     0.000 C 
ENDROOT
BRANCH   1   2
ATOM      2  C   UNL     1       2.618 -20.958  -8.234  1.00  0.00     0.000 C 
BRANCH   2   3
ATOM      3  C   UNL     1       3.240 -19.843  -7.378  1.00  0.00     0.006 C 
BRANCH   3   4
ATOM      4  C   UNL     1       4.743 -20.069  -7.194  1.00  0.00     0.053 C 
BRANCH   4   5
ATOM      5  C   UNL     1       4.997 -21.378  -6.514  1.00  0.00     0.041 C 
ATOM      6  O   UNL     1       4.483 -21.619  -5.391  1.00  0.00    -0.550 OA
ATOM      7  O   UNL     1       5.842 -22.312  -7.100  1.00  0.00    -0.550 OA
ENDBRANCH   4   5
ENDBRANCH   3   4
ENDBRANCH   2   3
ENDBRANCH   1   2
BRANCH   1   8
ATOM      8  C   UNL     1       0.970 -22.284  -6.796  1.00  0.00     0.000 C 
BRANCH   8   9
ATOM      9  C   UNL     1       0.175 -21.729  -5.608  1.00  0.00     0.000 C 
BRANCH   9  10
ATOM     10  C   UNL     1       0.960 -20.628  -4.886  1.00  0.00     0.006 C 
BRANCH  10  11
ATOM     11  C   UNL     1       0.395 -20.380  -3.484  1.00  0.00     0.053 C 
BRANCH  11  12
ATOM     12  C   UNL     1       1.504 -20.206  -2.495  1.00  0.00     0.041 C 
ATOM     13  O   UNL     1       2.285 -19.221  -2.585  1.00  0.00    -0.550 OA
ATOM     14  O   UNL     1       1.647 -21.103  -1.444  1.00  0.00    -0.550 OA
ENDBRANCH  11  12
ENDBRANCH  10  11
ENDBRANCH   9  10
ENDBRANCH   8   9
ENDBRANCH   1   8
TORSDOF 9
ENDMDL
MODEL 2
REMARK VINA RESULT:    -4.433      1.372      2.125
REMARK INTER + INTRA:          -7.331
REMARK INTER:                  -6.517
REMARK INTRA:                  -0.814
REMARK UNBOUND:                -0.565
REMARK SMILES O=C([O-])CCCCCCCCC(=O)[O-]
REMARK SMILES IDX 7 1 6 2 5 3 4 4 2 5 1 6 3 7 8 8 9 9 10 10 11 11 12 12 13 13
REMARK SMILES IDX 14 14
REMARK H PARENT
REMARK Flexibility Score: inf
ROOT
ATOM      1  C   UNL     1       2.636 -20.637  -8.020  1.00  0.00     0.000 C 
ENDROOT
BRANCH   1   2
ATOM      2  C   UNL     1       3.976 -20.211  -7.401  1.00  0.00     0.000 C 
BRANCH   2   3
ATOM      3  C   UNL     1       4.708 -21.376  -6.714  1.00  0.00     0.006 C 
BRANCH   3   4
ATOM      4  C   UNL     1       4.380 -21.422  -5.219  1.00  0.00     0.053 C 
BRANCH   4   5
ATOM      5  C   UNL     1       5.619 -21.229  -4.404  1.00  0.00     0.041 C 
ATOM      6  O   UNL     1       6.753 -21.331  -4.941  1.00  0.00    -0.550 OA
ATOM      7  O   UNL     1       5.523 -20.984  -3.040  1.00  0.00    -0.550 OA
ENDBRANCH   4   5
ENDBRANCH   3   4
ENDBRANCH   2   3
ENDBRANCH   1   2
BRANCH   1   8
ATOM      8  C   UNL     1       1.439 -20.341  -7.103  1.00  0.00     0.000 C 
BRANCH   8   9
ATOM      9  C   UNL     1       0.900 -21.630  -6.471  1.00  0.00     0.000 C 
BRANCH   9  10
ATOM     10  C   UNL     1       0.317 -21.358  -5.079  1.00  0.00     0.006 C 
BRANCH  10  11
ATOM     11  C   UNL     1       0.914 -20.084  -4.472  1.00  0.00     0.053 C 
BRANCH  11  12
ATOM     12  C   UNL     1       1.148 -20.262  -3.006  1.00  0.00     0.041 C 
ATOM     13  O   UNL     1       0.341 -20.937  -2.312  1.00  0.00    -0.550 OA
ATOM     14  O   UNL     1       2.284 -19.725  -2.412  1.00  0.00    -0.550 OA
ENDBRANCH  11  12
ENDBRANCH  10  11
ENDBRANCH   9  10
ENDBRANCH   8   9
ENDBRANCH   1   8
TORSDOF 9
ENDMDL
MODEL 3
REMARK VINA RESULT:    -4.419      1.178      4.302
REMARK INTER + INTRA:          -7.309
REMARK INTER:                  -6.358
REMARK INTRA:                  -0.951
REMARK UNBOUND:                -0.565
REMARK SMILES O=C([O-])CCCCCCCCC(=O)[O-]
REMARK SMILES IDX 7 1 6 2 5 3 4 4 2 5 1 6 3 7 8 8 9 9 10 10 11 11 12 12 13 13
REMARK SMILES IDX 14 14
REMARK H PARENT
REMARK Flexibility Score: inf
ROOT
ATOM      1  C   UNL     1       0.553 -22.550  -6.595  1.00  0.00     0.000 C 
ENDROOT
BRANCH   1   2
ATOM      2  C   UNL     1      -0.089 -21.377  -5.837  1.00  0.00     0.000 C 
BRANCH   2   3
ATOM      3  C   UNL     1       0.478 -21.208  -4.418  1.00  0.00     0.006 C 
BRANCH   3   4
ATOM      4  C   UNL     1       0.841 -19.746  -4.145  1.00  0.00     0.053 C 
BRANCH   4   5
ATOM      5  C   UNL     1       1.600 -19.625  -2.861  1.00  0.00     0.041 C 
ATOM      6  O   UNL     1       2.338 -18.627  -2.653  1.00  0.00    -0.550 OA
ATOM      7  O   UNL     1       1.530 -20.639  -1.915  1.00  0.00    -0.550 OA
ENDBRANCH   4   5
ENDBRANCH   3   4
ENDBRANCH   2   3
ENDBRANCH   1   2
BRANCH   1   8
ATOM      8  C   UNL     1       1.255 -22.107  -7.888  1.00  0.00     0.000 C 
BRANCH   8   9
ATOM      9  C   UNL     1       1.544 -20.601  -7.867  1.00  0.00     0.000 C 
BRANCH   9  10
ATOM     10  C   UNL     1       3.053 -20.331  -7.819  1.00  0.00     0.006 C 
BRANCH  10  11
ATOM     11  C   UNL     1       3.753 -21.298  -6.859  1.00  0.00     0.053 C 
BRANCH  11  12
ATOM     12  C   UNL     1       4.123 -20.600  -5.589  1.00  0.00     0.041 C 
ATOM     13  O   UNL     1       4.555 -21.258  -4.606  1.00  0.00    -0.550 OA
ATOM     14  O   UNL     1       4.039 -19.216  -5.506  1.00  0.00    -0.550 OA
ENDBRANCH  11  12
ENDBRANCH  10  11
ENDBRANCH   9  10
ENDBRANCH   8   9
ENDBRANCH   1   8
TORSDOF 9
ENDMDL
MODEL 4
REMARK VINA RESULT:    -4.406      1.211      1.692
REMARK INTER + INTRA:          -7.289
REMARK INTER:                  -6.152
REMARK INTRA:                  -1.137
REMARK UNBOUND:                -0.565
REMARK SMILES O=C([O-])CCCCCCCCC(=O)[O-]
REMARK SMILES IDX 7 1 6 2 5 3 4 4 2 5 1 6 3 7 8 8 9 9 10 10 11 11 12 12 13 13
REMARK SMILES IDX 14 14
REMARK H PARENT
REMARK Flexibility Score: inf
ROOT
ATOM      1  C   UNL     1       1.010 -22.016  -7.837  1.00  0.00     0.000 C 
ENDROOT
BRANCH   1   2
ATOM      2  C   UNL     1       1.654 -20.633  -8.029  1.00  0.00     0.000 C 
BRANCH   2   3
ATOM      3  C   UNL     1       3.163 -20.637  -7.742  1.00  0.00     0.006 C 
BRANCH   3   4
ATOM      4  C   UNL     1       3.529 -19.550  -6.728  1.00  0.00     0.053 C 
BRANCH   4   5
ATOM      5  C   UNL     1       4.169 -20.154  -5.518  1.00  0.00     0.041 C 
ATOM      6  O   UNL     1       4.082 -21.393  -5.308  1.00  0.00    -0.550 OA
ATOM      7  O   UNL     1       4.818 -19.343  -4.596  1.00  0.00    -0.550 OA
ENDBRANCH   4   5
ENDBRANCH   3   4
ENDBRANCH   2   3
ENDBRANCH   1   2
BRANCH   1   8
ATOM      8  C   UNL     1       0.832 -22.385  -6.356  1.00  0.00     0.000 C 
BRANCH   8   9
ATOM      9  C   UNL     1      -0.039 -21.350  -5.634  1.00  0.00     0.000 C 
BRANCH   9  10
ATOM     10  C   UNL     1       0.532 -21.021  -4.249  1.00  0.00     0.006 C 
BRANCH  10  11
ATOM     11  C   UNL     1       0.825 -19.523  -4.117  1.00  0.00     0.053 C 
BRANCH  11  12
ATOM     12  C   UNL     1       1.708 -19.264  -2.938  1.00  0.00     0.041 C 
ATOM     13  O   UNL     1       2.184 -20.226  -2.278  1.00  0.00    -0.550 OA
ATOM     14  O   UNL     1       2.047 -17.961  -2.595  1.00  0.00    -0.550 OA
ENDBRANCH  11  12
ENDBRANCH  10  11
ENDBRANCH   9  10
ENDBRANCH   8   9
ENDBRANCH   1   8
TORSDOF 9
ENDMDL
MODEL 5
REMARK VINA RESULT:    -4.323      1.059      4.576
REMARK INTER + INTRA:          -7.162
REMARK INTER:                  -6.386
REMARK INTRA:                  -0.776
REMARK UNBOUND:                -0.565
REMARK SMILES O=C([O-])CCCCCCCCC(=O)[O-]
REMARK SMILES IDX 7 1 6 2 5 3 4 4 2 5 1 6 3 7 8 8 9 9 10 10 11 11 12 12 13 13
REMARK SMILES IDX 14 14
REMARK H PARENT
REMARK Flexibility Score: inf
ROOT
ATOM      1  C   UNL     1       0.460 -21.630  -5.262  1.00  0.00     0.000 C 
ENDROOT
BRANCH   1   2
ATOM      2  C   UNL     1       0.851 -20.201  -4.855  1.00  0.00     0.000 C 
BRANCH   2   3
ATOM      3  C   UNL     1       0.614 -19.924  -3.362  1.00  0.00     0.006 C 
BRANCH   3   4
ATOM      4  C   UNL     1       1.876 -20.213  -2.545  1.00  0.00     0.053 C 
BRANCH   4   5
ATOM      5  C   UNL     1       2.783 -19.023  -2.540  1.00  0.00     0.041 C 
ATOM      6  O   UNL     1       2.626 -18.111  -1.686  1.00  0.00    -0.550 OA
ATOM      7  O   UNL     1       3.769 -18.897  -3.510  1.00  0.00    -0.550 OA
ENDBRANCH   4   5
ENDBRANCH   3   4
ENDBRANCH   2   3
ENDBRANCH   1   2
BRANCH   1   8
ATOM      8  C   UNL     1       0.773 -21.933  -6.735  1.00  0.00     0.000 C 
BRANCH   8   9
ATOM      9  C   UNL     1       1.318 -20.689  -7.448  1.00  0.00     0.000 C 
BRANCH   9  10
ATOM     10  C   UNL     1       2.733 -20.937  -7.984  1.00  0.00     0.006 C 
BRANCH  10  11
ATOM     11  C   UNL     1       3.784 -20.283  -7.082  1.00  0.00     0.053 C 
BRANCH  11  12
ATOM     12  C   UNL     1       4.580 -21.326  -6.362  1.00  0.00     0.041 C 
ATOM     13  O   UNL     1       4.293 -21.635  -5.175  1.00  0.00    -0.550 OA
ATOM     14  O   UNL     1       5.606 -21.994  -7.018  1.00  0.00    -0.550 OA
ENDBRANCH  11  12
ENDBRANCH  10  11
ENDBRANCH   9  10
ENDBRANCH   8   9
ENDBRANCH   1   8
TORSDOF 9
ENDMDL
MODEL 6
REMARK VINA RESULT:    -4.305      2.122      4.787
REMARK INTER + INTRA:          -7.135
REMARK INTER:                  -6.241
REMARK INTRA:                  -0.894
REMARK UNBOUND:                -0.565
REMARK SMILES O=C([O-])CCCCCCCCC(=O)[O-]
REMARK SMILES IDX 7 1 6 2 5 3 4 4 2 5 1 6 3 7 8 8 9 9 10 10 11 11 12 12 13 13
REMARK SMILES IDX 14 14
REMARK H PARENT
REMARK Flexibility Score: inf
ROOT
ATOM      1  C   UNL     1       4.877 -21.596  -5.370  1.00  0.00     0.000 C 
ENDROOT
BRANCH   1   2
ATOM      2  C   UNL     1       4.717 -20.269  -4.613  1.00  0.00     0.000 C 
BRANCH   2   3
ATOM      3  C   UNL     1       3.783 -20.389  -3.398  1.00  0.00     0.006 C 
BRANCH   3   4
ATOM      4  C   UNL     1       2.634 -19.382  -3.490  1.00  0.00     0.053 C 
BRANCH   4   5
ATOM      5  C   UNL     1       1.392 -19.946  -2.874  1.00  0.00     0.041 C 
ATOM      6  O   UNL     1       1.466 -20.663  -1.842  1.00  0.00    -0.550 OA
ATOM      7  O   UNL     1       0.157 -19.720  -3.468  1.00  0.00    -0.550 OA
ENDBRANCH   4   5
ENDBRANCH   3   4
ENDBRANCH   2   3
ENDBRANCH   1   2
BRANCH   1   8
ATOM      8  C   UNL     1       4.841 -21.417  -6.895  1.00  0.00     0.000 C 
BRANCH   8   9
ATOM      9  C   UNL     1       4.041 -20.167  -7.282  1.00  0.00     0.000 C 
BRANCH   9  10
ATOM     10  C   UNL     1       2.674 -20.548  -7.865  1.00  0.00     0.006 C 
BRANCH  10  11
ATOM     11  C   UNL     1       1.602 -20.589  -6.771  1.00  0.00     0.053 C 
BRANCH  11  12
ATOM     12  C   UNL     1       0.879 -21.898  -6.796  1.00  0.00     0.041 C 
ATOM     13  O   UNL     1       0.946 -22.640  -7.812  1.00  0.00    -0.550 OA
ATOM     14  O   UNL     1       0.170 -22.322  -5.679  1.00  0.00    -0.550 OA
ENDBRANCH  11  12
ENDBRANCH  10  11
ENDBRANCH   9  10
ENDBRANCH   8   9
ENDBRANCH   1   8
TORSDOF 9
ENDMDL
MODEL 7
REMARK VINA RESULT:    -4.292      1.823      2.428
REMARK INTER + INTRA:          -7.115
REMARK INTER:                  -6.380
REMARK INTRA:                  -0.734
REMARK UNBOUND:                -0.565
REMARK SMILES O=C([O-])CCCCCCCCC(=O)[O-]
REMARK SMILES IDX 7 1 6 2 5 3 4 4 2 5 1 6 3 7 8 8 9 9 10 10 11 11 12 12 13 13
REMARK SMILES IDX 14 14
REMARK H PARENT
REMARK Flexibility Score: inf
ROOT
ATOM      1  C   UNL     1       1.299 -21.713  -6.030  1.00  0.00     0.000 C 
ENDROOT
BRANCH   1   2
ATOM      2  C   UNL     1       0.984 -21.456  -7.512  1.00  0.00     0.000 C 
BRANCH   2   3
ATOM      3  C   UNL     1       2.155 -20.801  -8.262  1.00  0.00     0.006 C 
BRANCH   3   4
ATOM      4  C   UNL     1       3.456 -20.933  -7.465  1.00  0.00     0.053 C 
BRANCH   4   5
ATOM      5  C   UNL     1       4.177 -19.623  -7.417  1.00  0.00     0.041 C 
ATOM      6  O   UNL     1       3.746 -18.689  -6.692  1.00  0.00    -0.550 OA
ATOM      7  O   UNL     1       5.298 -19.417  -8.211  1.00  0.00    -0.550 OA
ENDBRANCH   4   5
ENDBRANCH   3   4
ENDBRANCH   2   3
ENDBRANCH   1   2
BRANCH   1   8
ATOM      8  C   UNL     1       0.129 -21.347  -5.104  1.00  0.00     0.000 C 
BRANCH   8   9
ATOM      9  C   UNL     1       0.523 -20.221  -4.141  1.00  0.00     0.000 C 
BRANCH   9  10
ATOM     10  C   UNL     1       2.048 -20.128  -3.997  1.00  0.00     0.006 C 
BRANCH  10  11
ATOM     11  C   UNL     1       2.443 -19.795  -2.555  1.00  0.00     0.053 C 
BRANCH  11  12
ATOM     12  C   UNL     1       2.828 -18.354  -2.437  1.00  0.00     0.041 C 
ATOM     13  O   UNL     1       2.940 -17.819  -1.302  1.00  0.00    -0.550 OA
ATOM     14  O   UNL     1       3.110 -17.614  -3.577  1.00  0.00    -0.550 OA
ENDBRANCH  11  12
ENDBRANCH  10  11
ENDBRANCH   9  10
ENDBRANCH   8   9
ENDBRANCH   1   8
TORSDOF 9
ENDMDL
MODEL 8
REMARK VINA RESULT:    -4.287     11.377     13.317
REMARK INTER + INTRA:          -7.108
REMARK INTER:                  -6.184
REMARK INTRA:                  -0.924
REMARK UNBOUND:                -0.565
REMARK SMILES O=C([O-])CCCCCCCCC(=O)[O-]
REMARK SMILES IDX 7 1 6 2 5 3 4 4 2 5 1 6 3 7 8 8 9 9 10 10 11 11 12 12 13 13
REMARK SMILES IDX 14 14
REMARK H PARENT
REMARK Flexibility Score: inf
ROOT
ATOM      1  C   UNL     1      -5.540 -26.957  -3.119  1.00  0.00     0.000 C 
ENDROOT
BRANCH   1   2
ATOM      2  C   UNL     1      -6.189 -26.901  -1.727  1.00  0.00     0.000 C 
BRANCH   2   3
ATOM      3  C   UNL     1      -7.374 -25.926  -1.664  1.00  0.00     0.006 C 
BRANCH   3   4
ATOM      4  C   UNL     1      -8.535 -26.420  -2.532  1.00  0.00     0.053 C 
BRANCH   4   5
ATOM      5  C   UNL     1      -9.001 -25.336  -3.452  1.00  0.00     0.041 C 
ATOM      6  O   UNL     1      -8.998 -24.136  -3.070  1.00  0.00    -0.550 OA
ATOM      7  O   UNL     1      -9.483 -25.656  -4.715  1.00  0.00    -0.550 OA
ENDBRANCH   4   5
ENDBRANCH   3   4
ENDBRANCH   2   3
ENDBRANCH   1   2
BRANCH   1   8
ATOM      8  C   UNL     1      -5.323 -28.395  -3.615  1.00  0.00     0.000 C 
BRANCH   8   9
ATOM      9  C   UNL     1      -6.616 -28.973  -4.204  1.00  0.00     0.000 C 
BRANCH   9  10
ATOM     10  C   UNL     1      -6.857 -30.403  -3.706  1.00  0.00     0.006 C 
BRANCH  10  11
ATOM     11  C   UNL     1      -7.000 -30.437  -2.181  1.00  0.00     0.053 C 
BRANCH  11  12
ATOM     12  C   UNL     1      -8.404 -30.112  -1.780  1.00  0.00     0.041 C 
ATOM     13  O   UNL     1      -8.629 -29.481  -0.714  1.00  0.00    -0.550 OA
ATOM     14  O   UNL     1      -9.463 -30.463  -2.608  1.00  0.00    -0.550 OA
ENDBRANCH  11  12
ENDBRANCH  10  11
ENDBRANCH   9  10
ENDBRANCH   8   9
ENDBRANCH   1   8
TORSDOF 9
ENDMDL
MODEL 9
REMARK VINA RESULT:    -4.273     10.957     13.156
REMARK INTER + INTRA:          -7.087
REMARK INTER:                  -6.128
REMARK INTRA:                  -0.959
REMARK UNBOUND:                -0.565
REMARK SMILES O=C([O-])CCCCCCCCC(=O)[O-]
REMARK SMILES IDX 7 1 6 2 5 3 4 4 2 5 1 6 3 7 8 8 9 9 10 10 11 11 12 12 13 13
REMARK SMILES IDX 14 14
REMARK H PARENT
REMARK Flexibility Score: inf
ROOT
ATOM      1  C   UNL     1      -5.106 -28.422  -3.417  1.00  0.00     0.000 C 
ENDROOT
BRANCH   1   2
ATOM      2  C   UNL     1      -6.270 -29.076  -4.177  1.00  0.00     0.000 C 
BRANCH   2   3
ATOM      3  C   UNL     1      -6.763 -30.369  -3.508  1.00  0.00     0.006 C 
BRANCH   3   4
ATOM      4  C   UNL     1      -8.188 -30.200  -2.975  1.00  0.00     0.053 C 
BRANCH   4   5
ATOM      5  C   UNL     1      -8.293 -30.737  -1.582  1.00  0.00     0.041 C 
ATOM      6  O   UNL     1      -7.385 -30.503  -0.743  1.00  0.00    -0.550 OA
ATOM      7  O   UNL     1      -9.371 -31.536  -1.225  1.00  0.00    -0.550 OA
ENDBRANCH   4   5
ENDBRANCH   3   4
ENDBRANCH   2   3
ENDBRANCH   1   2
BRANCH   1   8
ATOM      8  C   UNL     1      -5.480 -27.055  -2.823  1.00  0.00     0.000 C 
BRANCH   8   9
ATOM      9  C   UNL     1      -6.147 -27.215  -1.452  1.00  0.00     0.000 C 
BRANCH   9  10
ATOM     10  C   UNL     1      -7.549 -26.593  -1.446  1.00  0.00     0.006 C 
BRANCH  10  11
ATOM     11  C   UNL     1      -7.918 -26.057  -2.832  1.00  0.00     0.053 C 
BRANCH  11  12
ATOM     12  C   UNL     1      -8.290 -24.610  -2.752  1.00  0.00     0.041 C 
ATOM     13  O   UNL     1      -9.488 -24.254  -2.912  1.00  0.00    -0.550 OA
ATOM     14  O   UNL     1      -7.323 -23.659  -2.453  1.00  0.00    -0.550 OA
ENDBRANCH  11  12
ENDBRANCH  10  11
ENDBRANCH   9  10
ENDBRANCH   8   9
ENDBRANCH   1   8
TORSDOF 9
ENDMDL
