MODEL 1
REMARK VINA RESULT:    -3.674      0.000      0.000
REMARK INTER + INTRA:         -11.437
REMARK INTER:                  -8.399
REMARK INTRA:                  -3.039
REMARK UNBOUND:                -3.039
REMARK SMILES CCCCCCCCCCCCCCCCCCCCCCCC(=O)[O-]
REMARK SMILES IDX 13 1 14 2 15 3 16 4 17 5 18 6 19 7 20 8 21 9 22 10 23 11
REMARK SMILES IDX 24 12 25 13 26 14 12 15 11 16 10 17 9 18 8 19 7 20 6 21 5 22
REMARK SMILES IDX 4 23 3 24 2 25 1 26
REMARK H PARENT
REMARK Flexibility Score: inf
ROOT
ATOM      1  C   UNL     1      66.430  27.500  59.912  1.00  0.00     0.000 C 
ENDROOT
BRANCH   1   2
ATOM      2  C   UNL     1      66.140  28.871  59.264  1.00  0.00     0.000 C 
BRANCH   2   3
ATOM      3  C   UNL     1      65.297  29.807  60.145  1.00  0.00     0.000 C 
BRANCH   3   4
ATOM      4  C   UNL     1      63.915  29.227  60.489  1.00  0.00     0.000 C 
BRANCH   4   5
ATOM      5  C   UNL     1      63.087  30.176  61.380  1.00  0.00     0.000 C 
BRANCH   5   6
ATOM      6  C   UNL     1      61.574  30.113  61.103  1.00  0.00     0.000 C 
BRANCH   6   7
ATOM      7  C   UNL     1      61.080  31.272  60.223  1.00  0.00     0.000 C 
BRANCH   7   8
ATOM      8  C   UNL     1      62.009  32.495  60.277  1.00  0.00     0.000 C 
BRANCH   8   9
ATOM      9  C   UNL     1      62.605  32.845  58.905  1.00  0.00     0.000 C 
BRANCH   9  10
ATOM     10  C   UNL     1      64.099  33.168  59.021  1.00  0.00     0.006 C 
BRANCH  10  11
ATOM     11  C   UNL     1      64.480  33.490  60.469  1.00  0.00     0.053 C 
BRANCH  11  12
ATOM     12  C   UNL     1      64.895  34.922  60.596  1.00  0.00     0.041 C 
ATOM     13  O   UNL     1      64.951  35.659  59.577  1.00  0.00    -0.550 OA
ATOM     14  O   UNL     1      65.179  35.455  61.848  1.00  0.00    -0.550 OA
ENDBRANCH  11  12
ENDBRANCH  10  11
ENDBRANCH   9  10
ENDBRANCH   8   9
ENDBRANCH   7   8
ENDBRANCH   6   7
ENDBRANCH   5   6
ENDBRANCH   4   5
ENDBRANCH   3   4
ENDBRANCH   2   3
ENDBRANCH   1   2
BRANCH   1  15
ATOM     15  C   UNL     1      67.910  27.336  60.299  1.00  0.00     0.000 C 
BRANCH  15  16
ATOM     16  C   UNL     1      68.360  28.340  61.373  1.00  0.00     0.000 C 
BRANCH  16  17
ATOM     17  C   UNL     1      69.760  28.936  61.114  1.00  0.00     0.000 C 
BRANCH  17  18
ATOM     18  C   UNL     1      70.676  27.957  60.359  1.00  0.00    -0.000 C 
BRANCH  18  19
ATOM     19  C   UNL     1      72.078  28.547  60.096  1.00  0.00    -0.000 C 
BRANCH  19  20
ATOM     20  C   UNL     1      72.567  29.493  61.205  1.00  0.00    -0.000 C 
BRANCH  20  21
ATOM     21  C   UNL     1      72.988  30.873  60.672  1.00  0.00    -0.000 C 
BRANCH  21  22
ATOM     22  C   UNL     1      71.782  31.799  60.419  1.00  0.00    -0.000 C 
BRANCH  22  23
ATOM     23  C   UNL     1      71.918  32.680  59.162  1.00  0.00    -0.000 C 
BRANCH  23  24
ATOM     24  C   UNL     1      70.824  32.441  58.101  1.00  0.00    -0.000 C 
BRANCH  24  25
ATOM     25  C   UNL     1      70.581  30.948  57.832  1.00  0.00    -0.003 C 
ATOM     26  C   UNL     1      69.092  30.619  57.864  1.00  0.00     0.004 C 
ENDBRANCH  24  25
ENDBRANCH  23  24
ENDBRANCH  22  23
ENDBRANCH  21  22
ENDBRANCH  20  21
ENDBRANCH  19  20
ENDBRANCH  18  19
ENDBRANCH  17  18
ENDBRANCH  16  17
ENDBRANCH  15  16
ENDBRANCH   1  15
TORSDOF 22
ENDMDL
MODEL 2
REMARK VINA RESULT:    -3.529      4.514      7.420
REMARK INTER + INTRA:         -11.106
REMARK INTER:                  -6.500
REMARK INTRA:                  -4.606
REMARK UNBOUND:                -3.039
REMARK SMILES CCCCCCCCCCCCCCCCCCCCCCCC(=O)[O-]
REMARK SMILES IDX 13 1 14 2 15 3 16 4 17 5 18 6 19 7 20 8 21 9 22 10 23 11
REMARK SMILES IDX 24 12 25 13 26 14 12 15 11 16 10 17 9 18 8 19 7 20 6 21 5 22
REMARK SMILES IDX 4 23 3 24 2 25 1 26
REMARK H PARENT
REMARK Flexibility Score: inf
ROOT
ATOM      1  C   UNL     1      61.756  35.047  60.220  1.00  0.00     0.000 C 
ENDROOT
BRANCH   1   2
ATOM      2  C   UNL     1      62.957  35.945  60.588  1.00  0.00     0.000 C 
BRANCH   2   3
ATOM      3  C   UNL     1      64.218  35.160  60.987  1.00  0.00     0.000 C 
BRANCH   3   4
ATOM      4  C   UNL     1      65.350  35.276  59.954  1.00  0.00     0.000 C 
BRANCH   4   5
ATOM      5  C   UNL     1      64.987  36.222  58.791  1.00  0.00     0.000 C 
BRANCH   5   6
ATOM      6  C   UNL     1      65.074  35.555  57.407  1.00  0.00     0.000 C 
BRANCH   6   7
ATOM      7  C   UNL     1      63.825  34.725  57.066  1.00  0.00     0.000 C 
BRANCH   7   8
ATOM      8  C   UNL     1      62.591  35.598  56.788  1.00  0.00     0.000 C 
BRANCH   8   9
ATOM      9  C   UNL     1      61.866  35.200  55.494  1.00  0.00     0.000 C 
BRANCH   9  10
ATOM     10  C   UNL     1      61.084  33.895  55.682  1.00  0.00     0.006 C 
BRANCH  10  11
ATOM     11  C   UNL     1      59.580  34.126  55.510  1.00  0.00     0.053 C 
BRANCH  11  12
ATOM     12  C   UNL     1      58.891  34.105  56.837  1.00  0.00     0.041 C 
ATOM     13  O   UNL     1      58.155  33.134  57.155  1.00  0.00    -0.550 OA
ATOM     14  O   UNL     1      59.096  35.139  57.744  1.00  0.00    -0.550 OA
ENDBRANCH  11  12
ENDBRANCH  10  11
ENDBRANCH   9  10
ENDBRANCH   8   9
ENDBRANCH   7   8
ENDBRANCH   6   7
ENDBRANCH   5   6
ENDBRANCH   4   5
ENDBRANCH   3   4
ENDBRANCH   2   3
ENDBRANCH   1   2
BRANCH   1  15
ATOM     15  C   UNL     1      62.123  33.554  60.203  1.00  0.00     0.000 C 
BRANCH  15  16
ATOM     16  C   UNL     1      61.356  32.764  59.128  1.00  0.00     0.000 C 
BRANCH  16  17
ATOM     17  C   UNL     1      60.912  31.361  59.591  1.00  0.00     0.000 C 
BRANCH  17  18
ATOM     18  C   UNL     1      61.063  31.178  61.112  1.00  0.00    -0.000 C 
BRANCH  18  19
ATOM     19  C   UNL     1      61.958  29.974  61.474  1.00  0.00    -0.000 C 
BRANCH  19  20
ATOM     20  C   UNL     1      62.767  29.427  60.285  1.00  0.00    -0.000 C 
BRANCH  20  21
ATOM     21  C   UNL     1      64.157  28.914  60.694  1.00  0.00    -0.000 C 
BRANCH  21  22
ATOM     22  C   UNL     1      65.290  29.855  60.239  1.00  0.00    -0.000 C 
BRANCH  22  23
ATOM     23  C   UNL     1      64.839  31.307  59.988  1.00  0.00    -0.000 C 
BRANCH  23  24
ATOM     24  C   UNL     1      65.157  31.832  58.573  1.00  0.00    -0.000 C 
BRANCH  24  25
ATOM     25  C   UNL     1      64.913  30.776  57.485  1.00  0.00    -0.003 C 
ATOM     26  C   UNL     1      63.516  30.914  56.888  1.00  0.00     0.004 C 
ENDBRANCH  24  25
ENDBRANCH  23  24
ENDBRANCH  22  23
ENDBRANCH  21  22
ENDBRANCH  20  21
ENDBRANCH  19  20
ENDBRANCH  18  19
ENDBRANCH  17  18
ENDBRANCH  16  17
ENDBRANCH  15  16
ENDBRANCH   1  15
TORSDOF 22
ENDMDL
MODEL 3
REMARK VINA RESULT:    -3.524     11.236     14.114
REMARK INTER + INTRA:         -11.094
REMARK INTER:                  -6.887
REMARK INTRA:                  -4.207
REMARK UNBOUND:                -3.039
REMARK SMILES CCCCCCCCCCCCCCCCCCCCCCCC(=O)[O-]
REMARK SMILES IDX 13 1 14 2 15 3 16 4 17 5 18 6 19 7 20 8 21 9 22 10 23 11
REMARK SMILES IDX 24 12 25 13 26 14 12 15 11 16 10 17 9 18 8 19 7 20 6 21 5 22
REMARK SMILES IDX 4 23 3 24 2 25 1 26
REMARK H PARENT
REMARK Flexibility Score: inf
ROOT
ATOM      1  C   UNL     1      55.589  25.689  53.139  1.00  0.00     0.000 C 
ENDROOT
BRANCH   1   2
ATOM      2  C   UNL     1      54.153  26.250  53.056  1.00  0.00     0.000 C 
BRANCH   2   3
ATOM      3  C   UNL     1      53.255  25.508  52.053  1.00  0.00     0.000 C 
BRANCH   3   4
ATOM      4  C   UNL     1      54.035  24.540  51.149  1.00  0.00     0.000 C 
BRANCH   4   5
ATOM      5  C   UNL     1      53.849  24.860  49.651  1.00  0.00     0.000 C 
BRANCH   5   6
ATOM      6  C   UNL     1      54.851  25.899  49.117  1.00  0.00     0.000 C 
BRANCH   6   7
ATOM      7  C   UNL     1      54.386  27.347  49.341  1.00  0.00     0.000 C 
BRANCH   7   8
ATOM      8  C   UNL     1      55.427  28.193  50.092  1.00  0.00     0.000 C 
BRANCH   8   9
ATOM      9  C   UNL     1      54.870  29.553  50.540  1.00  0.00     0.000 C 
BRANCH   9  10
ATOM     10  C   UNL     1      55.050  29.749  52.050  1.00  0.00     0.006 C 
BRANCH  10  11
ATOM     11  C   UNL     1      55.082  31.237  52.409  1.00  0.00     0.053 C 
BRANCH  11  12
ATOM     12  C   UNL     1      55.184  31.417  53.891  1.00  0.00     0.041 C 
ATOM     13  O   UNL     1      55.375  30.423  54.639  1.00  0.00    -0.550 OA
ATOM     14  O   UNL     1      55.113  32.691  54.444  1.00  0.00    -0.550 OA
ENDBRANCH  11  12
ENDBRANCH  10  11
ENDBRANCH   9  10
ENDBRANCH   8   9
ENDBRANCH   7   8
ENDBRANCH   6   7
ENDBRANCH   5   6
ENDBRANCH   4   5
ENDBRANCH   3   4
ENDBRANCH   2   3
ENDBRANCH   1   2
BRANCH   1  15
ATOM     15  C   UNL     1      56.639  26.794  53.346  1.00  0.00     0.000 C 
BRANCH  15  16
ATOM     16  C   UNL     1      57.891  26.596  52.475  1.00  0.00     0.000 C 
BRANCH  16  17
ATOM     17  C   UNL     1      57.727  25.507  51.394  1.00  0.00     0.000 C 
BRANCH  17  18
ATOM     18  C   UNL     1      58.438  25.882  50.081  1.00  0.00    -0.000 C 
BRANCH  18  19
ATOM     19  C   UNL     1      59.970  25.721  50.177  1.00  0.00    -0.000 C 
BRANCH  19  20
ATOM     20  C   UNL     1      60.731  27.057  50.199  1.00  0.00    -0.000 C 
BRANCH  20  21
ATOM     21  C   UNL     1      60.447  27.927  48.963  1.00  0.00    -0.000 C 
BRANCH  21  22
ATOM     22  C   UNL     1      60.005  29.355  49.338  1.00  0.00    -0.000 C 
BRANCH  22  23
ATOM     23  C   UNL     1      58.649  29.424  50.069  1.00  0.00    -0.000 C 
BRANCH  23  24
ATOM     24  C   UNL     1      58.737  29.954  51.514  1.00  0.00    -0.000 C 
BRANCH  24  25
ATOM     25  C   UNL     1      60.156  30.402  51.892  1.00  0.00    -0.003 C 
ATOM     26  C   UNL     1      60.124  31.658  52.756  1.00  0.00     0.004 C 
ENDBRANCH  24  25
ENDBRANCH  23  24
ENDBRANCH  22  23
ENDBRANCH  21  22
ENDBRANCH  20  21
ENDBRANCH  19  20
ENDBRANCH  18  19
ENDBRANCH  17  18
ENDBRANCH  16  17
ENDBRANCH  15  16
ENDBRANCH   1  15
TORSDOF 22
ENDMDL
MODEL 4
REMARK VINA RESULT:    -3.514     12.010     15.564
REMARK INTER + INTRA:         -11.071
REMARK INTER:                  -6.629
REMARK INTRA:                  -4.442
REMARK UNBOUND:                -3.039
REMARK SMILES CCCCCCCCCCCCCCCCCCCCCCCC(=O)[O-]
REMARK SMILES IDX 13 1 14 2 15 3 16 4 17 5 18 6 19 7 20 8 21 9 22 10 23 11
REMARK SMILES IDX 24 12 25 13 26 14 12 15 11 16 10 17 9 18 8 19 7 20 6 21 5 22
REMARK SMILES IDX 4 23 3 24 2 25 1 26
REMARK H PARENT
REMARK Flexibility Score: inf
ROOT
ATOM      1  C   UNL     1      55.333  24.286  53.278  1.00  0.00     0.000 C 
ENDROOT
BRANCH   1   2
ATOM      2  C   UNL     1      56.502  24.632  54.226  1.00  0.00     0.000 C 
BRANCH   2   3
ATOM      3  C   UNL     1      57.534  25.592  53.613  1.00  0.00     0.000 C 
BRANCH   3   4
ATOM      4  C   UNL     1      58.223  25.018  52.364  1.00  0.00     0.000 C 
BRANCH   4   5
ATOM      5  C   UNL     1      57.870  25.807  51.086  1.00  0.00     0.000 C 
BRANCH   5   6
ATOM      6  C   UNL     1      57.502  27.277  51.353  1.00  0.00     0.000 C 
BRANCH   6   7
ATOM      7  C   UNL     1      57.603  28.156  50.096  1.00  0.00     0.000 C 
BRANCH   7   8
ATOM      8  C   UNL     1      58.641  29.280  50.242  1.00  0.00     0.000 C 
BRANCH   8   9
ATOM      9  C   UNL     1      59.698  29.256  49.128  1.00  0.00     0.000 C 
BRANCH   9  10
ATOM     10  C   UNL     1      60.299  27.854  48.971  1.00  0.00     0.006 C 
BRANCH  10  11
ATOM     11  C   UNL     1      61.599  27.721  49.769  1.00  0.00     0.053 C 
BRANCH  11  12
ATOM     12  C   UNL     1      61.400  26.826  50.951  1.00  0.00     0.041 C 
ATOM     13  O   UNL     1      61.027  27.305  52.054  1.00  0.00    -0.550 OA
ATOM     14  O   UNL     1      61.584  25.454  50.823  1.00  0.00    -0.550 OA
ENDBRANCH  11  12
ENDBRANCH  10  11
ENDBRANCH   9  10
ENDBRANCH   8   9
ENDBRANCH   7   8
ENDBRANCH   6   7
ENDBRANCH   5   6
ENDBRANCH   4   5
ENDBRANCH   3   4
ENDBRANCH   2   3
ENDBRANCH   1   2
BRANCH   1  15
ATOM     15  C   UNL     1      54.280  25.406  53.214  1.00  0.00     0.000 C 
BRANCH  15  16
ATOM     16  C   UNL     1      54.158  26.029  51.813  1.00  0.00     0.000 C 
BRANCH  16  17
ATOM     17  C   UNL     1      54.203  24.994  50.669  1.00  0.00     0.000 C 
BRANCH  17  18
ATOM     18  C   UNL     1      54.214  25.662  49.283  1.00  0.00    -0.000 C 
BRANCH  18  19
ATOM     19  C   UNL     1      54.325  27.200  49.373  1.00  0.00    -0.000 C 
BRANCH  19  20
ATOM     20  C   UNL     1      52.982  27.927  49.189  1.00  0.00    -0.000 C 
BRANCH  20  21
ATOM     21  C   UNL     1      52.895  29.234  49.994  1.00  0.00    -0.000 C 
BRANCH  21  22
ATOM     22  C   UNL     1      54.278  29.736  50.453  1.00  0.00    -0.000 C 
BRANCH  22  23
ATOM     23  C   UNL     1      54.354  30.093  51.950  1.00  0.00    -0.000 C 
BRANCH  23  24
ATOM     24  C   UNL     1      55.771  30.450  52.444  1.00  0.00    -0.000 C 
BRANCH  24  25
ATOM     25  C   UNL     1      56.226  29.566  53.615  1.00  0.00    -0.003 C 
ATOM     26  C   UNL     1      55.040  28.864  54.268  1.00  0.00     0.004 C 
ENDBRANCH  24  25
ENDBRANCH  23  24
ENDBRANCH  22  23
ENDBRANCH  21  22
ENDBRANCH  20  21
ENDBRANCH  19  20
ENDBRANCH  18  19
ENDBRANCH  17  18
ENDBRANCH  16  17
ENDBRANCH  15  16
ENDBRANCH   1  15
TORSDOF 22
ENDMDL
MODEL 5
REMARK VINA RESULT:    -3.499      9.887     14.071
REMARK INTER + INTRA:         -11.037
REMARK INTER:                  -5.844
REMARK INTRA:                  -5.193
REMARK UNBOUND:                -3.039
REMARK SMILES CCCCCCCCCCCCCCCCCCCCCCCC(=O)[O-]
REMARK SMILES IDX 13 1 14 2 15 3 16 4 17 5 18 6 19 7 20 8 21 9 22 10 23 11
REMARK SMILES IDX 24 12 25 13 26 14 12 15 11 16 10 17 9 18 8 19 7 20 6 21 5 22
REMARK SMILES IDX 4 23 3 24 2 25 1 26
REMARK H PARENT
REMARK Flexibility Score: inf
ROOT
ATOM      1  C   UNL     1      57.794  25.711  51.226  1.00  0.00     0.000 C 
ENDROOT
BRANCH   1   2
ATOM      2  C   UNL     1      59.238  25.195  51.045  1.00  0.00     0.000 C 
BRANCH   2   3
ATOM      3  C   UNL     1      59.954  25.778  49.815  1.00  0.00     0.000 C 
BRANCH   3   4
ATOM      4  C   UNL     1      61.280  26.472  50.164  1.00  0.00     0.000 C 
BRANCH   4   5
ATOM      5  C   UNL     1      61.328  27.930  49.660  1.00  0.00     0.000 C 
BRANCH   5   6
ATOM      6  C   UNL     1      60.093  28.335  48.837  1.00  0.00     0.000 C 
BRANCH   6   7
ATOM      7  C   UNL     1      59.260  29.437  49.513  1.00  0.00     0.000 C 
BRANCH   7   8
ATOM      8  C   UNL     1      59.754  29.767  50.930  1.00  0.00     0.000 C 
BRANCH   8   9
ATOM      9  C   UNL     1      58.840  29.193  52.023  1.00  0.00     0.000 C 
BRANCH   9  10
ATOM     10  C   UNL     1      59.642  28.355  53.026  1.00  0.00     0.006 C 
BRANCH  10  11
ATOM     11  C   UNL     1      60.884  29.112  53.505  1.00  0.00     0.053 C 
BRANCH  11  12
ATOM     12  C   UNL     1      60.533  30.040  54.625  1.00  0.00     0.041 C 
ATOM     13  O   UNL     1      60.403  31.273  54.409  1.00  0.00    -0.550 OA
ATOM     14  O   UNL     1      60.307  29.536  55.900  1.00  0.00    -0.550 OA
ENDBRANCH  11  12
ENDBRANCH  10  11
ENDBRANCH   9  10
ENDBRANCH   8   9
ENDBRANCH   7   8
ENDBRANCH   6   7
ENDBRANCH   5   6
ENDBRANCH   4   5
ENDBRANCH   3   4
ENDBRANCH   2   3
ENDBRANCH   1   2
BRANCH   1  15
ATOM     15  C   UNL     1      57.233  26.348  49.943  1.00  0.00     0.000 C 
BRANCH  15  16
ATOM     16  C   UNL     1      55.728  26.089  49.758  1.00  0.00     0.000 C 
BRANCH  16  17
ATOM     17  C   UNL     1      54.882  27.379  49.699  1.00  0.00     0.000 C 
BRANCH  17  18
ATOM     18  C   UNL     1      55.687  28.619  50.125  1.00  0.00    -0.000 C 
BRANCH  18  19
ATOM     19  C   UNL     1      55.261  29.149  51.511  1.00  0.00    -0.000 C 
BRANCH  19  20
ATOM     20  C   UNL     1      54.092  28.369  52.137  1.00  0.00    -0.000 C 
BRANCH  20  21
ATOM     21  C   UNL     1      54.534  27.450  53.288  1.00  0.00    -0.000 C 
BRANCH  21  22
ATOM     22  C   UNL     1      55.951  27.783  53.794  1.00  0.00    -0.000 C 
BRANCH  22  23
ATOM     23  C   UNL     1      55.978  28.582  55.112  1.00  0.00    -0.000 C 
BRANCH  23  24
ATOM     24  C   UNL     1      56.838  29.861  55.058  1.00  0.00    -0.000 C 
BRANCH  24  25
ATOM     25  C   UNL     1      56.037  31.091  54.605  1.00  0.00    -0.003 C 
ATOM     26  C   UNL     1      56.802  31.888  53.554  1.00  0.00     0.004 C 
ENDBRANCH  24  25
ENDBRANCH  23  24
ENDBRANCH  22  23
ENDBRANCH  21  22
ENDBRANCH  20  21
ENDBRANCH  19  20
ENDBRANCH  18  19
ENDBRANCH  17  18
ENDBRANCH  16  17
ENDBRANCH  15  16
ENDBRANCH   1  15
TORSDOF 22
ENDMDL
MODEL 6
REMARK VINA RESULT:    -3.491      4.634      8.290
REMARK INTER + INTRA:         -11.019
REMARK INTER:                  -6.750
REMARK INTRA:                  -4.269
REMARK UNBOUND:                -3.039
REMARK SMILES CCCCCCCCCCCCCCCCCCCCCCCC(=O)[O-]
REMARK SMILES IDX 13 1 14 2 15 3 16 4 17 5 18 6 19 7 20 8 21 9 22 10 23 11
REMARK SMILES IDX 24 12 25 13 26 14 12 15 11 16 10 17 9 18 8 19 7 20 6 21 5 22
REMARK SMILES IDX 4 23 3 24 2 25 1 26
REMARK H PARENT
REMARK Flexibility Score: inf
ROOT
ATOM      1  C   UNL     1      64.901  30.867  59.907  1.00  0.00     0.000 C 
ENDROOT
BRANCH   1   2
ATOM      2  C   UNL     1      64.060  30.522  61.154  1.00  0.00     0.000 C 
BRANCH   2   3
ATOM      3  C   UNL     1      63.267  29.211  61.024  1.00  0.00     0.000 C 
BRANCH   3   4
ATOM      4  C   UNL     1      61.768  29.436  60.773  1.00  0.00     0.000 C 
BRANCH   4   5
ATOM      5  C   UNL     1      61.290  30.814  61.279  1.00  0.00     0.000 C 
BRANCH   5   6
ATOM      6  C   UNL     1      60.796  31.742  60.155  1.00  0.00     0.000 C 
BRANCH   6   7
ATOM      7  C   UNL     1      61.010  31.149  58.754  1.00  0.00     0.000 C 
BRANCH   7   8
ATOM      8  C   UNL     1      61.262  32.227  57.687  1.00  0.00     0.000 C 
BRANCH   8   9
ATOM      9  C   UNL     1      62.380  31.838  56.708  1.00  0.00     0.000 C 
BRANCH   9  10
ATOM     10  C   UNL     1      63.137  33.079  56.218  1.00  0.00     0.006 C 
BRANCH  10  11
ATOM     11  C   UNL     1      62.451  34.363  56.694  1.00  0.00     0.053 C 
BRANCH  11  12
ATOM     12  C   UNL     1      63.466  35.424  56.980  1.00  0.00     0.041 C 
ATOM     13  O   UNL     1      63.117  36.632  57.055  1.00  0.00    -0.550 OA
ATOM     14  O   UNL     1      64.792  35.075  57.208  1.00  0.00    -0.550 OA
ENDBRANCH  11  12
ENDBRANCH  10  11
ENDBRANCH   9  10
ENDBRANCH   8   9
ENDBRANCH   7   8
ENDBRANCH   6   7
ENDBRANCH   5   6
ENDBRANCH   4   5
ENDBRANCH   3   4
ENDBRANCH   2   3
ENDBRANCH   1   2
BRANCH   1  15
ATOM     15  C   UNL     1      64.699  32.321  59.446  1.00  0.00     0.000 C 
BRANCH  15  16
ATOM     16  C   UNL     1      64.338  33.267  60.604  1.00  0.00     0.000 C 
BRANCH  16  17
ATOM     17  C   UNL     1      63.094  34.138  60.326  1.00  0.00     0.000 C 
BRANCH  17  18
ATOM     18  C   UNL     1      63.320  35.610  60.715  1.00  0.00    -0.000 C 
BRANCH  18  19
ATOM     19  C   UNL     1      62.037  36.459  60.572  1.00  0.00    -0.000 C 
BRANCH  19  20
ATOM     20  C   UNL     1      60.822  35.660  60.071  1.00  0.00    -0.000 C 
BRANCH  20  21
ATOM     21  C   UNL     1      60.097  36.346  58.902  1.00  0.00    -0.000 C 
BRANCH  21  22
ATOM     22  C   UNL     1      59.408  35.337  57.963  1.00  0.00    -0.000 C 
BRANCH  22  23
ATOM     23  C   UNL     1      58.089  35.845  57.349  1.00  0.00    -0.000 C 
BRANCH  23  24
ATOM     24  C   UNL     1      57.796  35.296  55.938  1.00  0.00    -0.000 C 
BRANCH  24  25
ATOM     25  C   UNL     1      58.791  34.207  55.512  1.00  0.00    -0.003 C 
ATOM     26  C   UNL     1      58.212  33.338  54.400  1.00  0.00     0.004 C 
ENDBRANCH  24  25
ENDBRANCH  23  24
ENDBRANCH  22  23
ENDBRANCH  21  22
ENDBRANCH  20  21
ENDBRANCH  19  20
ENDBRANCH  18  19
ENDBRANCH  17  18
ENDBRANCH  16  17
ENDBRANCH  15  16
ENDBRANCH   1  15
TORSDOF 22
ENDMDL
MODEL 7
REMARK VINA RESULT:    -3.485      3.067      7.611
REMARK INTER + INTRA:         -11.006
REMARK INTER:                  -7.053
REMARK INTRA:                  -3.953
REMARK UNBOUND:                -3.039
REMARK SMILES CCCCCCCCCCCCCCCCCCCCCCCC(=O)[O-]
REMARK SMILES IDX 13 1 14 2 15 3 16 4 17 5 18 6 19 7 20 8 21 9 22 10 23 11
REMARK SMILES IDX 24 12 25 13 26 14 12 15 11 16 10 17 9 18 8 19 7 20 6 21 5 22
REMARK SMILES IDX 4 23 3 24 2 25 1 26
REMARK H PARENT
REMARK Flexibility Score: inf
ROOT
ATOM      1  C   UNL     1      63.800  30.376  57.423  1.00  0.00     0.000 C 
ENDROOT
BRANCH   1   2
ATOM      2  C   UNL     1      62.653  29.344  57.370  1.00  0.00     0.000 C 
BRANCH   2   3
ATOM      3  C   UNL     1      63.126  27.904  57.111  1.00  0.00     0.000 C 
BRANCH   3   4
ATOM      4  C   UNL     1      62.946  26.983  58.328  1.00  0.00     0.000 C 
BRANCH   4   5
ATOM      5  C   UNL     1      64.185  26.099  58.581  1.00  0.00     0.000 C 
BRANCH   5   6
ATOM      6  C   UNL     1      64.923  26.435  59.889  1.00  0.00     0.000 C 
BRANCH   6   7
ATOM      7  C   UNL     1      66.353  26.947  59.653  1.00  0.00     0.000 C 
BRANCH   7   8
ATOM      8  C   UNL     1      66.769  28.029  60.663  1.00  0.00     0.000 C 
BRANCH   8   9
ATOM      9  C   UNL     1      68.051  28.764  60.245  1.00  0.00     0.000 C 
BRANCH   9  10
ATOM     10  C   UNL     1      69.258  28.265  61.048  1.00  0.00     0.006 C 
BRANCH  10  11
ATOM     11  C   UNL     1      70.516  28.217  60.176  1.00  0.00     0.053 C 
BRANCH  11  12
ATOM     12  C   UNL     1      71.548  29.169  60.691  1.00  0.00     0.041 C 
ATOM     13  O   UNL     1      72.648  28.737  61.126  1.00  0.00    -0.550 OA
ATOM     14  O   UNL     1      71.314  30.538  60.651  1.00  0.00    -0.550 OA
ENDBRANCH  11  12
ENDBRANCH  10  11
ENDBRANCH   9  10
ENDBRANCH   8   9
ENDBRANCH   7   8
ENDBRANCH   6   7
ENDBRANCH   5   6
ENDBRANCH   4   5
ENDBRANCH   3   4
ENDBRANCH   2   3
ENDBRANCH   1   2
BRANCH   1  15
ATOM     15  C   UNL     1      64.793  30.089  58.562  1.00  0.00     0.000 C 
BRANCH  15  16
ATOM     16  C   UNL     1      64.936  31.269  59.539  1.00  0.00     0.000 C 
BRANCH  16  17
ATOM     17  C   UNL     1      64.315  31.001  60.926  1.00  0.00     0.000 C 
BRANCH  17  18
ATOM     18  C   UNL     1      63.614  29.633  60.992  1.00  0.00    -0.000 C 
BRANCH  18  19
ATOM     19  C   UNL     1      62.076  29.757  60.939  1.00  0.00    -0.000 C 
BRANCH  19  20
ATOM     20  C   UNL     1      61.570  31.205  61.058  1.00  0.00    -0.000 C 
BRANCH  20  21
ATOM     21  C   UNL     1      61.058  31.771  59.723  1.00  0.00    -0.000 C 
BRANCH  21  22
ATOM     22  C   UNL     1      61.320  33.284  59.586  1.00  0.00    -0.000 C 
BRANCH  22  23
ATOM     23  C   UNL     1      62.493  33.638  58.652  1.00  0.00    -0.000 C 
BRANCH  23  24
ATOM     24  C   UNL     1      63.439  34.722  59.208  1.00  0.00    -0.000 C 
BRANCH  24  25
ATOM     25  C   UNL     1      63.623  34.617  60.730  1.00  0.00    -0.003 C 
ATOM     26  C   UNL     1      65.027  35.045  61.145  1.00  0.00     0.004 C 
ENDBRANCH  24  25
ENDBRANCH  23  24
ENDBRANCH  22  23
ENDBRANCH  21  22
ENDBRANCH  20  21
ENDBRANCH  19  20
ENDBRANCH  18  19
ENDBRANCH  17  18
ENDBRANCH  16  17
ENDBRANCH  15  16
ENDBRANCH   1  15
TORSDOF 22
ENDMDL
MODEL 8
REMARK VINA RESULT:    -3.458     12.011     15.411
REMARK INTER + INTRA:         -10.945
REMARK INTER:                  -6.802
REMARK INTRA:                  -4.143
REMARK UNBOUND:                -3.039
REMARK SMILES CCCCCCCCCCCCCCCCCCCCCCCC(=O)[O-]
REMARK SMILES IDX 13 1 14 2 15 3 16 4 17 5 18 6 19 7 20 8 21 9 22 10 23 11
REMARK SMILES IDX 24 12 25 13 26 14 12 15 11 16 10 17 9 18 8 19 7 20 6 21 5 22
REMARK SMILES IDX 4 23 3 24 2 25 1 26
REMARK H PARENT
REMARK Flexibility Score: inf
ROOT
ATOM      1  C   UNL     1      57.369  26.866  52.928  1.00  0.00     0.000 C 
ENDROOT
BRANCH   1   2
ATOM      2  C   UNL     1      57.662  28.370  53.113  1.00  0.00     0.000 C 
BRANCH   2   3
ATOM      3  C   UNL     1      58.994  28.823  52.492  1.00  0.00     0.000 C 
BRANCH   3   4
ATOM      4  C   UNL     1      58.817  29.886  51.396  1.00  0.00     0.000 C 
BRANCH   4   5
ATOM      5  C   UNL     1      58.477  29.263  50.026  1.00  0.00     0.000 C 
BRANCH   5   6
ATOM      6  C   UNL     1      59.679  29.196  49.067  1.00  0.00     0.000 C 
BRANCH   6   7
ATOM      7  C   UNL     1      60.340  27.809  49.035  1.00  0.00     0.000 C 
BRANCH   7   8
ATOM      8  C   UNL     1      59.375  26.683  49.440  1.00  0.00     0.000 C 
BRANCH   8   9
ATOM      9  C   UNL     1      59.991  25.714  50.460  1.00  0.00     0.000 C 
BRANCH   9  10
ATOM     10  C   UNL     1      61.445  26.093  50.767  1.00  0.00     0.006 C 
BRANCH  10  11
ATOM     11  C   UNL     1      62.402  24.968  50.363  1.00  0.00     0.053 C 
BRANCH  11  12
ATOM     12  C   UNL     1      61.694  23.650  50.366  1.00  0.00     0.041 C 
ATOM     13  O   UNL     1      61.350  23.113  49.281  1.00  0.00    -0.550 OA
ATOM     14  O   UNL     1      61.455  22.992  51.567  1.00  0.00    -0.550 OA
ENDBRANCH  11  12
ENDBRANCH  10  11
ENDBRANCH   9  10
ENDBRANCH   8   9
ENDBRANCH   7   8
ENDBRANCH   6   7
ENDBRANCH   5   6
ENDBRANCH   4   5
ENDBRANCH   3   4
ENDBRANCH   2   3
ENDBRANCH   1   2
BRANCH   1  15
ATOM     15  C   UNL     1      56.034  26.614  52.205  1.00  0.00     0.000 C 
BRANCH  15  16
ATOM     16  C   UNL     1      56.189  25.720  50.963  1.00  0.00     0.000 C 
BRANCH  16  17
ATOM     17  C   UNL     1      55.684  26.378  49.661  1.00  0.00     0.000 C 
BRANCH  17  18
ATOM     18  C   UNL     1      55.343  27.865  49.859  1.00  0.00    -0.000 C 
BRANCH  18  19
ATOM     19  C   UNL     1      53.852  28.166  49.591  1.00  0.00    -0.000 C 
BRANCH  19  20
ATOM     20  C   UNL     1      53.305  29.350  50.406  1.00  0.00    -0.000 C 
BRANCH  20  21
ATOM     21  C   UNL     1      53.151  29.026  51.901  1.00  0.00    -0.000 C 
BRANCH  21  22
ATOM     22  C   UNL     1      54.151  29.805  52.778  1.00  0.00    -0.000 C 
BRANCH  22  23
ATOM     23  C   UNL     1      55.010  30.823  52.002  1.00  0.00    -0.000 C 
BRANCH  23  24
ATOM     24  C   UNL     1      55.473  32.030  52.843  1.00  0.00    -0.000 C 
BRANCH  24  25
ATOM     25  C   UNL     1      56.144  31.608  54.158  1.00  0.00    -0.003 C 
ATOM     26  C   UNL     1      57.608  32.036  54.190  1.00  0.00     0.004 C 
ENDBRANCH  24  25
ENDBRANCH  23  24
ENDBRANCH  22  23
ENDBRANCH  21  22
ENDBRANCH  20  21
ENDBRANCH  19  20
ENDBRANCH  18  19
ENDBRANCH  17  18
ENDBRANCH  16  17
ENDBRANCH  15  16
ENDBRANCH   1  15
TORSDOF 22
ENDMDL
MODEL 9
REMARK VINA RESULT:    -3.390      4.947      6.828
REMARK INTER + INTRA:         -10.790
REMARK INTER:                  -6.192
REMARK INTRA:                  -4.598
REMARK UNBOUND:                -3.039
REMARK SMILES CCCCCCCCCCCCCCCCCCCCCCCC(=O)[O-]
REMARK SMILES IDX 13 1 14 2 15 3 16 4 17 5 18 6 19 7 20 8 21 9 22 10 23 11
REMARK SMILES IDX 24 12 25 13 26 14 12 15 11 16 10 17 9 18 8 19 7 20 6 21 5 22
REMARK SMILES IDX 4 23 3 24 2 25 1 26
REMARK H PARENT
REMARK Flexibility Score: inf
ROOT
ATOM      1  C   UNL     1      63.811  30.538  57.098  1.00  0.00     0.000 C 
ENDROOT
BRANCH   1   2
ATOM      2  C   UNL     1      64.617  29.483  57.886  1.00  0.00     0.000 C 
BRANCH   2   3
ATOM      3  C   UNL     1      63.842  28.860  59.060  1.00  0.00     0.000 C 
BRANCH   3   4
ATOM      4  C   UNL     1      64.523  29.090  60.419  1.00  0.00     0.000 C 
BRANCH   4   5
ATOM      5  C   UNL     1      63.692  30.006  61.342  1.00  0.00     0.000 C 
BRANCH   5   6
ATOM      6  C   UNL     1      62.183  29.708  61.305  1.00  0.00     0.000 C 
BRANCH   6   7
ATOM      7  C   UNL     1      61.336  30.956  61.010  1.00  0.00     0.000 C 
BRANCH   7   8
ATOM      8  C   UNL     1      60.888  31.033  59.541  1.00  0.00     0.000 C 
BRANCH   8   9
ATOM      9  C   UNL     1      60.806  32.477  59.024  1.00  0.00     0.000 C 
BRANCH   9  10
ATOM     10  C   UNL     1      60.311  32.514  57.573  1.00  0.00     0.006 C 
BRANCH  10  11
ATOM     11  C   UNL     1      59.790  33.906  57.207  1.00  0.00     0.053 C 
BRANCH  11  12
ATOM     12  C   UNL     1      58.620  33.801  56.280  1.00  0.00     0.041 C 
ATOM     13  O   UNL     1      58.105  34.840  55.789  1.00  0.00    -0.550 OA
ATOM     14  O   UNL     1      58.126  32.552  55.922  1.00  0.00    -0.550 OA
ENDBRANCH  11  12
ENDBRANCH  10  11
ENDBRANCH   9  10
ENDBRANCH   8   9
ENDBRANCH   7   8
ENDBRANCH   6   7
ENDBRANCH   5   6
ENDBRANCH   4   5
ENDBRANCH   3   4
ENDBRANCH   2   3
ENDBRANCH   1   2
BRANCH   1  15
ATOM     15  C   UNL     1      64.519  31.903  57.054  1.00  0.00     0.000 C 
BRANCH  15  16
ATOM     16  C   UNL     1      64.001  32.877  58.126  1.00  0.00     0.000 C 
BRANCH  16  17
ATOM     17  C   UNL     1      64.847  32.883  59.417  1.00  0.00     0.000 C 
BRANCH  17  18
ATOM     18  C   UNL     1      64.076  33.471  60.612  1.00  0.00    -0.000 C 
BRANCH  18  19
ATOM     19  C   UNL     1      64.683  34.801  61.106  1.00  0.00    -0.000 C 
BRANCH  19  20
ATOM     20  C   UNL     1      63.703  35.986  61.048  1.00  0.00    -0.000 C 
BRANCH  20  21
ATOM     21  C   UNL     1      62.359  35.618  60.397  1.00  0.00    -0.000 C 
BRANCH  21  22
ATOM     22  C   UNL     1      62.249  36.128  58.947  1.00  0.00    -0.000 C 
BRANCH  22  23
ATOM     23  C   UNL     1      63.387  37.078  58.525  1.00  0.00    -0.000 C 
BRANCH  23  24
ATOM     24  C   UNL     1      64.347  36.487  57.473  1.00  0.00    -0.000 C 
BRANCH  24  25
ATOM     25  C   UNL     1      65.796  36.408  57.978  1.00  0.00    -0.003 C 
ATOM     26  C   UNL     1      66.599  35.382  57.184  1.00  0.00     0.004 C 
ENDBRANCH  24  25
ENDBRANCH  23  24
ENDBRANCH  22  23
ENDBRANCH  21  22
ENDBRANCH  20  21
ENDBRANCH  19  20
ENDBRANCH  18  19
ENDBRANCH  17  18
ENDBRANCH  16  17
ENDBRANCH  15  16
ENDBRANCH   1  15
TORSDOF 22
ENDMDL
