MODEL 1
REMARK VINA RESULT:    -4.517      0.000      0.000
REMARK INTER + INTRA:          -4.901
REMARK INTER:                  -4.781
REMARK INTRA:                  -0.120
REMARK UNBOUND:                -0.120
REMARK SMILES C=C(C)[C@@H]1CC=C(C)CC1
REMARK SMILES IDX 8 1 7 2 6 3 5 4 4 5 10 6 9 7 2 8 1 9 3 10
REMARK H PARENT
REMARK Flexibility Score: inf
ROOT
ATOM      1  C   UNL     1      -1.075  -4.531  -3.586  1.00  0.00     0.039 C 
ATOM      2  C   UNL     1      -2.321  -4.204  -2.809  1.00  0.00    -0.077 C 
ATOM      3  C   UNL     1      -3.525  -4.452  -3.367  1.00  0.00    -0.027 C 
ATOM      4  C   UNL     1      -4.830  -4.208  -2.648  1.00  0.00     0.035 C 
ATOM      5  C   UNL     1      -4.685  -3.179  -1.513  1.00  0.00     0.018 C 
ATOM      6  C   UNL     1      -3.470  -3.530  -0.642  1.00  0.00     0.013 C 
ATOM      7  C   UNL     1      -2.187  -3.483  -1.481  1.00  0.00     0.031 C 
ENDROOT
BRANCH   5   8
ATOM      8  C   UNL     1      -5.960  -3.086  -0.685  1.00  0.00    -0.077 C 
ATOM      9  C   UNL     1      -6.863  -2.126  -0.945  1.00  0.00     0.008 C 
ATOM     10  C   UNL     1      -6.248  -4.062   0.429  1.00  0.00     0.039 C 
ENDBRANCH   5   8
TORSDOF 1
ENDMDL
MODEL 2
REMARK VINA RESULT:    -4.505     10.091     12.341
REMARK INTER + INTRA:          -4.889
REMARK INTER:                  -4.761
REMARK INTRA:                  -0.128
REMARK UNBOUND:                -0.120
REMARK SMILES C=C(C)[C@@H]1CC=C(C)CC1
REMARK SMILES IDX 8 1 7 2 6 3 5 4 4 5 10 6 9 7 2 8 1 9 3 10
REMARK H PARENT
REMARK Flexibility Score: inf
ROOT
ATOM      1  C   UNL     1       8.764   2.151  -2.976  1.00  0.00     0.039 C 
ATOM      2  C   UNL     1       8.203   1.018  -2.159  1.00  0.00    -0.077 C 
ATOM      3  C   UNL     1       8.096   1.167  -0.821  1.00  0.00    -0.027 C 
ATOM      4  C   UNL     1       7.499   0.111   0.077  1.00  0.00     0.035 C 
ATOM      5  C   UNL     1       7.547  -1.290  -0.559  1.00  0.00     0.018 C 
ATOM      6  C   UNL     1       7.019  -1.227  -2.000  1.00  0.00     0.013 C 
ATOM      7  C   UNL     1       7.900  -0.300  -2.846  1.00  0.00     0.031 C 
ENDROOT
BRANCH   5   8
ATOM      8  C   UNL     1       6.777  -2.304   0.276  1.00  0.00    -0.077 C 
ATOM      9  C   UNL     1       5.471  -2.514   0.042  1.00  0.00     0.008 C 
ATOM     10  C   UNL     1       7.450  -3.100   1.367  1.00  0.00     0.039 C 
ENDBRANCH   5   8
TORSDOF 1
ENDMDL
MODEL 3
REMARK VINA RESULT:    -4.331      9.637     11.854
REMARK INTER + INTRA:          -4.704
REMARK INTER:                  -4.576
REMARK INTRA:                  -0.127
REMARK UNBOUND:                -0.120
REMARK SMILES C=C(C)[C@@H]1CC=C(C)CC1
REMARK SMILES IDX 8 1 7 2 6 3 5 4 4 5 10 6 9 7 2 8 1 9 3 10
REMARK H PARENT
REMARK Flexibility Score: inf
ROOT
ATOM      1  C   UNL     1       9.033   1.772  -2.996  1.00  0.00     0.039 C 
ATOM      2  C   UNL     1       8.277   0.727  -2.221  1.00  0.00    -0.077 C 
ATOM      3  C   UNL     1       7.864  -0.390  -2.859  1.00  0.00    -0.027 C 
ATOM      4  C   UNL     1       7.145  -1.517  -2.158  1.00  0.00     0.035 C 
ATOM      5  C   UNL     1       6.464  -1.055  -0.858  1.00  0.00     0.018 C 
ATOM      6  C   UNL     1       7.451  -0.233  -0.015  1.00  0.00     0.013 C 
ATOM      7  C   UNL     1       7.887   1.020  -0.785  1.00  0.00     0.031 C 
ENDROOT
BRANCH   5   8
ATOM      8  C   UNL     1       5.908  -2.236  -0.074  1.00  0.00    -0.077 C 
ATOM      9  C   UNL     1       6.713  -2.949   0.731  1.00  0.00     0.008 C 
ATOM     10  C   UNL     1       4.454  -2.629  -0.168  1.00  0.00     0.039 C 
ENDBRANCH   5   8
TORSDOF 1
ENDMDL
MODEL 4
REMARK VINA RESULT:    -4.313     11.491     12.993
REMARK INTER + INTRA:          -4.685
REMARK INTER:                  -4.558
REMARK INTRA:                  -0.127
REMARK UNBOUND:                -0.120
REMARK SMILES C=C(C)[C@@H]1CC=C(C)CC1
REMARK SMILES IDX 8 1 7 2 6 3 5 4 4 5 10 6 9 7 2 8 1 9 3 10
REMARK H PARENT
REMARK Flexibility Score: inf
ROOT
ATOM      1  C   UNL     1       7.724  -4.138   2.266  1.00  0.00     0.039 C 
ATOM      2  C   UNL     1       7.822  -2.844   1.505  1.00  0.00    -0.077 C 
ATOM      3  C   UNL     1       6.826  -2.506   0.657  1.00  0.00    -0.027 C 
ATOM      4  C   UNL     1       6.806  -1.208  -0.111  1.00  0.00     0.035 C 
ATOM      5  C   UNL     1       8.213  -0.603  -0.268  1.00  0.00     0.018 C 
ATOM      6  C   UNL     1       8.931  -0.593   1.090  1.00  0.00     0.013 C 
ATOM      7  C   UNL     1       9.095  -2.026   1.611  1.00  0.00     0.031 C 
ENDROOT
BRANCH   5   8
ATOM      8  C   UNL     1       8.151   0.792  -0.878  1.00  0.00    -0.077 C 
ATOM      9  C   UNL     1       7.859   1.851  -0.107  1.00  0.00     0.008 C 
ATOM     10  C   UNL     1       8.424   1.022  -2.344  1.00  0.00     0.039 C 
ENDBRANCH   5   8
TORSDOF 1
ENDMDL
MODEL 5
REMARK VINA RESULT:    -4.291      0.708      4.609
REMARK INTER + INTRA:          -4.661
REMARK INTER:                  -4.539
REMARK INTRA:                  -0.123
REMARK UNBOUND:                -0.120
REMARK SMILES C=C(C)[C@@H]1CC=C(C)CC1
REMARK SMILES IDX 8 1 7 2 6 3 5 4 4 5 10 6 9 7 2 8 1 9 3 10
REMARK H PARENT
REMARK Flexibility Score: inf
ROOT
ATOM      1  C   UNL     1      -5.989  -3.048  -0.746  1.00  0.00     0.039 C 
ATOM      2  C   UNL     1      -4.701  -3.469  -1.398  1.00  0.00    -0.077 C 
ATOM      3  C   UNL     1      -4.733  -3.958  -2.657  1.00  0.00    -0.027 C 
ATOM      4  C   UNL     1      -3.491  -4.358  -3.415  1.00  0.00     0.035 C 
ATOM      5  C   UNL     1      -2.314  -4.676  -2.477  1.00  0.00     0.018 C 
ATOM      6  C   UNL     1      -2.159  -3.558  -1.435  1.00  0.00     0.013 C 
ATOM      7  C   UNL     1      -3.426  -3.457  -0.576  1.00  0.00     0.031 C 
ENDROOT
BRANCH   5   8
ATOM      8  C   UNL     1      -1.025  -4.894  -3.259  1.00  0.00    -0.077 C 
ATOM      9  C   UNL     1      -0.178  -5.873  -2.902  1.00  0.00     0.008 C 
ATOM     10  C   UNL     1      -0.672  -4.036  -4.449  1.00  0.00     0.039 C 
ENDBRANCH   5   8
TORSDOF 1
ENDMDL
MODEL 6
REMARK VINA RESULT:    -4.202     11.627     13.135
REMARK INTER + INTRA:          -4.567
REMARK INTER:                  -4.447
REMARK INTRA:                  -0.120
REMARK UNBOUND:                -0.120
REMARK SMILES C=C(C)[C@@H]1CC=C(C)CC1
REMARK SMILES IDX 8 1 7 2 6 3 5 4 4 5 10 6 9 7 2 8 1 9 3 10
REMARK H PARENT
REMARK Flexibility Score: inf
ROOT
ATOM      1  C   UNL     1       7.504   0.663  -0.373  1.00  0.00     0.039 C 
ATOM      2  C   UNL     1       7.778  -0.607   0.386  1.00  0.00    -0.077 C 
ATOM      3  C   UNL     1       6.910  -1.636   0.276  1.00  0.00    -0.027 C 
ATOM      4  C   UNL     1       7.123  -2.967   0.955  1.00  0.00     0.035 C 
ATOM      5  C   UNL     1       8.066  -2.858   2.166  1.00  0.00     0.018 C 
ATOM      6  C   UNL     1       9.325  -2.069   1.778  1.00  0.00     0.013 C 
ATOM      7  C   UNL     1       8.946  -0.645   1.352  1.00  0.00     0.031 C 
ENDROOT
BRANCH   5   8
ATOM      8  C   UNL     1       8.416  -4.233   2.721  1.00  0.00    -0.077 C 
ATOM      9  C   UNL     1       7.751  -4.718   3.782  1.00  0.00     0.008 C 
ATOM     10  C   UNL     1       9.496  -5.082   2.098  1.00  0.00     0.039 C 
ENDBRANCH   5   8
TORSDOF 1
ENDMDL
MODEL 7
REMARK VINA RESULT:    -4.183     12.436     13.710
REMARK INTER + INTRA:          -4.547
REMARK INTER:                  -4.415
REMARK INTRA:                  -0.132
REMARK UNBOUND:                -0.120
REMARK SMILES C=C(C)[C@@H]1CC=C(C)CC1
REMARK SMILES IDX 8 1 7 2 6 3 5 4 4 5 10 6 9 7 2 8 1 9 3 10
REMARK H PARENT
REMARK Flexibility Score: inf
ROOT
ATOM      1  C   UNL     1       9.472  -2.236   3.033  1.00  0.00     0.039 C 
ATOM      2  C   UNL     1       9.128  -1.585   1.721  1.00  0.00    -0.077 C 
ATOM      3  C   UNL     1       8.998  -2.358   0.622  1.00  0.00    -0.027 C 
ATOM      4  C   UNL     1       8.605  -1.808  -0.728  1.00  0.00     0.035 C 
ATOM      5  C   UNL     1       8.907  -0.304  -0.853  1.00  0.00     0.018 C 
ATOM      6  C   UNL     1       8.374   0.440   0.380  1.00  0.00     0.013 C 
ATOM      7  C   UNL     1       9.070  -0.071   1.647  1.00  0.00     0.031 C 
ENDROOT
BRANCH   5   8
ATOM      8  C   UNL     1       8.335   0.270  -2.144  1.00  0.00    -0.077 C 
ATOM      9  C   UNL     1       7.614  -0.511  -2.965  1.00  0.00     0.008 C 
ATOM     10  C   UNL     1       8.550   1.713  -2.526  1.00  0.00     0.039 C 
ENDBRANCH   5   8
TORSDOF 1
ENDMDL
MODEL 8
REMARK VINA RESULT:    -4.177     11.372     12.908
REMARK INTER + INTRA:          -4.541
REMARK INTER:                  -4.413
REMARK INTRA:                  -0.128
REMARK UNBOUND:                -0.120
REMARK SMILES C=C(C)[C@@H]1CC=C(C)CC1
REMARK SMILES IDX 8 1 7 2 6 3 5 4 4 5 10 6 9 7 2 8 1 9 3 10
REMARK H PARENT
REMARK Flexibility Score: inf
ROOT
ATOM      1  C   UNL     1       7.842  -4.361   2.671  1.00  0.00     0.039 C 
ATOM      2  C   UNL     1       7.861  -3.174   1.747  1.00  0.00    -0.077 C 
ATOM      3  C   UNL     1       8.843  -2.257   1.881  1.00  0.00    -0.027 C 
ATOM      4  C   UNL     1       8.979  -1.060   0.970  1.00  0.00     0.035 C 
ATOM      5  C   UNL     1       7.651  -0.698   0.283  1.00  0.00     0.018 C 
ATOM      6  C   UNL     1       7.014  -1.959  -0.321  1.00  0.00     0.013 C 
ATOM      7  C   UNL     1       6.705  -2.975   0.785  1.00  0.00     0.031 C 
ENDROOT
BRANCH   5   8
ATOM      8  C   UNL     1       7.848   0.387  -0.768  1.00  0.00    -0.077 C 
ATOM      9  C   UNL     1       7.953   0.055  -2.065  1.00  0.00     0.008 C 
ATOM     10  C   UNL     1       7.921   1.845  -0.390  1.00  0.00     0.039 C 
ENDBRANCH   5   8
TORSDOF 1
ENDMDL
MODEL 9
REMARK VINA RESULT:    -4.161     12.341     13.405
REMARK INTER + INTRA:          -4.524
REMARK INTER:                  -4.397
REMARK INTRA:                  -0.128
REMARK UNBOUND:                -0.120
REMARK SMILES C=C(C)[C@@H]1CC=C(C)CC1
REMARK SMILES IDX 8 1 7 2 6 3 5 4 4 5 10 6 9 7 2 8 1 9 3 10
REMARK H PARENT
REMARK Flexibility Score: inf
ROOT
ATOM      1  C   UNL     1       8.713   1.882  -2.968  1.00  0.00     0.039 C 
ATOM      2  C   UNL     1       8.656   0.919  -1.814  1.00  0.00    -0.077 C 
ATOM      3  C   UNL     1       9.142  -0.330  -1.979  1.00  0.00    -0.027 C 
ATOM      4  C   UNL     1       9.177  -1.351  -0.868  1.00  0.00     0.035 C 
ATOM      5  C   UNL     1       8.151  -1.045   0.236  1.00  0.00     0.018 C 
ATOM      6  C   UNL     1       8.252   0.431   0.649  1.00  0.00     0.013 C 
ATOM      7  C   UNL     1       7.934   1.336  -0.547  1.00  0.00     0.031 C 
ENDROOT
BRANCH   5   8
ATOM      8  C   UNL     1       8.329  -1.974   1.431  1.00  0.00    -0.077 C 
ATOM      9  C   UNL     1       9.193  -1.655   2.408  1.00  0.00     0.008 C 
ATOM     10  C   UNL     1       7.543  -3.256   1.555  1.00  0.00     0.039 C 
ENDBRANCH   5   8
TORSDOF 1
ENDMDL
