MODEL 1
REMARK VINA RESULT:    -3.766      0.000      0.000
REMARK INTER + INTRA:          -9.339
REMARK INTER:                  -7.289
REMARK INTRA:                  -2.049
REMARK UNBOUND:                -2.049
REMARK SMILES CCCCCCCCCCCCCCCCCC(=O)[O-]
REMARK SMILES IDX 10 1 11 2 12 3 13 4 14 5 15 6 16 7 17 8 18 9 19 10 20 11
REMARK SMILES IDX 9 12 8 13 7 14 6 15 5 16 4 17 3 18 2 19 1 20
REMARK H PARENT
REMARK Flexibility Score: inf
ROOT
ATOM      1  C   UNL     1     -91.717 145.629 237.405  1.00  0.00     0.000 C 
ENDROOT
BRANCH   1   2
ATOM      2  C   UNL     1     -91.841 145.970 238.904  1.00  0.00     0.000 C 
BRANCH   2   3
ATOM      3  C   UNL     1     -93.101 146.768 239.285  1.00  0.00     0.000 C 
BRANCH   3   4
ATOM      4  C   UNL     1     -93.866 146.144 240.465  1.00  0.00     0.000 C 
BRANCH   4   5
ATOM      5  C   UNL     1     -94.858 147.126 241.109  1.00  0.00     0.000 C 
BRANCH   5   6
ATOM      6  C   UNL     1     -94.735 148.546 240.537  1.00  0.00     0.000 C 
BRANCH   6   7
ATOM      7  C   UNL     1     -95.731 149.501 241.213  1.00  0.00     0.006 C 
BRANCH   7   8
ATOM      8  C   UNL     1     -97.137 148.897 241.315  1.00  0.00     0.053 C 
BRANCH   8   9
ATOM      9  C   UNL     1     -97.680 148.983 242.709  1.00  0.00     0.041 C 
ATOM     10  O   UNL     1     -97.547 148.014 243.502  1.00  0.00    -0.550 OA
ATOM     11  O   UNL     1     -98.296 150.149 243.145  1.00  0.00    -0.550 OA
ENDBRANCH   8   9
ENDBRANCH   7   8
ENDBRANCH   6   7
ENDBRANCH   5   6
ENDBRANCH   4   5
ENDBRANCH   3   4
ENDBRANCH   2   3
ENDBRANCH   1   2
BRANCH   1  12
ATOM     12  C   UNL     1     -92.962 145.949 236.553  1.00  0.00     0.000 C 
BRANCH  12  13
ATOM     13  C   UNL     1     -92.802 145.698 235.042  1.00  0.00    -0.000 C 
BRANCH  13  14
ATOM     14  C   UNL     1     -92.206 146.906 234.298  1.00  0.00    -0.000 C 
BRANCH  14  15
ATOM     15  C   UNL     1     -93.289 147.826 233.713  1.00  0.00    -0.000 C 
BRANCH  15  16
ATOM     16  C   UNL     1     -94.701 147.221 233.809  1.00  0.00    -0.000 C 
BRANCH  16  17
ATOM     17  C   UNL     1     -95.712 148.197 234.446  1.00  0.00    -0.000 C 
BRANCH  17  18
ATOM     18  C   UNL     1     -95.077 149.184 235.445  1.00  0.00    -0.000 C 
BRANCH  18  19
ATOM     19  C   UNL     1     -95.383 148.890 236.923  1.00  0.00    -0.003 C 
ATOM     20  C   UNL     1     -96.193 147.608 237.118  1.00  0.00     0.004 C 
ENDBRANCH  18  19
ENDBRANCH  17  18
ENDBRANCH  16  17
ENDBRANCH  15  16
ENDBRANCH  14  15
ENDBRANCH  13  14
ENDBRANCH  12  13
ENDBRANCH   1  12
TORSDOF 16
ENDMDL
MODEL 2
REMARK VINA RESULT:    -3.754      1.457      2.265
REMARK INTER + INTRA:          -9.315
REMARK INTER:                  -6.887
REMARK INTRA:                  -2.429
REMARK UNBOUND:                -2.049
REMARK SMILES CCCCCCCCCCCCCCCCCC(=O)[O-]
REMARK SMILES IDX 10 1 11 2 12 3 13 4 14 5 15 6 16 7 17 8 18 9 19 10 20 11
REMARK SMILES IDX 9 12 8 13 7 14 6 15 5 16 4 17 3 18 2 19 1 20
REMARK H PARENT
REMARK Flexibility Score: inf
ROOT
ATOM      1  C   UNL     1     -92.460 146.504 238.905  1.00  0.00     0.000 C 
ENDROOT
BRANCH   1   2
ATOM      2  C   UNL     1     -93.200 145.701 239.994  1.00  0.00     0.000 C 
BRANCH   2   3
ATOM      3  C   UNL     1     -94.690 146.051 240.159  1.00  0.00     0.000 C 
BRANCH   3   4
ATOM      4  C   UNL     1     -94.952 146.989 241.350  1.00  0.00     0.000 C 
BRANCH   4   5
ATOM      5  C   UNL     1     -94.558 148.444 241.053  1.00  0.00     0.000 C 
BRANCH   5   6
ATOM      6  C   UNL     1     -95.778 149.366 240.907  1.00  0.00     0.000 C 
BRANCH   6   7
ATOM      7  C   UNL     1     -96.933 148.901 241.806  1.00  0.00     0.006 C 
BRANCH   7   8
ATOM      8  C   UNL     1     -97.872 150.052 242.188  1.00  0.00     0.053 C 
BRANCH   8   9
ATOM      9  C   UNL     1     -99.055 150.133 241.272  1.00  0.00     0.041 C 
ATOM     10  O   UNL     1    -100.181 149.717 241.653  1.00  0.00    -0.550 OA
ATOM     11  O   UNL     1     -98.922 150.705 240.013  1.00  0.00    -0.550 OA
ENDBRANCH   8   9
ENDBRANCH   7   8
ENDBRANCH   6   7
ENDBRANCH   5   6
ENDBRANCH   4   5
ENDBRANCH   3   4
ENDBRANCH   2   3
ENDBRANCH   1   2
BRANCH   1  12
ATOM     12  C   UNL     1     -91.779 145.655 237.812  1.00  0.00     0.000 C 
BRANCH  12  13
ATOM     13  C   UNL     1     -92.392 145.786 236.406  1.00  0.00    -0.000 C 
BRANCH  13  14
ATOM     14  C   UNL     1     -93.858 146.255 236.437  1.00  0.00    -0.000 C 
BRANCH  14  15
ATOM     15  C   UNL     1     -94.216 147.137 235.230  1.00  0.00    -0.000 C 
BRANCH  15  16
ATOM     16  C   UNL     1     -94.997 148.403 235.629  1.00  0.00    -0.000 C 
BRANCH  16  17
ATOM     17  C   UNL     1     -95.124 148.552 237.160  1.00  0.00    -0.000 C 
BRANCH  17  18
ATOM     18  C   UNL     1     -96.582 148.644 237.654  1.00  0.00    -0.000 C 
BRANCH  18  19
ATOM     19  C   UNL     1     -97.239 147.291 237.973  1.00  0.00    -0.003 C 
ATOM     20  C   UNL     1     -98.541 147.435 238.762  1.00  0.00     0.004 C 
ENDBRANCH  18  19
ENDBRANCH  17  18
ENDBRANCH  16  17
ENDBRANCH  15  16
ENDBRANCH  14  15
ENDBRANCH  13  14
ENDBRANCH  12  13
ENDBRANCH   1  12
TORSDOF 16
ENDMDL
MODEL 3
REMARK VINA RESULT:    -3.728      1.145      2.432
REMARK INTER + INTRA:          -9.264
REMARK INTER:                  -7.766
REMARK INTRA:                  -1.498
REMARK UNBOUND:                -2.049
REMARK SMILES CCCCCCCCCCCCCCCCCC(=O)[O-]
REMARK SMILES IDX 10 1 11 2 12 3 13 4 14 5 15 6 16 7 17 8 18 9 19 10 20 11
REMARK SMILES IDX 9 12 8 13 7 14 6 15 5 16 4 17 3 18 2 19 1 20
REMARK H PARENT
REMARK Flexibility Score: inf
ROOT
ATOM      1  C   UNL     1     -93.294 145.633 239.809  1.00  0.00     0.000 C 
ENDROOT
BRANCH   1   2
ATOM      2  C   UNL     1     -94.095 146.755 240.500  1.00  0.00     0.000 C 
BRANCH   2   3
ATOM      3  C   UNL     1     -93.885 148.161 239.908  1.00  0.00     0.000 C 
BRANCH   3   4
ATOM      4  C   UNL     1     -95.177 148.757 239.320  1.00  0.00     0.000 C 
BRANCH   4   5
ATOM      5  C   UNL     1     -96.376 148.619 240.272  1.00  0.00     0.000 C 
BRANCH   5   6
ATOM      6  C   UNL     1     -96.364 149.672 241.390  1.00  0.00     0.000 C 
BRANCH   6   7
ATOM      7  C   UNL     1     -97.735 150.351 241.524  1.00  0.00     0.006 C 
BRANCH   7   8
ATOM      8  C   UNL     1     -98.719 149.513 242.352  1.00  0.00     0.053 C 
BRANCH   8   9
ATOM      9  C   UNL     1     -98.247 149.330 243.761  1.00  0.00     0.041 C 
ATOM     10  O   UNL     1     -98.267 150.298 244.567  1.00  0.00    -0.550 OA
ATOM     11  O   UNL     1     -97.821 148.081 244.197  1.00  0.00    -0.550 OA
ENDBRANCH   8   9
ENDBRANCH   7   8
ENDBRANCH   6   7
ENDBRANCH   5   6
ENDBRANCH   4   5
ENDBRANCH   3   4
ENDBRANCH   2   3
ENDBRANCH   1   2
BRANCH   1  12
ATOM     12  C   UNL     1     -91.961 146.074 239.171  1.00  0.00     0.000 C 
BRANCH  12  13
ATOM     13  C   UNL     1     -91.785 145.687 237.691  1.00  0.00    -0.000 C 
BRANCH  13  14
ATOM     14  C   UNL     1     -93.053 145.938 236.856  1.00  0.00    -0.000 C 
BRANCH  14  15
ATOM     15  C   UNL     1     -92.738 146.186 235.372  1.00  0.00    -0.000 C 
BRANCH  15  16
ATOM     16  C   UNL     1     -93.722 147.167 234.710  1.00  0.00    -0.000 C 
BRANCH  16  17
ATOM     17  C   UNL     1     -94.740 147.741 235.717  1.00  0.00    -0.000 C 
BRANCH  17  18
ATOM     18  C   UNL     1     -95.751 148.719 235.087  1.00  0.00    -0.000 C 
BRANCH  18  19
ATOM     19  C   UNL     1     -95.916 150.049 235.841  1.00  0.00    -0.003 C 
ATOM     20  C   UNL     1     -95.448 151.255 235.026  1.00  0.00     0.004 C 
ENDBRANCH  18  19
ENDBRANCH  17  18
ENDBRANCH  16  17
ENDBRANCH  15  16
ENDBRANCH  14  15
ENDBRANCH  13  14
ENDBRANCH  12  13
ENDBRANCH   1  12
TORSDOF 16
ENDMDL
MODEL 4
REMARK VINA RESULT:    -3.684      3.037      5.849
REMARK INTER + INTRA:          -9.179
REMARK INTER:                  -7.617
REMARK INTRA:                  -1.562
REMARK UNBOUND:                -2.049
REMARK SMILES CCCCCCCCCCCCCCCCCC(=O)[O-]
REMARK SMILES IDX 10 1 11 2 12 3 13 4 14 5 15 6 16 7 17 8 18 9 19 10 20 11
REMARK SMILES IDX 9 12 8 13 7 14 6 15 5 16 4 17 3 18 2 19 1 20
REMARK H PARENT
REMARK Flexibility Score: inf
ROOT
ATOM      1  C   UNL     1     -92.770 145.606 236.412  1.00  0.00     0.000 C 
ENDROOT
BRANCH   1   2
ATOM      2  C   UNL     1     -92.481 146.342 235.087  1.00  0.00     0.000 C 
BRANCH   2   3
ATOM      3  C   UNL     1     -93.555 147.358 234.662  1.00  0.00     0.000 C 
BRANCH   3   4
ATOM      4  C   UNL     1     -94.891 147.155 235.399  1.00  0.00     0.000 C 
BRANCH   4   5
ATOM      5  C   UNL     1     -95.504 148.480 235.882  1.00  0.00     0.000 C 
BRANCH   5   6
ATOM      6  C   UNL     1     -95.137 149.663 234.974  1.00  0.00     0.000 C 
BRANCH   6   7
ATOM      7  C   UNL     1     -96.333 150.610 234.791  1.00  0.00     0.006 C 
BRANCH   7   8
ATOM      8  C   UNL     1     -95.919 152.086 234.850  1.00  0.00     0.053 C 
BRANCH   8   9
ATOM      9  C   UNL     1     -97.008 152.948 235.409  1.00  0.00     0.041 C 
ATOM     10  O   UNL     1     -96.865 154.198 235.459  1.00  0.00    -0.550 OA
ATOM     11  O   UNL     1     -98.198 152.375 235.839  1.00  0.00    -0.550 OA
ENDBRANCH   8   9
ENDBRANCH   7   8
ENDBRANCH   6   7
ENDBRANCH   5   6
ENDBRANCH   4   5
ENDBRANCH   3   4
ENDBRANCH   2   3
ENDBRANCH   1   2
BRANCH   1  12
ATOM     12  C   UNL     1     -91.643 145.677 237.463  1.00  0.00     0.000 C 
BRANCH  12  13
ATOM     13  C   UNL     1     -92.095 146.076 238.879  1.00  0.00    -0.000 C 
BRANCH  13  14
ATOM     14  C   UNL     1     -93.549 146.578 238.921  1.00  0.00    -0.000 C 
BRANCH  14  15
ATOM     15  C   UNL     1     -93.638 148.106 239.059  1.00  0.00    -0.000 C 
BRANCH  15  16
ATOM     16  C   UNL     1     -95.040 148.586 239.476  1.00  0.00    -0.000 C 
BRANCH  16  17
ATOM     17  C   UNL     1     -95.083 149.049 240.948  1.00  0.00    -0.000 C 
BRANCH  17  18
ATOM     18  C   UNL     1     -96.467 149.561 241.396  1.00  0.00    -0.000 C 
BRANCH  18  19
ATOM     19  C   UNL     1     -97.596 149.342 240.375  1.00  0.00    -0.003 C 
ATOM     20  C   UNL     1     -98.782 150.281 240.591  1.00  0.00     0.004 C 
ENDBRANCH  18  19
ENDBRANCH  17  18
ENDBRANCH  16  17
ENDBRANCH  15  16
ENDBRANCH  14  15
ENDBRANCH  13  14
ENDBRANCH  12  13
ENDBRANCH   1  12
TORSDOF 16
ENDMDL
MODEL 5
REMARK VINA RESULT:    -3.681      3.557      5.882
REMARK INTER + INTRA:          -9.173
REMARK INTER:                  -6.043
REMARK INTRA:                  -3.130
REMARK UNBOUND:                -2.049
REMARK SMILES CCCCCCCCCCCCCCCCCC(=O)[O-]
REMARK SMILES IDX 10 1 11 2 12 3 13 4 14 5 15 6 16 7 17 8 18 9 19 10 20 11
REMARK SMILES IDX 9 12 8 13 7 14 6 15 5 16 4 17 3 18 2 19 1 20
REMARK H PARENT
REMARK Flexibility Score: inf
ROOT
ATOM      1  C   UNL     1     -96.932 147.902 242.029  1.00  0.00     0.000 C 
ENDROOT
BRANCH   1   2
ATOM      2  C   UNL     1     -96.477 149.294 241.547  1.00  0.00     0.000 C 
BRANCH   2   3
ATOM      3  C   UNL     1     -97.618 150.293 241.281  1.00  0.00     0.000 C 
BRANCH   3   4
ATOM      4  C   UNL     1     -99.008 149.632 241.323  1.00  0.00     0.000 C 
BRANCH   4   5
ATOM      5  C   UNL     1     -99.930 150.129 240.199  1.00  0.00     0.000 C 
BRANCH   5   6
ATOM      6  C   UNL     1     -99.176 150.942 239.135  1.00  0.00     0.000 C 
BRANCH   6   7
ATOM      7  C   UNL     1     -99.495 150.432 237.722  1.00  0.00     0.006 C 
BRANCH   7   8
ATOM      8  C   UNL     1     -98.951 151.365 236.631  1.00  0.00     0.053 C 
BRANCH   8   9
ATOM      9  C   UNL     1     -98.042 150.645 235.685  1.00  0.00     0.041 C 
ATOM     10  O   UNL     1     -96.841 151.003 235.563  1.00  0.00    -0.550 OA
ATOM     11  O   UNL     1     -98.509 149.551 234.967  1.00  0.00    -0.550 OA
ENDBRANCH   8   9
ENDBRANCH   7   8
ENDBRANCH   6   7
ENDBRANCH   5   6
ENDBRANCH   4   5
ENDBRANCH   3   4
ENDBRANCH   2   3
ENDBRANCH   1   2
BRANCH   1  12
ATOM     12  C   UNL     1     -96.036 146.727 241.584  1.00  0.00     0.000 C 
BRANCH  12  13
ATOM     13  C   UNL     1     -94.578 147.104 241.261  1.00  0.00    -0.000 C 
BRANCH  13  14
ATOM     14  C   UNL     1     -93.912 146.120 240.282  1.00  0.00    -0.000 C 
BRANCH  14  15
ATOM     15  C   UNL     1     -93.528 146.787 238.952  1.00  0.00    -0.000 C 
BRANCH  15  16
ATOM     16  C   UNL     1     -93.857 148.290 238.923  1.00  0.00    -0.000 C 
BRANCH  16  17
ATOM     17  C   UNL     1     -94.816 148.655 237.770  1.00  0.00    -0.000 C 
BRANCH  17  18
ATOM     18  C   UNL     1     -96.305 148.628 238.169  1.00  0.00    -0.000 C 
BRANCH  18  19
ATOM     19  C   UNL     1     -97.065 147.364 237.734  1.00  0.00    -0.003 C 
ATOM     20  C   UNL     1     -98.240 147.033 238.653  1.00  0.00     0.004 C 
ENDBRANCH  18  19
ENDBRANCH  17  18
ENDBRANCH  16  17
ENDBRANCH  15  16
ENDBRANCH  14  15
ENDBRANCH  13  14
ENDBRANCH  12  13
ENDBRANCH   1  12
TORSDOF 16
ENDMDL
MODEL 6
REMARK VINA RESULT:    -3.674      1.608      2.233
REMARK INTER + INTRA:          -9.160
REMARK INTER:                  -7.759
REMARK INTRA:                  -1.401
REMARK UNBOUND:                -2.049
REMARK SMILES CCCCCCCCCCCCCCCCCC(=O)[O-]
REMARK SMILES IDX 10 1 11 2 12 3 13 4 14 5 15 6 16 7 17 8 18 9 19 10 20 11
REMARK SMILES IDX 9 12 8 13 7 14 6 15 5 16 4 17 3 18 2 19 1 20
REMARK H PARENT
REMARK Flexibility Score: inf
ROOT
ATOM      1  C   UNL     1     -91.927 145.896 237.122  1.00  0.00     0.000 C 
ENDROOT
BRANCH   1   2
ATOM      2  C   UNL     1     -92.010 145.905 238.662  1.00  0.00     0.000 C 
BRANCH   2   3
ATOM      3  C   UNL     1     -93.136 146.777 239.246  1.00  0.00     0.000 C 
BRANCH   3   4
ATOM      4  C   UNL     1     -93.912 146.070 240.372  1.00  0.00     0.000 C 
BRANCH   4   5
ATOM      5  C   UNL     1     -94.636 147.059 241.299  1.00  0.00     0.000 C 
BRANCH   5   6
ATOM      6  C   UNL     1     -94.772 148.458 240.676  1.00  0.00     0.000 C 
BRANCH   6   7
ATOM      7  C   UNL     1     -96.248 148.847 240.509  1.00  0.00     0.006 C 
BRANCH   7   8
ATOM      8  C   UNL     1     -96.683 149.923 241.513  1.00  0.00     0.053 C 
BRANCH   8   9
ATOM      9  C   UNL     1     -97.603 149.370 242.557  1.00  0.00     0.041 C 
ATOM     10  O   UNL     1     -97.484 148.177 242.940  1.00  0.00    -0.550 OA
ATOM     11  O   UNL     1     -98.568 150.185 243.136  1.00  0.00    -0.550 OA
ENDBRANCH   8   9
ENDBRANCH   7   8
ENDBRANCH   6   7
ENDBRANCH   5   6
ENDBRANCH   4   5
ENDBRANCH   3   4
ENDBRANCH   2   3
ENDBRANCH   1   2
BRANCH   1  12
ATOM     12  C   UNL     1     -93.285 145.863 236.391  1.00  0.00     0.000 C 
BRANCH  12  13
ATOM     13  C   UNL     1     -93.340 146.667 235.079  1.00  0.00    -0.000 C 
BRANCH  13  14
ATOM     14  C   UNL     1     -94.612 147.526 234.961  1.00  0.00    -0.000 C 
BRANCH  14  15
ATOM     15  C   UNL     1     -95.176 147.929 236.333  1.00  0.00    -0.000 C 
BRANCH  15  16
ATOM     16  C   UNL     1     -95.280 149.455 236.510  1.00  0.00    -0.000 C 
BRANCH  16  17
ATOM     17  C   UNL     1     -95.894 150.145 235.274  1.00  0.00    -0.000 C 
BRANCH  17  18
ATOM     18  C   UNL     1     -95.550 151.644 235.167  1.00  0.00    -0.000 C 
BRANCH  18  19
ATOM     19  C   UNL     1     -96.639 152.508 234.509  1.00  0.00    -0.003 C 
ATOM     20  C   UNL     1     -97.695 152.992 235.504  1.00  0.00     0.004 C 
ENDBRANCH  18  19
ENDBRANCH  17  18
ENDBRANCH  16  17
ENDBRANCH  15  16
ENDBRANCH  14  15
ENDBRANCH  13  14
ENDBRANCH  12  13
ENDBRANCH   1  12
TORSDOF 16
ENDMDL
MODEL 7
REMARK VINA RESULT:    -3.641      3.531      6.619
REMARK INTER + INTRA:          -9.096
REMARK INTER:                  -6.160
REMARK INTRA:                  -2.936
REMARK UNBOUND:                -2.049
REMARK SMILES CCCCCCCCCCCCCCCCCC(=O)[O-]
REMARK SMILES IDX 10 1 11 2 12 3 13 4 14 5 15 6 16 7 17 8 18 9 19 10 20 11
REMARK SMILES IDX 9 12 8 13 7 14 6 15 5 16 4 17 3 18 2 19 1 20
REMARK H PARENT
REMARK Flexibility Score: inf
ROOT
ATOM      1  C   UNL     1     -95.977 146.832 241.822  1.00  0.00     0.000 C 
ENDROOT
BRANCH   1   2
ATOM      2  C   UNL     1     -94.699 146.818 240.959  1.00  0.00     0.000 C 
BRANCH   2   3
ATOM      3  C   UNL     1     -94.198 148.206 240.520  1.00  0.00     0.000 C 
BRANCH   3   4
ATOM      4  C   UNL     1     -93.805 148.252 239.032  1.00  0.00     0.000 C 
BRANCH   4   5
ATOM      5  C   UNL     1     -94.838 148.998 238.173  1.00  0.00     0.000 C 
BRANCH   5   6
ATOM      6  C   UNL     1     -95.220 148.220 236.905  1.00  0.00     0.000 C 
BRANCH   6   7
ATOM      7  C   UNL     1     -94.547 146.840 236.879  1.00  0.00     0.006 C 
BRANCH   7   8
ATOM      8  C   UNL     1     -93.697 146.632 235.619  1.00  0.00     0.053 C 
BRANCH   8   9
ATOM      9  C   UNL     1     -92.527 145.733 235.879  1.00  0.00     0.041 C 
ATOM     10  O   UNL     1     -91.992 145.702 237.018  1.00  0.00    -0.550 OA
ATOM     11  O   UNL     1     -92.054 144.898 234.874  1.00  0.00    -0.550 OA
ENDBRANCH   8   9
ENDBRANCH   7   8
ENDBRANCH   6   7
ENDBRANCH   5   6
ENDBRANCH   4   5
ENDBRANCH   3   4
ENDBRANCH   2   3
ENDBRANCH   1   2
BRANCH   1  12
ATOM     12  C   UNL     1     -97.186 146.091 241.217  1.00  0.00     0.000 C 
BRANCH  12  13
ATOM     13  C   UNL     1     -97.029 145.678 239.742  1.00  0.00    -0.000 C 
BRANCH  13  14
ATOM     14  C   UNL     1     -97.871 146.545 238.788  1.00  0.00    -0.000 C 
BRANCH  14  15
ATOM     15  C   UNL     1     -98.670 147.627 239.531  1.00  0.00    -0.000 C 
BRANCH  15  16
ATOM     16  C   UNL     1     -98.198 149.053 239.194  1.00  0.00    -0.000 C 
BRANCH  16  17
ATOM     17  C   UNL     1     -98.503 150.052 240.331  1.00  0.00    -0.000 C 
BRANCH  17  18
ATOM     18  C   UNL     1     -97.423 150.086 241.431  1.00  0.00    -0.000 C 
BRANCH  18  19
ATOM     19  C   UNL     1     -97.941 149.803 242.851  1.00  0.00    -0.003 C 
ATOM     20  C   UNL     1     -99.167 148.890 242.864  1.00  0.00     0.004 C 
ENDBRANCH  18  19
ENDBRANCH  17  18
ENDBRANCH  16  17
ENDBRANCH  15  16
ENDBRANCH  14  15
ENDBRANCH  13  14
ENDBRANCH  12  13
ENDBRANCH   1  12
TORSDOF 16
ENDMDL
MODEL 8
REMARK VINA RESULT:    -3.615      3.322      5.800
REMARK INTER + INTRA:          -9.046
REMARK INTER:                  -7.314
REMARK INTRA:                  -1.732
REMARK UNBOUND:                -2.049
REMARK SMILES CCCCCCCCCCCCCCCCCC(=O)[O-]
REMARK SMILES IDX 10 1 11 2 12 3 13 4 14 5 15 6 16 7 17 8 18 9 19 10 20 11
REMARK SMILES IDX 9 12 8 13 7 14 6 15 5 16 4 17 3 18 2 19 1 20
REMARK H PARENT
REMARK Flexibility Score: inf
ROOT
ATOM      1  C   UNL     1     -95.044 148.660 238.822  1.00  0.00     0.000 C 
ENDROOT
BRANCH   1   2
ATOM      2  C   UNL     1     -95.922 147.759 237.930  1.00  0.00     0.000 C 
BRANCH   2   3
ATOM      3  C   UNL     1     -95.844 148.064 236.424  1.00  0.00     0.000 C 
BRANCH   3   4
ATOM      4  C   UNL     1     -95.249 149.453 236.128  1.00  0.00     0.000 C 
BRANCH   4   5
ATOM      5  C   UNL     1     -96.227 150.363 235.370  1.00  0.00     0.000 C 
BRANCH   5   6
ATOM      6  C   UNL     1     -95.661 151.773 235.140  1.00  0.00     0.000 C 
BRANCH   6   7
ATOM      7  C   UNL     1     -96.721 152.702 234.530  1.00  0.00     0.006 C 
BRANCH   7   8
ATOM      8  C   UNL     1     -96.980 153.938 235.401  1.00  0.00     0.053 C 
BRANCH   8   9
ATOM      9  C   UNL     1     -98.342 153.905 236.023  1.00  0.00     0.041 C 
ATOM     10  O   UNL     1     -98.813 152.823 236.461  1.00  0.00    -0.550 OA
ATOM     11  O   UNL     1     -99.076 155.078 236.156  1.00  0.00    -0.550 OA
ENDBRANCH   8   9
ENDBRANCH   7   8
ENDBRANCH   6   7
ENDBRANCH   5   6
ENDBRANCH   4   5
ENDBRANCH   3   4
ENDBRANCH   2   3
ENDBRANCH   1   2
BRANCH   1  12
ATOM     12  C   UNL     1     -93.746 148.006 239.340  1.00  0.00     0.000 C 
BRANCH  12  13
ATOM     13  C   UNL     1     -93.570 146.522 238.973  1.00  0.00    -0.000 C 
BRANCH  13  14
ATOM     14  C   UNL     1     -92.093 146.104 238.870  1.00  0.00    -0.000 C 
BRANCH  14  15
ATOM     15  C   UNL     1     -91.720 145.609 237.464  1.00  0.00    -0.000 C 
BRANCH  15  16
ATOM     16  C   UNL     1     -92.749 146.019 236.396  1.00  0.00    -0.000 C 
BRANCH  16  17
ATOM     17  C   UNL     1     -92.426 145.415 235.012  1.00  0.00    -0.000 C 
BRANCH  17  18
ATOM     18  C   UNL     1     -91.973 146.458 233.971  1.00  0.00    -0.000 C 
BRANCH  18  19
ATOM     19  C   UNL     1     -92.823 147.739 233.931  1.00  0.00    -0.003 C 
ATOM     20  C   UNL     1     -94.008 147.635 232.970  1.00  0.00     0.004 C 
ENDBRANCH  18  19
ENDBRANCH  17  18
ENDBRANCH  16  17
ENDBRANCH  15  16
ENDBRANCH  14  15
ENDBRANCH  13  14
ENDBRANCH  12  13
ENDBRANCH   1  12
TORSDOF 16
ENDMDL
MODEL 9
REMARK VINA RESULT:    -3.590      3.541      6.312
REMARK INTER + INTRA:          -8.997
REMARK INTER:                  -6.493
REMARK INTRA:                  -2.504
REMARK UNBOUND:                -2.049
REMARK SMILES CCCCCCCCCCCCCCCCCC(=O)[O-]
REMARK SMILES IDX 10 1 11 2 12 3 13 4 14 5 15 6 16 7 17 8 18 9 19 10 20 11
REMARK SMILES IDX 9 12 8 13 7 14 6 15 5 16 4 17 3 18 2 19 1 20
REMARK H PARENT
REMARK Flexibility Score: inf
ROOT
ATOM      1  C   UNL     1     -93.112 146.326 237.612  1.00  0.00     0.000 C 
ENDROOT
BRANCH   1   2
ATOM      2  C   UNL     1     -94.207 147.303 237.136  1.00  0.00     0.000 C 
BRANCH   2   3
ATOM      3  C   UNL     1     -95.589 146.666 236.906  1.00  0.00     0.000 C 
BRANCH   3   4
ATOM      4  C   UNL     1     -96.718 147.415 237.637  1.00  0.00     0.000 C 
BRANCH   4   5
ATOM      5  C   UNL     1     -96.614 148.939 237.475  1.00  0.00     0.000 C 
BRANCH   5   6
ATOM      6  C   UNL     1     -97.605 149.490 236.438  1.00  0.00     0.000 C 
BRANCH   6   7
ATOM      7  C   UNL     1     -96.942 150.557 235.553  1.00  0.00     0.006 C 
BRANCH   7   8
ATOM      8  C   UNL     1     -95.450 150.280 235.329  1.00  0.00     0.053 C 
BRANCH   8   9
ATOM      9  C   UNL     1     -95.203 149.573 234.032  1.00  0.00     0.041 C 
ATOM     10  O   UNL     1     -94.306 148.693 233.949  1.00  0.00    -0.550 OA
ATOM     11  O   UNL     1     -95.992 149.857 232.924  1.00  0.00    -0.550 OA
ENDBRANCH   8   9
ENDBRANCH   7   8
ENDBRANCH   6   7
ENDBRANCH   5   6
ENDBRANCH   4   5
ENDBRANCH   3   4
ENDBRANCH   2   3
ENDBRANCH   1   2
BRANCH   1  12
ATOM     12  C   UNL     1     -92.711 146.460 239.096  1.00  0.00     0.000 C 
BRANCH  12  13
ATOM     13  C   UNL     1     -93.604 145.691 240.086  1.00  0.00    -0.000 C 
BRANCH  13  14
ATOM     14  C   UNL     1     -94.485 146.621 240.940  1.00  0.00    -0.000 C 
BRANCH  14  15
ATOM     15  C   UNL     1     -94.121 148.103 240.756  1.00  0.00    -0.000 C 
BRANCH  15  16
ATOM     16  C   UNL     1     -95.352 149.027 240.785  1.00  0.00    -0.000 C 
BRANCH  16  17
ATOM     17  C   UNL     1     -96.620 148.294 241.273  1.00  0.00    -0.000 C 
BRANCH  17  18
ATOM     18  C   UNL     1     -97.473 149.119 242.257  1.00  0.00    -0.000 C 
BRANCH  18  19
ATOM     19  C   UNL     1     -98.170 150.341 241.636  1.00  0.00    -0.003 C 
ATOM     20  C   UNL     1     -98.843 150.025 240.300  1.00  0.00     0.004 C 
ENDBRANCH  18  19
ENDBRANCH  17  18
ENDBRANCH  16  17
ENDBRANCH  15  16
ENDBRANCH  14  15
ENDBRANCH  13  14
ENDBRANCH  12  13
ENDBRANCH   1  12
TORSDOF 16
ENDMDL
