MODEL 1
REMARK VINA RESULT:    -6.348      0.000      0.000
REMARK INTER + INTRA:          -8.034
REMARK INTER:                  -7.832
REMARK INTRA:                  -0.202
REMARK UNBOUND:                -0.202
REMARK SMILES O=C1c2c(O)cc(O)cc2O[C@@H](c2cc(O)c(O)c(O)c2)[C@@H]1O
REMARK SMILES IDX 12 1 22 2 2 3 1 4 3 5 4 6 6 7 7 8 9 9 10 10 11 11 13 12
REMARK SMILES IDX 14 13 15 14 21 15 17 16 19 17 16 18 18 20 20 22 23 24 5 26
REMARK SMILES IDX 8 28
REMARK H PARENT 16 19 18 21 20 23 23 25 5 27 8 29
REMARK Flexibility Score: inf
ROOT
ATOM      1  C   UNL     1      26.365  27.147 -12.517  1.00  0.00     0.240 C 
ATOM      2  C   UNL     1      26.254  27.252 -14.050  1.00  0.00     0.231 C 
ATOM      3  C   UNL     1      25.619  25.998 -14.604  1.00  0.00     0.202 C 
ATOM      4  O   UNL     1      24.903  26.067 -15.639  1.00  0.00    -0.291 OA
ATOM      5  C   UNL     1      25.911  24.691 -13.965  1.00  0.00     0.105 A 
ATOM      6  C   UNL     1      25.543  23.458 -14.547  1.00  0.00     0.133 A 
ATOM      7  C   UNL     1      25.896  22.257 -13.913  1.00  0.00     0.093 A 
ATOM      8  C   UNL     1      26.615  22.271 -12.715  1.00  0.00     0.123 A 
ATOM      9  C   UNL     1      26.978  23.492 -12.136  1.00  0.00     0.093 A 
ATOM     10  C   UNL     1      26.616  24.696 -12.746  1.00  0.00     0.138 A 
ATOM     11  O   UNL     1      26.966  25.907 -12.139  1.00  0.00    -0.481 OA
ENDROOT
BRANCH   1  12
ATOM     12  C   UNL     1      27.166  28.296 -11.951  1.00  0.00     0.003 A 
ATOM     13  C   UNL     1      28.151  28.922 -12.730  1.00  0.00     0.058 A 
ATOM     14  C   UNL     1      28.917  29.968 -12.204  1.00  0.00     0.161 A 
ATOM     15  C   UNL     1      26.970  28.716 -10.626  1.00  0.00     0.058 A 
ATOM     16  C   UNL     1      28.709  30.394 -10.881  1.00  0.00     0.200 A 
ATOM     17  C   UNL     1      27.733  29.764 -10.090  1.00  0.00     0.161 A 
BRANCH  14  18
ATOM     18  O   UNL     1      29.881  30.570 -13.011  1.00  0.00    -0.504 OA
ATOM     19  H   UNL     1      29.877  30.474 -14.020  1.00  0.00     0.293 HD
ENDBRANCH  14  18
BRANCH  16  20
ATOM     20  O   UNL     1      29.476  31.439 -10.365  1.00  0.00    -0.502 OA
ATOM     21  H   UNL     1      29.135  32.049  -9.632  1.00  0.00     0.293 HD
ENDBRANCH  16  20
BRANCH  17  22
ATOM     22  O   UNL     1      27.526  30.177  -8.775  1.00  0.00    -0.504 OA
ATOM     23  H   UNL     1      26.914  30.953  -8.552  1.00  0.00     0.293 HD
ENDBRANCH  17  22
ENDBRANCH   1  12
BRANCH   2  24
ATOM     24  O   UNL     1      25.482  28.378 -14.384  1.00  0.00    -0.381 OA
ATOM     25  H   UNL     1      25.552  28.494 -15.368  1.00  0.00     0.211 HD
ENDBRANCH   2  24
BRANCH   6  26
ATOM     26  O   UNL     1      24.839  23.420 -15.750  1.00  0.00    -0.507 OA
ATOM     27  H   UNL     1      24.210  22.658 -15.975  1.00  0.00     0.293 HD
ENDBRANCH   6  26
BRANCH   8  28
ATOM     28  O   UNL     1      26.964  21.066 -12.109  1.00  0.00    -0.508 OA
ATOM     29  H   UNL     1      26.800  20.902 -11.123  1.00  0.00     0.293 HD
ENDBRANCH   8  28
TORSDOF 7
ENDMDL
MODEL 2
REMARK VINA RESULT:    -6.250      5.030      6.849
REMARK INTER + INTRA:          -7.913
REMARK INTER:                  -7.583
REMARK INTRA:                  -0.330
REMARK UNBOUND:                -0.202
REMARK SMILES O=C1c2c(O)cc(O)cc2O[C@@H](c2cc(O)c(O)c(O)c2)[C@@H]1O
REMARK SMILES IDX 12 1 22 2 2 3 1 4 3 5 4 6 6 7 7 8 9 9 10 10 11 11 13 12
REMARK SMILES IDX 14 13 15 14 21 15 17 16 19 17 16 18 18 20 20 22 23 24 5 26
REMARK SMILES IDX 8 28
REMARK H PARENT 16 19 18 21 20 23 23 25 5 27 8 29
REMARK Flexibility Score: inf
ROOT
ATOM      1  C   UNL     1      24.179  30.300 -11.544  1.00  0.00     0.240 C 
ATOM      2  C   UNL     1      24.045  31.029 -12.896  1.00  0.00     0.231 C 
ATOM      3  C   UNL     1      25.229  30.701 -13.773  1.00  0.00     0.202 C 
ATOM      4  O   UNL     1      25.083  30.651 -15.024  1.00  0.00    -0.291 OA
ATOM      5  C   UNL     1      26.566  30.517 -13.154  1.00  0.00     0.105 A 
ATOM      6  C   UNL     1      27.753  30.431 -13.914  1.00  0.00     0.133 A 
ATOM      7  C   UNL     1      28.989  30.309 -13.261  1.00  0.00     0.093 A 
ATOM      8  C   UNL     1      29.055  30.281 -11.866  1.00  0.00     0.123 A 
ATOM      9  C   UNL     1      27.879  30.363 -11.111  1.00  0.00     0.093 A 
ATOM     10  C   UNL     1      26.640  30.465 -11.749  1.00  0.00     0.138 A 
ATOM     11  O   UNL     1      25.473  30.521 -10.979  1.00  0.00    -0.481 OA
ENDROOT
BRANCH   1  12
ATOM     12  C   UNL     1      23.114  30.755 -10.574  1.00  0.00     0.003 A 
ATOM     13  C   UNL     1      22.779  32.115 -10.478  1.00  0.00     0.058 A 
ATOM     14  C   UNL     1      21.814  32.548  -9.563  1.00  0.00     0.161 A 
ATOM     15  C   UNL     1      22.484  29.832  -9.724  1.00  0.00     0.058 A 
ATOM     16  C   UNL     1      21.178  31.619  -8.722  1.00  0.00     0.200 A 
ATOM     17  C   UNL     1      21.516  30.257  -8.803  1.00  0.00     0.161 A 
BRANCH  14  18
ATOM     18  O   UNL     1      21.504  33.906  -9.501  1.00  0.00    -0.504 OA
ATOM     19  H   UNL     1      21.924  34.584 -10.127  1.00  0.00     0.293 HD
ENDBRANCH  14  18
BRANCH  16  20
ATOM     20  O   UNL     1      20.215  32.060  -7.813  1.00  0.00    -0.502 OA
ATOM     21  H   UNL     1      19.419  31.491  -7.550  1.00  0.00     0.293 HD
ENDBRANCH  16  20
BRANCH  17  22
ATOM     22  O   UNL     1      20.892  29.331  -7.968  1.00  0.00    -0.504 OA
ATOM     23  H   UNL     1      21.191  29.195  -7.010  1.00  0.00     0.293 HD
ENDBRANCH  17  22
ENDBRANCH   1  12
BRANCH   2  24
ATOM     24  O   UNL     1      22.849  30.633 -13.520  1.00  0.00    -0.381 OA
ATOM     25  H   UNL     1      23.095  29.973 -14.220  1.00  0.00     0.211 HD
ENDBRANCH   2  24
BRANCH   6  26
ATOM     26  O   UNL     1      27.712  30.474 -15.307  1.00  0.00    -0.507 OA
ATOM     27  H   UNL     1      28.049  29.704 -15.874  1.00  0.00     0.293 HD
ENDBRANCH   6  26
BRANCH   8  28
ATOM     28  O   UNL     1      30.294  30.170 -11.238  1.00  0.00    -0.508 OA
ATOM     29  H   UNL     1      31.122  30.610 -11.620  1.00  0.00     0.293 HD
ENDBRANCH   8  28
TORSDOF 7
ENDMDL
MODEL 3
REMARK VINA RESULT:    -6.240      5.020      6.974
REMARK INTER + INTRA:          -7.902
REMARK INTER:                  -7.541
REMARK INTRA:                  -0.361
REMARK UNBOUND:                -0.202
REMARK SMILES O=C1c2c(O)cc(O)cc2O[C@@H](c2cc(O)c(O)c(O)c2)[C@@H]1O
REMARK SMILES IDX 12 1 22 2 2 3 1 4 3 5 4 6 6 7 7 8 9 9 10 10 11 11 13 12
REMARK SMILES IDX 14 13 15 14 21 15 17 16 19 17 16 18 18 20 20 22 23 24 5 26
REMARK SMILES IDX 8 28
REMARK H PARENT 16 19 18 21 20 23 23 25 5 27 8 29
REMARK Flexibility Score: inf
ROOT
ATOM      1  C   UNL     1      24.135  30.288 -11.591  1.00  0.00     0.240 C 
ATOM      2  C   UNL     1      24.007  30.995 -12.955  1.00  0.00     0.231 C 
ATOM      3  C   UNL     1      25.204  30.664 -13.815  1.00  0.00     0.202 C 
ATOM      4  O   UNL     1      25.071  30.594 -15.067  1.00  0.00    -0.291 OA
ATOM      5  C   UNL     1      26.535  30.503 -13.181  1.00  0.00     0.105 A 
ATOM      6  C   UNL     1      27.731  30.417 -13.927  1.00  0.00     0.133 A 
ATOM      7  C   UNL     1      28.961  30.317 -13.260  1.00  0.00     0.093 A 
ATOM      8  C   UNL     1      29.014  30.311 -11.863  1.00  0.00     0.123 A 
ATOM      9  C   UNL     1      27.829  30.394 -11.122  1.00  0.00     0.093 A 
ATOM     10  C   UNL     1      26.596  30.474 -11.774  1.00  0.00     0.138 A 
ATOM     11  O   UNL     1      25.421  30.530 -11.016  1.00  0.00    -0.481 OA
ENDROOT
BRANCH   1  12
ATOM     12  C   UNL     1      23.056  30.748 -10.639  1.00  0.00     0.003 A 
ATOM     13  C   UNL     1      22.277  29.808  -9.945  1.00  0.00     0.058 A 
ATOM     14  C   UNL     1      21.258  30.225  -9.083  1.00  0.00     0.161 A 
ATOM     15  C   UNL     1      22.785  32.116 -10.476  1.00  0.00     0.058 A 
ATOM     16  C   UNL     1      20.999  31.596  -8.914  1.00  0.00     0.200 A 
ATOM     17  C   UNL     1      21.765  32.543  -9.615  1.00  0.00     0.161 A 
BRANCH  14  18
ATOM     18  O   UNL     1      20.511  29.262  -8.407  1.00  0.00    -0.504 OA
ATOM     19  H   UNL     1      19.503  29.321  -8.323  1.00  0.00     0.293 HD
ENDBRANCH  14  18
BRANCH  16  20
ATOM     20  O   UNL     1      19.980  32.003  -8.051  1.00  0.00    -0.502 OA
ATOM     21  H   UNL     1      20.079  31.967  -7.044  1.00  0.00     0.293 HD
ENDBRANCH  16  20
BRANCH  17  22
ATOM     22  O   UNL     1      21.509  33.904  -9.456  1.00  0.00    -0.504 OA
ATOM     23  H   UNL     1      21.403  34.321  -8.539  1.00  0.00     0.293 HD
ENDBRANCH  17  22
ENDBRANCH   1  12
BRANCH   2  24
ATOM     24  O   UNL     1      22.822  30.577 -13.585  1.00  0.00    -0.381 OA
ATOM     25  H   UNL     1      22.373  31.395 -13.924  1.00  0.00     0.211 HD
ENDBRANCH   2  24
BRANCH   6  26
ATOM     26  O   UNL     1      27.704  30.438 -15.321  1.00  0.00    -0.507 OA
ATOM     27  H   UNL     1      27.276  31.200 -15.834  1.00  0.00     0.293 HD
ENDBRANCH   6  26
BRANCH   8  28
ATOM     28  O   UNL     1      30.247  30.222 -11.222  1.00  0.00    -0.508 OA
ATOM     29  H   UNL     1      30.350  29.740 -10.337  1.00  0.00     0.293 HD
ENDBRANCH   8  28
TORSDOF 7
ENDMDL
MODEL 4
REMARK VINA RESULT:    -6.219      1.645      6.665
REMARK INTER + INTRA:          -7.875
REMARK INTER:                  -7.594
REMARK INTRA:                  -0.281
REMARK UNBOUND:                -0.202
REMARK SMILES O=C1c2c(O)cc(O)cc2O[C@@H](c2cc(O)c(O)c(O)c2)[C@@H]1O
REMARK SMILES IDX 12 1 22 2 2 3 1 4 3 5 4 6 6 7 7 8 9 9 10 10 11 11 13 12
REMARK SMILES IDX 14 13 15 14 21 15 17 16 19 17 16 18 18 20 20 22 23 24 5 26
REMARK SMILES IDX 8 28
REMARK H PARENT 16 19 18 21 20 23 23 25 5 27 8 29
REMARK Flexibility Score: inf
ROOT
ATOM      1  C   UNL     1      27.076  24.992 -13.016  1.00  0.00     0.240 C 
ATOM      2  C   UNL     1      25.967  25.210 -14.064  1.00  0.00     0.231 C 
ATOM      3  C   UNL     1      25.955  26.656 -14.501  1.00  0.00     0.202 C 
ATOM      4  O   UNL     1      25.617  26.948 -15.679  1.00  0.00    -0.291 OA
ATOM      5  C   UNL     1      26.267  27.718 -13.513  1.00  0.00     0.105 A 
ATOM      6  C   UNL     1      26.062  29.090 -13.777  1.00  0.00     0.133 A 
ATOM      7  C   UNL     1      26.330  30.038 -12.778  1.00  0.00     0.093 A 
ATOM      8  C   UNL     1      26.791  29.635 -11.522  1.00  0.00     0.123 A 
ATOM      9  C   UNL     1      26.997  28.276 -11.259  1.00  0.00     0.093 A 
ATOM     10  C   UNL     1      26.753  27.323 -12.252  1.00  0.00     0.138 A 
ATOM     11  O   UNL     1      26.989  25.971 -11.979  1.00  0.00    -0.481 OA
ENDROOT
BRANCH   1  12
ATOM     12  C   UNL     1      26.992  23.607 -12.419  1.00  0.00     0.003 A 
ATOM     13  C   UNL     1      28.163  22.894 -12.119  1.00  0.00     0.058 A 
ATOM     14  C   UNL     1      28.094  21.600 -11.591  1.00  0.00     0.161 A 
ATOM     15  C   UNL     1      25.745  22.998 -12.204  1.00  0.00     0.058 A 
ATOM     16  C   UNL     1      26.844  21.000 -11.366  1.00  0.00     0.200 A 
ATOM     17  C   UNL     1      25.666  21.702 -11.676  1.00  0.00     0.161 A 
BRANCH  14  18
ATOM     18  O   UNL     1      29.279  20.926 -11.300  1.00  0.00    -0.504 OA
ATOM     19  H   UNL     1      30.131  21.415 -11.052  1.00  0.00     0.293 HD
ENDBRANCH  14  18
BRANCH  16  20
ATOM     20  O   UNL     1      26.784  19.709 -10.839  1.00  0.00    -0.502 OA
ATOM     21  H   UNL     1      26.194  18.989 -11.238  1.00  0.00     0.293 HD
ENDBRANCH  16  20
BRANCH  17  22
ATOM     22  O   UNL     1      24.422  21.110 -11.460  1.00  0.00    -0.504 OA
ATOM     23  H   UNL     1      24.175  20.705 -10.566  1.00  0.00     0.293 HD
ENDBRANCH  17  22
ENDBRANCH   1  12
BRANCH   2  24
ATOM     24  O   UNL     1      26.197  24.369 -15.166  1.00  0.00    -0.381 OA
ATOM     25  H   UNL     1      25.608  24.687 -15.899  1.00  0.00     0.211 HD
ENDBRANCH   2  24
BRANCH   6  26
ATOM     26  O   UNL     1      25.587  29.514 -15.017  1.00  0.00    -0.507 OA
ATOM     27  H   UNL     1      24.618  29.779 -15.155  1.00  0.00     0.293 HD
ENDBRANCH   6  26
BRANCH   8  28
ATOM     28  O   UNL     1      27.041  30.593 -10.542  1.00  0.00    -0.508 OA
ATOM     29  H   UNL     1      26.719  31.549 -10.640  1.00  0.00     0.293 HD
ENDBRANCH   8  28
TORSDOF 7
ENDMDL
MODEL 5
REMARK VINA RESULT:    -6.215      1.631      6.752
REMARK INTER + INTRA:          -7.871
REMARK INTER:                  -7.580
REMARK INTRA:                  -0.291
REMARK UNBOUND:                -0.202
REMARK SMILES O=C1c2c(O)cc(O)cc2O[C@@H](c2cc(O)c(O)c(O)c2)[C@@H]1O
REMARK SMILES IDX 12 1 22 2 2 3 1 4 3 5 4 6 6 7 7 8 9 9 10 10 11 11 13 12
REMARK SMILES IDX 14 13 15 14 21 15 17 16 19 17 16 18 18 20 20 22 23 24 5 26
REMARK SMILES IDX 8 28
REMARK H PARENT 16 19 18 21 20 23 23 25 5 27 8 29
REMARK Flexibility Score: inf
ROOT
ATOM      1  C   UNL     1      27.060  25.000 -13.100  1.00  0.00     0.240 C 
ATOM      2  C   UNL     1      25.926  25.235 -14.117  1.00  0.00     0.231 C 
ATOM      3  C   UNL     1      25.902  26.687 -14.530  1.00  0.00     0.202 C 
ATOM      4  O   UNL     1      25.535  26.997 -15.696  1.00  0.00    -0.291 OA
ATOM      5  C   UNL     1      26.237  27.734 -13.533  1.00  0.00     0.105 A 
ATOM      6  C   UNL     1      26.025  29.110 -13.770  1.00  0.00     0.133 A 
ATOM      7  C   UNL     1      26.317  30.042 -12.763  1.00  0.00     0.093 A 
ATOM      8  C   UNL     1      26.808  29.619 -11.525  1.00  0.00     0.123 A 
ATOM      9  C   UNL     1      27.022  28.256 -11.289  1.00  0.00     0.093 A 
ATOM     10  C   UNL     1      26.754  27.319 -12.291  1.00  0.00     0.138 A 
ATOM     11  O   UNL     1      26.997  25.963 -12.045  1.00  0.00    -0.481 OA
ENDROOT
BRANCH   1  12
ATOM     12  C   UNL     1      26.991  23.606 -12.522  1.00  0.00     0.003 A 
ATOM     13  C   UNL     1      25.747  23.007 -12.267  1.00  0.00     0.058 A 
ATOM     14  C   UNL     1      25.675  21.727 -11.707  1.00  0.00     0.161 A 
ATOM     15  C   UNL     1      28.166  22.915 -12.187  1.00  0.00     0.058 A 
ATOM     16  C   UNL     1      26.854  21.034 -11.385  1.00  0.00     0.200 A 
ATOM     17  C   UNL     1      28.103  21.632 -11.625  1.00  0.00     0.161 A 
BRANCH  14  18
ATOM     18  O   UNL     1      24.421  21.163 -11.475  1.00  0.00    -0.504 OA
ATOM     19  H   UNL     1      24.165  20.251 -11.835  1.00  0.00     0.293 HD
ENDBRANCH  14  18
BRANCH  16  20
ATOM     20  O   UNL     1      26.772  19.758 -10.827  1.00  0.00    -0.502 OA
ATOM     21  H   UNL     1      27.306  18.976 -11.187  1.00  0.00     0.293 HD
ENDBRANCH  16  20
BRANCH  17  22
ATOM     22  O   UNL     1      29.277  20.953 -11.302  1.00  0.00    -0.504 OA
ATOM     23  H   UNL     1      29.417  19.984 -11.560  1.00  0.00     0.293 HD
ENDBRANCH  17  22
ENDBRANCH   1  12
BRANCH   2  24
ATOM     24  O   UNL     1      26.129  24.411 -15.238  1.00  0.00    -0.381 OA
ATOM     25  H   UNL     1      25.232  24.129 -15.555  1.00  0.00     0.211 HD
ENDBRANCH   2  24
BRANCH   6  26
ATOM     26  O   UNL     1      25.520  29.553 -14.992  1.00  0.00    -0.507 OA
ATOM     27  H   UNL     1      25.698  30.490 -15.334  1.00  0.00     0.293 HD
ENDBRANCH   6  26
BRANCH   8  28
ATOM     28  O   UNL     1      27.081  30.561 -10.536  1.00  0.00    -0.508 OA
ATOM     29  H   UNL     1      27.184  30.295  -9.564  1.00  0.00     0.293 HD
ENDBRANCH   8  28
TORSDOF 7
ENDMDL
MODEL 6
REMARK VINA RESULT:    -5.972      2.974      6.883
REMARK INTER + INTRA:          -7.571
REMARK INTER:                  -7.192
REMARK INTRA:                  -0.379
REMARK UNBOUND:                -0.202
REMARK SMILES O=C1c2c(O)cc(O)cc2O[C@@H](c2cc(O)c(O)c(O)c2)[C@@H]1O
REMARK SMILES IDX 12 1 22 2 2 3 1 4 3 5 4 6 6 7 7 8 9 9 10 10 11 11 13 12
REMARK SMILES IDX 14 13 15 14 21 15 17 16 19 17 16 18 18 20 20 22 23 24 5 26
REMARK SMILES IDX 8 28
REMARK H PARENT 16 19 18 21 20 23 23 25 5 27 8 29
REMARK Flexibility Score: inf
ROOT
ATOM      1  C   UNL     1      25.760  27.803 -13.007  1.00  0.00     0.240 C 
ATOM      2  C   UNL     1      26.918  28.581 -13.661  1.00  0.00     0.231 C 
ATOM      3  C   UNL     1      26.475  29.991 -13.975  1.00  0.00     0.202 C 
ATOM      4  O   UNL     1      27.312  30.932 -13.932  1.00  0.00    -0.291 OA
ATOM      5  C   UNL     1      25.076  30.235 -14.405  1.00  0.00     0.105 A 
ATOM      6  C   UNL     1      24.643  31.474 -14.927  1.00  0.00     0.133 A 
ATOM      7  C   UNL     1      23.318  31.620 -15.363  1.00  0.00     0.093 A 
ATOM      8  C   UNL     1      22.425  30.548 -15.293  1.00  0.00     0.123 A 
ATOM      9  C   UNL     1      22.851  29.320 -14.773  1.00  0.00     0.093 A 
ATOM     10  C   UNL     1      24.163  29.167 -14.317  1.00  0.00     0.138 A 
ATOM     11  O   UNL     1      24.563  27.939 -13.777  1.00  0.00    -0.481 OA
ENDROOT
BRANCH   1  12
ATOM     12  C   UNL     1      26.105  26.341 -12.856  1.00  0.00     0.003 A 
ATOM     13  C   UNL     1      26.267  25.780 -11.579  1.00  0.00     0.058 A 
ATOM     14  C   UNL     1      26.615  24.434 -11.431  1.00  0.00     0.161 A 
ATOM     15  C   UNL     1      26.319  25.539 -13.988  1.00  0.00     0.058 A 
ATOM     16  C   UNL     1      26.816  23.632 -12.567  1.00  0.00     0.200 A 
ATOM     17  C   UNL     1      26.668  24.188 -13.849  1.00  0.00     0.161 A 
BRANCH  14  18
ATOM     18  O   UNL     1      26.760  23.912 -10.146  1.00  0.00    -0.504 OA
ATOM     19  H   UNL     1      27.518  24.190  -9.533  1.00  0.00     0.293 HD
ENDBRANCH  14  18
BRANCH  16  20
ATOM     20  O   UNL     1      27.161  22.289 -12.410  1.00  0.00    -0.502 OA
ATOM     21  H   UNL     1      27.097  21.815 -11.517  1.00  0.00     0.293 HD
ENDBRANCH  16  20
BRANCH  17  22
ATOM     22  O   UNL     1      26.871  23.399 -14.981  1.00  0.00    -0.504 OA
ATOM     23  H   UNL     1      27.792  23.274 -15.383  1.00  0.00     0.293 HD
ENDBRANCH  17  22
ENDBRANCH   1  12
BRANCH   2  24
ATOM     24  O   UNL     1      28.018  28.599 -12.786  1.00  0.00    -0.381 OA
ATOM     25  H   UNL     1      27.653  28.658 -11.865  1.00  0.00     0.211 HD
ENDBRANCH   2  24
BRANCH   6  26
ATOM     26  O   UNL     1      25.522  32.553 -15.023  1.00  0.00    -0.507 OA
ATOM     27  H   UNL     1      26.334  32.633 -14.421  1.00  0.00     0.293 HD
ENDBRANCH   6  26
BRANCH   8  28
ATOM     28  O   UNL     1      21.116  30.712 -15.741  1.00  0.00    -0.508 OA
ATOM     29  H   UNL     1      20.895  30.749 -16.729  1.00  0.00     0.293 HD
ENDBRANCH   8  28
TORSDOF 7
ENDMDL
MODEL 7
REMARK VINA RESULT:    -5.778      2.909      6.976
REMARK INTER + INTRA:          -7.331
REMARK INTER:                  -7.061
REMARK INTRA:                  -0.271
REMARK UNBOUND:                -0.202
REMARK SMILES O=C1c2c(O)cc(O)cc2O[C@@H](c2cc(O)c(O)c(O)c2)[C@@H]1O
REMARK SMILES IDX 12 1 22 2 2 3 1 4 3 5 4 6 6 7 7 8 9 9 10 10 11 11 13 12
REMARK SMILES IDX 14 13 15 14 21 15 17 16 19 17 16 18 18 20 20 22 23 24 5 26
REMARK SMILES IDX 8 28
REMARK H PARENT 16 19 18 21 20 23 23 25 5 27 8 29
REMARK Flexibility Score: inf
ROOT
ATOM      1  C   UNL     1      26.196  28.213 -13.296  1.00  0.00     0.240 C 
ATOM      2  C   UNL     1      25.928  29.034 -14.573  1.00  0.00     0.231 C 
ATOM      3  C   UNL     1      25.666  30.476 -14.209  1.00  0.00     0.202 C 
ATOM      4  O   UNL     1      26.010  31.392 -15.003  1.00  0.00    -0.291 OA
ATOM      5  C   UNL     1      24.937  30.789 -12.955  1.00  0.00     0.105 A 
ATOM      6  C   UNL     1      24.459  32.083 -12.653  1.00  0.00     0.133 A 
ATOM      7  C   UNL     1      23.732  32.298 -11.472  1.00  0.00     0.093 A 
ATOM      8  C   UNL     1      23.471  31.241 -10.597  1.00  0.00     0.123 A 
ATOM      9  C   UNL     1      23.947  29.958 -10.893  1.00  0.00     0.093 A 
ATOM     10  C   UNL     1      24.689  29.734 -12.055  1.00  0.00     0.138 A 
ATOM     11  O   UNL     1      25.177  28.451 -12.322  1.00  0.00    -0.481 OA
ENDROOT
BRANCH   1  12
ATOM     12  C   UNL     1      26.273  26.737 -13.606  1.00  0.00     0.003 A 
ATOM     13  C   UNL     1      25.467  26.183 -14.613  1.00  0.00     0.058 A 
ATOM     14  C   UNL     1      25.511  24.812 -14.887  1.00  0.00     0.161 A 
ATOM     15  C   UNL     1      27.110  25.895 -12.857  1.00  0.00     0.058 A 
ATOM     16  C   UNL     1      26.360  23.975 -14.144  1.00  0.00     0.200 A 
ATOM     17  C   UNL     1      27.160  24.519 -13.124  1.00  0.00     0.161 A 
BRANCH  14  18
ATOM     18  O   UNL     1      24.702  24.300 -15.900  1.00  0.00    -0.504 OA
ATOM     19  H   UNL     1      25.037  24.176 -16.848  1.00  0.00     0.293 HD
ENDBRANCH  14  18
BRANCH  16  20
ATOM     20  O   UNL     1      26.399  22.608 -14.425  1.00  0.00    -0.502 OA
ATOM     21  H   UNL     1      26.798  21.936 -13.781  1.00  0.00     0.293 HD
ENDBRANCH  16  20
BRANCH  17  22
ATOM     22  O   UNL     1      28.001  23.693 -12.379  1.00  0.00    -0.504 OA
ATOM     23  H   UNL     1      27.687  23.250 -11.524  1.00  0.00     0.293 HD
ENDBRANCH  17  22
ENDBRANCH   1  12
BRANCH   2  24
ATOM     24  O   UNL     1      27.041  28.940 -15.427  1.00  0.00    -0.381 OA
ATOM     25  H   UNL     1      27.576  28.163 -15.119  1.00  0.00     0.211 HD
ENDBRANCH   2  24
BRANCH   6  26
ATOM     26  O   UNL     1      24.693  33.150 -13.520  1.00  0.00    -0.507 OA
ATOM     27  H   UNL     1      24.042  33.388 -14.259  1.00  0.00     0.293 HD
ENDBRANCH   6  26
BRANCH   8  28
ATOM     28  O   UNL     1      22.739  31.475  -9.435  1.00  0.00    -0.508 OA
ATOM     29  H   UNL     1      22.639  32.407  -9.051  1.00  0.00     0.293 HD
ENDBRANCH   8  28
TORSDOF 7
ENDMDL
MODEL 8
REMARK VINA RESULT:    -5.774      3.016      3.896
REMARK INTER + INTRA:          -7.327
REMARK INTER:                  -6.963
REMARK INTRA:                  -0.364
REMARK UNBOUND:                -0.202
REMARK SMILES O=C1c2c(O)cc(O)cc2O[C@@H](c2cc(O)c(O)c(O)c2)[C@@H]1O
REMARK SMILES IDX 12 1 22 2 2 3 1 4 3 5 4 6 6 7 7 8 9 9 10 10 11 11 13 12
REMARK SMILES IDX 14 13 15 14 21 15 17 16 19 17 16 18 18 20 20 22 23 24 5 26
REMARK SMILES IDX 8 28
REMARK H PARENT 16 19 18 21 20 23 23 25 5 27 8 29
REMARK Flexibility Score: inf
ROOT
ATOM      1  C   UNL     1      25.462  28.398 -14.333  1.00  0.00     0.240 C 
ATOM      2  C   UNL     1      26.449  27.635 -13.427  1.00  0.00     0.231 C 
ATOM      3  C   UNL     1      26.633  26.228 -13.943  1.00  0.00     0.202 C 
ATOM      4  O   UNL     1      27.742  25.649 -13.790  1.00  0.00    -0.291 OA
ATOM      5  C   UNL     1      25.481  25.519 -14.554  1.00  0.00     0.105 A 
ATOM      6  C   UNL     1      25.506  24.140 -14.855  1.00  0.00     0.133 A 
ATOM      7  C   UNL     1      24.363  23.523 -15.384  1.00  0.00     0.093 A 
ATOM      8  C   UNL     1      23.197  24.260 -15.608  1.00  0.00     0.123 A 
ATOM      9  C   UNL     1      23.172  25.628 -15.313  1.00  0.00     0.093 A 
ATOM     10  C   UNL     1      24.310  26.259 -14.804  1.00  0.00     0.138 A 
ATOM     11  O   UNL     1      24.273  27.633 -14.539  1.00  0.00    -0.481 OA
ENDROOT
BRANCH   1  12
ATOM     12  C   UNL     1      25.108  29.741 -13.739  1.00  0.00     0.003 A 
ATOM     13  C   UNL     1      25.211  30.907 -14.515  1.00  0.00     0.058 A 
ATOM     14  C   UNL     1      24.912  32.157 -13.964  1.00  0.00     0.161 A 
ATOM     15  C   UNL     1      24.722  29.845 -12.393  1.00  0.00     0.058 A 
ATOM     16  C   UNL     1      24.514  32.256 -12.620  1.00  0.00     0.200 A 
ATOM     17  C   UNL     1      24.420  31.095 -11.833  1.00  0.00     0.161 A 
BRANCH  14  18
ATOM     18  O   UNL     1      25.020  33.291 -14.768  1.00  0.00    -0.504 OA
ATOM     19  H   UNL     1      24.208  33.801 -15.094  1.00  0.00     0.293 HD
ENDBRANCH  14  18
BRANCH  16  20
ATOM     20  O   UNL     1      24.216  33.507 -12.080  1.00  0.00    -0.502 OA
ATOM     21  H   UNL     1      23.578  34.152 -12.530  1.00  0.00     0.293 HD
ENDBRANCH  16  20
BRANCH  17  22
ATOM     22  O   UNL     1      24.031  31.186 -10.497  1.00  0.00    -0.504 OA
ATOM     23  H   UNL     1      23.067  31.353 -10.235  1.00  0.00     0.293 HD
ENDBRANCH  17  22
ENDBRANCH   1  12
BRANCH   2  24
ATOM     24  O   UNL     1      27.680  28.313 -13.406  1.00  0.00    -0.381 OA
ATOM     25  H   UNL     1      27.897  28.544 -14.347  1.00  0.00     0.211 HD
ENDBRANCH   2  24
BRANCH   6  26
ATOM     26  O   UNL     1      26.653  23.381 -14.624  1.00  0.00    -0.507 OA
ATOM     27  H   UNL     1      26.680  22.385 -14.813  1.00  0.00     0.293 HD
ENDBRANCH   6  26
BRANCH   8  28
ATOM     28  O   UNL     1      22.071  23.625 -16.125  1.00  0.00    -0.508 OA
ATOM     29  H   UNL     1      21.568  24.001 -16.920  1.00  0.00     0.293 HD
ENDBRANCH   8  28
TORSDOF 7
ENDMDL
MODEL 9
REMARK VINA RESULT:    -5.438      2.540      4.159
REMARK INTER + INTRA:          -6.912
REMARK INTER:                  -6.561
REMARK INTRA:                  -0.351
REMARK UNBOUND:                -0.202
REMARK SMILES O=C1c2c(O)cc(O)cc2O[C@@H](c2cc(O)c(O)c(O)c2)[C@@H]1O
REMARK SMILES IDX 12 1 22 2 2 3 1 4 3 5 4 6 6 7 7 8 9 9 10 10 11 11 13 12
REMARK SMILES IDX 14 13 15 14 21 15 17 16 19 17 16 18 18 20 20 22 23 24 5 26
REMARK SMILES IDX 8 28
REMARK H PARENT 16 19 18 21 20 23 23 25 5 27 8 29
REMARK Flexibility Score: inf
ROOT
ATOM      1  C   UNL     1      26.010  26.169 -12.565  1.00  0.00     0.240 C 
ATOM      2  C   UNL     1      27.167  25.197 -12.870  1.00  0.00     0.231 C 
ATOM      3  C   UNL     1      26.986  23.922 -12.081  1.00  0.00     0.202 C 
ATOM      4  O   UNL     1      27.388  22.829 -12.562  1.00  0.00    -0.291 OA
ATOM      5  C   UNL     1      26.406  23.987 -10.716  1.00  0.00     0.105 A 
ATOM      6  C   UNL     1      26.409  22.885  -9.833  1.00  0.00     0.133 A 
ATOM      7  C   UNL     1      25.890  23.031  -8.537  1.00  0.00     0.093 A 
ATOM      8  C   UNL     1      25.378  24.260  -8.112  1.00  0.00     0.123 A 
ATOM      9  C   UNL     1      25.372  25.352  -8.986  1.00  0.00     0.093 A 
ATOM     10  C   UNL     1      25.868  25.215 -10.286  1.00  0.00     0.138 A 
ATOM     11  O   UNL     1      25.830  26.312 -11.154  1.00  0.00    -0.481 OA
ENDROOT
BRANCH   1  12
ATOM     12  C   UNL     1      26.260  27.522 -13.187  1.00  0.00     0.003 A 
ATOM     13  C   UNL     1      25.551  27.916 -14.333  1.00  0.00     0.058 A 
ATOM     14  C   UNL     1      25.797  29.156 -14.932  1.00  0.00     0.161 A 
ATOM     15  C   UNL     1      27.238  28.380 -12.658  1.00  0.00     0.058 A 
ATOM     16  C   UNL     1      26.768  30.016 -14.392  1.00  0.00     0.200 A 
ATOM     17  C   UNL     1      27.491  29.624 -13.252  1.00  0.00     0.161 A 
BRANCH  14  18
ATOM     18  O   UNL     1      25.068  29.514 -16.065  1.00  0.00    -0.504 OA
ATOM     19  H   UNL     1      25.285  30.342 -16.607  1.00  0.00     0.293 HD
ENDBRANCH  14  18
BRANCH  16  20
ATOM     20  O   UNL     1      27.005  31.252 -14.994  1.00  0.00    -0.502 OA
ATOM     21  H   UNL     1      27.105  31.354 -15.997  1.00  0.00     0.293 HD
ENDBRANCH  16  20
BRANCH  17  22
ATOM     22  O   UNL     1      28.460  30.471 -12.714  1.00  0.00    -0.504 OA
ATOM     23  H   UNL     1      28.543  31.436 -13.007  1.00  0.00     0.293 HD
ENDBRANCH  17  22
ENDBRANCH   1  12
BRANCH   2  24
ATOM     24  O   UNL     1      27.190  24.920 -14.248  1.00  0.00    -0.381 OA
ATOM     25  H   UNL     1      26.816  24.007 -14.364  1.00  0.00     0.211 HD
ENDBRANCH   2  24
BRANCH   6  26
ATOM     26  O   UNL     1      26.929  21.654 -10.231  1.00  0.00    -0.507 OA
ATOM     27  H   UNL     1      26.664  21.222 -11.108  1.00  0.00     0.293 HD
ENDBRANCH   6  26
BRANCH   8  28
ATOM     28  O   UNL     1      24.878  24.384  -6.818  1.00  0.00    -0.508 OA
ATOM     29  H   UNL     1      24.810  23.587  -6.196  1.00  0.00     0.293 HD
ENDBRANCH   8  28
TORSDOF 7
ENDMDL
