MODEL 1
REMARK VINA RESULT:    -3.698      0.000      0.000
REMARK INTER + INTRA:          -5.894
REMARK INTER:                  -5.644
REMARK INTRA:                  -0.251
REMARK UNBOUND:                -0.251
REMARK SMILES CC1=CCC[C@@H](C)C(=O)C[C@H](C(C)C)C(=O)C1
REMARK SMILES IDX 8 1 9 2 6 3 7 4 5 5 4 6 3 7 2 8 1 9 10 11 11 12 15 13 16 14
REMARK SMILES IDX 17 15 12 17 13 18 14 19
REMARK H PARENT
REMARK Flexibility Score: 70.00
ROOT
ATOM      1  C   UNL     1      19.938  46.499  20.577  1.00  0.00     0.136 C 
ATOM      2  O   UNL     1      20.719  46.966  21.394  1.00  0.00    -0.299 OA
ENDROOT
BRANCH   1   3
ATOM      3  C   UNL     1      18.815  47.362  20.029  1.00  0.00     0.053 C 
ATOM      4  C   UNL     1      19.370  48.637  19.375  1.00  0.00     0.016 C 
BRANCH   3   5
ATOM      5  C   UNL     1      17.806  47.708  21.152  1.00  0.00     0.015 C 
BRANCH   5   6
ATOM      6  C   UNL     1      16.713  46.634  21.307  1.00  0.00     0.028 C 
BRANCH   6   7
ATOM      7  C   UNL     1      16.224  46.151  19.966  1.00  0.00    -0.028 C 
ATOM      8  C   UNL     1      16.187  44.854  19.580  1.00  0.00    -0.070 CG0
ATOM      9  C   UNL     1      15.620  44.535  18.220  1.00  0.00     0.039 C 
ATOM     10  G   UNL     1      16.695  43.716  20.450  1.00  0.00     0.000 G0
ENDBRANCH   6   7
ENDBRANCH   5   6
ENDBRANCH   3   5
ENDBRANCH   1   3
BRANCH   1  11
ATOM     11  C   UNL     1      20.096  45.057  20.155  1.00  0.00     0.087 C 
BRANCH  11  12
ATOM     12  C   UNL     1      19.252  44.101  21.039  1.00  0.00     0.066 C 
BRANCH  12  13
ATOM     13  C   UNL     1      18.146  43.407  20.252  1.00  0.00     0.140 C 
ATOM     14  O   UNL     1      18.465  42.635  19.358  1.00  0.00    -0.299 OA
BRANCH  13  15
ATOM     15  C   UNL     1      16.681  43.708  20.463  1.00  0.00     0.106 CG0
ATOM     16  G   UNL     1      16.190  44.839  19.573  1.00  0.00     0.000 G0
ENDBRANCH  13  15
ENDBRANCH  12  13
BRANCH  12  17
ATOM     17  C   UNL     1      20.097  43.095  21.890  1.00  0.00    -0.006 C 
ATOM     18  C   UNL     1      21.486  43.612  22.306  1.00  0.00     0.008 C 
ATOM     19  C   UNL     1      19.327  42.642  23.143  1.00  0.00     0.008 C 
ENDBRANCH  12  17
ENDBRANCH  11  12
ENDBRANCH   1  11
TORSDOF 1
ENDMDL
MODEL 2
REMARK VINA RESULT:    -3.676      1.688      4.054
REMARK INTER + INTRA:          -5.861
REMARK INTER:                  -5.887
REMARK INTRA:                   0.026
REMARK UNBOUND:                -0.251
REMARK SMILES CC1=CCC[C@@H](C)C(=O)C[C@H](C(C)C)C(=O)C1
REMARK SMILES IDX 8 1 9 2 6 3 7 4 5 5 4 6 3 7 2 8 1 9 10 11 11 12 15 13 16 14
REMARK SMILES IDX 17 15 12 17 13 18 14 19
REMARK H PARENT
REMARK Flexibility Score: 70.00
ROOT
ATOM      1  C   UNL     1      18.126  47.173  20.356  1.00  0.00     0.136 C 
ATOM      2  O   UNL     1      17.670  48.035  19.618  1.00  0.00    -0.299 OA
ENDROOT
BRANCH   1   3
ATOM      3  C   UNL     1      19.588  47.224  20.762  1.00  0.00     0.053 C 
ATOM      4  C   UNL     1      20.254  48.515  20.261  1.00  0.00     0.016 C 
BRANCH   3   5
ATOM      5  C   UNL     1      20.336  45.974  20.236  1.00  0.00     0.015 C 
BRANCH   5   6
ATOM      6  C   UNL     1      20.630  44.955  21.353  1.00  0.00     0.028 C 
BRANCH   6   7
ATOM      7  C   UNL     1      20.616  43.544  20.825  1.00  0.00    -0.028 C 
ATOM      8  C   UNL     1      19.500  42.797  20.650  1.00  0.00    -0.070 CG0
ATOM      9  C   UNL     1      19.655  41.418  20.062  1.00  0.00     0.039 C 
ATOM     10  G   UNL     1      18.110  43.284  21.023  1.00  0.00     0.000 G0
ENDBRANCH   6   7
ENDBRANCH   5   6
ENDBRANCH   3   5
ENDBRANCH   1   3
BRANCH   1  11
ATOM     11  C   UNL     1      17.221  46.057  20.822  1.00  0.00     0.087 C 
BRANCH  11  12
ATOM     12  C   UNL     1      16.797  45.130  19.653  1.00  0.00     0.066 C 
BRANCH  12  13
ATOM     13  C   UNL     1      17.288  43.699  19.837  1.00  0.00     0.140 C 
ATOM     14  O   UNL     1      16.936  42.854  19.025  1.00  0.00    -0.299 OA
BRANCH  13  15
ATOM     15  C   UNL     1      18.104  43.263  21.031  1.00  0.00     0.106 CG0
ATOM     16  G   UNL     1      19.500  42.804  20.640  1.00  0.00     0.000 G0
ENDBRANCH  13  15
ENDBRANCH  12  13
BRANCH  12  17
ATOM     17  C   UNL     1      15.273  45.194  19.298  1.00  0.00    -0.006 C 
ATOM     18  C   UNL     1      14.336  45.343  20.511  1.00  0.00     0.008 C 
ATOM     19  C   UNL     1      14.983  46.321  18.291  1.00  0.00     0.008 C 
ENDBRANCH  12  17
ENDBRANCH  11  12
ENDBRANCH   1  11
TORSDOF 1
ENDMDL
MODEL 3
REMARK VINA RESULT:    -3.503      1.838      4.522
REMARK INTER + INTRA:          -5.597
REMARK INTER:                  -5.323
REMARK INTRA:                  -0.274
REMARK UNBOUND:                -0.251
REMARK SMILES CC1=CCC[C@@H](C)C(=O)C[C@H](C(C)C)C(=O)C1
REMARK SMILES IDX 8 1 9 2 6 3 7 4 5 5 4 6 3 7 2 8 1 9 10 11 11 12 15 13 16 14
REMARK SMILES IDX 17 15 12 17 13 18 14 19
REMARK H PARENT
REMARK Flexibility Score: 70.00
ROOT
ATOM      1  C   UNL     1      15.787  46.188  20.085  1.00  0.00     0.136 C 
ATOM      2  O   UNL     1      15.323  46.850  21.003  1.00  0.00    -0.299 OA
ENDROOT
BRANCH   1   3
ATOM      3  C   UNL     1      14.992  45.025  19.518  1.00  0.00     0.053 C 
ATOM      4  C   UNL     1      13.513  45.404  19.340  1.00  0.00     0.016 C 
BRANCH   3   5
ATOM      5  C   UNL     1      15.140  43.779  20.426  1.00  0.00     0.015 C 
BRANCH   5   6
ATOM      6  C   UNL     1      16.283  42.854  19.968  1.00  0.00     0.028 C 
BRANCH   6   7
ATOM      7  C   UNL     1      17.279  42.624  21.076  1.00  0.00    -0.028 C 
ATOM      8  C   UNL     1      18.476  43.248  21.178  1.00  0.00    -0.070 CG0
ATOM      9  C   UNL     1      19.335  42.942  22.378  1.00  0.00     0.039 C 
ATOM     10  G   UNL     1      18.989  44.232  20.139  1.00  0.00     0.000 G0
ENDBRANCH   6   7
ENDBRANCH   5   6
ENDBRANCH   3   5
ENDBRANCH   1   3
BRANCH   1  11
ATOM     11  C   UNL     1      17.161  46.530  19.557  1.00  0.00     0.087 C 
BRANCH  11  12
ATOM     12  C   UNL     1      18.195  46.693  20.702  1.00  0.00     0.066 C 
BRANCH  12  13
ATOM     13  C   UNL     1      19.264  45.607  20.678  1.00  0.00     0.140 C 
ATOM     14  O   UNL     1      20.394  45.895  21.049  1.00  0.00    -0.299 OA
BRANCH  13  15
ATOM     15  C   UNL     1      19.012  44.224  20.125  1.00  0.00     0.106 CG0
ATOM     16  G   UNL     1      18.486  43.266  21.182  1.00  0.00     0.000 G0
ENDBRANCH  13  15
ENDBRANCH  12  13
BRANCH  12  17
ATOM     17  C   UNL     1      18.809  48.129  20.818  1.00  0.00    -0.006 C 
ATOM     18  C   UNL     1      18.696  48.982  19.540  1.00  0.00     0.008 C 
ATOM     19  C   UNL     1      18.198  48.901  22.000  1.00  0.00     0.008 C 
ENDBRANCH  12  17
ENDBRANCH  11  12
ENDBRANCH   1  11
TORSDOF 1
ENDMDL
MODEL 4
REMARK VINA RESULT:    -3.441      2.076      5.219
REMARK INTER + INTRA:          -5.502
REMARK INTER:                  -5.760
REMARK INTRA:                   0.258
REMARK UNBOUND:                -0.251
REMARK SMILES CC1=CCC[C@@H](C)C(=O)C[C@H](C(C)C)C(=O)C1
REMARK SMILES IDX 8 1 9 2 6 3 7 4 5 5 4 6 3 7 2 8 1 9 10 11 11 12 15 13 16 14
REMARK SMILES IDX 17 15 12 17 13 18 14 19
REMARK H PARENT
REMARK Flexibility Score: 70.00
ROOT
ATOM      1  C   UNL     1      17.115  42.457  19.474  1.00  0.00     0.136 C 
ATOM      2  O   UNL     1      16.253  41.681  19.864  1.00  0.00    -0.299 OA
ENDROOT
BRANCH   1   3
ATOM      3  C   UNL     1      18.577  42.165  19.763  1.00  0.00     0.053 C 
ATOM      4  C   UNL     1      19.020  40.855  19.092  1.00  0.00     0.016 C 
BRANCH   3   5
ATOM      5  C   UNL     1      18.825  42.118  21.291  1.00  0.00     0.015 C 
BRANCH   5   6
ATOM      6  C   UNL     1      18.589  43.482  21.964  1.00  0.00     0.028 C 
BRANCH   6   7
ATOM      7  C   UNL     1      19.341  44.580  21.256  1.00  0.00    -0.028 C 
ATOM      8  C   UNL     1      18.812  45.775  20.905  1.00  0.00    -0.070 CG0
ATOM      9  C   UNL     1      19.715  46.786  20.247  1.00  0.00     0.039 C 
ATOM     10  G   UNL     1      17.354  46.137  21.140  1.00  0.00     0.000 G0
ENDBRANCH   6   7
ENDBRANCH   5   6
ENDBRANCH   3   5
ENDBRANCH   1   3
BRANCH   1  11
ATOM     11  C   UNL     1      16.695  43.707  18.738  1.00  0.00     0.087 C 
BRANCH  11  12
ATOM     12  C   UNL     1      15.794  44.618  19.613  1.00  0.00     0.066 C 
BRANCH  12  13
ATOM     13  C   UNL     1      16.459  45.949  19.942  1.00  0.00     0.140 C 
ATOM     14  O   UNL     1      16.341  46.871  19.146  1.00  0.00    -0.299 OA
BRANCH  13  15
ATOM     15  C   UNL     1      17.338  46.147  21.155  1.00  0.00     0.106 CG0
ATOM     16  G   UNL     1      18.779  45.738  20.897  1.00  0.00     0.000 G0
ENDBRANCH  13  15
ENDBRANCH  12  13
BRANCH  12  17
ATOM     17  C   UNL     1      14.337  44.800  19.069  1.00  0.00    -0.006 C 
ATOM     18  C   UNL     1      13.422  43.577  19.261  1.00  0.00     0.008 C 
ATOM     19  C   UNL     1      13.665  46.040  19.682  1.00  0.00     0.008 C 
ENDBRANCH  12  17
ENDBRANCH  11  12
ENDBRANCH   1  11
TORSDOF 1
ENDMDL
MODEL 5
REMARK VINA RESULT:    -3.370      1.764      3.988
REMARK INTER + INTRA:          -5.394
REMARK INTER:                  -5.495
REMARK INTRA:                   0.101
REMARK UNBOUND:                -0.251
REMARK SMILES CC1=CCC[C@@H](C)C(=O)C[C@H](C(C)C)C(=O)C1
REMARK SMILES IDX 8 1 9 2 6 3 7 4 5 5 4 6 3 7 2 8 1 9 10 11 11 12 15 13 16 14
REMARK SMILES IDX 17 15 12 17 13 18 14 19
REMARK H PARENT
REMARK Flexibility Score: 70.00
ROOT
ATOM      1  C   UNL     1      19.183  44.436  20.879  1.00  0.00     0.136 C 
ATOM      2  O   UNL     1      20.275  44.762  20.435  1.00  0.00    -0.299 OA
ENDROOT
BRANCH   1   3
ATOM      3  C   UNL     1      18.804  42.967  20.943  1.00  0.00     0.053 C 
ATOM      4  C   UNL     1      20.002  42.073  20.584  1.00  0.00     0.016 C 
BRANCH   3   5
ATOM      5  C   UNL     1      17.600  42.681  20.011  1.00  0.00     0.015 C 
BRANCH   5   6
ATOM      6  C   UNL     1      16.252  42.782  20.750  1.00  0.00     0.028 C 
BRANCH   6   7
ATOM      7  C   UNL     1      15.159  43.263  19.832  1.00  0.00    -0.028 C 
ATOM      8  C   UNL     1      14.779  44.556  19.696  1.00  0.00    -0.070 CG0
ATOM      9  C   UNL     1      13.700  44.876  18.694  1.00  0.00     0.039 C 
ATOM     10  G   UNL     1      15.387  45.688  20.508  1.00  0.00     0.000 G0
ENDBRANCH   6   7
ENDBRANCH   5   6
ENDBRANCH   3   5
ENDBRANCH   1   3
BRANCH   1  11
ATOM     11  C   UNL     1      18.224  45.514  21.327  1.00  0.00     0.087 C 
BRANCH  11  12
ATOM     12  C   UNL     1      17.911  46.519  20.188  1.00  0.00     0.066 C 
BRANCH  12  13
ATOM     13  C   UNL     1      16.472  46.416  19.700  1.00  0.00     0.140 C 
ATOM     14  O   UNL     1      16.163  46.998  18.669  1.00  0.00    -0.299 OA
BRANCH  13  15
ATOM     15  C   UNL     1      15.391  45.711  20.486  1.00  0.00     0.106 CG0
ATOM     16  G   UNL     1      14.779  44.552  19.716  1.00  0.00     0.000 G0
ENDBRANCH  13  15
ENDBRANCH  12  13
BRANCH  12  17
ATOM     17  C   UNL     1      18.329  47.996  20.498  1.00  0.00    -0.006 C 
ATOM     18  C   UNL     1      18.109  48.434  21.958  1.00  0.00     0.008 C 
ATOM     19  C   UNL     1      19.795  48.253  20.106  1.00  0.00     0.008 C 
ENDBRANCH  12  17
ENDBRANCH  11  12
ENDBRANCH   1  11
TORSDOF 1
ENDMDL
MODEL 6
REMARK VINA RESULT:    -3.342      3.724      5.435
REMARK INTER + INTRA:          -5.351
REMARK INTER:                  -5.680
REMARK INTRA:                   0.329
REMARK UNBOUND:                -0.251
REMARK SMILES CC1=CCC[C@@H](C)C(=O)C[C@H](C(C)C)C(=O)C1
REMARK SMILES IDX 8 1 9 2 6 3 7 4 5 5 4 6 3 7 2 8 1 9 10 11 11 12 15 13 16 14
REMARK SMILES IDX 17 15 12 17 13 18 14 19
REMARK H PARENT
REMARK Flexibility Score: 70.00
ROOT
ATOM      1  C   UNL     1      14.536  46.037  17.518  1.00  0.00     0.136 C 
ATOM      2  O   UNL     1      14.954  47.183  17.608  1.00  0.00    -0.299 OA
ENDROOT
BRANCH   1   3
ATOM      3  C   UNL     1      13.159  45.781  16.931  1.00  0.00     0.053 C 
ATOM      4  C   UNL     1      13.244  45.534  15.416  1.00  0.00     0.016 C 
BRANCH   3   5
ATOM      5  C   UNL     1      12.210  46.964  17.247  1.00  0.00     0.015 C 
BRANCH   5   6
ATOM      6  C   UNL     1      11.762  46.976  18.721  1.00  0.00     0.028 C 
BRANCH   6   7
ATOM      7  C   UNL     1      10.983  45.734  19.067  1.00  0.00    -0.028 C 
ATOM      8  C   UNL     1      11.402  44.774  19.924  1.00  0.00    -0.070 CG0
ATOM      9  C   UNL     1      10.477  43.617  20.201  1.00  0.00     0.039 C 
ATOM     10  G   UNL     1      12.757  44.812  20.611  1.00  0.00     0.000 G0
ENDBRANCH   6   7
ENDBRANCH   5   6
ENDBRANCH   3   5
ENDBRANCH   1   3
BRANCH   1  11
ATOM     11  C   UNL     1      15.394  44.903  18.027  1.00  0.00     0.087 C 
BRANCH  11  12
ATOM     12  C   UNL     1      15.195  44.663  19.547  1.00  0.00     0.066 C 
BRANCH  12  13
ATOM     13  C   UNL     1      13.831  44.065  19.867  1.00  0.00     0.140 C 
ATOM     14  O   UNL     1      13.560  42.960  19.417  1.00  0.00    -0.299 OA
BRANCH  13  15
ATOM     15  C   UNL     1      12.765  44.819  20.628  1.00  0.00     0.106 CG0
ATOM     16  G   UNL     1      11.416  44.777  19.929  1.00  0.00     0.000 G0
ENDBRANCH  13  15
ENDBRANCH  12  13
BRANCH  12  17
ATOM     17  C   UNL     1      16.363  43.881  20.236  1.00  0.00    -0.006 C 
ATOM     18  C   UNL     1      16.933  42.715  19.408  1.00  0.00     0.008 C 
ATOM     19  C   UNL     1      17.508  44.829  20.634  1.00  0.00     0.008 C 
ENDBRANCH  12  17
ENDBRANCH  11  12
ENDBRANCH   1  11
TORSDOF 1
ENDMDL
MODEL 7
REMARK VINA RESULT:    -3.172      2.728      4.947
REMARK INTER + INTRA:          -5.091
REMARK INTER:                  -4.932
REMARK INTRA:                  -0.159
REMARK UNBOUND:                -0.251
REMARK SMILES CC1=CCC[C@@H](C)C(=O)C[C@H](C(C)C)C(=O)C1
REMARK SMILES IDX 8 1 9 2 6 3 7 4 5 5 4 6 3 7 2 8 1 9 10 11 11 12 15 13 16 14
REMARK SMILES IDX 17 15 12 17 13 18 14 19
REMARK H PARENT
REMARK Flexibility Score: 70.00
ROOT
ATOM      1  C   UNL     1      17.034  43.497  20.099  1.00  0.00     0.136 C 
ATOM      2  O   UNL     1      17.055  43.386  18.881  1.00  0.00    -0.299 OA
ENDROOT
BRANCH   1   3
ATOM      3  C   UNL     1      17.773  44.646  20.763  1.00  0.00     0.053 C 
ATOM      4  C   UNL     1      17.087  45.988  20.463  1.00  0.00     0.016 C 
BRANCH   3   5
ATOM      5  C   UNL     1      19.254  44.667  20.309  1.00  0.00     0.015 C 
BRANCH   5   6
ATOM      6  C   UNL     1      20.212  44.188  21.416  1.00  0.00     0.028 C 
BRANCH   6   7
ATOM      7  C   UNL     1      20.673  42.775  21.167  1.00  0.00    -0.028 C 
ATOM      8  C   UNL     1      20.115  41.673  21.722  1.00  0.00    -0.070 CG0
ATOM      9  C   UNL     1      20.664  40.325  21.328  1.00  0.00     0.039 C 
ATOM     10  G   UNL     1      18.971  41.736  22.721  1.00  0.00     0.000 G0
ENDBRANCH   6   7
ENDBRANCH   5   6
ENDBRANCH   3   5
ENDBRANCH   1   3
BRANCH   1  11
ATOM     11  C   UNL     1      16.295  42.464  20.916  1.00  0.00     0.087 C 
BRANCH  11  12
ATOM     12  C   UNL     1      17.056  41.113  20.966  1.00  0.00     0.066 C 
BRANCH  12  13
ATOM     13  C   UNL     1      17.771  40.898  22.294  1.00  0.00     0.140 C 
ATOM     14  O   UNL     1      17.316  40.070  23.072  1.00  0.00    -0.299 OA
BRANCH  13  15
ATOM     15  C   UNL     1      18.954  41.730  22.731  1.00  0.00     0.106 CG0
ATOM     16  G   UNL     1      20.099  41.677  21.732  1.00  0.00     0.000 G0
ENDBRANCH  13  15
ENDBRANCH  12  13
BRANCH  12  17
ATOM     17  C   UNL     1      16.199  39.873  20.544  1.00  0.00    -0.006 C 
ATOM     18  C   UNL     1      14.869  40.216  19.848  1.00  0.00     0.008 C 
ATOM     19  C   UNL     1      17.008  38.915  19.651  1.00  0.00     0.008 C 
ENDBRANCH  12  17
ENDBRANCH  11  12
ENDBRANCH   1  11
TORSDOF 1
ENDMDL
MODEL 8
REMARK VINA RESULT:    -3.054      2.371      5.664
REMARK INTER + INTRA:          -4.912
REMARK INTER:                  -4.753
REMARK INTRA:                  -0.159
REMARK UNBOUND:                -0.251
REMARK SMILES CC1=CCC[C@@H](C)C(=O)C[C@H](C(C)C)C(=O)C1
REMARK SMILES IDX 8 1 9 2 6 3 7 4 5 5 4 6 3 7 2 8 1 9 10 11 11 12 15 13 16 14
REMARK SMILES IDX 17 15 12 17 13 18 14 19
REMARK H PARENT
REMARK Flexibility Score: 70.00
ROOT
ATOM      1  C   UNL     1      17.181  41.728  19.553  1.00  0.00     0.136 C 
ATOM      2  O   UNL     1      15.963  41.713  19.453  1.00  0.00    -0.299 OA
ENDROOT
BRANCH   1   3
ATOM      3  C   UNL     1      17.912  40.490  20.044  1.00  0.00     0.053 C 
ATOM      4  C   UNL     1      17.826  39.354  19.013  1.00  0.00     0.016 C 
BRANCH   3   5
ATOM      5  C   UNL     1      17.347  40.040  21.414  1.00  0.00     0.015 C 
BRANCH   5   6
ATOM      6  C   UNL     1      17.931  40.855  22.584  1.00  0.00     0.028 C 
BRANCH   6   7
ATOM      7  C   UNL     1      19.430  40.962  22.483  1.00  0.00    -0.028 C 
ATOM      8  C   UNL     1      20.121  42.126  22.476  1.00  0.00    -0.070 CG0
ATOM      9  C   UNL     1      21.626  42.058  22.420  1.00  0.00     0.039 C 
ATOM     10  G   UNL     1      19.449  43.489  22.516  1.00  0.00     0.000 G0
ENDBRANCH   6   7
ENDBRANCH   5   6
ENDBRANCH   3   5
ENDBRANCH   1   3
BRANCH   1  11
ATOM     11  C   UNL     1      17.928  42.996  19.213  1.00  0.00     0.087 C 
BRANCH  11  12
ATOM     12  C   UNL     1      17.914  44.008  20.389  1.00  0.00     0.066 C 
BRANCH  12  13
ATOM     13  C   UNL     1      19.251  44.071  21.118  1.00  0.00     0.140 C 
ATOM     14  O   UNL     1      20.217  44.531  20.524  1.00  0.00    -0.299 OA
BRANCH  13  15
ATOM     15  C   UNL     1      19.456  43.498  22.501  1.00  0.00     0.106 CG0
ATOM     16  G   UNL     1      20.117  42.129  22.467  1.00  0.00     0.000 G0
ENDBRANCH  13  15
ENDBRANCH  12  13
BRANCH  12  17
ATOM     17  C   UNL     1      17.376  45.429  20.011  1.00  0.00    -0.006 C 
ATOM     18  C   UNL     1      15.901  45.463  19.572  1.00  0.00     0.008 C 
ATOM     19  C   UNL     1      17.588  46.428  21.162  1.00  0.00     0.008 C 
ENDBRANCH  12  17
ENDBRANCH  11  12
ENDBRANCH   1  11
TORSDOF 1
ENDMDL
MODEL 9
REMARK VINA RESULT:    -2.995      3.229      4.866
REMARK INTER + INTRA:          -4.821
REMARK INTER:                  -4.562
REMARK INTRA:                  -0.259
REMARK UNBOUND:                -0.251
REMARK SMILES CC1=CCC[C@@H](C)C(=O)C[C@H](C(C)C)C(=O)C1
REMARK SMILES IDX 8 1 9 2 6 3 7 4 5 5 4 6 3 7 2 8 1 9 10 11 11 12 15 13 16 14
REMARK SMILES IDX 17 15 12 17 13 18 14 19
REMARK H PARENT
REMARK Flexibility Score: 70.00
ROOT
ATOM      1  C   UNL     1      18.493  43.292  20.540  1.00  0.00     0.136 C 
ATOM      2  O   UNL     1      18.183  44.153  21.352  1.00  0.00    -0.299 OA
ENDROOT
BRANCH   1   3
ATOM      3  C   UNL     1      17.476  42.821  19.515  1.00  0.00     0.053 C 
ATOM      4  C   UNL     1      16.803  44.014  18.819  1.00  0.00     0.016 C 
BRANCH   3   5
ATOM      5  C   UNL     1      16.423  41.903  20.185  1.00  0.00     0.015 C 
BRANCH   5   6
ATOM      6  C   UNL     1      16.664  40.414  19.875  1.00  0.00     0.028 C 
BRANCH   6   7
ATOM      7  C   UNL     1      16.913  39.626  21.135  1.00  0.00    -0.028 C 
ATOM      8  C   UNL     1      18.134  39.236  21.572  1.00  0.00    -0.070 CG0
ATOM      9  C   UNL     1      18.215  38.496  22.883  1.00  0.00     0.039 C 
ATOM     10  G   UNL     1      19.416  39.507  20.801  1.00  0.00     0.000 G0
ENDBRANCH   6   7
ENDBRANCH   5   6
ENDBRANCH   3   5
ENDBRANCH   1   3
BRANCH   1  11
ATOM     11  C   UNL     1      19.880  42.696  20.600  1.00  0.00     0.087 C 
BRANCH  11  12
ATOM     12  C   UNL     1      20.092  41.853  21.885  1.00  0.00     0.066 C 
BRANCH  12  13
ATOM     13  C   UNL     1      20.386  40.390  21.578  1.00  0.00     0.140 C 
ATOM     14  O   UNL     1      21.476  39.936  21.899  1.00  0.00    -0.299 OA
BRANCH  13  15
ATOM     15  C   UNL     1      19.432  39.508  20.807  1.00  0.00     0.106 CG0
ATOM     16  G   UNL     1      18.149  39.236  21.576  1.00  0.00     0.000 G0
ENDBRANCH  13  15
ENDBRANCH  12  13
BRANCH  12  17
ATOM     17  C   UNL     1      21.117  42.466  22.897  1.00  0.00    -0.006 C 
ATOM     18  C   UNL     1      21.621  43.874  22.529  1.00  0.00     0.008 C 
ATOM     19  C   UNL     1      20.544  42.488  24.325  1.00  0.00     0.008 C 
ENDBRANCH  12  17
ENDBRANCH  11  12
ENDBRANCH   1  11
TORSDOF 1
ENDMDL
