MODEL 1
REMARK VINA RESULT:    -4.097      0.000      0.000
REMARK INTER + INTRA:          -5.754
REMARK INTER:                  -5.534
REMARK INTRA:                  -0.220
REMARK UNBOUND:                -0.220
REMARK SMILES CCCCCCCC(=O)[O-]
REMARK SMILES IDX 5 1 6 2 7 3 8 4 9 5 10 6 4 7 3 8 2 9 1 10
REMARK H PARENT
REMARK Flexibility Score: inf
ROOT
ATOM      1  C   UNL     1     254.069 260.720 248.090  1.00  0.00     0.000 C 
ENDROOT
BRANCH   1   2
ATOM      2  C   UNL     1     253.031 260.706 246.957  1.00  0.00     0.006 C 
BRANCH   2   3
ATOM      3  C   UNL     1     252.231 259.399 246.964  1.00  0.00     0.053 C 
BRANCH   3   4
ATOM      4  C   UNL     1     250.766 259.682 247.064  1.00  0.00     0.041 C 
ATOM      5  O   UNL     1     250.334 260.854 246.910  1.00  0.00    -0.550 OA
ATOM      6  O   UNL     1     249.881 258.658 247.377  1.00  0.00    -0.550 OA
ENDBRANCH   3   4
ENDBRANCH   2   3
ENDBRANCH   1   2
BRANCH   1   7
ATOM      7  C   UNL     1     255.511 260.600 247.571  1.00  0.00     0.000 C 
BRANCH   7   8
ATOM      8  C   UNL     1     255.634 260.960 246.080  1.00  0.00    -0.000 C 
BRANCH   8   9
ATOM      9  C   UNL     1     256.909 261.760 245.772  1.00  0.00    -0.003 C 
ATOM     10  C   UNL     1     257.648 261.241 244.539  1.00  0.00     0.004 C 
ENDBRANCH   8   9
ENDBRANCH   7   8
ENDBRANCH   1   7
TORSDOF 6
ENDMDL
MODEL 2
REMARK VINA RESULT:    -4.048      4.406      5.547
REMARK INTER + INTRA:          -5.688
REMARK INTER:                  -5.409
REMARK INTRA:                  -0.279
REMARK UNBOUND:                -0.220
REMARK SMILES CCCCCCCC(=O)[O-]
REMARK SMILES IDX 5 1 6 2 7 3 8 4 9 5 10 6 4 7 3 8 2 9 1 10
REMARK H PARENT
REMARK Flexibility Score: inf
ROOT
ATOM      1  C   UNL     1     250.374 258.210 247.194  1.00  0.00     0.000 C 
ENDROOT
BRANCH   1   2
ATOM      2  C   UNL     1     248.840 258.124 247.176  1.00  0.00     0.006 C 
BRANCH   2   3
ATOM      3  C   UNL     1     248.349 257.362 245.940  1.00  0.00     0.053 C 
BRANCH   3   4
ATOM      4  C   UNL     1     247.131 258.017 245.370  1.00  0.00     0.041 C 
ATOM      5  O   UNL     1     246.064 257.363 245.233  1.00  0.00    -0.550 OA
ATOM      6  O   UNL     1     247.189 259.337 244.942  1.00  0.00    -0.550 OA
ENDBRANCH   3   4
ENDBRANCH   2   3
ENDBRANCH   1   2
BRANCH   1   7
ATOM      7  C   UNL     1     250.886 259.648 247.009  1.00  0.00     0.000 C 
BRANCH   7   8
ATOM      8  C   UNL     1     249.748 260.684 247.000  1.00  0.00    -0.000 C 
BRANCH   8   9
ATOM      9  C   UNL     1     250.268 262.129 246.956  1.00  0.00    -0.003 C 
ATOM     10  C   UNL     1     249.437 263.029 246.043  1.00  0.00     0.004 C 
ENDBRANCH   8   9
ENDBRANCH   7   8
ENDBRANCH   1   7
TORSDOF 6
ENDMDL
MODEL 3
REMARK VINA RESULT:    -4.009      1.763      2.688
REMARK INTER + INTRA:          -5.636
REMARK INTER:                  -5.329
REMARK INTRA:                  -0.307
REMARK UNBOUND:                -0.220
REMARK SMILES CCCCCCCC(=O)[O-]
REMARK SMILES IDX 5 1 6 2 7 3 8 4 9 5 10 6 4 7 3 8 2 9 1 10
REMARK H PARENT
REMARK Flexibility Score: inf
ROOT
ATOM      1  C   UNL     1     252.221 258.351 246.810  1.00  0.00     0.000 C 
ENDROOT
BRANCH   1   2
ATOM      2  C   UNL     1     251.519 259.697 247.048  1.00  0.00     0.006 C 
BRANCH   2   3
ATOM      3  C   UNL     1     250.007 259.506 247.204  1.00  0.00     0.053 C 
BRANCH   3   4
ATOM      4  C   UNL     1     249.266 260.619 246.536  1.00  0.00     0.041 C 
ATOM      5  O   UNL     1     248.367 260.366 245.692  1.00  0.00    -0.550 OA
ATOM      6  O   UNL     1     249.602 261.939 246.808  1.00  0.00    -0.550 OA
ENDBRANCH   3   4
ENDBRANCH   2   3
ENDBRANCH   1   2
BRANCH   1   7
ATOM      7  C   UNL     1     253.749 258.490 246.719  1.00  0.00     0.000 C 
BRANCH   7   8
ATOM      8  C   UNL     1     254.194 259.373 245.539  1.00  0.00    -0.000 C 
BRANCH   8   9
ATOM      9  C   UNL     1     255.013 260.590 245.992  1.00  0.00    -0.003 C 
ATOM     10  C   UNL     1     255.246 260.616 247.503  1.00  0.00     0.004 C 
ENDBRANCH   8   9
ENDBRANCH   7   8
ENDBRANCH   1   7
TORSDOF 6
ENDMDL
MODEL 4
REMARK VINA RESULT:    -4.006      5.259      6.252
REMARK INTER + INTRA:          -5.631
REMARK INTER:                  -5.328
REMARK INTRA:                  -0.303
REMARK UNBOUND:                -0.220
REMARK SMILES CCCCCCCC(=O)[O-]
REMARK SMILES IDX 5 1 6 2 7 3 8 4 9 5 10 6 4 7 3 8 2 9 1 10
REMARK H PARENT
REMARK Flexibility Score: inf
ROOT
ATOM      1  C   UNL     1     255.445 261.661 251.358  1.00  0.00     0.000 C 
ENDROOT
BRANCH   1   2
ATOM      2  C   UNL     1     254.376 262.142 252.350  1.00  0.00     0.006 C 
BRANCH   2   3
ATOM      3  C   UNL     1     254.844 261.949 253.796  1.00  0.00     0.053 C 
BRANCH   3   4
ATOM      4  C   UNL     1     254.104 260.820 254.441  1.00  0.00     0.041 C 
ATOM      5  O   UNL     1     253.047 260.376 253.920  1.00  0.00    -0.550 OA
ATOM      6  O   UNL     1     254.553 260.291 255.644  1.00  0.00    -0.550 OA
ENDBRANCH   3   4
ENDBRANCH   2   3
ENDBRANCH   1   2
BRANCH   1   7
ATOM      7  C   UNL     1     255.480 260.130 251.225  1.00  0.00     0.000 C 
BRANCH   7   8
ATOM      8  C   UNL     1     255.258 259.658 249.777  1.00  0.00    -0.000 C 
BRANCH   8   9
ATOM      9  C   UNL     1     255.227 260.823 248.777  1.00  0.00    -0.003 C 
ATOM     10  C   UNL     1     253.907 260.910 248.011  1.00  0.00     0.004 C 
ENDBRANCH   8   9
ENDBRANCH   7   8
ENDBRANCH   1   7
TORSDOF 6
ENDMDL
MODEL 5
REMARK VINA RESULT:    -3.993      5.685      6.619
REMARK INTER + INTRA:          -5.614
REMARK INTER:                  -5.075
REMARK INTRA:                  -0.539
REMARK UNBOUND:                -0.220
REMARK SMILES CCCCCCCC(=O)[O-]
REMARK SMILES IDX 5 1 6 2 7 3 8 4 9 5 10 6 4 7 3 8 2 9 1 10
REMARK H PARENT
REMARK Flexibility Score: inf
ROOT
ATOM      1  C   UNL     1     257.031 260.896 247.012  1.00  0.00     0.000 C 
ENDROOT
BRANCH   1   2
ATOM      2  C   UNL     1     258.212 261.517 247.773  1.00  0.00     0.006 C 
BRANCH   2   3
ATOM      3  C   UNL     1     259.311 260.478 248.021  1.00  0.00     0.053 C 
BRANCH   3   4
ATOM      4  C   UNL     1     260.323 260.512 246.921  1.00  0.00     0.041 C 
ATOM      5  O   UNL     1     260.853 261.602 246.579  1.00  0.00    -0.550 OA
ATOM      6  O   UNL     1     260.644 259.347 246.236  1.00  0.00    -0.550 OA
ENDBRANCH   3   4
ENDBRANCH   2   3
ENDBRANCH   1   2
BRANCH   1   7
ATOM      7  C   UNL     1     256.710 261.646 245.709  1.00  0.00     0.000 C 
BRANCH   7   8
ATOM      8  C   UNL     1     257.796 261.457 244.635  1.00  0.00    -0.000 C 
BRANCH   8   9
ATOM      9  C   UNL     1     258.473 262.779 244.244  1.00  0.00    -0.003 C 
ATOM     10  C   UNL     1     257.879 263.984 244.974  1.00  0.00     0.004 C 
ENDBRANCH   8   9
ENDBRANCH   7   8
ENDBRANCH   1   7
TORSDOF 6
ENDMDL
MODEL 6
REMARK VINA RESULT:    -3.966      2.308      2.736
REMARK INTER + INTRA:          -5.577
REMARK INTER:                  -5.101
REMARK INTRA:                  -0.476
REMARK UNBOUND:                -0.220
REMARK SMILES CCCCCCCC(=O)[O-]
REMARK SMILES IDX 5 1 6 2 7 3 8 4 9 5 10 6 4 7 3 8 2 9 1 10
REMARK H PARENT
REMARK Flexibility Score: inf
ROOT
ATOM      1  C   UNL     1     256.161 260.265 247.849  1.00  0.00     0.000 C 
ENDROOT
BRANCH   1   2
ATOM      2  C   UNL     1     254.714 260.660 248.183  1.00  0.00     0.006 C 
BRANCH   2   3
ATOM      3  C   UNL     1     253.897 260.877 246.904  1.00  0.00     0.053 C 
BRANCH   3   4
ATOM      4  C   UNL     1     254.037 259.704 245.987  1.00  0.00     0.041 C 
ATOM      5  O   UNL     1     254.480 259.860 244.820  1.00  0.00    -0.550 OA
ATOM      6  O   UNL     1     253.630 258.443 246.405  1.00  0.00    -0.550 OA
ENDBRANCH   3   4
ENDBRANCH   2   3
ENDBRANCH   1   2
BRANCH   1   7
ATOM      7  C   UNL     1     257.174 261.352 248.239  1.00  0.00     0.000 C 
BRANCH   7   8
ATOM      8  C   UNL     1     258.046 261.801 247.053  1.00  0.00    -0.000 C 
BRANCH   8   9
ATOM      9  C   UNL     1     257.239 261.946 245.753  1.00  0.00    -0.003 C 
ATOM     10  C   UNL     1     257.932 261.300 244.553  1.00  0.00     0.004 C 
ENDBRANCH   8   9
ENDBRANCH   7   8
ENDBRANCH   1   7
TORSDOF 6
ENDMDL
MODEL 7
REMARK VINA RESULT:    -3.963      4.748      6.723
REMARK INTER + INTRA:          -5.573
REMARK INTER:                  -5.167
REMARK INTRA:                  -0.406
REMARK UNBOUND:                -0.220
REMARK SMILES CCCCCCCC(=O)[O-]
REMARK SMILES IDX 5 1 6 2 7 3 8 4 9 5 10 6 4 7 3 8 2 9 1 10
REMARK H PARENT
REMARK Flexibility Score: inf
ROOT
ATOM      1  C   UNL     1     258.526 261.340 244.662  1.00  0.00     0.000 C 
ENDROOT
BRANCH   1   2
ATOM      2  C   UNL     1     258.994 262.108 245.908  1.00  0.00     0.006 C 
BRANCH   2   3
ATOM      3  C   UNL     1     260.286 261.505 246.469  1.00  0.00     0.053 C 
BRANCH   3   4
ATOM      4  C   UNL     1     260.011 260.185 247.117  1.00  0.00     0.041 C 
ATOM      5  O   UNL     1     259.087 260.075 247.965  1.00  0.00    -0.550 OA
ATOM      6  O   UNL     1     260.807 259.087 246.820  1.00  0.00    -0.550 OA
ENDBRANCH   3   4
ENDBRANCH   2   3
ENDBRANCH   1   2
BRANCH   1   7
ATOM      7  C   UNL     1     257.030 260.989 244.713  1.00  0.00     0.000 C 
BRANCH   7   8
ATOM      8  C   UNL     1     256.387 261.336 246.067  1.00  0.00    -0.000 C 
BRANCH   8   9
ATOM      9  C   UNL     1     254.936 260.843 246.173  1.00  0.00    -0.003 C 
ATOM     10  C   UNL     1     254.559 259.873 245.052  1.00  0.00     0.004 C 
ENDBRANCH   8   9
ENDBRANCH   7   8
ENDBRANCH   1   7
TORSDOF 6
ENDMDL
MODEL 8
REMARK VINA RESULT:    -3.960      4.572      6.480
REMARK INTER + INTRA:          -5.570
REMARK INTER:                  -5.349
REMARK INTRA:                  -0.221
REMARK UNBOUND:                -0.220
REMARK SMILES CCCCCCCC(=O)[O-]
REMARK SMILES IDX 5 1 6 2 7 3 8 4 9 5 10 6 4 7 3 8 2 9 1 10
REMARK H PARENT
REMARK Flexibility Score: inf
ROOT
ATOM      1  C   UNL     1     256.519 261.232 245.807  1.00  0.00     0.000 C 
ENDROOT
BRANCH   1   2
ATOM      2  C   UNL     1     257.496 261.209 244.621  1.00  0.00     0.006 C 
BRANCH   2   3
ATOM      3  C   UNL     1     258.741 262.050 244.922  1.00  0.00     0.053 C 
BRANCH   3   4
ATOM      4  C   UNL     1     259.470 261.502 246.108  1.00  0.00     0.041 C 
ATOM      5  O   UNL     1     259.684 262.228 247.113  1.00  0.00    -0.550 OA
ATOM      6  O   UNL     1     259.958 260.201 246.083  1.00  0.00    -0.550 OA
ENDBRANCH   3   4
ENDBRANCH   2   3
ENDBRANCH   1   2
BRANCH   1   7
ATOM      7  C   UNL     1     255.185 260.539 245.486  1.00  0.00     0.000 C 
BRANCH   7   8
ATOM      8  C   UNL     1     254.541 259.894 246.726  1.00  0.00    -0.000 C 
BRANCH   8   9
ATOM      9  C   UNL     1     253.897 260.930 247.660  1.00  0.00    -0.003 C 
ATOM     10  C   UNL     1     252.496 261.341 247.209  1.00  0.00     0.004 C 
ENDBRANCH   8   9
ENDBRANCH   7   8
ENDBRANCH   1   7
TORSDOF 6
ENDMDL
MODEL 9
REMARK VINA RESULT:    -3.917      3.201      4.578
REMARK INTER + INTRA:          -5.511
REMARK INTER:                  -5.241
REMARK INTRA:                  -0.270
REMARK UNBOUND:                -0.220
REMARK SMILES CCCCCCCC(=O)[O-]
REMARK SMILES IDX 5 1 6 2 7 3 8 4 9 5 10 6 4 7 3 8 2 9 1 10
REMARK H PARENT
REMARK Flexibility Score: inf
ROOT
ATOM      1  C   UNL     1     256.011 260.450 248.253  1.00  0.00     0.000 C 
ENDROOT
BRANCH   1   2
ATOM      2  C   UNL     1     254.486 260.441 248.063  1.00  0.00     0.006 C 
BRANCH   2   3
ATOM      3  C   UNL     1     254.107 260.915 246.656  1.00  0.00     0.053 C 
BRANCH   3   4
ATOM      4  C   UNL     1     254.350 259.831 245.654  1.00  0.00     0.041 C 
ATOM      5  O   UNL     1     254.814 260.110 244.518  1.00  0.00    -0.550 OA
ATOM      6  O   UNL     1     254.018 258.517 245.958  1.00  0.00    -0.550 OA
ENDBRANCH   3   4
ENDBRANCH   2   3
ENDBRANCH   1   2
BRANCH   1   7
ATOM      7  C   UNL     1     256.444 261.222 249.509  1.00  0.00     0.000 C 
BRANCH   7   8
ATOM      8  C   UNL     1     255.605 260.858 250.746  1.00  0.00    -0.000 C 
BRANCH   8   9
ATOM      9  C   UNL     1     255.604 261.970 251.805  1.00  0.00    -0.003 C 
ATOM     10  C   UNL     1     254.199 262.474 252.132  1.00  0.00     0.004 C 
ENDBRANCH   8   9
ENDBRANCH   7   8
ENDBRANCH   1   7
TORSDOF 6
ENDMDL
