MODEL 1
REMARK VINA RESULT:    -6.490      0.000      0.000
REMARK INTER + INTRA:         -12.601
REMARK INTER:                 -10.284
REMARK INTRA:                  -2.317
REMARK UNBOUND:                -2.317
REMARK SMILES C[C@@H]1O[C@H](O[C@@H]2CC[C@]3(C)[C@@H](CC[C@@]4(C)[C@@H]3C=C[C@]35OC[C@@]6(CCC(C)(C)C[C@@H]63)[C@@H](O)C[C@@]45C)[C@@]2(C)CO)[C@@H](O)[C@@H](O[C@H]2O[C@H](CO)[C@H](O)[C@H](O)[C@H]2O)[C@@H]1O
REMARK SMILES IDX 1 1 2 2 54 3 41 4 39 5 4 6 3 7 55 8 42 10 43 11 52 12 44 13
REMARK SMILES IDX 50 14 45 15 48 16 53 17 51 19 46 21 47 22 49 24 5 26 6 27
REMARK SMILES IDX 7 28 35 29 8 30 11 31 36 32 9 33 12 34 10 35 16 36 13 37
REMARK SMILES IDX 14 38 17 39 15 40 33 41 18 42 19 43 32 44 34 45 29 46 20 47
REMARK SMILES IDX 30 48 22 49 28 50 21 51 23 52 25 53 24 54 26 55 27 56 37 57
REMARK SMILES IDX 38 58 31 60 40 62
REMARK H PARENT 55 9 53 18 51 20 47 23 49 25 38 59 31 61 40 63
REMARK Flexibility Score: inf
ROOT
ATOM      1  C   UNL     1     -33.451 -57.569  57.407  1.00  0.00     0.041 C 
ATOM      2  C   UNL     1     -32.581 -56.694  58.327  1.00  0.00     0.150 C 
ATOM      3  C   UNL     1     -32.751 -56.978  59.840  1.00  0.00     0.175 C 
ATOM      4  C   UNL     1     -31.996 -58.248  60.262  1.00  0.00     0.186 C 
ATOM      5  C   UNL     1     -30.533 -58.131  59.794  1.00  0.00     0.202 C 
ATOM      6  C   UNL     1     -30.479 -57.842  58.284  1.00  0.00     0.282 C 
ATOM      7  O   UNL     1     -31.217 -56.680  57.920  1.00  0.00    -0.344 OA
ENDROOT
BRANCH   3   8
ATOM      8  O   UNL     1     -34.107 -57.027  60.212  1.00  0.00    -0.388 OA
ATOM      9  H   UNL     1     -34.170 -56.826  61.182  1.00  0.00     0.211 HD
ENDBRANCH   3   8
BRANCH   4  10
ATOM     10  O   UNL     1     -32.060 -58.375  61.672  1.00  0.00    -0.341 OA
BRANCH  10  11
ATOM     11  C   UNL     1     -32.793 -59.528  62.078  1.00  0.00     0.282 C 
ATOM     12  C   UNL     1     -33.182 -59.418  63.568  1.00  0.00     0.202 C 
ATOM     13  O   UNL     1     -32.041 -60.705  61.824  1.00  0.00    -0.341 OA
ATOM     14  C   UNL     1     -31.925 -59.529  64.457  1.00  0.00     0.179 C 
ATOM     15  C   UNL     1     -30.824 -60.726  62.555  1.00  0.00     0.178 C 
ATOM     16  C   UNL     1     -31.104 -60.772  64.074  1.00  0.00     0.177 C 
BRANCH  12  17
ATOM     17  O   UNL     1     -33.832 -58.194  63.793  1.00  0.00    -0.385 OA
ATOM     18  H   UNL     1     -33.300 -57.496  63.327  1.00  0.00     0.211 HD
ENDBRANCH  12  17
BRANCH  14  19
ATOM     19  O   UNL     1     -32.257 -59.545  65.826  1.00  0.00    -0.387 OA
ATOM     20  H   UNL     1     -32.129 -58.629  66.183  1.00  0.00     0.211 HD
ENDBRANCH  14  19
BRANCH  15  21
ATOM     21  C   UNL     1     -29.994 -61.938  62.106  1.00  0.00     0.191 C 
BRANCH  21  22
ATOM     22  O   UNL     1     -29.469 -62.608  63.222  1.00  0.00    -0.394 OA
ATOM     23  H   UNL     1     -28.967 -61.933  63.750  1.00  0.00     0.210 HD
ENDBRANCH  21  22
ENDBRANCH  15  21
BRANCH  16  24
ATOM     24  O   UNL     1     -31.823 -61.936  64.400  1.00  0.00    -0.387 OA
ATOM     25  H   UNL     1     -31.807 -62.023  65.389  1.00  0.00     0.211 HD
ENDBRANCH  16  24
ENDBRANCH  10  11
ENDBRANCH   4  10
BRANCH   6  26
ATOM     26  O   UNL     1     -30.937 -58.981  57.562  1.00  0.00    -0.346 OA
BRANCH  26  27
ATOM     27  C   UNL     1     -29.892 -59.685  56.905  1.00  0.00     0.130 C 
ATOM     28  C   UNL     1     -29.707 -59.113  55.499  1.00  0.00     0.033 C 
ATOM     29  C   UNL     1     -30.215 -61.207  56.843  1.00  0.00     0.020 C 
ATOM     30  C   UNL     1     -28.449 -59.673  54.853  1.00  0.00     0.010 C 
ATOM     31  C   UNL     1     -28.987 -61.982  56.177  1.00  0.00     0.006 C 
ATOM     32  C   UNL     1     -31.511 -61.485  56.018  1.00  0.00     0.017 C 
ATOM     33  C   UNL     1     -28.269 -61.252  54.934  1.00  0.00    -0.022 C 
ATOM     34  C   UNL     1     -27.944 -62.538  57.196  1.00  0.00     0.005 C 
ATOM     35  C   UNL     1     -28.947 -61.744  53.605  1.00  0.00     0.012 C 
ATOM     36  C   UNL     1     -26.696 -61.616  54.914  1.00  0.00     0.024 C 
ATOM     37  C   UNL     1     -26.999 -63.578  56.555  1.00  0.00     0.008 C 
ATOM     38  C   UNL     1     -26.346 -63.141  55.184  1.00  0.00    -0.017 C 
ATOM     39  C   UNL     1     -25.848 -60.743  55.859  1.00  0.00    -0.024 C 
ATOM     40  C   UNL     1     -26.989 -64.048  54.078  1.00  0.00     0.013 C 
ATOM     41  C   UNL     1     -24.728 -63.314  55.142  1.00  0.00     0.009 C 
ATOM     42  C   UNL     1     -24.580 -60.996  56.203  1.00  0.00     0.005 C 
ATOM     43  C   UNL     1     -24.021 -62.395  56.235  1.00  0.00     0.096 C 
ATOM     44  C   UNL     1     -24.272 -64.796  55.400  1.00  0.00     0.043 C 
ATOM     45  C   UNL     1     -24.208 -62.922  53.708  1.00  0.00     0.015 C 
ATOM     46  C   UNL     1     -22.471 -62.461  56.096  1.00  0.00     0.037 C 
ATOM     47  O   UNL     1     -24.286 -62.894  57.539  1.00  0.00    -0.369 OA
ATOM     48  C   UNL     1     -22.764 -64.941  55.768  1.00  0.00     0.124 C 
ATOM     49  C   UNL     1     -22.255 -63.826  56.741  1.00  0.00     0.026 C 
ATOM     50  C   UNL     1     -21.721 -61.315  56.835  1.00  0.00     0.014 C 
ATOM     51  C   UNL     1     -23.208 -63.718  57.932  1.00  0.00     0.171 C 
ATOM     52  C   UNL     1     -20.779 -64.109  57.144  1.00  0.00     0.013 C 
ATOM     53  C   UNL     1     -20.217 -61.602  57.055  1.00  0.00    -0.035 C 
ATOM     54  C   UNL     1     -20.065 -62.931  57.826  1.00  0.00     0.007 C 
ATOM     55  C   UNL     1     -19.616 -60.463  57.906  1.00  0.00     0.011 C 
ATOM     56  C   UNL     1     -19.454 -61.645  55.710  1.00  0.00     0.011 C 
BRANCH  29  57
ATOM     57  C   UNL     1     -30.515 -61.711  58.296  1.00  0.00     0.165 C 
BRANCH  57  58
ATOM     58  O   UNL     1     -31.782 -61.296  58.738  1.00  0.00    -0.396 OA
ATOM     59  H   UNL     1     -32.446 -61.836  58.231  1.00  0.00     0.210 HD
ENDBRANCH  57  58
ENDBRANCH  29  57
BRANCH  48  60
ATOM     60  O   UNL     1     -22.551 -66.209  56.340  1.00  0.00    -0.392 OA
ATOM     61  H   UNL     1     -21.686 -66.168  56.826  1.00  0.00     0.210 HD
ENDBRANCH  48  60
ENDBRANCH  26  27
ENDBRANCH   6  26
BRANCH   5  62
ATOM     62  O   UNL     1     -29.872 -57.101  60.487  1.00  0.00    -0.385 OA
ATOM     63  H   UNL     1     -29.925 -57.321  61.453  1.00  0.00     0.211 HD
ENDBRANCH   5  62
TORSDOF 14
ENDMDL
MODEL 2
REMARK VINA RESULT:    -6.414      4.503     10.263
REMARK INTER + INTRA:         -12.482
REMARK INTER:                 -10.105
REMARK INTRA:                  -2.377
REMARK UNBOUND:                -2.317
REMARK SMILES C[C@@H]1O[C@H](O[C@@H]2CC[C@]3(C)[C@@H](CC[C@@]4(C)[C@@H]3C=C[C@]35OC[C@@]6(CCC(C)(C)C[C@@H]63)[C@@H](O)C[C@@]45C)[C@@]2(C)CO)[C@@H](O)[C@@H](O[C@H]2O[C@H](CO)[C@H](O)[C@H](O)[C@H]2O)[C@@H]1O
REMARK SMILES IDX 1 1 2 2 54 3 41 4 39 5 4 6 3 7 55 8 42 10 43 11 52 12 44 13
REMARK SMILES IDX 50 14 45 15 48 16 53 17 51 19 46 21 47 22 49 24 5 26 6 27
REMARK SMILES IDX 7 28 35 29 8 30 11 31 36 32 9 33 12 34 10 35 16 36 13 37
REMARK SMILES IDX 14 38 17 39 15 40 33 41 18 42 19 43 32 44 34 45 29 46 20 47
REMARK SMILES IDX 30 48 22 49 28 50 21 51 23 52 25 53 24 54 26 55 27 56 37 57
REMARK SMILES IDX 38 58 31 60 40 62
REMARK H PARENT 55 9 53 18 51 20 47 23 49 25 38 59 31 61 40 63
REMARK Flexibility Score: inf
ROOT
ATOM      1  C   UNL     1     -23.037 -68.486  55.370  1.00  0.00     0.041 C 
ATOM      2  C   UNL     1     -23.328 -68.113  56.835  1.00  0.00     0.150 C 
ATOM      3  C   UNL     1     -22.452 -66.965  57.397  1.00  0.00     0.175 C 
ATOM      4  C   UNL     1     -22.939 -65.593  56.905  1.00  0.00     0.186 C 
ATOM      5  C   UNL     1     -24.441 -65.461  57.217  1.00  0.00     0.202 C 
ATOM      6  C   UNL     1     -25.215 -66.651  56.623  1.00  0.00     0.282 C 
ATOM      7  O   UNL     1     -24.717 -67.909  57.070  1.00  0.00    -0.344 OA
ENDROOT
BRANCH   3   8
ATOM      8  O   UNL     1     -21.087 -67.168  57.118  1.00  0.00    -0.388 OA
ATOM      9  H   UNL     1     -20.941 -68.140  56.980  1.00  0.00     0.211 HD
ENDBRANCH   3   8
BRANCH   4  10
ATOM     10  O   UNL     1     -22.201 -64.579  57.564  1.00  0.00    -0.341 OA
BRANCH  10  11
ATOM     11  C   UNL     1     -21.210 -63.997  56.722  1.00  0.00     0.282 C 
ATOM     12  C   UNL     1     -20.004 -63.524  57.562  1.00  0.00     0.202 C 
ATOM     13  O   UNL     1     -21.768 -62.929  55.970  1.00  0.00    -0.341 OA
ATOM     14  C   UNL     1     -20.404 -62.318  58.439  1.00  0.00     0.179 C 
ATOM     15  C   UNL     1     -22.249 -61.886  56.803  1.00  0.00     0.178 C 
ATOM     16  C   UNL     1     -21.084 -61.235  57.584  1.00  0.00     0.177 C 
BRANCH  12  17
ATOM     17  O   UNL     1     -19.550 -64.582  58.366  1.00  0.00    -0.385 OA
ATOM     18  H   UNL     1     -19.496 -64.234  59.295  1.00  0.00     0.211 HD
ENDBRANCH  12  17
BRANCH  14  19
ATOM     19  O   UNL     1     -19.297 -61.792  59.133  1.00  0.00    -0.387 OA
ATOM     20  H   UNL     1     -19.585 -60.953  59.578  1.00  0.00     0.211 HD
ENDBRANCH  14  19
BRANCH  15  21
ATOM     21  C   UNL     1     -22.981 -60.852  55.936  1.00  0.00     0.191 C 
BRANCH  21  22
ATOM     22  O   UNL     1     -24.182 -60.463  56.551  1.00  0.00    -0.394 OA
ATOM     23  H   UNL     1     -24.918 -60.844  56.006  1.00  0.00     0.210 HD
ENDBRANCH  21  22
ENDBRANCH  15  21
BRANCH  16  24
ATOM     24  O   UNL     1     -20.152 -60.678  56.691  1.00  0.00    -0.387 OA
ATOM     25  H   UNL     1     -20.571 -60.678  55.792  1.00  0.00     0.211 HD
ENDBRANCH  16  24
ENDBRANCH  10  11
ENDBRANCH   4  10
BRANCH   6  26
ATOM     26  O   UNL     1     -25.195 -66.573  55.201  1.00  0.00    -0.346 OA
BRANCH  26  27
ATOM     27  C   UNL     1     -26.060 -65.574  54.683  1.00  0.00     0.130 C 
ATOM     28  C   UNL     1     -27.425 -66.196  54.383  1.00  0.00     0.033 C 
ATOM     29  C   UNL     1     -25.451 -64.937  53.400  1.00  0.00     0.020 C 
ATOM     30  C   UNL     1     -28.446 -65.118  54.055  1.00  0.00     0.010 C 
ATOM     31  C   UNL     1     -26.403 -63.760  52.889  1.00  0.00     0.006 C 
ATOM     32  C   UNL     1     -25.277 -65.992  52.263  1.00  0.00     0.017 C 
ATOM     33  C   UNL     1     -27.988 -64.027  52.989  1.00  0.00    -0.022 C 
ATOM     34  C   UNL     1     -26.026 -62.343  53.423  1.00  0.00     0.005 C 
ATOM     35  C   UNL     1     -28.479 -64.646  51.631  1.00  0.00     0.012 C 
ATOM     36  C   UNL     1     -28.765 -62.640  53.273  1.00  0.00     0.024 C 
ATOM     37  C   UNL     1     -26.718 -61.216  52.628  1.00  0.00     0.008 C 
ATOM     38  C   UNL     1     -28.274 -61.397  52.415  1.00  0.00    -0.017 C 
ATOM     39  C   UNL     1     -28.784 -62.235  54.759  1.00  0.00    -0.024 C 
ATOM     40  C   UNL     1     -28.482 -61.677  50.887  1.00  0.00     0.013 C 
ATOM     41  C   UNL     1     -29.152 -60.096  52.843  1.00  0.00     0.009 C 
ATOM     42  C   UNL     1     -29.145 -61.032  55.220  1.00  0.00     0.005 C 
ATOM     43  C   UNL     1     -28.993 -59.778  54.398  1.00  0.00     0.096 C 
ATOM     44  C   UNL     1     -28.743 -58.802  52.050  1.00  0.00     0.043 C 
ATOM     45  C   UNL     1     -30.668 -60.369  52.515  1.00  0.00     0.015 C 
ATOM     46  C   UNL     1     -29.941 -58.620  54.827  1.00  0.00     0.037 C 
ATOM     47  O   UNL     1     -27.686 -59.290  54.665  1.00  0.00    -0.369 OA
ATOM     48  C   UNL     1     -29.253 -57.475  52.691  1.00  0.00     0.124 C 
ATOM     49  C   UNL     1     -29.137 -57.459  54.252  1.00  0.00     0.026 C 
ATOM     50  C   UNL     1     -30.150 -58.511  56.366  1.00  0.00     0.014 C 
ATOM     51  C   UNL     1     -27.724 -57.877  54.661  1.00  0.00     0.171 C 
ATOM     52  C   UNL     1     -29.560 -56.064  54.799  1.00  0.00     0.013 C 
ATOM     53  C   UNL     1     -30.727 -57.149  56.816  1.00  0.00    -0.035 C 
ATOM     54  C   UNL     1     -29.802 -56.018  56.315  1.00  0.00     0.007 C 
ATOM     55  C   UNL     1     -30.765 -57.114  58.359  1.00  0.00     0.011 C 
ATOM     56  C   UNL     1     -32.174 -56.957  56.301  1.00  0.00     0.011 C 
BRANCH  29  57
ATOM     57  C   UNL     1     -24.008 -64.426  53.735  1.00  0.00     0.165 C 
BRANCH  57  58
ATOM     58  O   UNL     1     -23.039 -65.415  53.497  1.00  0.00    -0.396 OA
ATOM     59  H   UNL     1     -23.416 -66.012  52.796  1.00  0.00     0.210 HD
ENDBRANCH  57  58
ENDBRANCH  29  57
BRANCH  48  60
ATOM     60  O   UNL     1     -28.534 -56.396  52.146  1.00  0.00    -0.392 OA
ATOM     61  H   UNL     1     -28.688 -55.615  52.739  1.00  0.00     0.210 HD
ENDBRANCH  48  60
ENDBRANCH  26  27
ENDBRANCH   6  26
BRANCH   5  62
ATOM     62  O   UNL     1     -24.656 -65.417  58.607  1.00  0.00    -0.385 OA
ATOM     63  H   UNL     1     -23.802 -65.677  59.040  1.00  0.00     0.211 HD
ENDBRANCH   5  62
TORSDOF 14
ENDMDL
MODEL 3
REMARK VINA RESULT:    -6.229      6.791     10.380
REMARK INTER + INTRA:         -12.187
REMARK INTER:                  -9.457
REMARK INTRA:                  -2.730
REMARK UNBOUND:                -2.317
REMARK SMILES C[C@@H]1O[C@H](O[C@@H]2CC[C@]3(C)[C@@H](CC[C@@]4(C)[C@@H]3C=C[C@]35OC[C@@]6(CCC(C)(C)C[C@@H]63)[C@@H](O)C[C@@]45C)[C@@]2(C)CO)[C@@H](O)[C@@H](O[C@H]2O[C@H](CO)[C@H](O)[C@H](O)[C@H]2O)[C@@H]1O
REMARK SMILES IDX 1 1 2 2 54 3 41 4 39 5 4 6 3 7 55 8 42 10 43 11 52 12 44 13
REMARK SMILES IDX 50 14 45 15 48 16 53 17 51 19 46 21 47 22 49 24 5 26 6 27
REMARK SMILES IDX 7 28 35 29 8 30 11 31 36 32 9 33 12 34 10 35 16 36 13 37
REMARK SMILES IDX 14 38 17 39 15 40 33 41 18 42 19 43 32 44 34 45 29 46 20 47
REMARK SMILES IDX 30 48 22 49 28 50 21 51 23 52 25 53 24 54 26 55 27 56 37 57
REMARK SMILES IDX 38 58 31 60 40 62
REMARK H PARENT 55 9 53 18 51 20 47 23 49 25 38 59 31 61 40 63
REMARK Flexibility Score: inf
ROOT
ATOM      1  C   UNL     1     -19.983 -55.295  53.698  1.00  0.00     0.041 C 
ATOM      2  C   UNL     1     -18.665 -55.980  53.291  1.00  0.00     0.150 C 
ATOM      3  C   UNL     1     -18.139 -57.025  54.306  1.00  0.00     0.175 C 
ATOM      4  C   UNL     1     -18.911 -58.350  54.200  1.00  0.00     0.186 C 
ATOM      5  C   UNL     1     -18.890 -58.817  52.733  1.00  0.00     0.202 C 
ATOM      6  C   UNL     1     -19.424 -57.706  51.813  1.00  0.00     0.282 C 
ATOM      7  O   UNL     1     -18.712 -56.481  51.959  1.00  0.00    -0.344 OA
ENDROOT
BRANCH   3   8
ATOM      8  O   UNL     1     -18.139 -56.521  55.620  1.00  0.00    -0.388 OA
ATOM      9  H   UNL     1     -18.659 -57.145  56.190  1.00  0.00     0.211 HD
ENDBRANCH   3   8
BRANCH   4  10
ATOM     10  O   UNL     1     -18.293 -59.311  55.038  1.00  0.00    -0.341 OA
BRANCH  10  11
ATOM     11  C   UNL     1     -19.238 -60.022  55.834  1.00  0.00     0.282 C 
ATOM     12  C   UNL     1     -18.773 -60.069  57.305  1.00  0.00     0.202 C 
ATOM     13  O   UNL     1     -19.437 -61.328  55.312  1.00  0.00    -0.341 OA
ATOM     14  C   UNL     1     -17.524 -60.965  57.442  1.00  0.00     0.179 C 
ATOM     15  C   UNL     1     -18.242 -62.094  55.327  1.00  0.00     0.178 C 
ATOM     16  C   UNL     1     -17.769 -62.331  56.779  1.00  0.00     0.177 C 
BRANCH  12  17
ATOM     17  O   UNL     1     -18.489 -58.766  57.747  1.00  0.00    -0.385 OA
ATOM     18  H   UNL     1     -17.849 -58.852  58.502  1.00  0.00     0.211 HD
ENDBRANCH  12  17
BRANCH  14  19
ATOM     19  O   UNL     1     -17.141 -61.119  58.789  1.00  0.00    -0.387 OA
ATOM     20  H   UNL     1     -17.313 -62.060  59.051  1.00  0.00     0.211 HD
ENDBRANCH  14  19
BRANCH  15  21
ATOM     21  C   UNL     1     -18.493 -63.424  54.601  1.00  0.00     0.191 C 
BRANCH  21  22
ATOM     22  O   UNL     1     -18.325 -63.262  53.217  1.00  0.00    -0.394 OA
ATOM     23  H   UNL     1     -18.656 -64.095  52.790  1.00  0.00     0.210 HD
ENDBRANCH  21  22
ENDBRANCH  15  21
BRANCH  16  24
ATOM     24  O   UNL     1     -18.745 -63.042  57.499  1.00  0.00    -0.387 OA
ATOM     25  H   UNL     1     -18.267 -63.644  58.126  1.00  0.00     0.211 HD
ENDBRANCH  16  24
ENDBRANCH  10  11
ENDBRANCH   4  10
BRANCH   6  26
ATOM     26  O   UNL     1     -20.816 -57.516  52.049  1.00  0.00    -0.346 OA
BRANCH  26  27
ATOM     27  C   UNL     1     -21.523 -58.733  52.238  1.00  0.00     0.130 C 
ATOM     28  C   UNL     1     -21.563 -59.502  50.918  1.00  0.00     0.033 C 
ATOM     29  C   UNL     1     -22.965 -58.450  52.755  1.00  0.00     0.020 C 
ATOM     30  C   UNL     1     -22.098 -60.910  51.132  1.00  0.00     0.010 C 
ATOM     31  C   UNL     1     -23.706 -59.837  53.040  1.00  0.00     0.006 C 
ATOM     32  C   UNL     1     -23.792 -57.624  51.722  1.00  0.00     0.017 C 
ATOM     33  C   UNL     1     -23.439 -61.022  51.982  1.00  0.00    -0.022 C 
ATOM     34  C   UNL     1     -23.588 -60.344  54.510  1.00  0.00     0.005 C 
ATOM     35  C   UNL     1     -24.553 -60.965  50.875  1.00  0.00     0.012 C 
ATOM     36  C   UNL     1     -23.482 -62.451  52.731  1.00  0.00     0.024 C 
ATOM     37  C   UNL     1     -24.607 -61.460  54.826  1.00  0.00     0.008 C 
ATOM     38  C   UNL     1     -24.666 -62.637  53.774  1.00  0.00    -0.017 C 
ATOM     39  C   UNL     1     -22.157 -62.828  53.421  1.00  0.00    -0.024 C 
ATOM     40  C   UNL     1     -26.050 -62.514  53.048  1.00  0.00     0.013 C 
ATOM     41  C   UNL     1     -24.541 -64.119  54.436  1.00  0.00     0.009 C 
ATOM     42  C   UNL     1     -22.007 -63.827  54.297  1.00  0.00     0.005 C 
ATOM     43  C   UNL     1     -23.138 -64.306  55.171  1.00  0.00     0.096 C 
ATOM     44  C   UNL     1     -25.670 -64.408  55.490  1.00  0.00     0.043 C 
ATOM     45  C   UNL     1     -24.690 -65.202  53.303  1.00  0.00     0.015 C 
ATOM     46  C   UNL     1     -22.969 -65.767  55.681  1.00  0.00     0.037 C 
ATOM     47  O   UNL     1     -23.091 -63.508  56.345  1.00  0.00    -0.369 OA
ATOM     48  C   UNL     1     -25.371 -65.616  56.429  1.00  0.00     0.124 C 
ATOM     49  C   UNL     1     -23.879 -65.675  56.901  1.00  0.00     0.026 C 
ATOM     50  C   UNL     1     -21.504 -66.146  56.043  1.00  0.00     0.014 C 
ATOM     51  C   UNL     1     -23.465 -64.309  57.448  1.00  0.00     0.171 C 
ATOM     52  C   UNL     1     -23.693 -66.839  57.918  1.00  0.00     0.013 C 
ATOM     53  C   UNL     1     -21.393 -67.411  56.925  1.00  0.00    -0.035 C 
ATOM     54  C   UNL     1     -22.230 -67.209  58.206  1.00  0.00     0.007 C 
ATOM     55  C   UNL     1     -19.915 -67.607  57.323  1.00  0.00     0.011 C 
ATOM     56  C   UNL     1     -21.848 -68.673  56.153  1.00  0.00     0.011 C 
BRANCH  29  57
ATOM     57  C   UNL     1     -22.867 -57.558  54.039  1.00  0.00     0.165 C 
BRANCH  57  58
ATOM     58  O   UNL     1     -23.997 -56.736  54.187  1.00  0.00    -0.396 OA
ATOM     59  H   UNL     1     -23.732 -56.006  54.807  1.00  0.00     0.210 HD
ENDBRANCH  57  58
ENDBRANCH  29  57
BRANCH  48  60
ATOM     60  O   UNL     1     -26.224 -65.553  57.545  1.00  0.00    -0.392 OA
ATOM     61  H   UNL     1     -26.915 -66.256  57.424  1.00  0.00     0.210 HD
ENDBRANCH  48  60
ENDBRANCH  26  27
ENDBRANCH   6  26
BRANCH   5  62
ATOM     62  O   UNL     1     -17.583 -59.156  52.339  1.00  0.00    -0.385 OA
ATOM     63  H   UNL     1     -17.664 -59.860  51.644  1.00  0.00     0.211 HD
ENDBRANCH   5  62
TORSDOF 14
ENDMDL
MODEL 4
REMARK VINA RESULT:    -6.225      3.853      8.016
REMARK INTER + INTRA:         -12.181
REMARK INTER:                  -8.870
REMARK INTRA:                  -3.311
REMARK UNBOUND:                -2.317
REMARK SMILES C[C@@H]1O[C@H](O[C@@H]2CC[C@]3(C)[C@@H](CC[C@@]4(C)[C@@H]3C=C[C@]35OC[C@@]6(CCC(C)(C)C[C@@H]63)[C@@H](O)C[C@@]45C)[C@@]2(C)CO)[C@@H](O)[C@@H](O[C@H]2O[C@H](CO)[C@H](O)[C@H](O)[C@H]2O)[C@@H]1O
REMARK SMILES IDX 1 1 2 2 54 3 41 4 39 5 4 6 3 7 55 8 42 10 43 11 52 12 44 13
REMARK SMILES IDX 50 14 45 15 48 16 53 17 51 19 46 21 47 22 49 24 5 26 6 27
REMARK SMILES IDX 7 28 35 29 8 30 11 31 36 32 9 33 12 34 10 35 16 36 13 37
REMARK SMILES IDX 14 38 17 39 15 40 33 41 18 42 19 43 32 44 34 45 29 46 20 47
REMARK SMILES IDX 30 48 22 49 28 50 21 51 23 52 25 53 24 54 26 55 27 56 37 57
REMARK SMILES IDX 38 58 31 60 40 62
REMARK H PARENT 55 9 53 18 51 20 47 23 49 25 38 59 31 61 40 63
REMARK Flexibility Score: inf
ROOT
ATOM      1  C   UNL     1     -29.013 -67.969  56.528  1.00  0.00     0.041 C 
ATOM      2  C   UNL     1     -30.371 -67.694  55.858  1.00  0.00     0.150 C 
ATOM      3  C   UNL     1     -31.169 -66.517  56.473  1.00  0.00     0.175 C 
ATOM      4  C   UNL     1     -30.617 -65.160  56.010  1.00  0.00     0.186 C 
ATOM      5  C   UNL     1     -30.552 -65.152  54.472  1.00  0.00     0.202 C 
ATOM      6  C   UNL     1     -29.745 -66.362  53.967  1.00  0.00     0.282 C 
ATOM      7  O   UNL     1     -30.261 -67.602  54.441  1.00  0.00    -0.344 OA
ENDROOT
BRANCH   3   8
ATOM      8  O   UNL     1     -31.231 -66.608  57.876  1.00  0.00    -0.388 OA
ATOM      9  H   UNL     1     -31.858 -65.911  58.204  1.00  0.00     0.211 HD
ENDBRANCH   3   8
BRANCH   4  10
ATOM     10  O   UNL     1     -31.472 -64.131  56.479  1.00  0.00    -0.341 OA
BRANCH  10  11
ATOM     11  C   UNL     1     -30.780 -63.176  57.279  1.00  0.00     0.282 C 
ATOM     12  C   UNL     1     -31.591 -62.857  58.553  1.00  0.00     0.202 C 
ATOM     13  O   UNL     1     -30.515 -62.001  56.526  1.00  0.00    -0.341 OA
ATOM     14  C   UNL     1     -32.872 -62.077  58.189  1.00  0.00     0.179 C 
ATOM     15  C   UNL     1     -31.709 -61.370  56.089  1.00  0.00     0.178 C 
ATOM     16  C   UNL     1     -32.532 -60.870  57.299  1.00  0.00     0.177 C 
BRANCH  12  17
ATOM     17  O   UNL     1     -31.919 -64.054  59.211  1.00  0.00    -0.385 OA
ATOM     18  H   UNL     1     -31.156 -64.675  59.075  1.00  0.00     0.211 HD
ENDBRANCH  12  17
BRANCH  14  19
ATOM     19  O   UNL     1     -33.578 -61.673  59.339  1.00  0.00    -0.387 OA
ATOM     20  H   UNL     1     -34.538 -61.884  59.199  1.00  0.00     0.211 HD
ENDBRANCH  14  19
BRANCH  15  21
ATOM     21  C   UNL     1     -31.345 -60.211  55.150  1.00  0.00     0.191 C 
BRANCH  21  22
ATOM     22  O   UNL     1     -30.415 -59.358  55.765  1.00  0.00    -0.394 OA
ATOM     23  H   UNL     1     -29.517 -59.749  55.601  1.00  0.00     0.210 HD
ENDBRANCH  21  22
ENDBRANCH  15  21
BRANCH  16  24
ATOM     24  O   UNL     1     -31.791 -59.929  58.035  1.00  0.00    -0.387 OA
ATOM     25  H   UNL     1     -30.895 -60.325  58.199  1.00  0.00     0.211 HD
ENDBRANCH  16  24
ENDBRANCH  10  11
ENDBRANCH   4  10
BRANCH   6  26
ATOM     26  O   UNL     1     -28.376 -66.209  54.328  1.00  0.00    -0.346 OA
BRANCH  26  27
ATOM     27  C   UNL     1     -27.834 -64.951  53.951  1.00  0.00     0.130 C 
ATOM     28  C   UNL     1     -27.502 -64.974  52.459  1.00  0.00     0.033 C 
ATOM     29  C   UNL     1     -26.565 -64.630  54.793  1.00  0.00     0.020 C 
ATOM     30  C   UNL     1     -27.147 -63.579  51.966  1.00  0.00     0.010 C 
ATOM     31  C   UNL     1     -26.028 -63.175  54.408  1.00  0.00     0.006 C 
ATOM     32  C   UNL     1     -25.435 -65.679  54.550  1.00  0.00     0.017 C 
ATOM     33  C   UNL     1     -26.090 -62.779  52.848  1.00  0.00    -0.022 C 
ATOM     34  C   UNL     1     -26.569 -62.025  55.313  1.00  0.00     0.005 C 
ATOM     35  C   UNL     1     -24.722 -63.164  52.179  1.00  0.00     0.012 C 
ATOM     36  C   UNL     1     -26.351 -61.193  52.691  1.00  0.00     0.024 C 
ATOM     37  C   UNL     1     -25.754 -60.724  55.152  1.00  0.00     0.008 C 
ATOM     38  C   UNL     1     -25.503 -60.265  53.661  1.00  0.00    -0.017 C 
ATOM     39  C   UNL     1     -27.836 -60.797  52.806  1.00  0.00    -0.024 C 
ATOM     40  C   UNL     1     -23.971 -60.456  53.390  1.00  0.00     0.013 C 
ATOM     41  C   UNL     1     -25.907 -58.714  53.374  1.00  0.00     0.009 C 
ATOM     42  C   UNL     1     -28.285 -59.545  52.951  1.00  0.00     0.005 C 
ATOM     43  C   UNL     1     -27.464 -58.469  53.614  1.00  0.00     0.096 C 
ATOM     44  C   UNL     1     -25.121 -57.705  54.287  1.00  0.00     0.043 C 
ATOM     45  C   UNL     1     -25.542 -58.357  51.884  1.00  0.00     0.015 C 
ATOM     46  C   UNL     1     -27.867 -57.022  53.204  1.00  0.00     0.037 C 
ATOM     47  O   UNL     1     -27.762 -58.547  55.001  1.00  0.00    -0.369 OA
ATOM     48  C   UNL     1     -25.746 -56.278  54.342  1.00  0.00     0.124 C 
ATOM     49  C   UNL     1     -27.309 -56.291  54.421  1.00  0.00     0.026 C 
ATOM     50  C   UNL     1     -29.400 -56.820  53.025  1.00  0.00     0.014 C 
ATOM     51  C   UNL     1     -27.754 -57.239  55.536  1.00  0.00     0.171 C 
ATOM     52  C   UNL     1     -27.842 -54.838  54.585  1.00  0.00     0.013 C 
ATOM     53  C   UNL     1     -29.832 -55.335  53.037  1.00  0.00    -0.035 C 
ATOM     54  C   UNL     1     -29.352 -54.680  54.350  1.00  0.00     0.007 C 
ATOM     55  C   UNL     1     -31.374 -55.269  52.984  1.00  0.00     0.011 C 
ATOM     56  C   UNL     1     -29.281 -54.582  51.802  1.00  0.00     0.011 C 
BRANCH  29  57
ATOM     57  C   UNL     1     -26.934 -64.741  56.312  1.00  0.00     0.165 C 
BRANCH  57  58
ATOM     58  O   UNL     1     -26.409 -65.908  56.890  1.00  0.00    -0.396 OA
ATOM     59  H   UNL     1     -26.889 -66.670  56.466  1.00  0.00     0.210 HD
ENDBRANCH  57  58
ENDBRANCH  29  57
BRANCH  48  60
ATOM     60  O   UNL     1     -25.216 -55.588  55.447  1.00  0.00    -0.392 OA
ATOM     61  H   UNL     1     -25.357 -56.163  56.244  1.00  0.00     0.210 HD
ENDBRANCH  48  60
ENDBRANCH  26  27
ENDBRANCH   6  26
BRANCH   5  62
ATOM     62  O   UNL     1     -31.845 -65.195  53.921  1.00  0.00    -0.385 OA
ATOM     63  H   UNL     1     -31.952 -64.377  53.369  1.00  0.00     0.211 HD
ENDBRANCH   5  62
TORSDOF 14
ENDMDL
MODEL 5
REMARK VINA RESULT:    -6.211      2.423      4.113
REMARK INTER + INTRA:         -12.159
REMARK INTER:                 -10.785
REMARK INTRA:                  -1.374
REMARK UNBOUND:                -2.317
REMARK SMILES C[C@@H]1O[C@H](O[C@@H]2CC[C@]3(C)[C@@H](CC[C@@]4(C)[C@@H]3C=C[C@]35OC[C@@]6(CCC(C)(C)C[C@@H]63)[C@@H](O)C[C@@]45C)[C@@]2(C)CO)[C@@H](O)[C@@H](O[C@H]2O[C@H](CO)[C@H](O)[C@H](O)[C@H]2O)[C@@H]1O
REMARK SMILES IDX 1 1 2 2 54 3 41 4 39 5 4 6 3 7 55 8 42 10 43 11 52 12 44 13
REMARK SMILES IDX 50 14 45 15 48 16 53 17 51 19 46 21 47 22 49 24 5 26 6 27
REMARK SMILES IDX 7 28 35 29 8 30 11 31 36 32 9 33 12 34 10 35 16 36 13 37
REMARK SMILES IDX 14 38 17 39 15 40 33 41 18 42 19 43 32 44 34 45 29 46 20 47
REMARK SMILES IDX 30 48 22 49 28 50 21 51 23 52 25 53 24 54 26 55 27 56 37 57
REMARK SMILES IDX 38 58 31 60 40 62
REMARK H PARENT 55 9 53 18 51 20 47 23 49 25 38 59 31 61 40 63
REMARK Flexibility Score: inf
ROOT
ATOM      1  C   UNL     1     -33.762 -65.384  58.360  1.00  0.00     0.041 C 
ATOM      2  C   UNL     1     -34.036 -63.889  58.111  1.00  0.00     0.150 C 
ATOM      3  C   UNL     1     -33.604 -62.951  59.266  1.00  0.00     0.175 C 
ATOM      4  C   UNL     1     -32.086 -62.718  59.265  1.00  0.00     0.186 C 
ATOM      5  C   UNL     1     -31.661 -62.242  57.863  1.00  0.00     0.202 C 
ATOM      6  C   UNL     1     -32.143 -63.238  56.794  1.00  0.00     0.282 C 
ATOM      7  O   UNL     1     -33.549 -63.459  56.844  1.00  0.00    -0.344 OA
ENDROOT
BRANCH   3   8
ATOM      8  O   UNL     1     -34.063 -63.417  60.513  1.00  0.00    -0.388 OA
ATOM      9  H   UNL     1     -34.902 -62.935  60.733  1.00  0.00     0.211 HD
ENDBRANCH   3   8
BRANCH   4  10
ATOM     10  O   UNL     1     -31.769 -61.741  60.241  1.00  0.00    -0.341 OA
BRANCH  10  11
ATOM     11  C   UNL     1     -30.391 -61.377  60.214  1.00  0.00     0.282 C 
ATOM     12  C   UNL     1     -29.770 -61.525  61.619  1.00  0.00     0.202 C 
ATOM     13  O   UNL     1     -30.241 -60.055  59.718  1.00  0.00    -0.341 OA
ATOM     14  C   UNL     1     -30.348 -60.458  62.574  1.00  0.00     0.179 C 
ATOM     15  C   UNL     1     -30.892 -59.101  60.543  1.00  0.00     0.178 C 
ATOM     16  C   UNL     1     -30.240 -59.059  61.943  1.00  0.00     0.177 C 
BRANCH  12  17
ATOM     17  O   UNL     1     -30.032 -62.814  62.113  1.00  0.00    -0.385 OA
ATOM     18  H   UNL     1     -30.088 -63.417  61.327  1.00  0.00     0.211 HD
ENDBRANCH  12  17
BRANCH  14  19
ATOM     19  O   UNL     1     -29.720 -60.494  63.834  1.00  0.00    -0.387 OA
ATOM     20  H   UNL     1     -30.250 -59.932  64.456  1.00  0.00     0.211 HD
ENDBRANCH  14  19
BRANCH  15  21
ATOM     21  C   UNL     1     -30.829 -57.726  59.860  1.00  0.00     0.191 C 
BRANCH  21  22
ATOM     22  O   UNL     1     -31.839 -56.888  60.360  1.00  0.00    -0.394 OA
ATOM     23  H   UNL     1     -32.263 -57.372  61.116  1.00  0.00     0.210 HD
ENDBRANCH  21  22
ENDBRANCH  15  21
BRANCH  16  24
ATOM     24  O   UNL     1     -28.888 -58.687  61.839  1.00  0.00    -0.387 OA
ATOM     25  H   UNL     1     -28.782 -58.204  60.978  1.00  0.00     0.211 HD
ENDBRANCH  16  24
ENDBRANCH  10  11
ENDBRANCH   4  10
BRANCH   6  26
ATOM     26  O   UNL     1     -31.430 -64.464  56.925  1.00  0.00    -0.346 OA
BRANCH  26  27
ATOM     27  C   UNL     1     -30.149 -64.436  56.313  1.00  0.00     0.130 C 
ATOM     28  C   UNL     1     -30.154 -63.406  55.183  1.00  0.00     0.033 C 
ATOM     29  C   UNL     1     -29.773 -65.846  55.771  1.00  0.00     0.020 C 
ATOM     30  C   UNL     1     -28.744 -63.173  54.663  1.00  0.00     0.010 C 
ATOM     31  C   UNL     1     -28.295 -65.804  55.166  1.00  0.00     0.006 C 
ATOM     32  C   UNL     1     -30.770 -66.321  54.668  1.00  0.00     0.017 C 
ATOM     33  C   UNL     1     -27.899 -64.482  54.336  1.00  0.00    -0.022 C 
ATOM     34  C   UNL     1     -27.172 -66.208  56.171  1.00  0.00     0.005 C 
ATOM     35  C   UNL     1     -28.220 -64.728  52.818  1.00  0.00     0.012 C 
ATOM     36  C   UNL     1     -26.326 -64.166  54.519  1.00  0.00     0.024 C 
ATOM     37  C   UNL     1     -25.835 -66.512  55.461  1.00  0.00     0.008 C 
ATOM     38  C   UNL     1     -25.362 -65.424  54.417  1.00  0.00    -0.017 C 
ATOM     39  C   UNL     1     -25.996 -63.398  55.814  1.00  0.00    -0.024 C 
ATOM     40  C   UNL     1     -25.484 -66.086  53.001  1.00  0.00     0.013 C 
ATOM     41  C   UNL     1     -23.831 -64.920  54.641  1.00  0.00     0.009 C 
ATOM     42  C   UNL     1     -24.766 -63.229  56.311  1.00  0.00     0.005 C 
ATOM     43  C   UNL     1     -23.656 -64.217  56.061  1.00  0.00     0.096 C 
ATOM     44  C   UNL     1     -22.790 -66.095  54.561  1.00  0.00     0.043 C 
ATOM     45  C   UNL     1     -23.455 -63.902  53.500  1.00  0.00     0.015 C 
ATOM     46  C   UNL     1     -22.228 -63.616  56.211  1.00  0.00     0.037 C 
ATOM     47  O   UNL     1     -23.750 -65.183  57.099  1.00  0.00    -0.369 OA
ATOM     48  C   UNL     1     -21.392 -65.747  55.157  1.00  0.00     0.124 C 
ATOM     49  C   UNL     1     -21.475 -64.915  56.481  1.00  0.00     0.026 C 
ATOM     50  C   UNL     1     -22.094 -62.585  57.368  1.00  0.00     0.014 C 
ATOM     51  C   UNL     1     -22.444 -65.595  57.449  1.00  0.00     0.171 C 
ATOM     52  C   UNL     1     -20.047 -64.708  57.066  1.00  0.00     0.013 C 
ATOM     53  C   UNL     1     -20.630 -62.311  57.785  1.00  0.00    -0.035 C 
ATOM     54  C   UNL     1     -19.956 -63.645  58.171  1.00  0.00     0.007 C 
ATOM     55  C   UNL     1     -20.633 -61.381  59.017  1.00  0.00     0.011 C 
ATOM     56  C   UNL     1     -19.850 -61.598  56.654  1.00  0.00     0.011 C 
BRANCH  29  57
ATOM     57  C   UNL     1     -29.904 -66.880  56.941  1.00  0.00     0.165 C 
BRANCH  57  58
ATOM     58  O   UNL     1     -30.277 -68.150  56.472  1.00  0.00    -0.396 OA
ATOM     59  H   UNL     1     -31.271 -68.156  56.444  1.00  0.00     0.210 HD
ENDBRANCH  57  58
ENDBRANCH  29  57
BRANCH  48  60
ATOM     60  O   UNL     1     -20.681 -66.939  55.385  1.00  0.00    -0.392 OA
ATOM     61  H   UNL     1     -20.307 -66.884  56.304  1.00  0.00     0.210 HD
ENDBRANCH  48  60
ENDBRANCH  26  27
ENDBRANCH   6  26
BRANCH   5  62
ATOM     62  O   UNL     1     -32.196 -60.971  57.588  1.00  0.00    -0.385 OA
ATOM     63  H   UNL     1     -33.061 -60.911  58.072  1.00  0.00     0.211 HD
ENDBRANCH   5  62
TORSDOF 14
ENDMDL
MODEL 6
REMARK VINA RESULT:    -6.205      2.900      9.756
REMARK INTER + INTRA:         -12.150
REMARK INTER:                 -10.254
REMARK INTRA:                  -1.896
REMARK UNBOUND:                -2.317
REMARK SMILES C[C@@H]1O[C@H](O[C@@H]2CC[C@]3(C)[C@@H](CC[C@@]4(C)[C@@H]3C=C[C@]35OC[C@@]6(CCC(C)(C)C[C@@H]63)[C@@H](O)C[C@@]45C)[C@@]2(C)CO)[C@@H](O)[C@@H](O[C@H]2O[C@H](CO)[C@H](O)[C@H](O)[C@H]2O)[C@@H]1O
REMARK SMILES IDX 1 1 2 2 54 3 41 4 39 5 4 6 3 7 55 8 42 10 43 11 52 12 44 13
REMARK SMILES IDX 50 14 45 15 48 16 53 17 51 19 46 21 47 22 49 24 5 26 6 27
REMARK SMILES IDX 7 28 35 29 8 30 11 31 36 32 9 33 12 34 10 35 16 36 13 37
REMARK SMILES IDX 14 38 17 39 15 40 33 41 18 42 19 43 32 44 34 45 29 46 20 47
REMARK SMILES IDX 30 48 22 49 28 50 21 51 23 52 25 53 24 54 26 55 27 56 37 57
REMARK SMILES IDX 38 58 31 60 40 62
REMARK H PARENT 55 9 53 18 51 20 47 23 49 25 38 59 31 61 40 63
REMARK Flexibility Score: inf
ROOT
ATOM      1  C   UNL     1     -22.851 -58.038  52.572  1.00  0.00     0.041 C 
ATOM      2  C   UNL     1     -23.067 -59.506  52.161  1.00  0.00     0.150 C 
ATOM      3  C   UNL     1     -22.926 -60.529  53.316  1.00  0.00     0.175 C 
ATOM      4  C   UNL     1     -24.177 -60.548  54.207  1.00  0.00     0.186 C 
ATOM      5  C   UNL     1     -25.415 -60.760  53.315  1.00  0.00     0.202 C 
ATOM      6  C   UNL     1     -25.455 -59.699  52.200  1.00  0.00     0.282 C 
ATOM      7  O   UNL     1     -24.267 -59.682  51.415  1.00  0.00    -0.344 OA
ENDROOT
BRANCH   3   8
ATOM      8  O   UNL     1     -21.753 -60.310  54.063  1.00  0.00    -0.388 OA
ATOM      9  H   UNL     1     -21.880 -59.488  54.605  1.00  0.00     0.211 HD
ENDBRANCH   3   8
BRANCH   4  10
ATOM     10  O   UNL     1     -24.056 -61.600  55.148  1.00  0.00    -0.341 OA
BRANCH  10  11
ATOM     11  C   UNL     1     -25.264 -61.821  55.871  1.00  0.00     0.282 C 
ATOM     12  C   UNL     1     -25.260 -61.009  57.183  1.00  0.00     0.202 C 
ATOM     13  O   UNL     1     -25.442 -63.208  56.121  1.00  0.00    -0.341 OA
ATOM     14  C   UNL     1     -24.212 -61.580  58.162  1.00  0.00     0.179 C 
ATOM     15  C   UNL     1     -24.395 -63.743  56.917  1.00  0.00     0.178 C 
ATOM     16  C   UNL     1     -24.398 -63.098  58.321  1.00  0.00     0.177 C 
BRANCH  12  17
ATOM     17  O   UNL     1     -24.979 -59.662  56.899  1.00  0.00    -0.385 OA
ATOM     18  H   UNL     1     -25.248 -59.505  55.957  1.00  0.00     0.211 HD
ENDBRANCH  12  17
BRANCH  14  19
ATOM     19  O   UNL     1     -24.260 -60.931  59.411  1.00  0.00    -0.387 OA
ATOM     20  H   UNL     1     -23.634 -60.163  59.382  1.00  0.00     0.211 HD
ENDBRANCH  14  19
BRANCH  15  21
ATOM     21  C   UNL     1     -24.565 -65.266  57.005  1.00  0.00     0.191 C 
BRANCH  21  22
ATOM     22  O   UNL     1     -24.364 -65.703  58.324  1.00  0.00    -0.394 OA
ATOM     23  H   UNL     1     -25.203 -66.150  58.608  1.00  0.00     0.210 HD
ENDBRANCH  21  22
ENDBRANCH  15  21
BRANCH  16  24
ATOM     24  O   UNL     1     -25.614 -63.363  58.975  1.00  0.00    -0.387 OA
ATOM     25  H   UNL     1     -26.343 -63.075  58.366  1.00  0.00     0.211 HD
ENDBRANCH  16  24
ENDBRANCH  10  11
ENDBRANCH   4  10
BRANCH   6  26
ATOM     26  O   UNL     1     -25.708 -58.418  52.768  1.00  0.00    -0.346 OA
BRANCH  26  27
ATOM     27  C   UNL     1     -26.990 -58.314  53.370  1.00  0.00     0.130 C 
ATOM     28  C   UNL     1     -28.034 -58.934  52.440  1.00  0.00     0.033 C 
ATOM     29  C   UNL     1     -27.333 -56.826  53.669  1.00  0.00     0.020 C 
ATOM     30  C   UNL     1     -29.375 -59.060  53.146  1.00  0.00     0.010 C 
ATOM     31  C   UNL     1     -28.741 -56.747  54.422  1.00  0.00     0.006 C 
ATOM     32  C   UNL     1     -27.399 -55.978  52.360  1.00  0.00     0.017 C 
ATOM     33  C   UNL     1     -29.885 -57.758  53.907  1.00  0.00    -0.022 C 
ATOM     34  C   UNL     1     -28.642 -56.738  55.979  1.00  0.00     0.005 C 
ATOM     35  C   UNL     1     -30.739 -57.030  52.809  1.00  0.00     0.012 C 
ATOM     36  C   UNL     1     -30.832 -58.193  55.140  1.00  0.00     0.024 C 
ATOM     37  C   UNL     1     -29.962 -56.292  56.644  1.00  0.00     0.008 C 
ATOM     38  C   UNL     1     -31.263 -57.016  56.116  1.00  0.00    -0.017 C 
ATOM     39  C   UNL     1     -30.256 -59.346  55.985  1.00  0.00    -0.024 C 
ATOM     40  C   UNL     1     -32.084 -55.936  55.331  1.00  0.00     0.013 C 
ATOM     41  C   UNL     1     -32.194 -57.641  57.296  1.00  0.00     0.009 C 
ATOM     42  C   UNL     1     -30.720 -59.724  57.182  1.00  0.00     0.005 C 
ATOM     43  C   UNL     1     -31.412 -58.764  58.115  1.00  0.00     0.096 C 
ATOM     44  C   UNL     1     -32.677 -56.554  58.324  1.00  0.00     0.043 C 
ATOM     45  C   UNL     1     -33.489 -58.264  56.653  1.00  0.00     0.015 C 
ATOM     46  C   UNL     1     -32.351 -59.451  59.149  1.00  0.00     0.037 C 
ATOM     47  O   UNL     1     -30.386 -58.171  58.899  1.00  0.00    -0.369 OA
ATOM     48  C   UNL     1     -33.214 -57.141  59.664  1.00  0.00     0.124 C 
ATOM     49  C   UNL     1     -32.365 -58.343  60.197  1.00  0.00     0.026 C 
ATOM     50  C   UNL     1     -31.805 -60.801  59.699  1.00  0.00     0.014 C 
ATOM     51  C   UNL     1     -30.885 -57.956  60.204  1.00  0.00     0.171 C 
ATOM     52  C   UNL     1     -32.900 -58.794  61.587  1.00  0.00     0.013 C 
ATOM     53  C   UNL     1     -32.502 -61.264  61.000  1.00  0.00    -0.035 C 
ATOM     54  C   UNL     1     -32.371 -60.155  62.066  1.00  0.00     0.007 C 
ATOM     55  C   UNL     1     -31.791 -62.534  61.515  1.00  0.00     0.011 C 
ATOM     56  C   UNL     1     -33.986 -61.621  60.743  1.00  0.00     0.011 C 
BRANCH  29  57
ATOM     57  C   UNL     1     -26.172 -56.209  54.521  1.00  0.00     0.165 C 
BRANCH  57  58
ATOM     58  O   UNL     1     -25.413 -57.203  55.159  1.00  0.00    -0.396 OA
ATOM     59  H   UNL     1     -25.542 -58.035  54.631  1.00  0.00     0.210 HD
ENDBRANCH  57  58
ENDBRANCH  29  57
BRANCH  48  60
ATOM     60  O   UNL     1     -33.255 -56.119  60.630  1.00  0.00    -0.392 OA
ATOM     61  H   UNL     1     -34.142 -55.679  60.551  1.00  0.00     0.210 HD
ENDBRANCH  48  60
ENDBRANCH  26  27
ENDBRANCH   6  26
BRANCH   5  62
ATOM     62  O   UNL     1     -25.394 -62.041  52.734  1.00  0.00    -0.385 OA
ATOM     63  H   UNL     1     -26.253 -62.152  52.249  1.00  0.00     0.211 HD
ENDBRANCH   5  62
TORSDOF 14
ENDMDL
MODEL 7
REMARK VINA RESULT:    -6.156      6.436      9.666
REMARK INTER + INTRA:         -12.073
REMARK INTER:                  -9.532
REMARK INTRA:                  -2.541
REMARK UNBOUND:                -2.317
REMARK SMILES C[C@@H]1O[C@H](O[C@@H]2CC[C@]3(C)[C@@H](CC[C@@]4(C)[C@@H]3C=C[C@]35OC[C@@]6(CCC(C)(C)C[C@@H]63)[C@@H](O)C[C@@]45C)[C@@]2(C)CO)[C@@H](O)[C@@H](O[C@H]2O[C@H](CO)[C@H](O)[C@H](O)[C@H]2O)[C@@H]1O
REMARK SMILES IDX 1 1 2 2 54 3 41 4 39 5 4 6 3 7 55 8 42 10 43 11 52 12 44 13
REMARK SMILES IDX 50 14 45 15 48 16 53 17 51 19 46 21 47 22 49 24 5 26 6 27
REMARK SMILES IDX 7 28 35 29 8 30 11 31 36 32 9 33 12 34 10 35 16 36 13 37
REMARK SMILES IDX 14 38 17 39 15 40 33 41 18 42 19 43 32 44 34 45 29 46 20 47
REMARK SMILES IDX 30 48 22 49 28 50 21 51 23 52 25 53 24 54 26 55 27 56 37 57
REMARK SMILES IDX 38 58 31 60 40 62
REMARK H PARENT 55 9 53 18 51 20 47 23 49 25 38 59 31 61 40 63
REMARK Flexibility Score: inf
ROOT
ATOM      1  C   UNL     1     -26.759 -66.269  54.972  1.00  0.00     0.041 C 
ATOM      2  C   UNL     1     -26.729 -66.047  56.495  1.00  0.00     0.150 C 
ATOM      3  C   UNL     1     -25.557 -66.746  57.228  1.00  0.00     0.175 C 
ATOM      4  C   UNL     1     -24.240 -65.976  57.046  1.00  0.00     0.186 C 
ATOM      5  C   UNL     1     -24.466 -64.509  57.457  1.00  0.00     0.202 C 
ATOM      6  C   UNL     1     -25.653 -63.915  56.678  1.00  0.00     0.282 C 
ATOM      7  O   UNL     1     -26.849 -64.671  56.838  1.00  0.00    -0.344 OA
ENDROOT
BRANCH   3   8
ATOM      8  O   UNL     1     -25.433 -68.095  56.843  1.00  0.00    -0.388 OA
ATOM      9  H   UNL     1     -24.922 -68.128  55.993  1.00  0.00     0.211 HD
ENDBRANCH   3   8
BRANCH   4  10
ATOM     10  O   UNL     1     -23.242 -66.572  57.856  1.00  0.00    -0.341 OA
BRANCH  10  11
ATOM     11  C   UNL     1     -22.100 -66.970  57.101  1.00  0.00     0.282 C 
ATOM     12  C   UNL     1     -21.320 -68.072  57.849  1.00  0.00     0.202 C 
ATOM     13  O   UNL     1     -21.275 -65.846  56.827  1.00  0.00    -0.341 OA
ATOM     14  C   UNL     1     -20.659 -67.491  59.118  1.00  0.00     0.179 C 
ATOM     15  C   UNL     1     -20.782 -65.247  58.015  1.00  0.00     0.178 C 
ATOM     16  C   UNL     1     -19.855 -66.226  58.772  1.00  0.00     0.177 C 
BRANCH  12  17
ATOM     17  O   UNL     1     -22.196 -69.115  58.191  1.00  0.00    -0.385 OA
ATOM     18  H   UNL     1     -22.631 -69.413  57.349  1.00  0.00     0.211 HD
ENDBRANCH  12  17
BRANCH  14  19
ATOM     19  O   UNL     1     -19.848 -68.444  59.763  1.00  0.00    -0.387 OA
ATOM     20  H   UNL     1     -20.270 -69.334  59.648  1.00  0.00     0.211 HD
ENDBRANCH  14  19
BRANCH  15  21
ATOM     21  C   UNL     1     -20.042 -63.952  57.650  1.00  0.00     0.191 C 
BRANCH  21  22
ATOM     22  O   UNL     1     -19.853 -63.161  58.794  1.00  0.00    -0.394 OA
ATOM     23  H   UNL     1     -20.619 -63.344  59.398  1.00  0.00     0.210 HD
ENDBRANCH  21  22
ENDBRANCH  15  21
BRANCH  16  24
ATOM     24  O   UNL     1     -18.751 -66.567  57.971  1.00  0.00    -0.387 OA
ATOM     25  H   UNL     1     -18.339 -67.377  58.370  1.00  0.00     0.211 HD
ENDBRANCH  16  24
ENDBRANCH  10  11
ENDBRANCH   4  10
BRANCH   6  26
ATOM     26  O   UNL     1     -25.309 -63.793  55.301  1.00  0.00    -0.346 OA
BRANCH  26  27
ATOM     27  C   UNL     1     -24.282 -62.841  55.062  1.00  0.00     0.130 C 
ATOM     28  C   UNL     1     -24.688 -61.499  55.673  1.00  0.00     0.033 C 
ATOM     29  C   UNL     1     -24.020 -62.694  53.535  1.00  0.00     0.020 C 
ATOM     30  C   UNL     1     -23.522 -60.523  55.650  1.00  0.00     0.010 C 
ATOM     31  C   UNL     1     -22.806 -61.683  53.300  1.00  0.00     0.006 C 
ATOM     32  C   UNL     1     -25.284 -62.167  52.784  1.00  0.00     0.017 C 
ATOM     33  C   UNL     1     -22.753 -60.392  54.262  1.00  0.00    -0.022 C 
ATOM     34  C   UNL     1     -21.408 -62.367  53.183  1.00  0.00     0.005 C 
ATOM     35  C   UNL     1     -23.515 -59.212  53.558  1.00  0.00     0.012 C 
ATOM     36  C   UNL     1     -21.219 -59.969  54.535  1.00  0.00     0.024 C 
ATOM     37  C   UNL     1     -20.342 -61.417  52.595  1.00  0.00     0.008 C 
ATOM     38  C   UNL     1     -20.271 -59.986  53.262  1.00  0.00    -0.017 C 
ATOM     39  C   UNL     1     -20.546 -60.779  55.660  1.00  0.00    -0.024 C 
ATOM     40  C   UNL     1     -20.789 -58.970  52.187  1.00  0.00     0.013 C 
ATOM     41  C   UNL     1     -18.773 -59.552  53.728  1.00  0.00     0.009 C 
ATOM     42  C   UNL     1     -19.233 -60.790  55.914  1.00  0.00     0.005 C 
ATOM     43  C   UNL     1     -18.205 -60.543  54.841  1.00  0.00     0.096 C 
ATOM     44  C   UNL     1     -17.749 -59.538  52.537  1.00  0.00     0.043 C 
ATOM     45  C   UNL     1     -18.820 -58.087  54.304  1.00  0.00     0.015 C 
ATOM     46  C   UNL     1     -16.833 -60.042  55.381  1.00  0.00     0.037 C 
ATOM     47  O   UNL     1     -17.924 -61.811  54.266  1.00  0.00    -0.369 OA
ATOM     48  C   UNL     1     -16.255 -59.528  52.983  1.00  0.00     0.124 C 
ATOM     49  C   UNL     1     -15.968 -60.470  54.200  1.00  0.00     0.026 C 
ATOM     50  C   UNL     1     -16.401 -60.704  56.721  1.00  0.00     0.014 C 
ATOM     51  C   UNL     1     -16.554 -61.854  53.920  1.00  0.00     0.171 C 
ATOM     52  C   UNL     1     -14.442 -60.487  54.507  1.00  0.00     0.013 C 
ATOM     53  C   UNL     1     -14.896 -60.538  57.036  1.00  0.00    -0.035 C 
ATOM     54  C   UNL     1     -14.069 -61.106  55.862  1.00  0.00     0.007 C 
ATOM     55  C   UNL     1     -14.566 -61.342  58.311  1.00  0.00     0.011 C 
ATOM     56  C   UNL     1     -14.542 -59.055  57.303  1.00  0.00     0.011 C 
BRANCH  29  57
ATOM     57  C   UNL     1     -23.730 -64.115  52.941  1.00  0.00     0.165 C 
BRANCH  57  58
ATOM     58  O   UNL     1     -23.320 -65.018  53.935  1.00  0.00    -0.396 OA
ATOM     59  H   UNL     1     -23.254 -65.907  53.494  1.00  0.00     0.210 HD
ENDBRANCH  57  58
ENDBRANCH  29  57
BRANCH  48  60
ATOM     60  O   UNL     1     -15.448 -59.897  51.891  1.00  0.00    -0.392 OA
ATOM     61  H   UNL     1     -15.777 -60.777  51.570  1.00  0.00     0.210 HD
ENDBRANCH  48  60
ENDBRANCH  26  27
ENDBRANCH   6  26
BRANCH   5  62
ATOM     62  O   UNL     1     -24.724 -64.415  58.836  1.00  0.00    -0.385 OA
ATOM     63  H   UNL     1     -24.629 -63.458  59.084  1.00  0.00     0.211 HD
ENDBRANCH   5  62
TORSDOF 14
ENDMDL
MODEL 8
REMARK VINA RESULT:    -6.083      3.788      7.218
REMARK INTER + INTRA:         -11.957
REMARK INTER:                  -9.950
REMARK INTRA:                  -2.007
REMARK UNBOUND:                -2.317
REMARK SMILES C[C@@H]1O[C@H](O[C@@H]2CC[C@]3(C)[C@@H](CC[C@@]4(C)[C@@H]3C=C[C@]35OC[C@@]6(CCC(C)(C)C[C@@H]63)[C@@H](O)C[C@@]45C)[C@@]2(C)CO)[C@@H](O)[C@@H](O[C@H]2O[C@H](CO)[C@H](O)[C@H](O)[C@H]2O)[C@@H]1O
REMARK SMILES IDX 1 1 2 2 54 3 41 4 39 5 4 6 3 7 55 8 42 10 43 11 52 12 44 13
REMARK SMILES IDX 50 14 45 15 48 16 53 17 51 19 46 21 47 22 49 24 5 26 6 27
REMARK SMILES IDX 7 28 35 29 8 30 11 31 36 32 9 33 12 34 10 35 16 36 13 37
REMARK SMILES IDX 14 38 17 39 15 40 33 41 18 42 19 43 32 44 34 45 29 46 20 47
REMARK SMILES IDX 30 48 22 49 28 50 21 51 23 52 25 53 24 54 26 55 27 56 37 57
REMARK SMILES IDX 38 58 31 60 40 62
REMARK H PARENT 55 9 53 18 51 20 47 23 49 25 38 59 31 61 40 63
REMARK Flexibility Score: inf
ROOT
ATOM      1  C   UNL     1     -29.591 -61.475  58.014  1.00  0.00     0.041 C 
ATOM      2  C   UNL     1     -29.994 -61.323  56.536  1.00  0.00     0.150 C 
ATOM      3  C   UNL     1     -29.925 -59.875  55.992  1.00  0.00     0.175 C 
ATOM      4  C   UNL     1     -28.478 -59.457  55.686  1.00  0.00     0.186 C 
ATOM      5  C   UNL     1     -27.843 -60.516  54.765  1.00  0.00     0.202 C 
ATOM      6  C   UNL     1     -27.972 -61.914  55.395  1.00  0.00     0.282 C 
ATOM      7  O   UNL     1     -29.320 -62.258  55.699  1.00  0.00    -0.344 OA
ENDROOT
BRANCH   3   8
ATOM      8  O   UNL     1     -30.563 -58.964  56.855  1.00  0.00    -0.388 OA
ATOM      9  H   UNL     1     -30.521 -59.330  57.776  1.00  0.00     0.211 HD
ENDBRANCH   3   8
BRANCH   4  10
ATOM     10  O   UNL     1     -28.489 -58.189  55.054  1.00  0.00    -0.341 OA
BRANCH  10  11
ATOM     11  C   UNL     1     -27.745 -57.215  55.782  1.00  0.00     0.282 C 
ATOM     12  C   UNL     1     -28.475 -55.856  55.760  1.00  0.00     0.202 C 
ATOM     13  O   UNL     1     -26.430 -57.106  55.256  1.00  0.00    -0.341 OA
ATOM     14  C   UNL     1     -28.448 -55.257  54.338  1.00  0.00     0.179 C 
ATOM     15  C   UNL     1     -26.433 -56.678  53.903  1.00  0.00     0.178 C 
ATOM     16  C   UNL     1     -27.012 -55.249  53.787  1.00  0.00     0.177 C 
BRANCH  12  17
ATOM     17  O   UNL     1     -29.801 -56.030  56.190  1.00  0.00    -0.385 OA
ATOM     18  H   UNL     1     -30.385 -55.641  55.487  1.00  0.00     0.211 HD
ENDBRANCH  12  17
BRANCH  14  19
ATOM     19  O   UNL     1     -29.008 -53.966  54.307  1.00  0.00    -0.387 OA
ATOM     20  H   UNL     1     -28.652 -53.496  53.508  1.00  0.00     0.211 HD
ENDBRANCH  14  19
BRANCH  15  21
ATOM     21  C   UNL     1     -25.000 -56.743  53.356  1.00  0.00     0.191 C 
BRANCH  21  22
ATOM     22  O   UNL     1     -24.080 -56.401  54.360  1.00  0.00    -0.394 OA
ATOM     23  H   UNL     1     -23.499 -57.194  54.497  1.00  0.00     0.210 HD
ENDBRANCH  21  22
ENDBRANCH  15  21
BRANCH  16  24
ATOM     24  O   UNL     1     -26.225 -54.346  54.523  1.00  0.00    -0.387 OA
ATOM     25  H   UNL     1     -25.975 -54.797  55.371  1.00  0.00     0.211 HD
ENDBRANCH  16  24
ENDBRANCH  10  11
ENDBRANCH   4  10
BRANCH   6  26
ATOM     26  O   UNL     1     -27.152 -61.994  56.556  1.00  0.00    -0.346 OA
BRANCH  26  27
ATOM     27  C   UNL     1     -25.784 -62.233  56.261  1.00  0.00     0.130 C 
ATOM     28  C   UNL     1     -25.665 -62.795  54.844  1.00  0.00     0.033 C 
ATOM     29  C   UNL     1     -25.167 -63.217  57.298  1.00  0.00     0.020 C 
ATOM     30  C   UNL     1     -24.210 -62.838  54.404  1.00  0.00     0.010 C 
ATOM     31  C   UNL     1     -23.609 -63.399  56.993  1.00  0.00     0.006 C 
ATOM     32  C   UNL     1     -25.869 -64.610  57.255  1.00  0.00     0.017 C 
ATOM     33  C   UNL     1     -23.189 -63.485  55.440  1.00  0.00    -0.022 C 
ATOM     34  C   UNL     1     -22.676 -62.432  57.786  1.00  0.00     0.005 C 
ATOM     35  C   UNL     1     -23.173 -64.996  55.009  1.00  0.00     0.012 C 
ATOM     36  C   UNL     1     -21.725 -62.838  55.227  1.00  0.00     0.024 C 
ATOM     37  C   UNL     1     -21.200 -62.884  57.749  1.00  0.00     0.008 C 
ATOM     38  C   UNL     1     -20.639 -63.239  56.315  1.00  0.00    -0.017 C 
ATOM     39  C   UNL     1     -21.742 -61.303  55.092  1.00  0.00    -0.024 C 
ATOM     40  C   UNL     1     -20.407 -64.790  56.302  1.00  0.00     0.013 C 
ATOM     41  C   UNL     1     -19.243 -62.487  55.950  1.00  0.00     0.009 C 
ATOM     42  C   UNL     1     -20.660 -60.518  55.150  1.00  0.00     0.005 C 
ATOM     43  C   UNL     1     -19.428 -60.904  55.928  1.00  0.00     0.096 C 
ATOM     44  C   UNL     1     -18.094 -62.816  56.971  1.00  0.00     0.043 C 
ATOM     45  C   UNL     1     -18.749 -62.978  54.538  1.00  0.00     0.015 C 
ATOM     46  C   UNL     1     -18.127 -60.199  55.444  1.00  0.00     0.037 C 
ATOM     47  O   UNL     1     -19.631 -60.417  57.248  1.00  0.00    -0.369 OA
ATOM     48  C   UNL     1     -16.886 -61.832  56.908  1.00  0.00     0.124 C 
ATOM     49  C   UNL     1     -17.317 -60.337  56.729  1.00  0.00     0.026 C 
ATOM     50  C   UNL     1     -18.333 -58.718  55.013  1.00  0.00     0.014 C 
ATOM     51  C   UNL     1     -18.387 -59.989  57.765  1.00  0.00     0.171 C 
ATOM     52  C   UNL     1     -16.064 -59.416  56.789  1.00  0.00     0.013 C 
ATOM     53  C   UNL     1     -17.017 -57.908  54.939  1.00  0.00    -0.035 C 
ATOM     54  C   UNL     1     -16.305 -57.977  56.307  1.00  0.00     0.007 C 
ATOM     55  C   UNL     1     -17.361 -56.435  54.632  1.00  0.00     0.011 C 
ATOM     56  C   UNL     1     -16.102 -58.429  53.805  1.00  0.00     0.011 C 
BRANCH  29  57
ATOM     57  C   UNL     1     -25.425 -62.651  58.736  1.00  0.00     0.165 C 
BRANCH  57  58
ATOM     58  O   UNL     1     -25.541 -61.251  58.730  1.00  0.00    -0.396 OA
ATOM     59  H   UNL     1     -24.851 -60.917  58.096  1.00  0.00     0.210 HD
ENDBRANCH  57  58
ENDBRANCH  29  57
BRANCH  48  60
ATOM     60  O   UNL     1     -16.119 -61.972  58.079  1.00  0.00    -0.392 OA
ATOM     61  H   UNL     1     -15.789 -61.067  58.321  1.00  0.00     0.210 HD
ENDBRANCH  48  60
ENDBRANCH  26  27
ENDBRANCH   6  26
BRANCH   5  62
ATOM     62  O   UNL     1     -28.468 -60.516  53.505  1.00  0.00    -0.385 OA
ATOM     63  H   UNL     1     -29.179 -59.824  53.535  1.00  0.00     0.211 HD
ENDBRANCH   5  62
TORSDOF 14
ENDMDL
MODEL 9
REMARK VINA RESULT:    -6.060      5.802      9.132
REMARK INTER + INTRA:         -11.920
REMARK INTER:                  -9.079
REMARK INTRA:                  -2.841
REMARK UNBOUND:                -2.317
REMARK SMILES C[C@@H]1O[C@H](O[C@@H]2CC[C@]3(C)[C@@H](CC[C@@]4(C)[C@@H]3C=C[C@]35OC[C@@]6(CCC(C)(C)C[C@@H]63)[C@@H](O)C[C@@]45C)[C@@]2(C)CO)[C@@H](O)[C@@H](O[C@H]2O[C@H](CO)[C@H](O)[C@H](O)[C@H]2O)[C@@H]1O
REMARK SMILES IDX 1 1 2 2 54 3 41 4 39 5 4 6 3 7 55 8 42 10 43 11 52 12 44 13
REMARK SMILES IDX 50 14 45 15 48 16 53 17 51 19 46 21 47 22 49 24 5 26 6 27
REMARK SMILES IDX 7 28 35 29 8 30 11 31 36 32 9 33 12 34 10 35 16 36 13 37
REMARK SMILES IDX 14 38 17 39 15 40 33 41 18 42 19 43 32 44 34 45 29 46 20 47
REMARK SMILES IDX 30 48 22 49 28 50 21 51 23 52 25 53 24 54 26 55 27 56 37 57
REMARK SMILES IDX 38 58 31 60 40 62
REMARK H PARENT 55 9 53 18 51 20 47 23 49 25 38 59 31 61 40 63
REMARK Flexibility Score: inf
ROOT
ATOM      1  C   UNL     1     -27.466 -66.295  56.507  1.00  0.00     0.041 C 
ATOM      2  C   UNL     1     -27.768 -65.712  55.114  1.00  0.00     0.150 C 
ATOM      3  C   UNL     1     -27.619 -64.174  55.010  1.00  0.00     0.175 C 
ATOM      4  C   UNL     1     -26.144 -63.756  54.914  1.00  0.00     0.186 C 
ATOM      5  C   UNL     1     -25.483 -64.540  53.766  1.00  0.00     0.202 C 
ATOM      6  C   UNL     1     -25.694 -66.051  53.962  1.00  0.00     0.282 C 
ATOM      7  O   UNL     1     -27.069 -66.402  54.082  1.00  0.00    -0.344 OA
ENDROOT
BRANCH   3   8
ATOM      8  O   UNL     1     -28.284 -63.515  56.062  1.00  0.00    -0.388 OA
ATOM      9  H   UNL     1     -28.690 -62.686  55.700  1.00  0.00     0.211 HD
ENDBRANCH   3   8
BRANCH   4  10
ATOM     10  O   UNL     1     -26.075 -62.361  54.671  1.00  0.00    -0.341 OA
BRANCH  10  11
ATOM     11  C   UNL     1     -24.853 -61.792  55.132  1.00  0.00     0.282 C 
ATOM     12  C   UNL     1     -25.134 -60.533  55.980  1.00  0.00     0.202 C 
ATOM     13  O   UNL     1     -24.002 -61.497  54.034  1.00  0.00    -0.341 OA
ATOM     14  C   UNL     1     -25.680 -59.399  55.087  1.00  0.00     0.179 C 
ATOM     15  C   UNL     1     -24.580 -60.546  53.153  1.00  0.00     0.178 C 
ATOM     16  C   UNL     1     -24.766 -59.188  53.868  1.00  0.00     0.177 C 
BRANCH  12  17
ATOM     17  O   UNL     1     -26.059 -60.846  56.990  1.00  0.00    -0.385 OA
ATOM     18  H   UNL     1     -26.579 -60.019  57.169  1.00  0.00     0.211 HD
ENDBRANCH  12  17
BRANCH  14  19
ATOM     19  O   UNL     1     -25.842 -58.201  55.809  1.00  0.00    -0.387 OA
ATOM     20  H   UNL     1     -26.691 -58.262  56.319  1.00  0.00     0.211 HD
ENDBRANCH  14  19
BRANCH  15  21
ATOM     21  C   UNL     1     -23.684 -60.404  51.915  1.00  0.00     0.191 C 
BRANCH  21  22
ATOM     22  O   UNL     1     -22.332 -60.521  52.276  1.00  0.00    -0.394 OA
ATOM     23  H   UNL     1     -22.311 -60.678  53.256  1.00  0.00     0.210 HD
ENDBRANCH  21  22
ENDBRANCH  15  21
BRANCH  16  24
ATOM     24  O   UNL     1     -23.522 -58.686  54.287  1.00  0.00    -0.387 OA
ATOM     25  H   UNL     1     -23.695 -58.066  55.043  1.00  0.00     0.211 HD
ENDBRANCH  16  24
ENDBRANCH  10  11
ENDBRANCH   4  10
BRANCH   6  26
ATOM     26  O   UNL     1     -24.955 -66.495  55.094  1.00  0.00    -0.346 OA
BRANCH  26  27
ATOM     27  C   UNL     1     -23.626 -65.994  55.128  1.00  0.00     0.130 C 
ATOM     28  C   UNL     1     -22.814 -66.645  54.009  1.00  0.00     0.033 C 
ATOM     29  C   UNL     1     -22.975 -66.270  56.515  1.00  0.00     0.020 C 
ATOM     30  C   UNL     1     -21.463 -65.963  53.859  1.00  0.00     0.010 C 
ATOM     31  C   UNL     1     -21.515 -65.620  56.553  1.00  0.00     0.006 C 
ATOM     32  C   UNL     1     -22.868 -67.800  56.804  1.00  0.00     0.017 C 
ATOM     33  C   UNL     1     -20.642 -65.743  55.205  1.00  0.00    -0.022 C 
ATOM     34  C   UNL     1     -21.465 -64.175  57.138  1.00  0.00     0.005 C 
ATOM     35  C   UNL     1     -19.768 -67.046  55.292  1.00  0.00     0.012 C 
ATOM     36  C   UNL     1     -19.686 -64.451  55.047  1.00  0.00     0.024 C 
ATOM     37  C   UNL     1     -20.028 -63.741  57.499  1.00  0.00     0.008 C 
ATOM     38  C   UNL     1     -18.946 -63.985  56.372  1.00  0.00    -0.017 C 
ATOM     39  C   UNL     1     -20.394 -63.232  54.424  1.00  0.00    -0.024 C 
ATOM     40  C   UNL     1     -18.008 -65.125  56.898  1.00  0.00     0.013 C 
ATOM     41  C   UNL     1     -18.049 -62.672  56.027  1.00  0.00     0.009 C 
ATOM     42  C   UNL     1     -19.903 -61.988  54.408  1.00  0.00     0.005 C 
ATOM     43  C   UNL     1     -18.954 -61.485  55.466  1.00  0.00     0.096 C 
ATOM     44  C   UNL     1     -17.271 -62.125  57.278  1.00  0.00     0.043 C 
ATOM     45  C   UNL     1     -16.965 -63.059  54.953  1.00  0.00     0.015 C 
ATOM     46  C   UNL     1     -18.074 -60.285  55.009  1.00  0.00     0.037 C 
ATOM     47  O   UNL     1     -19.768 -60.959  56.505  1.00  0.00    -0.369 OA
ATOM     48  C   UNL     1     -16.735 -60.670  57.108  1.00  0.00     0.124 C 
ATOM     49  C   UNL     1     -17.749 -59.719  56.387  1.00  0.00     0.026 C 
ATOM     50  C   UNL     1     -18.818 -59.268  54.096  1.00  0.00     0.014 C 
ATOM     51  C   UNL     1     -19.118 -59.833  57.059  1.00  0.00     0.171 C 
ATOM     52  C   UNL     1     -17.184 -58.269  56.359  1.00  0.00     0.013 C 
ATOM     53  C   UNL     1     -18.106 -57.898  53.989  1.00  0.00    -0.035 C 
ATOM     54  C   UNL     1     -17.920 -57.315  55.406  1.00  0.00     0.007 C 
ATOM     55  C   UNL     1     -18.999 -56.940  53.171  1.00  0.00     0.011 C 
ATOM     56  C   UNL     1     -16.750 -58.028  53.255  1.00  0.00     0.011 C 
BRANCH  29  57
ATOM     57  C   UNL     1     -23.910 -65.687  57.629  1.00  0.00     0.165 C 
BRANCH  57  58
ATOM     58  O   UNL     1     -24.528 -66.706  58.372  1.00  0.00    -0.396 OA
ATOM     59  H   UNL     1     -25.423 -66.359  58.632  1.00  0.00     0.210 HD
ENDBRANCH  57  58
ENDBRANCH  29  57
BRANCH  48  60
ATOM     60  O   UNL     1     -16.408 -60.151  58.373  1.00  0.00    -0.392 OA
ATOM     61  H   UNL     1     -16.497 -59.164  58.315  1.00  0.00     0.210 HD
ENDBRANCH  48  60
ENDBRANCH  26  27
ENDBRANCH   6  26
BRANCH   5  62
ATOM     62  O   UNL     1     -26.024 -64.153  52.526  1.00  0.00    -0.385 OA
ATOM     63  H   UNL     1     -25.262 -63.893  51.946  1.00  0.00     0.211 HD
ENDBRANCH   5  62
TORSDOF 14
ENDMDL
