MODEL 1
REMARK VINA RESULT:    -5.177      0.000      0.000
REMARK INTER + INTRA:          -5.329
REMARK INTER:                  -5.329
REMARK INTRA:                   0.000
REMARK UNBOUND:                 0.000
REMARK SMILES Nc1ncnc2nc[nH]c12
REMARK SMILES IDX 8 1 7 2 6 3 5 4 4 5 3 6 2 7 10 8 9 9 1 11
REMARK H PARENT 9 10 1 12 1 13
REMARK Flexibility Score: inf
ROOT
ATOM      1  C   UNL     1      32.677  13.773   2.776  1.00  0.00     0.199 A 
ATOM      2  N   UNL     1      31.923  12.641   2.734  1.00  0.00    -0.217 NA
ATOM      3  C   UNL     1      32.547  11.848   3.620  1.00  0.00     0.182 A 
ATOM      4  N   UNL     1      32.196  10.586   3.963  1.00  0.00    -0.215 NA
ATOM      5  C   UNL     1      32.959   9.933   4.892  1.00  0.00     0.226 A 
ATOM      6  N   UNL     1      34.047  10.549   5.456  1.00  0.00    -0.217 NA
ATOM      7  C   UNL     1      34.403  11.823   5.111  1.00  0.00     0.152 A 
ATOM      8  C   UNL     1      33.616  12.473   4.165  1.00  0.00     0.127 A 
ATOM      9  N   UNL     1      33.721  13.702   3.643  1.00  0.00    -0.340 N 
ATOM     10  H   UNL     1      34.430  14.439   3.845  1.00  0.00     0.168 HD
ENDROOT
BRANCH   7  11
ATOM     11  N   UNL     1      35.541  12.443   5.712  1.00  0.00    -0.382 N 
ATOM     12  H   UNL     1      36.418  11.907   5.897  1.00  0.00     0.158 HD
ATOM     13  H   UNL     1      35.507  13.452   5.975  1.00  0.00     0.158 HD
ENDBRANCH   7  11
TORSDOF 1
ENDMDL
MODEL 2
REMARK VINA RESULT:    -4.909      0.706      2.857
REMARK INTER + INTRA:          -5.053
REMARK INTER:                  -5.053
REMARK INTRA:                   0.000
REMARK UNBOUND:                 0.000
REMARK SMILES Nc1ncnc2nc[nH]c12
REMARK SMILES IDX 8 1 7 2 6 3 5 4 4 5 3 6 2 7 10 8 9 9 1 11
REMARK H PARENT 9 10 1 12 1 13
REMARK Flexibility Score: inf
ROOT
ATOM      1  C   UNL     1      32.786   9.286   4.752  1.00  0.00     0.199 A 
ATOM      2  N   UNL     1      31.881   9.889   3.934  1.00  0.00    -0.217 NA
ATOM      3  C   UNL     1      32.400  11.120   3.792  1.00  0.00     0.182 A 
ATOM      4  N   UNL     1      31.881  12.137   3.063  1.00  0.00    -0.215 NA
ATOM      5  C   UNL     1      32.558  13.324   3.038  1.00  0.00     0.226 A 
ATOM      6  N   UNL     1      33.730  13.473   3.736  1.00  0.00    -0.217 NA
ATOM      7  C   UNL     1      34.255  12.448   4.472  1.00  0.00     0.152 A 
ATOM      8  C   UNL     1      33.554  11.245   4.486  1.00  0.00     0.127 A 
ATOM      9  N   UNL     1      33.821  10.090   5.107  1.00  0.00    -0.340 N 
ATOM     10  H   UNL     1      34.630   9.850   5.721  1.00  0.00     0.168 HD
ENDROOT
BRANCH   7  11
ATOM     11  N   UNL     1      35.476  12.626   5.191  1.00  0.00    -0.382 N 
ATOM     12  H   UNL     1      35.609  13.426   5.848  1.00  0.00     0.158 HD
ATOM     13  H   UNL     1      36.260  11.949   5.065  1.00  0.00     0.158 HD
ENDBRANCH   7  11
TORSDOF 1
ENDMDL
MODEL 3
REMARK VINA RESULT:    -4.796      0.945      3.010
REMARK INTER + INTRA:          -4.937
REMARK INTER:                  -4.937
REMARK INTRA:                   0.000
REMARK UNBOUND:                 0.000
REMARK SMILES Nc1ncnc2nc[nH]c12
REMARK SMILES IDX 8 1 7 2 6 3 5 4 4 5 3 6 2 7 10 8 9 9 1 11
REMARK H PARENT 9 10 1 12 1 13
REMARK Flexibility Score: inf
ROOT
ATOM      1  C   UNL     1      35.436  11.606   6.272  1.00  0.00     0.199 A 
ATOM      2  N   UNL     1      34.548  10.579   6.180  1.00  0.00    -0.217 NA
ATOM      3  C   UNL     1      33.709  11.011   5.225  1.00  0.00     0.182 A 
ATOM      4  N   UNL     1      32.625  10.355   4.744  1.00  0.00    -0.215 NA
ATOM      5  C   UNL     1      31.888  10.960   3.764  1.00  0.00     0.226 A 
ATOM      6  N   UNL     1      32.243  12.196   3.288  1.00  0.00    -0.217 NA
ATOM      7  C   UNL     1      33.335  12.859   3.772  1.00  0.00     0.152 A 
ATOM      8  C   UNL     1      34.076  12.230   4.769  1.00  0.00     0.127 A 
ATOM      9  N   UNL     1      35.175  12.631   5.421  1.00  0.00    -0.340 N 
ATOM     10  H   UNL     1      35.712  13.518   5.311  1.00  0.00     0.168 HD
ENDROOT
BRANCH   7  11
ATOM     11  N   UNL     1      33.686  14.147   3.261  1.00  0.00    -0.382 N 
ATOM     12  H   UNL     1      34.202  14.841   3.844  1.00  0.00     0.158 HD
ATOM     13  H   UNL     1      33.426  14.409   2.285  1.00  0.00     0.158 HD
ENDBRANCH   7  11
TORSDOF 1
ENDMDL
MODEL 4
REMARK VINA RESULT:    -4.476      1.026      3.481
REMARK INTER + INTRA:          -4.606
REMARK INTER:                  -4.606
REMARK INTRA:                   0.000
REMARK UNBOUND:                 0.000
REMARK SMILES Nc1ncnc2nc[nH]c12
REMARK SMILES IDX 8 1 7 2 6 3 5 4 4 5 3 6 2 7 10 8 9 9 1 11
REMARK H PARENT 9 10 1 12 1 13
REMARK Flexibility Score: inf
ROOT
ATOM      1  C   UNL     1      35.369  11.395   6.203  1.00  0.00     0.199 A 
ATOM      2  N   UNL     1      35.070  12.511   5.482  1.00  0.00    -0.217 NA
ATOM      3  C   UNL     1      33.997  12.117   4.778  1.00  0.00     0.182 A 
ATOM      4  N   UNL     1      33.296  12.861   3.889  1.00  0.00    -0.215 NA
ATOM      5  C   UNL     1      32.224  12.283   3.267  1.00  0.00     0.226 A 
ATOM      6  N   UNL     1      31.875  10.986   3.542  1.00  0.00    -0.217 NA
ATOM      7  C   UNL     1      32.581  10.233   4.439  1.00  0.00     0.152 A 
ATOM      8  C   UNL     1      33.669  10.836   5.064  1.00  0.00     0.127 A 
ATOM      9  N   UNL     1      34.529  10.354   5.969  1.00  0.00    -0.340 N 
ATOM     10  H   UNL     1      34.559   9.405   6.402  1.00  0.00     0.168 HD
ENDROOT
BRANCH   7  11
ATOM     11  N   UNL     1      32.199   8.883   4.709  1.00  0.00    -0.382 N 
ATOM     12  H   UNL     1      31.977   8.216   3.937  1.00  0.00     0.158 HD
ATOM     13  H   UNL     1      32.138   8.546   5.694  1.00  0.00     0.158 HD
ENDBRANCH   7  11
TORSDOF 1
ENDMDL
MODEL 5
REMARK VINA RESULT:    -4.392      0.798      2.439
REMARK INTER + INTRA:          -4.521
REMARK INTER:                  -4.521
REMARK INTRA:                   0.000
REMARK UNBOUND:                 0.000
REMARK SMILES Nc1ncnc2nc[nH]c12
REMARK SMILES IDX 8 1 7 2 6 3 5 4 4 5 3 6 2 7 10 8 9 9 1 11
REMARK H PARENT 9 10 1 12 1 13
REMARK Flexibility Score: inf
ROOT
ATOM      1  C   UNL     1      32.250  13.124   2.627  1.00  0.00     0.199 A 
ATOM      2  N   UNL     1      33.369  13.609   3.230  1.00  0.00    -0.217 NA
ATOM      3  C   UNL     1      33.681  12.623   4.087  1.00  0.00     0.182 A 
ATOM      4  N   UNL     1      34.729  12.601   4.946  1.00  0.00    -0.215 NA
ATOM      5  C   UNL     1      34.885  11.502   5.745  1.00  0.00     0.226 A 
ATOM      6  N   UNL     1      33.999  10.457   5.672  1.00  0.00    -0.217 NA
ATOM      7  C   UNL     1      32.942  10.478   4.807  1.00  0.00     0.152 A 
ATOM      8  C   UNL     1      32.798  11.603   4.000  1.00  0.00     0.127 A 
ATOM      9  N   UNL     1      31.875  11.898   3.075  1.00  0.00    -0.340 N 
ATOM     10  H   UNL     1      31.057  11.330   2.764  1.00  0.00     0.168 HD
ENDROOT
BRANCH   7  11
ATOM     11  N   UNL     1      32.033   9.378   4.749  1.00  0.00    -0.382 N 
ATOM     12  H   UNL     1      31.523   9.049   5.598  1.00  0.00     0.158 HD
ATOM     13  H   UNL     1      31.867   8.885   3.845  1.00  0.00     0.158 HD
ENDBRANCH   7  11
TORSDOF 1
ENDMDL
MODEL 6
REMARK VINA RESULT:    -4.007     10.520     12.059
REMARK INTER + INTRA:          -4.124
REMARK INTER:                  -4.124
REMARK INTRA:                   0.000
REMARK UNBOUND:                 0.000
REMARK SMILES Nc1ncnc2nc[nH]c12
REMARK SMILES IDX 8 1 7 2 6 3 5 4 4 5 3 6 2 7 10 8 9 9 1 11
REMARK H PARENT 9 10 1 12 1 13
REMARK Flexibility Score: inf
ROOT
ATOM      1  C   UNL     1      37.547  14.865  15.999  1.00  0.00     0.199 A 
ATOM      2  N   UNL     1      36.778  14.462  17.047  1.00  0.00    -0.217 NA
ATOM      3  C   UNL     1      35.599  14.208  16.456  1.00  0.00     0.182 A 
ATOM      4  N   UNL     1      34.469  13.771  17.060  1.00  0.00    -0.215 NA
ATOM      5  C   UNL     1      33.360  13.567  16.287  1.00  0.00     0.226 A 
ATOM      6  N   UNL     1      33.401  13.801  14.935  1.00  0.00    -0.217 NA
ATOM      7  C   UNL     1      34.541  14.243  14.324  1.00  0.00     0.152 A 
ATOM      8  C   UNL     1      35.661  14.445  15.125  1.00  0.00     0.127 A 
ATOM      9  N   UNL     1      36.892  14.865  14.810  1.00  0.00    -0.340 N 
ATOM     10  H   UNL     1      37.272  15.132  13.875  1.00  0.00     0.168 HD
ENDROOT
BRANCH   7  11
ATOM     11  N   UNL     1      34.559  14.480  12.915  1.00  0.00    -0.382 N 
ATOM     12  H   UNL     1      33.724  14.860  12.417  1.00  0.00     0.158 HD
ATOM     13  H   UNL     1      35.420  14.274  12.362  1.00  0.00     0.158 HD
ENDBRANCH   7  11
TORSDOF 1
ENDMDL
MODEL 7
REMARK VINA RESULT:    -3.952      1.137      2.848
REMARK INTER + INTRA:          -4.067
REMARK INTER:                  -4.067
REMARK INTRA:                   0.000
REMARK UNBOUND:                 0.000
REMARK SMILES Nc1ncnc2nc[nH]c12
REMARK SMILES IDX 8 1 7 2 6 3 5 4 4 5 3 6 2 7 10 8 9 9 1 11
REMARK H PARENT 9 10 1 12 1 13
REMARK Flexibility Score: inf
ROOT
ATOM      1  C   UNL     1      31.875   9.893   3.747  1.00  0.00     0.199 A 
ATOM      2  N   UNL     1      32.629   9.377   4.756  1.00  0.00    -0.217 NA
ATOM      3  C   UNL     1      33.451  10.397   5.049  1.00  0.00     0.182 A 
ATOM      4  N   UNL     1      34.417  10.410   5.999  1.00  0.00    -0.215 NA
ATOM      5  C   UNL     1      35.157  11.550   6.151  1.00  0.00     0.226 A 
ATOM      6  N   UNL     1      34.919  12.645   5.360  1.00  0.00    -0.217 NA
ATOM      7  C   UNL     1      33.946  12.634   4.402  1.00  0.00     0.152 A 
ATOM      8  C   UNL     1      33.201  11.467   4.259  1.00  0.00     0.127 A 
ATOM      9  N   UNL     1      32.201  11.170   3.420  1.00  0.00    -0.340 N 
ATOM     10  H   UNL     1      31.765  11.768   2.685  1.00  0.00     0.168 HD
ENDROOT
BRANCH   7  11
ATOM     11  N   UNL     1      33.717  13.787   3.590  1.00  0.00    -0.382 N 
ATOM     12  H   UNL     1      33.948  14.747   3.931  1.00  0.00     0.158 HD
ATOM     13  H   UNL     1      33.312  13.681   2.634  1.00  0.00     0.158 HD
ENDBRANCH   7  11
TORSDOF 1
ENDMDL
MODEL 8
REMARK VINA RESULT:    -3.818     10.502     11.913
REMARK INTER + INTRA:          -3.930
REMARK INTER:                  -3.930
REMARK INTRA:                   0.000
REMARK UNBOUND:                 0.000
REMARK SMILES Nc1ncnc2nc[nH]c12
REMARK SMILES IDX 8 1 7 2 6 3 5 4 4 5 3 6 2 7 10 8 9 9 1 11
REMARK H PARENT 9 10 1 12 1 13
REMARK Flexibility Score: inf
ROOT
ATOM      1  C   UNL     1      32.022  13.140  16.021  1.00  0.00     0.199 A 
ATOM      2  N   UNL     1      32.823  13.400  17.090  1.00  0.00    -0.217 NA
ATOM      3  C   UNL     1      33.964  13.796  16.502  1.00  0.00     0.182 A 
ATOM      4  N   UNL     1      35.104  14.177  17.125  1.00  0.00    -0.215 NA
ATOM      5  C   UNL     1      36.168  14.551  16.352  1.00  0.00     0.226 A 
ATOM      6  N   UNL     1      36.074  14.537  14.983  1.00  0.00    -0.217 NA
ATOM      7  C   UNL     1      34.924  14.153  14.353  1.00  0.00     0.152 A 
ATOM      8  C   UNL     1      33.850  13.776  15.154  1.00  0.00     0.127 A 
ATOM      9  N   UNL     1      32.621  13.360  14.822  1.00  0.00    -0.340 N 
ATOM     10  H   UNL     1      32.209  13.233  13.873  1.00  0.00     0.168 HD
ENDROOT
BRANCH   7  11
ATOM     11  N   UNL     1      34.850  14.146  12.926  1.00  0.00    -0.382 N 
ATOM     12  H   UNL     1      34.265  13.448  12.416  1.00  0.00     0.158 HD
ATOM     13  H   UNL     1      35.386  14.848  12.372  1.00  0.00     0.158 HD
ENDBRANCH   7  11
TORSDOF 1
ENDMDL
MODEL 9
REMARK VINA RESULT:    -3.517     15.864     16.872
REMARK INTER + INTRA:          -3.619
REMARK INTER:                  -3.619
REMARK INTRA:                   0.000
REMARK UNBOUND:                 0.000
REMARK SMILES Nc1ncnc2nc[nH]c12
REMARK SMILES IDX 8 1 7 2 6 3 5 4 4 5 3 6 2 7 10 8 9 9 1 11
REMARK H PARENT 9 10 1 12 1 13
REMARK Flexibility Score: inf
ROOT
ATOM      1  C   UNL     1      50.607   8.774  -0.902  1.00  0.00     0.199 A 
ATOM      2  N   UNL     1      50.591   7.468  -1.287  1.00  0.00    -0.217 NA
ATOM      3  C   UNL     1      49.284   7.253  -1.511  1.00  0.00     0.182 A 
ATOM      4  N   UNL     1      48.715   6.094  -1.922  1.00  0.00    -0.215 NA
ATOM      5  C   UNL     1      47.360   6.067  -2.098  1.00  0.00     0.226 A 
ATOM      6  N   UNL     1      46.605   7.189  -1.863  1.00  0.00    -0.217 NA
ATOM      7  C   UNL     1      47.177   8.359  -1.449  1.00  0.00     0.152 A 
ATOM      8  C   UNL     1      48.558   8.369  -1.275  1.00  0.00     0.127 A 
ATOM      9  N   UNL     1      49.379   9.353  -0.885  1.00  0.00    -0.340 N 
ATOM     10  H   UNL     1      49.143  10.336  -0.626  1.00  0.00     0.168 HD
ENDROOT
BRANCH   7  11
ATOM     11  N   UNL     1      46.371   9.514  -1.210  1.00  0.00    -0.382 N 
ATOM     12  H   UNL     1      45.740   9.574  -0.381  1.00  0.00     0.158 HD
ATOM     13  H   UNL     1      46.404  10.319  -1.872  1.00  0.00     0.158 HD
ENDBRANCH   7  11
TORSDOF 1
ENDMDL
