MODEL 1
REMARK VINA RESULT:    -3.130      0.000      0.000
REMARK INTER + INTRA:          -3.710
REMARK INTER:                  -3.679
REMARK INTRA:                  -0.031
REMARK UNBOUND:                -0.031
REMARK SMILES O=C([O-])CCC(=O)[O-]
REMARK SMILES IDX 4 1 2 2 1 3 3 4 5 5 6 6 7 7 8 8
REMARK H PARENT
REMARK Flexibility Score: inf
ROOT
ATOM      1  C   UNL     1     119.832 121.660 122.372  1.00  0.00     0.059 C 
ENDROOT
BRANCH   1   2
ATOM      2  C   UNL     1     118.713 120.857 122.963  1.00  0.00     0.042 C 
ATOM      3  O   UNL     1     118.145 121.243 124.017  1.00  0.00    -0.550 OA
ATOM      4  O   UNL     1     118.326 119.661 122.371  1.00  0.00    -0.550 OA
ENDBRANCH   1   2
BRANCH   1   5
ATOM      5  C   UNL     1     119.490 122.153 120.962  1.00  0.00     0.059 C 
BRANCH   5   6
ATOM      6  C   UNL     1     120.054 123.518 120.703  1.00  0.00     0.042 C 
ATOM      7  O   UNL     1     121.150 123.860 121.221  1.00  0.00    -0.550 OA
ATOM      8  O   UNL     1     119.389 124.396 119.859  1.00  0.00    -0.550 OA
ENDBRANCH   5   6
ENDBRANCH   1   5
TORSDOF 3
ENDMDL
MODEL 2
REMARK VINA RESULT:    -3.106     15.521     16.144
REMARK INTER + INTRA:          -3.682
REMARK INTER:                  -3.572
REMARK INTRA:                  -0.111
REMARK UNBOUND:                -0.031
REMARK SMILES O=C([O-])CCC(=O)[O-]
REMARK SMILES IDX 4 1 2 2 1 3 3 4 5 5 6 6 7 7 8 8
REMARK H PARENT
REMARK Flexibility Score: inf
ROOT
ATOM      1  C   UNL     1     120.735 131.763 135.478  1.00  0.00     0.059 C 
ENDROOT
BRANCH   1   2
ATOM      2  C   UNL     1     119.685 132.832 135.516  1.00  0.00     0.042 C 
ATOM      3  O   UNL     1     119.243 133.246 136.618  1.00  0.00    -0.550 OA
ATOM      4  O   UNL     1     119.167 133.341 134.331  1.00  0.00    -0.550 OA
ENDBRANCH   1   2
BRANCH   1   5
ATOM      5  C   UNL     1     120.449 130.727 134.385  1.00  0.00     0.059 C 
BRANCH   5   6
ATOM      6  C   UNL     1     121.558 130.667 133.379  1.00  0.00     0.042 C 
ATOM      7  O   UNL     1     121.816 129.587 132.784  1.00  0.00    -0.550 OA
ATOM      8  O   UNL     1     122.280 131.812 133.070  1.00  0.00    -0.550 OA
ENDBRANCH   5   6
ENDBRANCH   1   5
TORSDOF 3
ENDMDL
MODEL 3
REMARK VINA RESULT:    -3.088     15.538     16.240
REMARK INTER + INTRA:          -3.661
REMARK INTER:                  -3.540
REMARK INTRA:                  -0.121
REMARK UNBOUND:                -0.031
REMARK SMILES O=C([O-])CCC(=O)[O-]
REMARK SMILES IDX 4 1 2 2 1 3 3 4 5 5 6 6 7 7 8 8
REMARK H PARENT
REMARK Flexibility Score: inf
ROOT
ATOM      1  C   UNL     1     120.478 130.638 134.543  1.00  0.00     0.059 C 
ENDROOT
BRANCH   1   2
ATOM      2  C   UNL     1     121.502 130.625 133.449  1.00  0.00     0.042 C 
ATOM      3  O   UNL     1     121.771 129.554 132.847  1.00  0.00    -0.550 OA
ATOM      4  O   UNL     1     122.188 131.789 133.124  1.00  0.00    -0.550 OA
ENDBRANCH   1   2
BRANCH   1   5
ATOM      5  C   UNL     1     120.756 131.747 135.564  1.00  0.00     0.059 C 
BRANCH   5   6
ATOM      6  C   UNL     1     119.700 132.810 135.524  1.00  0.00     0.042 C 
ATOM      7  O   UNL     1     119.288 133.336 136.592  1.00  0.00    -0.550 OA
ATOM      8  O   UNL     1     119.200 133.248 134.305  1.00  0.00    -0.550 OA
ENDBRANCH   5   6
ENDBRANCH   1   5
TORSDOF 3
ENDMDL
MODEL 4
REMARK VINA RESULT:    -3.081     15.308     16.024
REMARK INTER + INTRA:          -3.653
REMARK INTER:                  -3.610
REMARK INTRA:                  -0.043
REMARK UNBOUND:                -0.031
REMARK SMILES O=C([O-])CCC(=O)[O-]
REMARK SMILES IDX 4 1 2 2 1 3 3 4 5 5 6 6 7 7 8 8
REMARK H PARENT
REMARK Flexibility Score: inf
ROOT
ATOM      1  C   UNL     1     120.478 130.409 134.624  1.00  0.00     0.059 C 
ENDROOT
BRANCH   1   2
ATOM      2  C   UNL     1     121.360 129.859 133.544  1.00  0.00     0.042 C 
ATOM      3  O   UNL     1     121.543 130.510 132.483  1.00  0.00    -0.550 OA
ATOM      4  O   UNL     1     121.948 128.608 133.694  1.00  0.00    -0.550 OA
ENDBRANCH   1   2
BRANCH   1   5
ATOM      5  C   UNL     1     120.115 131.875 134.365  1.00  0.00     0.059 C 
BRANCH   5   6
ATOM      6  C   UNL     1     119.848 132.611 135.643  1.00  0.00     0.042 C 
ATOM      7  O   UNL     1     119.372 133.777 135.617  1.00  0.00    -0.550 OA
ATOM      8  O   UNL     1     120.087 131.994 136.864  1.00  0.00    -0.550 OA
ENDBRANCH   5   6
ENDBRANCH   1   5
TORSDOF 3
ENDMDL
MODEL 5
REMARK VINA RESULT:    -3.081     21.217     22.258
REMARK INTER + INTRA:          -3.652
REMARK INTER:                  -3.602
REMARK INTRA:                  -0.051
REMARK UNBOUND:                -0.031
REMARK SMILES O=C([O-])CCC(=O)[O-]
REMARK SMILES IDX 4 1 2 2 1 3 3 4 5 5 6 6 7 7 8 8
REMARK H PARENT
REMARK Flexibility Score: inf
ROOT
ATOM      1  C   UNL     1     135.103 132.481 134.318  1.00  0.00     0.059 C 
ENDROOT
BRANCH   1   2
ATOM      2  C   UNL     1     135.847 132.172 135.581  1.00  0.00     0.042 C 
ATOM      3  O   UNL     1     137.101 132.276 135.618  1.00  0.00    -0.550 OA
ATOM      4  O   UNL     1     135.160 131.730 136.705  1.00  0.00    -0.550 OA
ENDBRANCH   1   2
BRANCH   1   5
ATOM      5  C   UNL     1     133.646 132.866 134.600  1.00  0.00     0.059 C 
BRANCH   5   6
ATOM      6  C   UNL     1     132.724 132.353 133.535  1.00  0.00     0.042 C 
ATOM      7  O   UNL     1     133.192 131.819 132.494  1.00  0.00    -0.550 OA
ATOM      8  O   UNL     1     131.349 132.429 133.710  1.00  0.00    -0.550 OA
ENDBRANCH   5   6
ENDBRANCH   1   5
TORSDOF 3
ENDMDL
MODEL 6
REMARK VINA RESULT:    -3.069     21.215     22.279
REMARK INTER + INTRA:          -3.638
REMARK INTER:                  -3.584
REMARK INTRA:                  -0.054
REMARK UNBOUND:                -0.031
REMARK SMILES O=C([O-])CCC(=O)[O-]
REMARK SMILES IDX 4 1 2 2 1 3 3 4 5 5 6 6 7 7 8 8
REMARK H PARENT
REMARK Flexibility Score: inf
ROOT
ATOM      1  C   UNL     1     133.650 132.882 134.592  1.00  0.00     0.059 C 
ENDROOT
BRANCH   1   2
ATOM      2  C   UNL     1     132.744 132.333 133.532  1.00  0.00     0.042 C 
ATOM      3  O   UNL     1     133.228 131.804 132.498  1.00  0.00    -0.550 OA
ATOM      4  O   UNL     1     131.365 132.442 133.668  1.00  0.00    -0.550 OA
ENDBRANCH   1   2
BRANCH   1   5
ATOM      5  C   UNL     1     135.111 132.492 134.344  1.00  0.00     0.059 C 
BRANCH   5   6
ATOM      6  C   UNL     1     135.810 132.137 135.622  1.00  0.00     0.042 C 
ATOM      7  O   UNL     1     137.032 132.405 135.772  1.00  0.00    -0.550 OA
ATOM      8  O   UNL     1     135.103 131.546 136.660  1.00  0.00    -0.550 OA
ENDBRANCH   5   6
ENDBRANCH   1   5
TORSDOF 3
ENDMDL
MODEL 7
REMARK VINA RESULT:    -3.016      2.122      2.885
REMARK INTER + INTRA:          -3.577
REMARK INTER:                  -3.522
REMARK INTRA:                  -0.055
REMARK UNBOUND:                -0.031
REMARK SMILES O=C([O-])CCC(=O)[O-]
REMARK SMILES IDX 4 1 2 2 1 3 3 4 5 5 6 6 7 7 8 8
REMARK H PARENT
REMARK Flexibility Score: inf
ROOT
ATOM      1  C   UNL     1     120.442 123.465 120.924  1.00  0.00     0.059 C 
ENDROOT
BRANCH   1   2
ATOM      2  C   UNL     1     119.892 122.784 122.140  1.00  0.00     0.042 C 
ATOM      3  O   UNL     1     120.473 121.775 122.617  1.00  0.00    -0.550 OA
ATOM      4  O   UNL     1     118.716 123.240 122.722  1.00  0.00    -0.550 OA
ENDBRANCH   1   2
BRANCH   1   5
ATOM      5  C   UNL     1     119.342 124.179 120.130  1.00  0.00     0.059 C 
BRANCH   5   6
ATOM      6  C   UNL     1     118.870 123.350 118.974  1.00  0.00     0.042 C 
ATOM      7  O   UNL     1     118.386 123.904 117.952  1.00  0.00    -0.550 OA
ATOM      8  O   UNL     1     119.001 121.968 119.011  1.00  0.00    -0.550 OA
ENDBRANCH   5   6
ENDBRANCH   1   5
TORSDOF 3
ENDMDL
MODEL 8
REMARK VINA RESULT:    -3.009     14.640     15.923
REMARK INTER + INTRA:          -3.568
REMARK INTER:                  -3.452
REMARK INTRA:                  -0.116
REMARK UNBOUND:                -0.031
REMARK SMILES O=C([O-])CCC(=O)[O-]
REMARK SMILES IDX 4 1 2 2 1 3 3 4 5 5 6 6 7 7 8 8
REMARK H PARENT
REMARK Flexibility Score: inf
ROOT
ATOM      1  C   UNL     1     128.909 120.138 134.093  1.00  0.00     0.059 C 
ENDROOT
BRANCH   1   2
ATOM      2  C   UNL     1     128.323 121.151 133.157  1.00  0.00     0.042 C 
ATOM      3  O   UNL     1     129.072 121.949 132.537  1.00  0.00    -0.550 OA
ATOM      4  O   UNL     1     126.944 121.239 133.000  1.00  0.00    -0.550 OA
ENDBRANCH   1   2
BRANCH   1   5
ATOM      5  C   UNL     1     127.930 118.992 134.371  1.00  0.00     0.059 C 
BRANCH   5   6
ATOM      6  C   UNL     1     127.509 118.964 135.810  1.00  0.00     0.042 C 
ATOM      7  O   UNL     1     127.493 117.876 136.444  1.00  0.00    -0.550 OA
ATOM      8  O   UNL     1     127.174 120.144 136.459  1.00  0.00    -0.550 OA
ENDBRANCH   5   6
ENDBRANCH   1   5
TORSDOF 3
ENDMDL
MODEL 9
REMARK VINA RESULT:    -2.924     14.770     15.636
REMARK INTER + INTRA:          -3.468
REMARK INTER:                  -3.377
REMARK INTRA:                  -0.090
REMARK UNBOUND:                -0.031
REMARK SMILES O=C([O-])CCC(=O)[O-]
REMARK SMILES IDX 4 1 2 2 1 3 3 4 5 5 6 6 7 7 8 8
REMARK H PARENT
REMARK Flexibility Score: inf
ROOT
ATOM      1  C   UNL     1     128.005 119.019 134.414  1.00  0.00     0.059 C 
ENDROOT
BRANCH   1   2
ATOM      2  C   UNL     1     127.777 118.901 135.890  1.00  0.00     0.042 C 
ATOM      3  O   UNL     1     127.225 117.875 136.366  1.00  0.00    -0.550 OA
ATOM      4  O   UNL     1     128.138 119.943 136.736  1.00  0.00    -0.550 OA
ENDBRANCH   1   2
BRANCH   1   5
ATOM      5  C   UNL     1     128.947 120.180 134.078  1.00  0.00     0.059 C 
BRANCH   5   6
ATOM      6  C   UNL     1     128.287 121.186 133.184  1.00  0.00     0.042 C 
ATOM      7  O   UNL     1     127.033 121.205 133.069  1.00  0.00    -0.550 OA
ATOM      8  O   UNL     1     129.054 122.126 132.510  1.00  0.00    -0.550 OA
ENDBRANCH   5   6
ENDBRANCH   1   5
TORSDOF 3
ENDMDL
