MODEL 1
REMARK VINA RESULT:    -5.917      0.000      0.000
REMARK INTER + INTRA:          -6.296
REMARK INTER:                  -6.263
REMARK INTRA:                  -0.033
REMARK UNBOUND:                -0.033
REMARK SMILES COc1ccc2ccc(=O)oc2c1
REMARK SMILES IDX 3 1 13 2 12 3 6 4 5 5 4 6 7 7 8 8 9 9 10 10 11 11 2 12 1 13
REMARK H PARENT
REMARK Flexibility Score: inf
ROOT
ATOM      1  C   UNL     1      -3.832   8.594  -0.059  1.00  0.00     0.122 A 
ATOM      2  C   UNL     1      -2.825   9.434   0.458  1.00  0.00     0.094 A 
ATOM      3  C   UNL     1      -1.533   8.939   0.665  1.00  0.00     0.142 A 
ATOM      4  C   UNL     1      -1.236   7.594   0.356  1.00  0.00     0.018 A 
ATOM      5  C   UNL     1      -2.237   6.760  -0.157  1.00  0.00     0.016 A 
ATOM      6  C   UNL     1      -3.526   7.260  -0.362  1.00  0.00     0.047 A 
ATOM      7  C   UNL     1       0.064   7.130   0.575  1.00  0.00     0.019 A 
ATOM      8  C   UNL     1       1.024   8.002   1.088  1.00  0.00     0.094 A 
ATOM      9  C   UNL     1       0.659   9.322   1.372  1.00  0.00     0.336 A 
ATOM     10  O   UNL     1       1.511  10.125   1.835  1.00  0.00    -0.246 OA
ATOM     11  O   UNL     1      -0.586   9.738   1.153  1.00  0.00    -0.423 OA
ENDROOT
BRANCH   1  12
ATOM     12  O   UNL     1      -5.142   9.042  -0.285  1.00  0.00    -0.497 OA
ATOM     13  C   UNL     1      -5.796   9.011  -1.550  1.00  0.00     0.278 C 
ENDBRANCH   1  12
TORSDOF 1
ENDMDL
MODEL 2
REMARK VINA RESULT:    -5.669      1.473      2.187
REMARK INTER + INTRA:          -6.033
REMARK INTER:                  -6.000
REMARK INTRA:                  -0.033
REMARK UNBOUND:                -0.033
REMARK SMILES COc1ccc2ccc(=O)oc2c1
REMARK SMILES IDX 3 1 13 2 12 3 6 4 5 5 4 6 7 7 8 8 9 9 10 10 11 11 2 12 1 13
REMARK H PARENT
REMARK Flexibility Score: inf
ROOT
ATOM      1  C   UNL     1      -3.762   8.393  -0.042  1.00  0.00     0.122 A 
ATOM      2  C   UNL     1      -2.703   7.463  -0.013  1.00  0.00     0.094 A 
ATOM      3  C   UNL     1      -1.425   7.861   0.393  1.00  0.00     0.142 A 
ATOM      4  C   UNL     1      -1.195   9.200   0.776  1.00  0.00     0.018 A 
ATOM      5  C   UNL     1      -2.246  10.125   0.748  1.00  0.00     0.016 A 
ATOM      6  C   UNL     1      -3.521   9.720   0.340  1.00  0.00     0.047 A 
ATOM      7  C   UNL     1       0.094   9.568   1.177  1.00  0.00     0.019 A 
ATOM      8  C   UNL     1       1.106   8.609   1.188  1.00  0.00     0.094 A 
ATOM      9  C   UNL     1       0.805   7.301   0.795  1.00  0.00     0.336 A 
ATOM     10  O   UNL     1       1.705   6.420   0.797  1.00  0.00    -0.246 OA
ATOM     11  O   UNL     1      -0.429   6.978   0.418  1.00  0.00    -0.423 OA
ENDROOT
BRANCH   1  12
ATOM     12  O   UNL     1      -5.060   8.043  -0.442  1.00  0.00    -0.497 OA
ATOM     13  C   UNL     1      -5.750   8.631  -1.540  1.00  0.00     0.278 C 
ENDBRANCH   1  12
TORSDOF 1
ENDMDL
MODEL 3
REMARK VINA RESULT:    -5.579      8.448      9.717
REMARK INTER + INTRA:          -5.938
REMARK INTER:                  -5.898
REMARK INTRA:                  -0.040
REMARK UNBOUND:                -0.033
REMARK SMILES COc1ccc2ccc(=O)oc2c1
REMARK SMILES IDX 3 1 13 2 12 3 6 4 5 5 4 6 7 7 8 8 9 9 10 10 11 11 2 12 1 13
REMARK H PARENT
REMARK Flexibility Score: inf
ROOT
ATOM      1  C   UNL     1      -0.070   0.947   1.926  1.00  0.00     0.122 A 
ATOM      2  C   UNL     1       0.225  -0.381   1.555  1.00  0.00     0.094 A 
ATOM      3  C   UNL     1       0.908  -0.645   0.364  1.00  0.00     0.142 A 
ATOM      4  C   UNL     1       1.304   0.422  -0.472  1.00  0.00     0.018 A 
ATOM      5  C   UNL     1       1.012   1.741  -0.104  1.00  0.00     0.016 A 
ATOM      6  C   UNL     1       0.328   1.998   1.089  1.00  0.00     0.047 A 
ATOM      7  C   UNL     1       1.986   0.126  -1.656  1.00  0.00     0.019 A 
ATOM      8  C   UNL     1       2.253  -1.205  -1.977  1.00  0.00     0.094 A 
ATOM      9  C   UNL     1       1.830  -2.211  -1.102  1.00  0.00     0.336 A 
ATOM     10  O   UNL     1       2.062  -3.418  -1.373  1.00  0.00    -0.246 OA
ATOM     11  O   UNL     1       1.184  -1.901   0.019  1.00  0.00    -0.423 OA
ENDROOT
BRANCH   1  12
ATOM     12  O   UNL     1      -0.752   1.263   3.110  1.00  0.00    -0.497 OA
ATOM     13  C   UNL     1      -1.159   2.577   3.478  1.00  0.00     0.278 C 
ENDBRANCH   1  12
TORSDOF 1
ENDMDL
MODEL 4
REMARK VINA RESULT:    -5.552      1.747      5.140
REMARK INTER + INTRA:          -5.910
REMARK INTER:                  -5.877
REMARK INTRA:                  -0.033
REMARK UNBOUND:                -0.033
REMARK SMILES COc1ccc2ccc(=O)oc2c1
REMARK SMILES IDX 3 1 13 2 12 3 6 4 5 5 4 6 7 7 8 8 9 9 10 10 11 11 2 12 1 13
REMARK H PARENT
REMARK Flexibility Score: inf
ROOT
ATOM      1  C   UNL     1       0.524   7.423   0.765  1.00  0.00     0.122 A 
ATOM      2  C   UNL     1      -0.768   7.020   0.370  1.00  0.00     0.094 A 
ATOM      3  C   UNL     1      -1.834   7.923   0.418  1.00  0.00     0.142 A 
ATOM      4  C   UNL     1      -1.617   9.245   0.863  1.00  0.00     0.018 A 
ATOM      5  C   UNL     1      -0.334   9.647   1.255  1.00  0.00     0.016 A 
ATOM      6  C   UNL     1       0.728   8.738   1.205  1.00  0.00     0.047 A 
ATOM      7  C   UNL     1      -2.703  10.125   0.899  1.00  0.00     0.019 A 
ATOM      8  C   UNL     1      -3.961   9.676   0.498  1.00  0.00     0.094 A 
ATOM      9  C   UNL     1      -4.102   8.352   0.069  1.00  0.00     0.336 A 
ATOM     10  O   UNL     1      -5.230   7.927  -0.297  1.00  0.00    -0.246 OA
ATOM     11  O   UNL     1      -3.052   7.536   0.044  1.00  0.00    -0.423 OA
ENDROOT
BRANCH   1  12
ATOM     12  O   UNL     1       1.625   6.555   0.735  1.00  0.00    -0.497 OA
ATOM     13  C   UNL     1       2.809   6.783  -0.024  1.00  0.00     0.278 C 
ENDBRANCH   1  12
TORSDOF 1
ENDMDL
MODEL 5
REMARK VINA RESULT:    -5.227      1.093      4.813
REMARK INTER + INTRA:          -5.565
REMARK INTER:                  -5.532
REMARK INTRA:                  -0.033
REMARK UNBOUND:                -0.033
REMARK SMILES COc1ccc2ccc(=O)oc2c1
REMARK SMILES IDX 3 1 13 2 12 3 6 4 5 5 4 6 7 7 8 8 9 9 10 10 11 11 2 12 1 13
REMARK H PARENT
REMARK Flexibility Score: inf
ROOT
ATOM      1  C   UNL     1      -0.198   9.266   0.745  1.00  0.00     0.122 A 
ATOM      2  C   UNL     1      -1.394   9.945   0.437  1.00  0.00     0.094 A 
ATOM      3  C   UNL     1      -2.556   9.226   0.140  1.00  0.00     0.142 A 
ATOM      4  C   UNL     1      -2.532   7.814   0.150  1.00  0.00     0.018 A 
ATOM      5  C   UNL     1      -1.345   7.139   0.456  1.00  0.00     0.016 A 
ATOM      6  C   UNL     1      -0.186   7.864   0.752  1.00  0.00     0.047 A 
ATOM      7  C   UNL     1      -3.711   7.125  -0.152  1.00  0.00     0.019 A 
ATOM      8  C   UNL     1      -4.867   7.844  -0.450  1.00  0.00     0.094 A 
ATOM      9  C   UNL     1      -4.817   9.242  -0.441  1.00  0.00     0.336 A 
ATOM     10  O   UNL     1      -5.851   9.910  -0.708  1.00  0.00    -0.246 OA
ATOM     11  O   UNL     1      -3.683   9.873  -0.151  1.00  0.00    -0.423 OA
ENDROOT
BRANCH   1  12
ATOM     12  O   UNL     1       0.993   9.941   1.050  1.00  0.00    -0.497 OA
ATOM     13  C   UNL     1       1.499  10.125   2.368  1.00  0.00     0.278 C 
ENDBRANCH   1  12
TORSDOF 1
ENDMDL
MODEL 6
REMARK VINA RESULT:    -5.071      9.549     10.247
REMARK INTER + INTRA:          -5.401
REMARK INTER:                  -5.368
REMARK INTRA:                  -0.032
REMARK UNBOUND:                -0.033
REMARK SMILES COc1ccc2ccc(=O)oc2c1
REMARK SMILES IDX 3 1 13 2 12 3 6 4 5 5 4 6 7 7 8 8 9 9 10 10 11 11 2 12 1 13
REMARK H PARENT
REMARK Flexibility Score: inf
ROOT
ATOM      1  C   UNL     1       2.557   0.342  -2.548  1.00  0.00     0.122 A 
ATOM      2  C   UNL     1       2.529   0.330  -1.138  1.00  0.00     0.094 A 
ATOM      3  C   UNL     1       1.400  -0.137  -0.459  1.00  0.00     0.142 A 
ATOM      4  C   UNL     1       0.283  -0.601  -1.187  1.00  0.00     0.018 A 
ATOM      5  C   UNL     1       0.309  -0.590  -2.587  1.00  0.00     0.016 A 
ATOM      6  C   UNL     1       1.441  -0.120  -3.260  1.00  0.00     0.047 A 
ATOM      7  C   UNL     1      -0.831  -1.062  -0.479  1.00  0.00     0.019 A 
ATOM      8  C   UNL     1      -0.807  -1.053   0.915  1.00  0.00     0.094 A 
ATOM      9  C   UNL     1       0.335  -0.579   1.571  1.00  0.00     0.336 A 
ATOM     10  O   UNL     1       0.376  -0.562   2.829  1.00  0.00    -0.246 OA
ATOM     11  O   UNL     1       1.381  -0.146   0.872  1.00  0.00    -0.423 OA
ENDROOT
BRANCH   1  12
ATOM     12  O   UNL     1       3.665   0.802  -3.274  1.00  0.00    -0.497 OA
ATOM     13  C   UNL     1       4.436  -0.004  -4.161  1.00  0.00     0.278 C 
ENDBRANCH   1  12
TORSDOF 1
ENDMDL
MODEL 7
REMARK VINA RESULT:    -5.047     12.427     13.823
REMARK INTER + INTRA:          -5.375
REMARK INTER:                  -5.338
REMARK INTRA:                  -0.037
REMARK UNBOUND:                -0.033
REMARK SMILES COc1ccc2ccc(=O)oc2c1
REMARK SMILES IDX 3 1 13 2 12 3 6 4 5 5 4 6 7 7 8 8 9 9 10 10 11 11 2 12 1 13
REMARK H PARENT
REMARK Flexibility Score: inf
ROOT
ATOM      1  C   UNL     1      -2.200  -1.257  -9.204  1.00  0.00     0.122 A 
ATOM      2  C   UNL     1      -3.490  -1.512  -8.696  1.00  0.00     0.094 A 
ATOM      3  C   UNL     1      -4.420  -0.474  -8.580  1.00  0.00     0.142 A 
ATOM      4  C   UNL     1      -4.065   0.835  -8.973  1.00  0.00     0.018 A 
ATOM      5  C   UNL     1      -2.784   1.089  -9.478  1.00  0.00     0.016 A 
ATOM      6  C   UNL     1      -1.860   0.046  -9.591  1.00  0.00     0.047 A 
ATOM      7  C   UNL     1      -5.017   1.851  -8.844  1.00  0.00     0.019 A 
ATOM      8  C   UNL     1      -6.279   1.546  -8.336  1.00  0.00     0.094 A 
ATOM      9  C   UNL     1      -6.560   0.226  -7.966  1.00  0.00     0.336 A 
ATOM     10  O   UNL     1      -7.694  -0.070  -7.505  1.00  0.00    -0.246 OA
ATOM     11  O   UNL     1      -5.636  -0.721  -8.099  1.00  0.00    -0.423 OA
ENDROOT
BRANCH   1  12
ATOM     12  O   UNL     1      -1.233  -2.264  -9.340  1.00  0.00    -0.497 OA
ATOM     13  C   UNL     1      -1.518  -3.607  -9.720  1.00  0.00     0.278 C 
ENDBRANCH   1  12
TORSDOF 1
ENDMDL
MODEL 8
REMARK VINA RESULT:    -5.031     12.499     13.023
REMARK INTER + INTRA:          -5.358
REMARK INTER:                  -5.324
REMARK INTRA:                  -0.034
REMARK UNBOUND:                -0.033
REMARK SMILES COc1ccc2ccc(=O)oc2c1
REMARK SMILES IDX 3 1 13 2 12 3 6 4 5 5 4 6 7 7 8 8 9 9 10 10 11 11 2 12 1 13
REMARK H PARENT
REMARK Flexibility Score: inf
ROOT
ATOM      1  C   UNL     1      -5.430   0.219  -8.619  1.00  0.00     0.122 A 
ATOM      2  C   UNL     1      -4.469  -0.812  -8.610  1.00  0.00     0.094 A 
ATOM      3  C   UNL     1      -3.142  -0.543  -8.962  1.00  0.00     0.142 A 
ATOM      4  C   UNL     1      -2.764   0.768  -9.326  1.00  0.00     0.018 A 
ATOM      5  C   UNL     1      -3.718   1.792  -9.334  1.00  0.00     0.016 A 
ATOM      6  C   UNL     1      -5.042   1.516  -8.982  1.00  0.00     0.047 A 
ATOM      7  C   UNL     1      -1.430   1.005  -9.672  1.00  0.00     0.019 A 
ATOM      8  C   UNL     1      -0.519  -0.050  -9.647  1.00  0.00     0.094 A 
ATOM      9  C   UNL     1      -0.965  -1.323  -9.276  1.00  0.00     0.336 A 
ATOM     10  O   UNL     1      -0.158  -2.289  -9.248  1.00  0.00    -0.246 OA
ATOM     11  O   UNL     1      -2.239  -1.521  -8.952  1.00  0.00    -0.423 OA
ENDROOT
BRANCH   1  12
ATOM     12  O   UNL     1      -6.772  -0.001  -8.275  1.00  0.00    -0.497 OA
ATOM     13  C   UNL     1      -7.489   0.757  -7.305  1.00  0.00     0.278 C 
ENDBRANCH   1  12
TORSDOF 1
ENDMDL
MODEL 9
REMARK VINA RESULT:    -4.947      8.369      9.900
REMARK INTER + INTRA:          -5.269
REMARK INTER:                  -5.235
REMARK INTRA:                  -0.033
REMARK UNBOUND:                -0.033
REMARK SMILES COc1ccc2ccc(=O)oc2c1
REMARK SMILES IDX 3 1 13 2 12 3 6 4 5 5 4 6 7 7 8 8 9 9 10 10 11 11 2 12 1 13
REMARK H PARENT
REMARK Flexibility Score: inf
ROOT
ATOM      1  C   UNL     1       1.552  -1.660  -0.914  1.00  0.00     0.122 A 
ATOM      2  C   UNL     1       0.905  -1.397   0.310  1.00  0.00     0.094 A 
ATOM      3  C   UNL     1       0.608  -0.081   0.682  1.00  0.00     0.142 A 
ATOM      4  C   UNL     1       0.957   0.987  -0.173  1.00  0.00     0.018 A 
ATOM      5  C   UNL     1       1.600   0.725  -1.389  1.00  0.00     0.016 A 
ATOM      6  C   UNL     1       1.894  -0.592  -1.754  1.00  0.00     0.047 A 
ATOM      7  C   UNL     1       0.647   2.290   0.227  1.00  0.00     0.019 A 
ATOM      8  C   UNL     1       0.006   2.497   1.448  1.00  0.00     0.094 A 
ATOM      9  C   UNL     1      -0.310   1.390   2.244  1.00  0.00     0.336 A 
ATOM     10  O   UNL     1      -0.889   1.556   3.350  1.00  0.00    -0.246 OA
ATOM     11  O   UNL     1      -0.004   0.161   1.839  1.00  0.00    -0.423 OA
ENDROOT
BRANCH   1  12
ATOM     12  O   UNL     1       1.871  -2.961  -1.331  1.00  0.00    -0.497 OA
ATOM     13  C   UNL     1       2.889  -3.767  -0.746  1.00  0.00     0.278 C 
ENDBRANCH   1  12
TORSDOF 1
ENDMDL
