MODEL 1
REMARK VINA RESULT:    -3.301      0.000      0.000
REMARK INTER + INTRA:          -7.916
REMARK INTER:                  -5.809
REMARK INTRA:                  -2.107
REMARK UNBOUND:                -2.107
REMARK SMILES CCCCCCC=CCCCCCCCC(=O)[O-]
REMARK SMILES IDX 10 1 11 2 12 3 13 4 14 5 15 6 16 7 17 8 18 9 9 10 8 11 7 12
REMARK SMILES IDX 6 13 5 14 4 15 3 16 2 17 1 18
REMARK H PARENT
REMARK Flexibility Score: inf
ROOT
ATOM      1  C   UNL     1      -8.897   4.896  37.494  1.00  0.00     0.004 C 
ENDROOT
BRANCH   1   2
ATOM      2  C   UNL     1      -7.642   5.018  38.374  1.00  0.00     0.000 C 
BRANCH   2   3
ATOM      3  C   UNL     1      -7.607   3.968  39.498  1.00  0.00     0.000 C 
BRANCH   3   4
ATOM      4  C   UNL     1      -6.249   3.252  39.592  1.00  0.00     0.000 C 
BRANCH   4   5
ATOM      5  C   UNL     1      -5.805   2.643  38.251  1.00  0.00     0.006 C 
BRANCH   5   6
ATOM      6  C   UNL     1      -6.152   1.151  38.149  1.00  0.00     0.053 C 
BRANCH   6   7
ATOM      7  C   UNL     1      -4.959   0.284  38.411  1.00  0.00     0.041 C 
ATOM      8  O   UNL     1      -5.092  -0.964  38.510  1.00  0.00    -0.550 OA
ATOM      9  O   UNL     1      -3.694   0.851  38.511  1.00  0.00    -0.550 OA
ENDBRANCH   6   7
ENDBRANCH   5   6
ENDBRANCH   4   5
ENDBRANCH   3   4
ENDBRANCH   2   3
ENDBRANCH   1   2
BRANCH   1  10
ATOM     10  C   UNL     1      -8.632   4.132  36.187  1.00  0.00     0.027 C 
BRANCH  10  11
ATOM     11  C   UNL     1      -9.894   3.507  35.661  1.00  0.00    -0.031 C 
ATOM     12  C   UNL     1     -11.103   3.996  35.973  1.00  0.00    -0.031 C 
BRANCH  12  13
ATOM     13  C   UNL     1     -12.365   3.370  35.447  1.00  0.00     0.027 C 
BRANCH  13  14
ATOM     14  C   UNL     1     -13.323   3.010  36.594  1.00  0.00     0.004 C 
BRANCH  14  15
ATOM     15  C   UNL     1     -12.756   3.383  37.973  1.00  0.00     0.000 C 
BRANCH  15  16
ATOM     16  C   UNL     1     -12.354   2.148  38.798  1.00  0.00    -0.000 C 
BRANCH  16  17
ATOM     17  C   UNL     1     -10.873   2.174  39.210  1.00  0.00    -0.003 C 
ATOM     18  C   UNL     1     -10.026   1.170  38.429  1.00  0.00     0.004 C 
ENDBRANCH  16  17
ENDBRANCH  15  16
ENDBRANCH  14  15
ENDBRANCH  13  14
ENDBRANCH  12  13
ENDBRANCH  10  11
ENDBRANCH   1  10
TORSDOF 13
ENDMDL
MODEL 2
REMARK VINA RESULT:    -3.278      7.393     10.259
REMARK INTER + INTRA:          -7.875
REMARK INTER:                  -6.931
REMARK INTRA:                  -0.944
REMARK UNBOUND:                -2.107
REMARK SMILES CCCCCCC=CCCCCCCCC(=O)[O-]
REMARK SMILES IDX 10 1 11 2 12 3 13 4 14 5 15 6 16 7 17 8 18 9 9 10 8 11 7 12
REMARK SMILES IDX 6 13 5 14 4 15 3 16 2 17 1 18
REMARK H PARENT
REMARK Flexibility Score: inf
ROOT
ATOM      1  C   UNL     1      -3.270  -2.497  32.402  1.00  0.00     0.004 C 
ENDROOT
BRANCH   1   2
ATOM      2  C   UNL     1      -3.313  -3.878  33.077  1.00  0.00     0.000 C 
BRANCH   2   3
ATOM      3  C   UNL     1      -2.059  -4.718  32.780  1.00  0.00     0.000 C 
BRANCH   3   4
ATOM      4  C   UNL     1      -1.991  -5.179  31.315  1.00  0.00     0.000 C 
BRANCH   4   5
ATOM      5  C   UNL     1      -3.093  -6.193  30.960  1.00  0.00     0.006 C 
BRANCH   5   6
ATOM      6  C   UNL     1      -2.630  -7.643  31.157  1.00  0.00     0.053 C 
BRANCH   6   7
ATOM      7  C   UNL     1      -3.664  -8.624  30.697  1.00  0.00     0.041 C 
ATOM      8  O   UNL     1      -3.617  -9.822  31.083  1.00  0.00    -0.550 OA
ATOM      9  O   UNL     1      -4.701  -8.207  29.872  1.00  0.00    -0.550 OA
ENDBRANCH   6   7
ENDBRANCH   5   6
ENDBRANCH   4   5
ENDBRANCH   3   4
ENDBRANCH   2   3
ENDBRANCH   1   2
BRANCH   1  10
ATOM     10  C   UNL     1      -4.392  -1.566  32.888  1.00  0.00     0.027 C 
BRANCH  10  11
ATOM     11  C   UNL     1      -4.011  -0.886  34.174  1.00  0.00    -0.031 C 
ATOM     12  C   UNL     1      -2.816  -0.296  34.330  1.00  0.00    -0.031 C 
BRANCH  12  13
ATOM     13  C   UNL     1      -2.435   0.384  35.616  1.00  0.00     0.027 C 
BRANCH  13  14
ATOM     14  C   UNL     1      -3.473   1.448  36.007  1.00  0.00     0.004 C 
BRANCH  14  15
ATOM     15  C   UNL     1      -3.612   1.604  37.530  1.00  0.00     0.000 C 
BRANCH  15  16
ATOM     16  C   UNL     1      -3.966   0.280  38.229  1.00  0.00    -0.000 C 
BRANCH  16  17
ATOM     17  C   UNL     1      -5.347  -0.251  37.815  1.00  0.00    -0.003 C 
ATOM     18  C   UNL     1      -6.002  -1.103  38.901  1.00  0.00     0.004 C 
ENDBRANCH  16  17
ENDBRANCH  15  16
ENDBRANCH  14  15
ENDBRANCH  13  14
ENDBRANCH  12  13
ENDBRANCH  10  11
ENDBRANCH   1  10
TORSDOF 13
ENDMDL
MODEL 3
REMARK VINA RESULT:    -3.243      6.539      8.917
REMARK INTER + INTRA:          -7.815
REMARK INTER:                  -6.372
REMARK INTRA:                  -1.444
REMARK UNBOUND:                -2.107
REMARK SMILES CCCCCCC=CCCCCCCCC(=O)[O-]
REMARK SMILES IDX 10 1 11 2 12 3 13 4 14 5 15 6 16 7 17 8 18 9 9 10 8 11 7 12
REMARK SMILES IDX 6 13 5 14 4 15 3 16 2 17 1 18
REMARK H PARENT
REMARK Flexibility Score: inf
ROOT
ATOM      1  C   UNL     1     -12.176   4.855  32.452  1.00  0.00     0.004 C 
ENDROOT
BRANCH   1   2
ATOM      2  C   UNL     1     -12.854   4.990  31.078  1.00  0.00     0.000 C 
BRANCH   2   3
ATOM      3  C   UNL     1     -12.335   6.199  30.281  1.00  0.00     0.000 C 
BRANCH   3   4
ATOM      4  C   UNL     1     -12.870   6.228  28.840  1.00  0.00     0.000 C 
BRANCH   4   5
ATOM      5  C   UNL     1     -12.358   7.440  28.041  1.00  0.00     0.006 C 
BRANCH   5   6
ATOM      6  C   UNL     1     -11.164   8.121  28.725  1.00  0.00     0.053 C 
BRANCH   6   7
ATOM      7  C   UNL     1      -9.882   7.859  27.996  1.00  0.00     0.041 C 
ATOM      8  O   UNL     1      -9.792   8.104  26.765  1.00  0.00    -0.550 OA
ATOM      9  O   UNL     1      -8.776   7.377  28.685  1.00  0.00    -0.550 OA
ENDBRANCH   6   7
ENDBRANCH   5   6
ENDBRANCH   4   5
ENDBRANCH   3   4
ENDBRANCH   2   3
ENDBRANCH   1   2
BRANCH   1  10
ATOM     10  C   UNL     1     -10.661   4.625  32.344  1.00  0.00     0.027 C 
BRANCH  10  11
ATOM     11  C   UNL     1      -9.984   4.852  33.667  1.00  0.00    -0.031 C 
ATOM     12  C   UNL     1     -10.635   5.404  34.703  1.00  0.00    -0.031 C 
BRANCH  12  13
ATOM     13  C   UNL     1      -9.958   5.631  36.027  1.00  0.00     0.027 C 
BRANCH  13  14
ATOM     14  C   UNL     1     -10.007   4.365  36.896  1.00  0.00     0.004 C 
BRANCH  14  15
ATOM     15  C   UNL     1     -11.350   3.626  36.786  1.00  0.00     0.000 C 
BRANCH  15  16
ATOM     16  C   UNL     1     -11.175   2.119  36.529  1.00  0.00    -0.000 C 
BRANCH  16  17
ATOM     17  C   UNL     1     -11.530   1.724  35.087  1.00  0.00    -0.003 C 
ATOM     18  C   UNL     1     -12.946   2.142  34.693  1.00  0.00     0.004 C 
ENDBRANCH  16  17
ENDBRANCH  15  16
ENDBRANCH  14  15
ENDBRANCH  13  14
ENDBRANCH  12  13
ENDBRANCH  10  11
ENDBRANCH   1  10
TORSDOF 13
ENDMDL
MODEL 4
REMARK VINA RESULT:    -3.243      6.649     10.017
REMARK INTER + INTRA:          -7.815
REMARK INTER:                  -6.868
REMARK INTRA:                  -0.947
REMARK UNBOUND:                -2.107
REMARK SMILES CCCCCCC=CCCCCCCCC(=O)[O-]
REMARK SMILES IDX 10 1 11 2 12 3 13 4 14 5 15 6 16 7 17 8 18 9 9 10 8 11 7 12
REMARK SMILES IDX 6 13 5 14 4 15 3 16 2 17 1 18
REMARK H PARENT
REMARK Flexibility Score: inf
ROOT
ATOM      1  C   UNL     1      -2.720  -0.515  34.088  1.00  0.00     0.004 C 
ENDROOT
BRANCH   1   2
ATOM      2  C   UNL     1      -2.869   0.156  35.464  1.00  0.00     0.000 C 
BRANCH   2   3
ATOM      3  C   UNL     1      -4.339   0.286  35.900  1.00  0.00     0.000 C 
BRANCH   3   4
ATOM      4  C   UNL     1      -4.522   0.101  37.415  1.00  0.00     0.000 C 
BRANCH   4   5
ATOM      5  C   UNL     1      -3.467   0.861  38.238  1.00  0.00     0.006 C 
BRANCH   5   6
ATOM      6  C   UNL     1      -4.024   2.161  38.834  1.00  0.00     0.053 C 
BRANCH   6   7
ATOM      7  C   UNL     1      -3.556   3.366  38.077  1.00  0.00     0.041 C 
ATOM      8  O   UNL     1      -4.063   4.495  38.308  1.00  0.00    -0.550 OA
ATOM      9  O   UNL     1      -2.535   3.248  37.143  1.00  0.00    -0.550 OA
ENDBRANCH   6   7
ENDBRANCH   5   6
ENDBRANCH   4   5
ENDBRANCH   3   4
ENDBRANCH   2   3
ENDBRANCH   1   2
BRANCH   1  10
ATOM     10  C   UNL     1      -4.071  -0.927  33.481  1.00  0.00     0.027 C 
BRANCH  10  11
ATOM     11  C   UNL     1      -4.138  -2.415  33.275  1.00  0.00    -0.031 C 
ATOM     12  C   UNL     1      -3.030  -3.150  33.092  1.00  0.00    -0.031 C 
BRANCH  12  13
ATOM     13  C   UNL     1      -3.098  -4.638  32.885  1.00  0.00     0.027 C 
BRANCH  13  14
ATOM     14  C   UNL     1      -1.696  -5.265  32.929  1.00  0.00     0.004 C 
BRANCH  14  15
ATOM     15  C   UNL     1      -1.321  -5.961  31.611  1.00  0.00     0.000 C 
BRANCH  15  16
ATOM     16  C   UNL     1      -2.554  -6.352  30.779  1.00  0.00    -0.000 C 
BRANCH  16  17
ATOM     17  C   UNL     1      -2.941  -7.828  30.960  1.00  0.00    -0.003 C 
ATOM     18  C   UNL     1      -3.816  -8.354  29.822  1.00  0.00     0.004 C 
ENDBRANCH  16  17
ENDBRANCH  15  16
ENDBRANCH  14  15
ENDBRANCH  13  14
ENDBRANCH  12  13
ENDBRANCH  10  11
ENDBRANCH   1  10
TORSDOF 13
ENDMDL
MODEL 5
REMARK VINA RESULT:    -3.153      1.885      4.304
REMARK INTER + INTRA:          -7.656
REMARK INTER:                  -5.850
REMARK INTRA:                  -1.807
REMARK UNBOUND:                -2.107
REMARK SMILES CCCCCCC=CCCCCCCCC(=O)[O-]
REMARK SMILES IDX 10 1 11 2 12 3 13 4 14 5 15 6 16 7 17 8 18 9 9 10 8 11 7 12
REMARK SMILES IDX 6 13 5 14 4 15 3 16 2 17 1 18
REMARK H PARENT
REMARK Flexibility Score: inf
ROOT
ATOM      1  C   UNL     1      -8.119   0.107  38.329  1.00  0.00     0.004 C 
ENDROOT
BRANCH   1   2
ATOM      2  C   UNL     1      -7.066  -0.906  37.852  1.00  0.00     0.000 C 
BRANCH   2   3
ATOM      3  C   UNL     1      -5.686  -0.664  38.489  1.00  0.00     0.000 C 
BRANCH   3   4
ATOM      4  C   UNL     1      -4.655  -0.136  37.478  1.00  0.00     0.000 C 
BRANCH   4   5
ATOM      5  C   UNL     1      -3.491   0.611  38.152  1.00  0.00     0.006 C 
BRANCH   5   6
ATOM      6  C   UNL     1      -3.932   1.958  38.741  1.00  0.00     0.053 C 
BRANCH   6   7
ATOM      7  C   UNL     1      -3.556   3.103  37.850  1.00  0.00     0.041 C 
ATOM      8  O   UNL     1      -4.000   3.161  36.673  1.00  0.00    -0.550 OA
ATOM      9  O   UNL     1      -2.746   4.123  38.331  1.00  0.00    -0.550 OA
ENDBRANCH   6   7
ENDBRANCH   5   6
ENDBRANCH   4   5
ENDBRANCH   3   4
ENDBRANCH   2   3
ENDBRANCH   1   2
BRANCH   1  10
ATOM     10  C   UNL     1      -7.779   0.715  39.699  1.00  0.00     0.027 C 
BRANCH  10  11
ATOM     11  C   UNL     1      -7.550   2.197  39.591  1.00  0.00    -0.031 C 
ATOM     12  C   UNL     1      -7.489   2.814  38.401  1.00  0.00    -0.031 C 
BRANCH  12  13
ATOM     13  C   UNL     1      -7.260   4.296  38.293  1.00  0.00     0.027 C 
BRANCH  13  14
ATOM     14  C   UNL     1      -8.468   4.996  37.652  1.00  0.00     0.004 C 
BRANCH  14  15
ATOM     15  C   UNL     1      -9.162   4.122  36.595  1.00  0.00     0.000 C 
BRANCH  15  16
ATOM     16  C   UNL     1     -10.687   4.059  36.791  1.00  0.00    -0.000 C 
BRANCH  16  17
ATOM     17  C   UNL     1     -11.116   2.891  37.693  1.00  0.00    -0.003 C 
ATOM     18  C   UNL     1     -12.525   3.068  38.258  1.00  0.00     0.004 C 
ENDBRANCH  16  17
ENDBRANCH  15  16
ENDBRANCH  14  15
ENDBRANCH  13  14
ENDBRANCH  12  13
ENDBRANCH  10  11
ENDBRANCH   1  10
TORSDOF 13
ENDMDL
MODEL 6
REMARK VINA RESULT:    -3.152      6.891     10.218
REMARK INTER + INTRA:          -7.654
REMARK INTER:                  -6.567
REMARK INTRA:                  -1.087
REMARK UNBOUND:                -2.107
REMARK SMILES CCCCCCC=CCCCCCCCC(=O)[O-]
REMARK SMILES IDX 10 1 11 2 12 3 13 4 14 5 15 6 16 7 17 8 18 9 9 10 8 11 7 12
REMARK SMILES IDX 6 13 5 14 4 15 3 16 2 17 1 18
REMARK H PARENT
REMARK Flexibility Score: inf
ROOT
ATOM      1  C   UNL     1      -4.129  -0.578  33.490  1.00  0.00     0.004 C 
ENDROOT
BRANCH   1   2
ATOM      2  C   UNL     1      -2.729  -0.467  34.115  1.00  0.00     0.000 C 
BRANCH   2   3
ATOM      3  C   UNL     1      -2.722   0.382  35.398  1.00  0.00     0.000 C 
BRANCH   3   4
ATOM      4  C   UNL     1      -4.059   0.317  36.154  1.00  0.00     0.000 C 
BRANCH   4   5
ATOM      5  C   UNL     1      -3.874   0.176  37.676  1.00  0.00     0.006 C 
BRANCH   5   6
ATOM      6  C   UNL     1      -5.123  -0.399  38.359  1.00  0.00     0.053 C 
BRANCH   6   7
ATOM      7  C   UNL     1      -6.252   0.585  38.372  1.00  0.00     0.041 C 
ATOM      8  O   UNL     1      -6.194   1.607  39.106  1.00  0.00    -0.550 OA
ATOM      9  O   UNL     1      -7.353   0.393  37.545  1.00  0.00    -0.550 OA
ENDBRANCH   6   7
ENDBRANCH   5   6
ENDBRANCH   4   5
ENDBRANCH   3   4
ENDBRANCH   2   3
ENDBRANCH   1   2
BRANCH   1  10
ATOM     10  C   UNL     1      -4.569  -2.035  33.276  1.00  0.00     0.027 C 
BRANCH  10  11
ATOM     11  C   UNL     1      -3.400  -2.974  33.388  1.00  0.00    -0.031 C 
ATOM     12  C   UNL     1      -3.150  -3.900  32.450  1.00  0.00    -0.031 C 
BRANCH  12  13
ATOM     13  C   UNL     1      -1.981  -4.839  32.562  1.00  0.00     0.027 C 
BRANCH  13  14
ATOM     14  C   UNL     1      -1.525  -5.321  31.176  1.00  0.00     0.004 C 
BRANCH  14  15
ATOM     15  C   UNL     1      -1.232  -6.830  31.144  1.00  0.00     0.000 C 
BRANCH  15  16
ATOM     16  C   UNL     1      -2.515  -7.679  31.157  1.00  0.00    -0.000 C 
BRANCH  16  17
ATOM     17  C   UNL     1      -3.552  -7.193  30.133  1.00  0.00    -0.003 C 
ATOM     18  C   UNL     1      -4.918  -6.917  30.760  1.00  0.00     0.004 C 
ENDBRANCH  16  17
ENDBRANCH  15  16
ENDBRANCH  14  15
ENDBRANCH  13  14
ENDBRANCH  12  13
ENDBRANCH  10  11
ENDBRANCH   1  10
TORSDOF 13
ENDMDL
MODEL 7
REMARK VINA RESULT:    -3.141      2.590      4.941
REMARK INTER + INTRA:          -7.634
REMARK INTER:                  -5.269
REMARK INTRA:                  -2.365
REMARK UNBOUND:                -2.107
REMARK SMILES CCCCCCC=CCCCCCCCC(=O)[O-]
REMARK SMILES IDX 10 1 11 2 12 3 13 4 14 5 15 6 16 7 17 8 18 9 9 10 8 11 7 12
REMARK SMILES IDX 6 13 5 14 4 15 3 16 2 17 1 18
REMARK H PARENT
REMARK Flexibility Score: inf
ROOT
ATOM      1  C   UNL     1      -3.922   1.883  37.603  1.00  0.00     0.004 C 
ENDROOT
BRANCH   1   2
ATOM      2  C   UNL     1      -3.549   0.392  37.623  1.00  0.00     0.000 C 
BRANCH   2   3
ATOM      3  C   UNL     1      -4.643  -0.480  38.263  1.00  0.00     0.000 C 
BRANCH   3   4
ATOM      4  C   UNL     1      -5.903  -0.582  37.388  1.00  0.00     0.000 C 
BRANCH   4   5
ATOM      5  C   UNL     1      -7.192  -0.253  38.162  1.00  0.00     0.006 C 
BRANCH   5   6
ATOM      6  C   UNL     1      -7.137  -0.750  39.614  1.00  0.00     0.053 C 
BRANCH   6   7
ATOM      7  C   UNL     1      -8.058  -1.909  39.840  1.00  0.00     0.041 C 
ATOM      8  O   UNL     1      -7.599  -3.080  39.904  1.00  0.00    -0.550 OA
ATOM      9  O   UNL     1      -9.419  -1.693  40.017  1.00  0.00    -0.550 OA
ENDBRANCH   6   7
ENDBRANCH   5   6
ENDBRANCH   4   5
ENDBRANCH   3   4
ENDBRANCH   2   3
ENDBRANCH   1   2
BRANCH   1  10
ATOM     10  C   UNL     1      -4.072   2.475  39.013  1.00  0.00     0.027 C 
BRANCH  10  11
ATOM     11  C   UNL     1      -5.496   2.877  39.282  1.00  0.00    -0.031 C 
ATOM     12  C   UNL     1      -6.022   3.995  38.757  1.00  0.00    -0.031 C 
BRANCH  12  13
ATOM     13  C   UNL     1      -7.446   4.397  39.026  1.00  0.00     0.027 C 
BRANCH  13  14
ATOM     14  C   UNL     1      -8.333   3.164  39.258  1.00  0.00     0.004 C 
BRANCH  14  15
ATOM     15  C   UNL     1      -9.497   3.079  38.257  1.00  0.00     0.000 C 
BRANCH  15  16
ATOM     16  C   UNL     1      -9.083   3.498  36.835  1.00  0.00    -0.000 C 
BRANCH  16  17
ATOM     17  C   UNL     1      -8.543   2.320  36.009  1.00  0.00    -0.003 C 
ATOM     18  C   UNL     1      -7.082   2.506  35.601  1.00  0.00     0.004 C 
ENDBRANCH  16  17
ENDBRANCH  15  16
ENDBRANCH  14  15
ENDBRANCH  13  14
ENDBRANCH  12  13
ENDBRANCH  10  11
ENDBRANCH   1  10
TORSDOF 13
ENDMDL
MODEL 8
REMARK VINA RESULT:    -3.109      2.215      4.857
REMARK INTER + INTRA:          -7.579
REMARK INTER:                  -5.897
REMARK INTRA:                  -1.682
REMARK UNBOUND:                -2.107
REMARK SMILES CCCCCCC=CCCCCCCCC(=O)[O-]
REMARK SMILES IDX 10 1 11 2 12 3 13 4 14 5 15 6 16 7 17 8 18 9 9 10 8 11 7 12
REMARK SMILES IDX 6 13 5 14 4 15 3 16 2 17 1 18
REMARK H PARENT
REMARK Flexibility Score: inf
ROOT
ATOM      1  C   UNL     1      -7.005  -0.679  39.063  1.00  0.00     0.004 C 
ENDROOT
BRANCH   1   2
ATOM      2  C   UNL     1      -6.032   0.015  38.096  1.00  0.00     0.000 C 
BRANCH   2   3
ATOM      3  C   UNL     1      -4.589  -0.498  38.245  1.00  0.00     0.000 C 
BRANCH   3   4
ATOM      4  C   UNL     1      -3.554   0.639  38.216  1.00  0.00     0.000 C 
BRANCH   4   5
ATOM      5  C   UNL     1      -3.987   1.814  37.323  1.00  0.00     0.006 C 
BRANCH   5   6
ATOM      6  C   UNL     1      -3.145   1.909  36.043  1.00  0.00     0.053 C 
BRANCH   6   7
ATOM      7  C   UNL     1      -3.349   0.722  35.153  1.00  0.00     0.041 C 
ATOM      8  O   UNL     1      -2.388  -0.050  34.897  1.00  0.00    -0.550 OA
ATOM      9  O   UNL     1      -4.609   0.448  34.636  1.00  0.00    -0.550 OA
ENDBRANCH   6   7
ENDBRANCH   5   6
ENDBRANCH   4   5
ENDBRANCH   3   4
ENDBRANCH   2   3
ENDBRANCH   1   2
BRANCH   1  10
ATOM     10  C   UNL     1      -7.777   0.317  39.942  1.00  0.00     0.027 C 
BRANCH  10  11
ATOM     11  C   UNL     1      -7.268   1.718  39.746  1.00  0.00    -0.031 C 
ATOM     12  C   UNL     1      -8.100   2.771  39.727  1.00  0.00    -0.031 C 
BRANCH  12  13
ATOM     13  C   UNL     1      -7.591   4.173  39.531  1.00  0.00     0.027 C 
BRANCH  13  14
ATOM     14  C   UNL     1      -6.784   4.290  38.228  1.00  0.00     0.004 C 
BRANCH  14  15
ATOM     15  C   UNL     1      -7.681   4.308  36.979  1.00  0.00     0.000 C 
BRANCH  15  16
ATOM     16  C   UNL     1      -8.870   5.274  37.121  1.00  0.00    -0.000 C 
BRANCH  16  17
ATOM     17  C   UNL     1     -10.128   4.769  36.398  1.00  0.00    -0.003 C 
ATOM     18  C   UNL     1     -10.804   3.610  37.128  1.00  0.00     0.004 C 
ENDBRANCH  16  17
ENDBRANCH  15  16
ENDBRANCH  14  15
ENDBRANCH  13  14
ENDBRANCH  12  13
ENDBRANCH  10  11
ENDBRANCH   1  10
TORSDOF 13
ENDMDL
MODEL 9
REMARK VINA RESULT:    -3.101      3.650      5.861
REMARK INTER + INTRA:          -7.564
REMARK INTER:                  -4.970
REMARK INTRA:                  -2.594
REMARK UNBOUND:                -2.107
REMARK SMILES CCCCCCC=CCCCCCCCC(=O)[O-]
REMARK SMILES IDX 10 1 11 2 12 3 13 4 14 5 15 6 16 7 17 8 18 9 9 10 8 11 7 12
REMARK SMILES IDX 6 13 5 14 4 15 3 16 2 17 1 18
REMARK H PARENT
REMARK Flexibility Score: inf
ROOT
ATOM      1  C   UNL     1      -5.348   4.119  40.017  1.00  0.00     0.004 C 
ENDROOT
BRANCH   1   2
ATOM      2  C   UNL     1      -6.437   3.079  39.710  1.00  0.00     0.000 C 
BRANCH   2   3
ATOM      3  C   UNL     1      -7.716   3.717  39.140  1.00  0.00     0.000 C 
BRANCH   3   4
ATOM      4  C   UNL     1      -7.422   4.727  38.019  1.00  0.00     0.000 C 
BRANCH   4   5
ATOM      5  C   UNL     1      -7.114   4.048  36.673  1.00  0.00     0.006 C 
BRANCH   5   6
ATOM      6  C   UNL     1      -5.688   4.345  36.188  1.00  0.00     0.053 C 
BRANCH   6   7
ATOM      7  C   UNL     1      -5.383   3.647  34.898  1.00  0.00     0.041 C 
ATOM      8  O   UNL     1      -4.255   3.784  34.356  1.00  0.00    -0.550 OA
ATOM      9  O   UNL     1      -6.332   2.818  34.314  1.00  0.00    -0.550 OA
ENDBRANCH   6   7
ENDBRANCH   5   6
ENDBRANCH   4   5
ENDBRANCH   3   4
ENDBRANCH   2   3
ENDBRANCH   1   2
BRANCH   1  10
ATOM     10  C   UNL     1      -3.975   3.724  39.450  1.00  0.00     0.027 C 
BRANCH  10  11
ATOM     11  C   UNL     1      -3.965   2.286  39.012  1.00  0.00    -0.031 C 
ATOM     12  C   UNL     1      -3.463   1.917  37.823  1.00  0.00    -0.031 C 
BRANCH  12  13
ATOM     13  C   UNL     1      -3.453   0.479  37.385  1.00  0.00     0.027 C 
BRANCH  13  14
ATOM     14  C   UNL     1      -4.312   0.279  36.127  1.00  0.00     0.004 C 
BRANCH  14  15
ATOM     15  C   UNL     1      -5.595  -0.519  36.410  1.00  0.00     0.000 C 
BRANCH  15  16
ATOM     16  C   UNL     1      -6.736   0.368  36.938  1.00  0.00    -0.000 C 
BRANCH  16  17
ATOM     17  C   UNL     1      -7.242  -0.084  38.317  1.00  0.00    -0.003 C 
ATOM     18  C   UNL     1      -6.333  -1.127  38.966  1.00  0.00     0.004 C 
ENDBRANCH  16  17
ENDBRANCH  15  16
ENDBRANCH  14  15
ENDBRANCH  13  14
ENDBRANCH  12  13
ENDBRANCH  10  11
ENDBRANCH   1  10
TORSDOF 13
ENDMDL
