MODEL 1
REMARK VINA RESULT:    -3.411      0.000      0.000
REMARK INTER + INTRA:          -5.387
REMARK INTER:                  -5.007
REMARK INTRA:                  -0.380
REMARK UNBOUND:                -0.380
REMARK SMILES O=C([O-])CCCCCCCC(=O)[O-]
REMARK SMILES IDX 7 1 6 2 5 3 4 4 2 5 1 6 3 7 8 8 9 9 10 10 11 11 12 12 13 13
REMARK H PARENT
REMARK Flexibility Score: inf
ROOT
ATOM      1  C   UNL     1      -4.422  -9.519  27.979  1.00  0.00     0.000 C 
ENDROOT
BRANCH   1   2
ATOM      2  C   UNL     1      -4.418 -10.701  26.988  1.00  0.00     0.000 C 
BRANCH   2   3
ATOM      3  C   UNL     1      -3.065 -10.975  26.301  1.00  0.00     0.006 C 
BRANCH   3   4
ATOM      4  C   UNL     1      -3.133 -11.037  24.767  1.00  0.00     0.053 C 
BRANCH   4   5
ATOM      5  C   UNL     1      -2.535  -9.820  24.132  1.00  0.00     0.041 C 
ATOM      6  O   UNL     1      -1.480  -9.912  23.451  1.00  0.00    -0.550 OA
ATOM      7  O   UNL     1      -3.162  -8.587  24.265  1.00  0.00    -0.550 OA
ENDBRANCH   4   5
ENDBRANCH   3   4
ENDBRANCH   2   3
ENDBRANCH   1   2
BRANCH   1   8
ATOM      8  C   UNL     1      -5.616  -9.486  28.951  1.00  0.00     0.000 C 
BRANCH   8   9
ATOM      9  C   UNL     1      -5.219  -9.044  30.369  1.00  0.00     0.006 C 
BRANCH   9  10
ATOM     10  C   UNL     1      -3.696  -8.985  30.552  1.00  0.00     0.053 C 
BRANCH  10  11
ATOM     11  C   UNL     1      -3.227  -7.599  30.874  1.00  0.00     0.041 C 
ATOM     12  O   UNL     1      -4.003  -6.617  30.733  1.00  0.00    -0.550 OA
ATOM     13  O   UNL     1      -1.923  -7.389  31.305  1.00  0.00    -0.550 OA
ENDBRANCH  10  11
ENDBRANCH   9  10
ENDBRANCH   8   9
ENDBRANCH   1   8
TORSDOF 8
ENDMDL
MODEL 2
REMARK VINA RESULT:    -3.340      1.139      6.045
REMARK INTER + INTRA:          -5.282
REMARK INTER:                  -4.972
REMARK INTRA:                  -0.310
REMARK UNBOUND:                -0.380
REMARK SMILES O=C([O-])CCCCCCCC(=O)[O-]
REMARK SMILES IDX 7 1 6 2 5 3 4 4 2 5 1 6 3 7 8 8 9 9 10 10 11 11 12 12 13 13
REMARK H PARENT
REMARK Flexibility Score: inf
ROOT
ATOM      1  C   UNL     1      -4.165  -9.043  28.307  1.00  0.00     0.000 C 
ENDROOT
BRANCH   1   2
ATOM      2  C   UNL     1      -4.229  -9.374  29.812  1.00  0.00     0.000 C 
BRANCH   2   3
ATOM      3  C   UNL     1      -3.363  -8.474  30.717  1.00  0.00     0.006 C 
BRANCH   3   4
ATOM      4  C   UNL     1      -3.165  -7.045  30.188  1.00  0.00     0.053 C 
BRANCH   4   5
ATOM      5  C   UNL     1      -1.832  -6.484  30.580  1.00  0.00     0.041 C 
ATOM      6  O   UNL     1      -0.990  -7.206  31.175  1.00  0.00    -0.550 OA
ATOM      7  O   UNL     1      -1.509  -5.172  30.258  1.00  0.00    -0.550 OA
ENDBRANCH   4   5
ENDBRANCH   3   4
ENDBRANCH   2   3
ENDBRANCH   1   2
BRANCH   1   8
ATOM      8  C   UNL     1      -4.540 -10.203  27.367  1.00  0.00     0.000 C 
BRANCH   8   9
ATOM      9  C   UNL     1      -3.366 -10.662  26.487  1.00  0.00     0.006 C 
BRANCH   9  10
ATOM     10  C   UNL     1      -3.706 -10.606  24.992  1.00  0.00     0.053 C 
BRANCH  10  11
ATOM     11  C   UNL     1      -2.906  -9.559  24.277  1.00  0.00     0.041 C 
ATOM     12  O   UNL     1      -1.865  -9.877  23.645  1.00  0.00    -0.550 OA
ATOM     13  O   UNL     1      -3.297  -8.227  24.335  1.00  0.00    -0.550 OA
ENDBRANCH  10  11
ENDBRANCH   9  10
ENDBRANCH   8   9
ENDBRANCH   1   8
TORSDOF 8
ENDMDL
MODEL 3
REMARK VINA RESULT:    -3.330      3.982      7.312
REMARK INTER + INTRA:          -5.267
REMARK INTER:                  -4.700
REMARK INTRA:                  -0.568
REMARK UNBOUND:                -0.380
REMARK SMILES O=C([O-])CCCCCCCC(=O)[O-]
REMARK SMILES IDX 7 1 6 2 5 3 4 4 2 5 1 6 3 7 8 8 9 9 10 10 11 11 12 12 13 13
REMARK H PARENT
REMARK Flexibility Score: inf
ROOT
ATOM      1  C   UNL     1      -1.266  -5.752  31.774  1.00  0.00     0.000 C 
ENDROOT
BRANCH   1   2
ATOM      2  C   UNL     1      -1.861  -5.374  33.146  1.00  0.00     0.000 C 
BRANCH   2   3
ATOM      3  C   UNL     1      -3.171  -4.564  33.092  1.00  0.00     0.006 C 
BRANCH   3   4
ATOM      4  C   UNL     1      -2.983  -3.074  32.763  1.00  0.00     0.053 C 
BRANCH   4   5
ATOM      5  C   UNL     1      -3.673  -2.692  31.489  1.00  0.00     0.041 C 
ATOM      6  O   UNL     1      -4.108  -3.581  30.711  1.00  0.00    -0.550 OA
ATOM      7  O   UNL     1      -3.864  -1.351  31.178  1.00  0.00    -0.550 OA
ENDBRANCH   4   5
ENDBRANCH   3   4
ENDBRANCH   2   3
ENDBRANCH   1   2
BRANCH   1   8
ATOM      8  C   UNL     1      -1.755  -7.092  31.196  1.00  0.00     0.000 C 
BRANCH   8   9
ATOM      9  C   UNL     1      -2.917  -6.925  30.202  1.00  0.00     0.006 C 
BRANCH   9  10
ATOM     10  C   UNL     1      -4.170  -7.694  30.642  1.00  0.00     0.053 C 
BRANCH  10  11
ATOM     11  C   UNL     1      -4.113  -9.134  30.230  1.00  0.00     0.041 C 
ATOM     12  O   UNL     1      -4.524  -9.485  29.092  1.00  0.00    -0.550 OA
ATOM     13  O   UNL     1      -3.633 -10.091  31.114  1.00  0.00    -0.550 OA
ENDBRANCH  10  11
ENDBRANCH   9  10
ENDBRANCH   8   9
ENDBRANCH   1   8
TORSDOF 8
ENDMDL
MODEL 4
REMARK VINA RESULT:    -3.328     16.860     17.537
REMARK INTER + INTRA:          -5.264
REMARK INTER:                  -4.683
REMARK INTRA:                  -0.582
REMARK UNBOUND:                -0.380
REMARK SMILES O=C([O-])CCCCCCCC(=O)[O-]
REMARK SMILES IDX 7 1 6 2 5 3 4 4 2 5 1 6 3 7 8 8 9 9 10 10 11 11 12 12 13 13
REMARK H PARENT
REMARK Flexibility Score: inf
ROOT
ATOM      1  C   UNL     1     -12.694   5.550  28.256  1.00  0.00     0.000 C 
ENDROOT
BRANCH   1   2
ATOM      2  C   UNL     1     -12.787   7.081  28.092  1.00  0.00     0.000 C 
BRANCH   2   3
ATOM      3  C   UNL     1     -11.531   7.753  27.500  1.00  0.00     0.006 C 
BRANCH   3   4
ATOM      4  C   UNL     1     -10.380   7.940  28.501  1.00  0.00     0.053 C 
BRANCH   4   5
ATOM      5  C   UNL     1      -9.244   7.004  28.227  1.00  0.00     0.041 C 
ATOM      6  O   UNL     1      -8.321   6.860  29.072  1.00  0.00    -0.550 OA
ATOM      7  O   UNL     1      -9.222   6.263  27.052  1.00  0.00    -0.550 OA
ENDBRANCH   4   5
ENDBRANCH   3   4
ENDBRANCH   2   3
ENDBRANCH   1   2
BRANCH   1   8
ATOM      8  C   UNL     1     -13.062   5.019  29.653  1.00  0.00     0.000 C 
BRANCH   8   9
ATOM      9  C   UNL     1     -12.445   5.852  30.789  1.00  0.00     0.006 C 
BRANCH   9  10
ATOM     10  C   UNL     1     -11.433   5.047  31.614  1.00  0.00     0.053 C 
BRANCH  10  11
ATOM     11  C   UNL     1     -11.876   4.887  33.037  1.00  0.00     0.041 C 
ATOM     12  O   UNL     1     -13.006   4.399  33.300  1.00  0.00    -0.550 OA
ATOM     13  O   UNL     1     -11.050   5.305  34.073  1.00  0.00    -0.550 OA
ENDBRANCH  10  11
ENDBRANCH   9  10
ENDBRANCH   8   9
ENDBRANCH   1   8
TORSDOF 8
ENDMDL
MODEL 5
REMARK VINA RESULT:    -3.323      1.162      5.959
REMARK INTER + INTRA:          -5.257
REMARK INTER:                  -4.828
REMARK INTRA:                  -0.429
REMARK UNBOUND:                -0.380
REMARK SMILES O=C([O-])CCCCCCCC(=O)[O-]
REMARK SMILES IDX 7 1 6 2 5 3 4 4 2 5 1 6 3 7 8 8 9 9 10 10 11 11 12 12 13 13
REMARK H PARENT
REMARK Flexibility Score: inf
ROOT
ATOM      1  C   UNL     1      -4.947  -9.553  27.213  1.00  0.00     0.000 C 
ENDROOT
BRANCH   1   2
ATOM      2  C   UNL     1      -5.988 -10.109  28.207  1.00  0.00     0.000 C 
BRANCH   2   3
ATOM      3  C   UNL     1      -5.836  -9.614  29.659  1.00  0.00     0.006 C 
BRANCH   3   4
ATOM      4  C   UNL     1      -4.856  -8.442  29.831  1.00  0.00     0.053 C 
BRANCH   4   5
ATOM      5  C   UNL     1      -3.714  -8.798  30.733  1.00  0.00     0.041 C 
ATOM      6  O   UNL     1      -2.869  -7.924  31.061  1.00  0.00    -0.550 OA
ATOM      7  O   UNL     1      -3.603 -10.087  31.239  1.00  0.00    -0.550 OA
ENDBRANCH   4   5
ENDBRANCH   3   4
ENDBRANCH   2   3
ENDBRANCH   1   2
BRANCH   1   8
ATOM      8  C   UNL     1      -3.611 -10.316  27.172  1.00  0.00     0.000 C 
BRANCH   8   9
ATOM      9  C   UNL     1      -3.441 -11.153  25.893  1.00  0.00     0.006 C 
BRANCH   9  10
ATOM     10  C   UNL     1      -3.917 -10.403  24.643  1.00  0.00     0.053 C 
BRANCH  10  11
ATOM     11  C   UNL     1      -2.875  -9.455  24.131  1.00  0.00     0.041 C 
ATOM     12  O   UNL     1      -1.803  -9.895  23.640  1.00  0.00    -0.550 OA
ATOM     13  O   UNL     1      -3.078  -8.084  24.224  1.00  0.00    -0.550 OA
ENDBRANCH  10  11
ENDBRANCH   9  10
ENDBRANCH   8   9
ENDBRANCH   1   8
TORSDOF 8
ENDMDL
MODEL 6
REMARK VINA RESULT:    -3.302      2.447      3.761
REMARK INTER + INTRA:          -5.226
REMARK INTER:                  -4.890
REMARK INTRA:                  -0.336
REMARK UNBOUND:                -0.380
REMARK SMILES O=C([O-])CCCCCCCC(=O)[O-]
REMARK SMILES IDX 7 1 6 2 5 3 4 4 2 5 1 6 3 7 8 8 9 9 10 10 11 11 12 12 13 13
REMARK H PARENT
REMARK Flexibility Score: inf
ROOT
ATOM      1  C   UNL     1      -3.982  -7.277  30.410  1.00  0.00     0.000 C 
ENDROOT
BRANCH   1   2
ATOM      2  C   UNL     1      -4.898  -8.365  29.814  1.00  0.00     0.000 C 
BRANCH   2   3
ATOM      3  C   UNL     1      -4.172  -9.473  29.025  1.00  0.00     0.006 C 
BRANCH   3   4
ATOM      4  C   UNL     1      -4.230  -9.307  27.498  1.00  0.00     0.053 C 
BRANCH   4   5
ATOM      5  C   UNL     1      -4.036 -10.611  26.787  1.00  0.00     0.041 C 
ATOM      6  O   UNL     1      -2.877 -11.039  26.551  1.00  0.00    -0.550 OA
ATOM      7  O   UNL     1      -5.140 -11.369  26.414  1.00  0.00    -0.550 OA
ENDBRANCH   4   5
ENDBRANCH   3   4
ENDBRANCH   2   3
ENDBRANCH   1   2
BRANCH   1   8
ATOM      8  C   UNL     1      -2.680  -7.795  31.047  1.00  0.00     0.000 C 
BRANCH   8   9
ATOM      9  C   UNL     1      -1.583  -6.720  31.122  1.00  0.00     0.006 C 
BRANCH   9  10
ATOM     10  C   UNL     1      -2.164  -5.314  31.325  1.00  0.00     0.053 C 
BRANCH  10  11
ATOM     11  C   UNL     1      -2.080  -4.880  32.757  1.00  0.00     0.041 C 
ATOM     12  O   UNL     1      -1.262  -5.428  33.541  1.00  0.00    -0.550 OA
ATOM     13  O   UNL     1      -2.928  -3.887  33.232  1.00  0.00    -0.550 OA
ENDBRANCH  10  11
ENDBRANCH   9  10
ENDBRANCH   8   9
ENDBRANCH   1   8
TORSDOF 8
ENDMDL
MODEL 7
REMARK VINA RESULT:    -3.266      7.544     10.527
REMARK INTER + INTRA:          -5.173
REMARK INTER:                  -4.799
REMARK INTRA:                  -0.375
REMARK UNBOUND:                -0.380
REMARK SMILES O=C([O-])CCCCCCCC(=O)[O-]
REMARK SMILES IDX 7 1 6 2 5 3 4 4 2 5 1 6 3 7 8 8 9 9 10 10 11 11 12 12 13 13
REMARK H PARENT
REMARK Flexibility Score: inf
ROOT
ATOM      1  C   UNL     1      -4.060  -0.275  33.664  1.00  0.00     0.000 C 
ENDROOT
BRANCH   1   2
ATOM      2  C   UNL     1      -4.196  -1.557  32.816  1.00  0.00     0.000 C 
BRANCH   2   3
ATOM      3  C   UNL     1      -3.126  -2.635  33.083  1.00  0.00     0.006 C 
BRANCH   3   4
ATOM      4  C   UNL     1      -3.664  -4.075  33.084  1.00  0.00     0.053 C 
BRANCH   4   5
ATOM      5  C   UNL     1      -2.604  -5.067  32.717  1.00  0.00     0.041 C 
ATOM      6  O   UNL     1      -1.665  -5.319  33.517  1.00  0.00    -0.550 OA
ATOM      7  O   UNL     1      -2.672  -5.739  31.503  1.00  0.00    -0.550 OA
ENDBRANCH   4   5
ENDBRANCH   3   4
ENDBRANCH   2   3
ENDBRANCH   1   2
BRANCH   1   8
ATOM      8  C   UNL     1      -2.664  -0.034  34.265  1.00  0.00     0.000 C 
BRANCH   8   9
ATOM      9  C   UNL     1      -2.706   0.244  35.777  1.00  0.00     0.006 C 
BRANCH   9  10
ATOM     10  C   UNL     1      -4.139   0.260  36.323  1.00  0.00     0.053 C 
BRANCH  10  11
ATOM     11  C   UNL     1      -4.170   0.084  37.811  1.00  0.00     0.041 C 
ATOM     12  O   UNL     1      -4.914  -0.789  38.332  1.00  0.00    -0.550 OA
ATOM     13  O   UNL     1      -3.398   0.903  38.624  1.00  0.00    -0.550 OA
ENDBRANCH  10  11
ENDBRANCH   9  10
ENDBRANCH   8   9
ENDBRANCH   1   8
TORSDOF 8
ENDMDL
MODEL 8
REMARK VINA RESULT:    -3.236      2.419      7.010
REMARK INTER + INTRA:          -5.130
REMARK INTER:                  -4.877
REMARK INTRA:                  -0.253
REMARK UNBOUND:                -0.380
REMARK SMILES O=C([O-])CCCCCCCC(=O)[O-]
REMARK SMILES IDX 7 1 6 2 5 3 4 4 2 5 1 6 3 7 8 8 9 9 10 10 11 11 12 12 13 13
REMARK H PARENT
REMARK Flexibility Score: inf
ROOT
ATOM      1  C   UNL     1      -3.460  -7.513  30.432  1.00  0.00     0.000 C 
ENDROOT
BRANCH   1   2
ATOM      2  C   UNL     1      -2.084  -7.597  31.124  1.00  0.00     0.000 C 
BRANCH   2   3
ATOM      3  C   UNL     1      -1.280  -6.281  31.144  1.00  0.00     0.006 C 
BRANCH   3   4
ATOM      4  C   UNL     1      -2.142  -5.012  31.230  1.00  0.00     0.053 C 
BRANCH   4   5
ATOM      5  C   UNL     1      -2.282  -4.526  32.639  1.00  0.00     0.041 C 
ATOM      6  O   UNL     1      -2.749  -3.380  32.872  1.00  0.00    -0.550 OA
ATOM      7  O   UNL     1      -1.927  -5.353  33.698  1.00  0.00    -0.550 OA
ENDBRANCH   4   5
ENDBRANCH   3   4
ENDBRANCH   2   3
ENDBRANCH   1   2
BRANCH   1   8
ATOM      8  C   UNL     1      -3.939  -8.818  29.770  1.00  0.00     0.000 C 
BRANCH   8   9
ATOM      9  C   UNL     1      -4.368  -8.622  28.307  1.00  0.00     0.006 C 
BRANCH   9  10
ATOM     10  C   UNL     1      -4.960  -9.901  27.701  1.00  0.00     0.053 C 
BRANCH  10  11
ATOM     11  C   UNL     1      -4.099 -10.448  26.603  1.00  0.00     0.041 C 
ATOM     12  O   UNL     1      -3.009 -11.017  26.873  1.00  0.00    -0.550 OA
ATOM     13  O   UNL     1      -4.489 -10.302  25.277  1.00  0.00    -0.550 OA
ENDBRANCH  10  11
ENDBRANCH   9  10
ENDBRANCH   8   9
ENDBRANCH   1   8
TORSDOF 8
ENDMDL
MODEL 9
REMARK VINA RESULT:    -3.232      5.101      9.299
REMARK INTER + INTRA:          -5.124
REMARK INTER:                  -4.685
REMARK INTRA:                  -0.439
REMARK UNBOUND:                -0.380
REMARK SMILES O=C([O-])CCCCCCCC(=O)[O-]
REMARK SMILES IDX 7 1 6 2 5 3 4 4 2 5 1 6 3 7 8 8 9 9 10 10 11 11 12 12 13 13
REMARK H PARENT
REMARK Flexibility Score: inf
ROOT
ATOM      1  C   UNL     1      -3.125  -4.099  33.046  1.00  0.00     0.000 C 
ENDROOT
BRANCH   1   2
ATOM      2  C   UNL     1      -3.334  -3.211  31.802  1.00  0.00     0.000 C 
BRANCH   2   3
ATOM      3  C   UNL     1      -3.755  -1.757  32.098  1.00  0.00     0.006 C 
BRANCH   3   4
ATOM      4  C   UNL     1      -3.960  -1.447  33.589  1.00  0.00     0.053 C 
BRANCH   4   5
ATOM      5  C   UNL     1      -3.326  -0.148  33.982  1.00  0.00     0.041 C 
ATOM      6  O   UNL     1      -3.730   0.933  33.479  1.00  0.00    -0.550 OA
ATOM      7  O   UNL     1      -2.311  -0.129  34.930  1.00  0.00    -0.550 OA
ENDBRANCH   4   5
ENDBRANCH   3   4
ENDBRANCH   2   3
ENDBRANCH   1   2
BRANCH   1   8
ATOM      8  C   UNL     1      -1.956  -5.095  32.949  1.00  0.00     0.000 C 
BRANCH   8   9
ATOM      9  C   UNL     1      -1.537  -5.384  31.498  1.00  0.00     0.006 C 
BRANCH   9  10
ATOM     10  C   UNL     1      -1.497  -6.888  31.196  1.00  0.00     0.053 C 
BRANCH  10  11
ATOM     11  C   UNL     1      -2.870  -7.450  30.984  1.00  0.00     0.041 C 
ATOM     12  O   UNL     1      -3.091  -8.675  31.174  1.00  0.00    -0.550 OA
ATOM     13  O   UNL     1      -3.900  -6.625  30.550  1.00  0.00    -0.550 OA
ENDBRANCH  10  11
ENDBRANCH   9  10
ENDBRANCH   8   9
ENDBRANCH   1   8
TORSDOF 8
ENDMDL
