MODEL 1
REMARK VINA RESULT:    -3.745      0.000      0.000
REMARK INTER + INTRA:          -4.506
REMARK INTER:                  -4.402
REMARK INTRA:                  -0.104
REMARK UNBOUND:                -0.104
REMARK SMILES CCCCC(=O)[O-]
REMARK SMILES IDX 4 1 5 2 6 3 7 4 3 5 2 6 1 7
REMARK H PARENT
REMARK Flexibility Score: inf
ROOT
ATOM      1  C   UNL     1     -27.673 -34.619 -11.586  1.00  0.00     0.053 C 
ENDROOT
BRANCH   1   2
ATOM      2  C   UNL     1     -26.222 -34.297 -11.402  1.00  0.00     0.041 C 
ATOM      3  O   UNL     1     -25.345 -35.174 -11.620  1.00  0.00    -0.550 OA
ATOM      4  O   UNL     1     -25.836 -33.018 -11.020  1.00  0.00    -0.550 OA
ENDBRANCH   1   2
BRANCH   1   5
ATOM      5  C   UNL     1     -28.332 -33.697 -12.620  1.00  0.00     0.006 C 
BRANCH   5   6
ATOM      6  C   UNL     1     -27.661 -33.794 -13.998  1.00  0.00    -0.003 C 
ATOM      7  C   UNL     1     -27.723 -35.219 -14.541  1.00  0.00     0.004 C 
ENDBRANCH   5   6
ENDBRANCH   1   5
TORSDOF 3
ENDMDL
MODEL 2
REMARK VINA RESULT:    -3.533      2.047      2.509
REMARK INTER + INTRA:          -4.257
REMARK INTER:                  -4.185
REMARK INTRA:                  -0.072
REMARK UNBOUND:                -0.104
REMARK SMILES CCCCC(=O)[O-]
REMARK SMILES IDX 4 1 5 2 6 3 7 4 3 5 2 6 1 7
REMARK H PARENT
REMARK Flexibility Score: inf
ROOT
ATOM      1  C   UNL     1     -28.268 -32.555 -12.989  1.00  0.00     0.053 C 
ENDROOT
BRANCH   1   2
ATOM      2  C   UNL     1     -27.375 -31.559 -12.316  1.00  0.00     0.041 C 
ATOM      3  O   UNL     1     -26.194 -31.392 -12.718  1.00  0.00    -0.550 OA
ATOM      4  O   UNL     1     -27.858 -30.791 -11.263  1.00  0.00    -0.550 OA
ENDBRANCH   1   2
BRANCH   1   5
ATOM      5  C   UNL     1     -28.205 -33.927 -12.304  1.00  0.00     0.006 C 
BRANCH   5   6
ATOM      6  C   UNL     1     -27.276 -34.902 -13.041  1.00  0.00    -0.003 C 
ATOM      7  C   UNL     1     -27.672 -35.039 -14.508  1.00  0.00     0.004 C 
ENDBRANCH   5   6
ENDBRANCH   1   5
TORSDOF 3
ENDMDL
MODEL 3
REMARK VINA RESULT:    -3.533      1.686      2.075
REMARK INTER + INTRA:          -4.256
REMARK INTER:                  -4.167
REMARK INTRA:                  -0.089
REMARK UNBOUND:                -0.104
REMARK SMILES CCCCC(=O)[O-]
REMARK SMILES IDX 4 1 5 2 6 3 7 4 3 5 2 6 1 7
REMARK H PARENT
REMARK Flexibility Score: inf
ROOT
ATOM      1  C   UNL     1     -25.538 -34.154 -12.150  1.00  0.00     0.053 C 
ENDROOT
BRANCH   1   2
ATOM      2  C   UNL     1     -24.562 -35.195 -12.609  1.00  0.00     0.041 C 
ATOM      3  O   UNL     1     -24.972 -36.316 -13.008  1.00  0.00    -0.550 OA
ATOM      4  O   UNL     1     -23.202 -34.914 -12.625  1.00  0.00    -0.550 OA
ENDBRANCH   1   2
BRANCH   1   5
ATOM      5  C   UNL     1     -26.980 -34.677 -12.176  1.00  0.00     0.006 C 
BRANCH   5   6
ATOM      6  C   UNL     1     -27.789 -34.094 -13.344  1.00  0.00    -0.003 C 
ATOM      7  C   UNL     1     -27.777 -35.033 -14.546  1.00  0.00     0.004 C 
ENDBRANCH   5   6
ENDBRANCH   1   5
TORSDOF 3
ENDMDL
MODEL 4
REMARK VINA RESULT:    -3.492      1.326      2.121
REMARK INTER + INTRA:          -4.208
REMARK INTER:                  -4.094
REMARK INTRA:                  -0.114
REMARK UNBOUND:                -0.104
REMARK SMILES CCCCC(=O)[O-]
REMARK SMILES IDX 4 1 5 2 6 3 7 4 3 5 2 6 1 7
REMARK H PARENT
REMARK Flexibility Score: inf
ROOT
ATOM      1  C   UNL     1     -26.572 -34.544 -11.485  1.00  0.00     0.053 C 
ENDROOT
BRANCH   1   2
ATOM      2  C   UNL     1     -25.278 -34.743 -12.213  1.00  0.00     0.041 C 
ATOM      3  O   UNL     1     -24.377 -33.865 -12.157  1.00  0.00    -0.550 OA
ATOM      4  O   UNL     1     -25.055 -35.913 -12.927  1.00  0.00    -0.550 OA
ENDBRANCH   1   2
BRANCH   1   5
ATOM      5  C   UNL     1     -27.779 -34.698 -12.420  1.00  0.00     0.006 C 
BRANCH   5   6
ATOM      6  C   UNL     1     -27.798 -33.632 -13.525  1.00  0.00    -0.003 C 
ATOM      7  C   UNL     1     -28.268 -32.285 -12.983  1.00  0.00     0.004 C 
ENDBRANCH   5   6
ENDBRANCH   1   5
TORSDOF 3
ENDMDL
MODEL 5
REMARK VINA RESULT:    -3.476      1.620      2.422
REMARK INTER + INTRA:          -4.189
REMARK INTER:                  -4.092
REMARK INTRA:                  -0.098
REMARK UNBOUND:                -0.104
REMARK SMILES CCCCC(=O)[O-]
REMARK SMILES IDX 4 1 5 2 6 3 7 4 3 5 2 6 1 7
REMARK H PARENT
REMARK Flexibility Score: inf
ROOT
ATOM      1  C   UNL     1     -27.780 -34.487 -13.446  1.00  0.00     0.053 C 
ENDROOT
BRANCH   1   2
ATOM      2  C   UNL     1     -26.546 -34.995 -12.764  1.00  0.00     0.041 C 
ATOM      3  O   UNL     1     -25.748 -35.751 -13.377  1.00  0.00    -0.550 OA
ATOM      4  O   UNL     1     -26.262 -34.606 -11.461  1.00  0.00    -0.550 OA
ENDBRANCH   1   2
BRANCH   1   5
ATOM      5  C   UNL     1     -28.528 -33.467 -12.578  1.00  0.00     0.006 C 
BRANCH   5   6
ATOM      6  C   UNL     1     -28.201 -32.019 -12.972  1.00  0.00    -0.003 C 
ATOM      7  C   UNL     1     -27.818 -31.189 -11.750  1.00  0.00     0.004 C 
ENDBRANCH   5   6
ENDBRANCH   1   5
TORSDOF 3
ENDMDL
MODEL 6
REMARK VINA RESULT:    -3.359      2.213      3.000
REMARK INTER + INTRA:          -4.052
REMARK INTER:                  -3.958
REMARK INTRA:                  -0.094
REMARK UNBOUND:                -0.104
REMARK SMILES CCCCC(=O)[O-]
REMARK SMILES IDX 4 1 5 2 6 3 7 4 3 5 2 6 1 7
REMARK H PARENT
REMARK Flexibility Score: inf
ROOT
ATOM      1  C   UNL     1     -27.209 -34.469 -11.892  1.00  0.00     0.053 C 
ENDROOT
BRANCH   1   2
ATOM      2  C   UNL     1     -27.889 -33.867 -13.084  1.00  0.00     0.041 C 
ATOM      3  O   UNL     1     -27.920 -34.489 -14.178  1.00  0.00    -0.550 OA
ATOM      4  O   UNL     1     -28.515 -32.632 -12.976  1.00  0.00    -0.550 OA
ENDBRANCH   1   2
BRANCH   1   5
ATOM      5  C   UNL     1     -25.950 -33.684 -11.500  1.00  0.00     0.006 C 
BRANCH   5   6
ATOM      6  C   UNL     1     -24.701 -34.180 -12.243  1.00  0.00    -0.003 C 
ATOM      7  C   UNL     1     -24.768 -35.684 -12.492  1.00  0.00     0.004 C 
ENDBRANCH   5   6
ENDBRANCH   1   5
TORSDOF 3
ENDMDL
MODEL 7
REMARK VINA RESULT:    -3.338     14.936     15.470
REMARK INTER + INTRA:          -4.027
REMARK INTER:                  -4.011
REMARK INTRA:                  -0.016
REMARK UNBOUND:                -0.104
REMARK SMILES CCCCC(=O)[O-]
REMARK SMILES IDX 4 1 5 2 6 3 7 4 3 5 2 6 1 7
REMARK H PARENT
REMARK Flexibility Score: inf
ROOT
ATOM      1  C   UNL     1     -32.633 -47.208  -6.781  1.00  0.00     0.053 C 
ENDROOT
BRANCH   1   2
ATOM      2  C   UNL     1     -33.599 -46.308  -6.074  1.00  0.00     0.041 C 
ATOM      3  O   UNL     1     -34.255 -46.732  -5.086  1.00  0.00    -0.550 OA
ATOM      4  O   UNL     1     -33.752 -44.990  -6.486  1.00  0.00    -0.550 OA
ENDBRANCH   1   2
BRANCH   1   5
ATOM      5  C   UNL     1     -31.411 -47.526  -5.909  1.00  0.00     0.006 C 
BRANCH   5   6
ATOM      6  C   UNL     1     -30.269 -48.158  -6.718  1.00  0.00    -0.003 C 
ATOM      7  C   UNL     1     -29.006 -48.297  -5.872  1.00  0.00     0.004 C 
ENDBRANCH   5   6
ENDBRANCH   1   5
TORSDOF 3
ENDMDL
MODEL 8
REMARK VINA RESULT:    -3.245      2.264      3.164
REMARK INTER + INTRA:          -3.917
REMARK INTER:                  -3.804
REMARK INTRA:                  -0.113
REMARK UNBOUND:                -0.104
REMARK SMILES CCCCC(=O)[O-]
REMARK SMILES IDX 4 1 5 2 6 3 7 4 3 5 2 6 1 7
REMARK H PARENT
REMARK Flexibility Score: inf
ROOT
ATOM      1  C   UNL     1     -28.347 -32.506 -13.010  1.00  0.00     0.053 C 
ENDROOT
BRANCH   1   2
ATOM      2  C   UNL     1     -27.549 -31.336 -12.521  1.00  0.00     0.041 C 
ATOM      3  O   UNL     1     -26.452 -31.044 -13.066  1.00  0.00    -0.550 OA
ATOM      4  O   UNL     1     -28.032 -30.549 -11.483  1.00  0.00    -0.550 OA
ENDBRANCH   1   2
BRANCH   1   5
ATOM      5  C   UNL     1     -27.505 -33.787 -13.058  1.00  0.00     0.006 C 
BRANCH   5   6
ATOM      6  C   UNL     1     -27.135 -34.293 -11.656  1.00  0.00    -0.003 C 
ATOM      7  C   UNL     1     -25.686 -34.769 -11.606  1.00  0.00     0.004 C 
ENDBRANCH   5   6
ENDBRANCH   1   5
TORSDOF 3
ENDMDL
MODEL 9
REMARK VINA RESULT:    -3.224      2.212      3.180
REMARK INTER + INTRA:          -3.893
REMARK INTER:                  -3.770
REMARK INTRA:                  -0.123
REMARK UNBOUND:                -0.104
REMARK SMILES CCCCC(=O)[O-]
REMARK SMILES IDX 4 1 5 2 6 3 7 4 3 5 2 6 1 7
REMARK H PARENT
REMARK Flexibility Score: inf
ROOT
ATOM      1  C   UNL     1     -28.267 -32.876 -12.946  1.00  0.00     0.053 C 
ENDROOT
BRANCH   1   2
ATOM      2  C   UNL     1     -28.007 -34.324 -12.661  1.00  0.00     0.041 C 
ATOM      3  O   UNL     1     -27.918 -34.731 -11.473  1.00  0.00    -0.550 OA
ATOM      4  O   UNL     1     -27.894 -35.229 -13.709  1.00  0.00    -0.550 OA
ENDBRANCH   1   2
BRANCH   1   5
ATOM      5  C   UNL     1     -27.368 -31.962 -12.104  1.00  0.00     0.006 C 
BRANCH   5   6
ATOM      6  C   UNL     1     -25.891 -32.063 -12.513  1.00  0.00    -0.003 C 
ATOM      7  C   UNL     1     -25.021 -32.491 -11.335  1.00  0.00     0.004 C 
ENDBRANCH   5   6
ENDBRANCH   1   5
TORSDOF 3
ENDMDL
