MODEL 1
REMARK VINA RESULT:    -3.030      0.000      0.000
REMARK INTER + INTRA:          -3.296
REMARK INTER:                  -3.296
REMARK INTRA:                   0.000
REMARK UNBOUND:                 0.000
REMARK SMILES [NH3+]CC(=O)[O-]
REMARK SMILES IDX 2 1 1 2 3 6 4 7 5 8
REMARK H PARENT 1 3 1 4 1 5
REMARK Flexibility Score: inf
ROOT
ATOM      1  C   UNL     1       8.625   0.064  -3.208  1.00  0.00     0.312 C 
ENDROOT
BRANCH   1   2
ATOM      2  N   UNL     1       8.968   1.369  -3.771  1.00  0.00    -0.353 N 
ATOM      3  H   UNL     1       9.789   1.759  -3.256  1.00  0.00     0.344 HD
ATOM      4  H   UNL     1       8.161   2.026  -3.669  1.00  0.00     0.344 HD
ATOM      5  H   UNL     1       9.218   1.269  -4.782  1.00  0.00     0.344 HD
ENDBRANCH   1   2
BRANCH   1   6
ATOM      6  C   UNL     1       7.602  -0.625  -4.057  1.00  0.00     0.096 C 
ATOM      7  O   UNL     1       7.168  -0.071  -5.100  1.00  0.00    -0.544 OA
ATOM      8  O   UNL     1       7.167  -1.902  -3.723  1.00  0.00    -0.544 OA
ENDBRANCH   1   6
TORSDOF 2
ENDMDL
MODEL 2
REMARK VINA RESULT:    -2.957     16.800     17.059
REMARK INTER + INTRA:          -3.217
REMARK INTER:                  -3.217
REMARK INTRA:                   0.000
REMARK UNBOUND:                 0.000
REMARK SMILES [NH3+]CC(=O)[O-]
REMARK SMILES IDX 2 1 1 2 3 6 4 7 5 8
REMARK H PARENT 1 3 1 4 1 5
REMARK Flexibility Score: inf
ROOT
ATOM      1  C   UNL     1      -1.563  -5.134   8.459  1.00  0.00     0.312 C 
ENDROOT
BRANCH   1   2
ATOM      2  N   UNL     1      -1.364  -5.274   7.018  1.00  0.00    -0.353 N 
ATOM      3  H   UNL     1      -2.293  -5.257   6.540  1.00  0.00     0.344 HD
ATOM      4  H   UNL     1      -0.891  -6.183   6.808  1.00  0.00     0.344 HD
ATOM      5  H   UNL     1      -0.783  -4.482   6.657  1.00  0.00     0.344 HD
ENDBRANCH   1   2
BRANCH   1   6
ATOM      6  C   UNL     1      -3.004  -4.867   8.770  1.00  0.00     0.096 C 
ATOM      7  O   UNL     1      -3.867  -5.765   8.588  1.00  0.00    -0.544 OA
ATOM      8  O   UNL     1      -3.384  -3.646   9.312  1.00  0.00    -0.544 OA
ENDBRANCH   1   6
TORSDOF 2
ENDMDL
MODEL 3
REMARK VINA RESULT:    -2.929      2.579      2.741
REMARK INTER + INTRA:          -3.186
REMARK INTER:                  -3.186
REMARK INTRA:                   0.000
REMARK UNBOUND:                 0.000
REMARK SMILES [NH3+]CC(=O)[O-]
REMARK SMILES IDX 2 1 1 2 3 6 4 7 5 8
REMARK H PARENT 1 3 1 4 1 5
REMARK Flexibility Score: inf
ROOT
ATOM      1  C   UNL     1       7.467  -0.871  -3.884  1.00  0.00     0.312 C 
ENDROOT
BRANCH   1   2
ATOM      2  N   UNL     1       6.701  -1.987  -3.331  1.00  0.00    -0.353 N 
ATOM      3  H   UNL     1       7.218  -2.877  -3.506  1.00  0.00     0.344 HD
ATOM      4  H   UNL     1       5.764  -2.042  -3.793  1.00  0.00     0.344 HD
ATOM      5  H   UNL     1       6.579  -1.861  -2.299  1.00  0.00     0.344 HD
ENDBRANCH   1   2
BRANCH   1   6
ATOM      6  C   UNL     1       8.169  -0.120  -2.795  1.00  0.00     0.096 C 
ATOM      7  O   UNL     1       9.019   0.763  -3.082  1.00  0.00    -0.544 OA
ATOM      8  O   UNL     1       7.845  -0.358  -1.466  1.00  0.00    -0.544 OA
ENDBRANCH   1   6
TORSDOF 2
ENDMDL
MODEL 4
REMARK VINA RESULT:    -2.929     16.795     17.163
REMARK INTER + INTRA:          -3.186
REMARK INTER:                  -3.186
REMARK INTRA:                   0.000
REMARK UNBOUND:                 0.000
REMARK SMILES [NH3+]CC(=O)[O-]
REMARK SMILES IDX 2 1 1 2 3 6 4 7 5 8
REMARK H PARENT 1 3 1 4 1 5
REMARK Flexibility Score: inf
ROOT
ATOM      1  C   UNL     1      -3.206  -4.660   8.959  1.00  0.00     0.312 C 
ENDROOT
BRANCH   1   2
ATOM      2  N   UNL     1      -4.221  -5.642   8.582  1.00  0.00    -0.353 N 
ATOM      3  H   UNL     1      -3.904  -6.592   8.877  1.00  0.00     0.344 HD
ATOM      4  H   UNL     1      -4.356  -5.636   7.544  1.00  0.00     0.344 HD
ATOM      5  H   UNL     1      -5.126  -5.422   9.057  1.00  0.00     0.344 HD
ENDBRANCH   1   2
BRANCH   1   6
ATOM      6  C   UNL     1      -1.836  -5.152   8.605  1.00  0.00     0.096 C 
ATOM      7  O   UNL     1      -1.015  -5.447   9.513  1.00  0.00    -0.544 OA
ATOM      8  O   UNL     1      -1.485  -5.334   7.273  1.00  0.00    -0.544 OA
ENDBRANCH   1   6
TORSDOF 2
ENDMDL
MODEL 5
REMARK VINA RESULT:    -2.904      5.597      6.058
REMARK INTER + INTRA:          -3.158
REMARK INTER:                  -3.158
REMARK INTRA:                   0.000
REMARK UNBOUND:                 0.000
REMARK SMILES [NH3+]CC(=O)[O-]
REMARK SMILES IDX 2 1 1 2 3 6 4 7 5 8
REMARK H PARENT 1 3 1 4 1 5
REMARK Flexibility Score: inf
ROOT
ATOM      1  C   UNL     1       6.027  -1.246   2.413  1.00  0.00     0.312 C 
ENDROOT
BRANCH   1   2
ATOM      2  N   UNL     1       6.516   0.122   2.248  1.00  0.00    -0.353 N 
ATOM      3  H   UNL     1       6.095   0.534   1.385  1.00  0.00     0.344 HD
ATOM      4  H   UNL     1       7.557   0.121   2.150  1.00  0.00     0.344 HD
ATOM      5  H   UNL     1       6.239   0.704   3.073  1.00  0.00     0.344 HD
ENDBRANCH   1   2
BRANCH   1   6
ATOM      6  C   UNL     1       6.466  -2.106   1.268  1.00  0.00     0.096 C 
ATOM      7  O   UNL     1       7.000  -3.225   1.485  1.00  0.00    -0.544 OA
ATOM      8  O   UNL     1       6.238  -1.694  -0.039  1.00  0.00    -0.544 OA
ENDBRANCH   1   6
TORSDOF 2
ENDMDL
MODEL 6
REMARK VINA RESULT:    -2.829      9.362      9.733
REMARK INTER + INTRA:          -3.077
REMARK INTER:                  -3.077
REMARK INTRA:                   0.000
REMARK UNBOUND:                 0.000
REMARK SMILES [NH3+]CC(=O)[O-]
REMARK SMILES IDX 2 1 1 2 3 6 4 7 5 8
REMARK H PARENT 1 3 1 4 1 5
REMARK Flexibility Score: inf
ROOT
ATOM      1  C   UNL     1       5.485  -3.494   3.767  1.00  0.00     0.312 C 
ENDROOT
BRANCH   1   2
ATOM      2  N   UNL     1       5.350  -3.966   2.390  1.00  0.00    -0.353 N 
ATOM      3  H   UNL     1       5.213  -5.002   2.396  1.00  0.00     0.344 HD
ATOM      4  H   UNL     1       6.216  -3.742   1.848  1.00  0.00     0.344 HD
ATOM      5  H   UNL     1       4.522  -3.516   1.936  1.00  0.00     0.344 HD
ENDBRANCH   1   2
BRANCH   1   6
ATOM      6  C   UNL     1       4.492  -4.174   4.659  1.00  0.00     0.096 C 
ATOM      7  O   UNL     1       3.292  -3.794   4.677  1.00  0.00    -0.544 OA
ATOM      8  O   UNL     1       4.881  -5.262   5.431  1.00  0.00    -0.544 OA
ENDBRANCH   1   6
TORSDOF 2
ENDMDL
MODEL 7
REMARK VINA RESULT:    -2.824      6.482      6.845
REMARK INTER + INTRA:          -3.072
REMARK INTER:                  -3.072
REMARK INTRA:                   0.000
REMARK UNBOUND:                 0.000
REMARK SMILES [NH3+]CC(=O)[O-]
REMARK SMILES IDX 2 1 1 2 3 6 4 7 5 8
REMARK H PARENT 1 3 1 4 1 5
REMARK Flexibility Score: inf
ROOT
ATOM      1  C   UNL     1       6.118  -2.887   2.748  1.00  0.00     0.312 C 
ENDROOT
BRANCH   1   2
ATOM      2  N   UNL     1       5.278  -4.074   2.604  1.00  0.00    -0.353 N 
ATOM      3  H   UNL     1       5.274  -4.372   1.603  1.00  0.00     0.344 HD
ATOM      4  H   UNL     1       4.297  -3.857   2.897  1.00  0.00     0.344 HD
ATOM      5  H   UNL     1       5.657  -4.854   3.190  1.00  0.00     0.344 HD
ENDBRANCH   1   2
BRANCH   1   6
ATOM      6  C   UNL     1       6.559  -2.386   1.407  1.00  0.00     0.096 C 
ATOM      7  O   UNL     1       7.408  -3.032   0.738  1.00  0.00    -0.544 OA
ATOM      8  O   UNL     1       5.994  -1.234   0.874  1.00  0.00    -0.544 OA
ENDBRANCH   1   6
TORSDOF 2
ENDMDL
MODEL 8
REMARK VINA RESULT:    -2.817      2.258      2.291
REMARK INTER + INTRA:          -3.064
REMARK INTER:                  -3.064
REMARK INTRA:                   0.000
REMARK UNBOUND:                 0.000
REMARK SMILES [NH3+]CC(=O)[O-]
REMARK SMILES IDX 2 1 1 2 3 6 4 7 5 8
REMARK H PARENT 1 3 1 4 1 5
REMARK Flexibility Score: inf
ROOT
ATOM      1  C   UNL     1       7.599  -0.991  -3.591  1.00  0.00     0.312 C 
ENDROOT
BRANCH   1   2
ATOM      2  N   UNL     1       6.643  -2.022  -3.190  1.00  0.00    -0.353 N 
ATOM      3  H   UNL     1       5.673  -1.658  -3.318  1.00  0.00     0.344 HD
ATOM      4  H   UNL     1       6.783  -2.267  -2.182  1.00  0.00     0.344 HD
ATOM      5  H   UNL     1       6.767  -2.876  -3.782  1.00  0.00     0.344 HD
ENDBRANCH   1   2
BRANCH   1   6
ATOM      6  C   UNL     1       7.629  -0.849  -5.082  1.00  0.00     0.096 C 
ATOM      7  O   UNL     1       7.732   0.290  -5.607  1.00  0.00    -0.544 OA
ATOM      8  O   UNL     1       7.596  -1.979  -5.889  1.00  0.00    -0.544 OA
ENDBRANCH   1   6
TORSDOF 2
ENDMDL
MODEL 9
REMARK VINA RESULT:    -2.780      9.778     10.054
REMARK INTER + INTRA:          -3.024
REMARK INTER:                  -3.024
REMARK INTRA:                   0.000
REMARK UNBOUND:                 0.000
REMARK SMILES [NH3+]CC(=O)[O-]
REMARK SMILES IDX 2 1 1 2 3 6 4 7 5 8
REMARK H PARENT 1 3 1 4 1 5
REMARK Flexibility Score: inf
ROOT
ATOM      1  C   UNL     1       2.129   7.336  -0.336  1.00  0.00     0.312 C 
ENDROOT
BRANCH   1   2
ATOM      2  N   UNL     1       1.664   6.063  -0.885  1.00  0.00    -0.353 N 
ATOM      3  H   UNL     1       2.271   5.797  -1.692  1.00  0.00     0.344 HD
ATOM      4  H   UNL     1       0.677   6.156  -1.218  1.00  0.00     0.344 HD
ATOM      5  H   UNL     1       1.722   5.316  -0.155  1.00  0.00     0.344 HD
ENDBRANCH   1   2
BRANCH   1   6
ATOM      6  C   UNL     1       3.080   8.003  -1.281  1.00  0.00     0.096 C 
ATOM      7  O   UNL     1       2.646   8.766  -2.184  1.00  0.00    -0.544 OA
ATOM      8  O   UNL     1       4.450   7.825  -1.131  1.00  0.00    -0.544 OA
ENDBRANCH   1   6
TORSDOF 2
ENDMDL
