MODEL 1
REMARK VINA RESULT:    -3.592      0.000      0.000
REMARK INTER + INTRA:          -4.177
REMARK INTER:                  -4.117
REMARK INTRA:                  -0.060
REMARK UNBOUND:                -0.060
REMARK SMILES CC(C)[C@H]([NH3+])C(=O)[O-]
REMARK SMILES IDX 4 1 5 2 6 6 7 7 8 8 2 9 1 10 3 11
REMARK H PARENT 5 3 5 4 5 5
REMARK Flexibility Score: inf
ROOT
ATOM      1  C   UNL     1      -1.405  -5.167   8.245  1.00  0.00     0.230 C 
ENDROOT
BRANCH   1   2
ATOM      2  N   UNL     1      -1.407  -5.257   6.777  1.00  0.00    -0.350 N 
ATOM      3  H   UNL     1      -1.046  -4.370   6.360  1.00  0.00     0.345 HD
ATOM      4  H   UNL     1      -0.771  -6.026   6.463  1.00  0.00     0.345 HD
ATOM      5  H   UNL     1      -2.372  -5.447   6.419  1.00  0.00     0.345 HD
ENDBRANCH   1   2
BRANCH   1   6
ATOM      6  C   UNL     1      -2.799  -4.852   8.727  1.00  0.00     0.099 C 
ATOM      7  O   UNL     1      -3.725  -5.693   8.581  1.00  0.00    -0.544 OA
ATOM      8  O   UNL     1      -3.071  -3.633   9.336  1.00  0.00    -0.544 OA
ENDBRANCH   1   6
BRANCH   1   9
ATOM      9  C   UNL     1      -0.390  -4.100   8.759  1.00  0.00     0.047 C 
ATOM     10  C   UNL     1       0.337  -3.395   7.601  1.00  0.00     0.014 C 
ATOM     11  C   UNL     1       0.654  -4.730   9.698  1.00  0.00     0.014 C 
ENDBRANCH   1   9
TORSDOF 3
ENDMDL
MODEL 2
REMARK VINA RESULT:    -3.537      0.624      1.268
REMARK INTER + INTRA:          -4.114
REMARK INTER:                  -4.053
REMARK INTRA:                  -0.061
REMARK UNBOUND:                -0.060
REMARK SMILES CC(C)[C@H]([NH3+])C(=O)[O-]
REMARK SMILES IDX 4 1 5 2 6 6 7 7 8 8 2 9 1 10 3 11
REMARK H PARENT 5 3 5 4 5 5
REMARK Flexibility Score: inf
ROOT
ATOM      1  C   UNL     1      -1.107  -5.316   8.202  1.00  0.00     0.230 C 
ENDROOT
BRANCH   1   2
ATOM      2  N   UNL     1      -1.339  -5.249   6.751  1.00  0.00    -0.350 N 
ATOM      3  H   UNL     1      -2.015  -4.485   6.527  1.00  0.00     0.345 HD
ATOM      4  H   UNL     1      -0.445  -5.024   6.254  1.00  0.00     0.345 HD
ATOM      5  H   UNL     1      -1.706  -6.161   6.392  1.00  0.00     0.345 HD
ENDBRANCH   1   2
BRANCH   1   6
ATOM      6  C   UNL     1      -2.357  -4.883   8.926  1.00  0.00     0.099 C 
ATOM      7  O   UNL     1      -2.308  -3.950   9.771  1.00  0.00    -0.544 OA
ATOM      8  O   UNL     1      -3.571  -5.508   8.666  1.00  0.00    -0.544 OA
ENDBRANCH   1   6
BRANCH   1   9
ATOM      9  C   UNL     1       0.111  -4.445   8.635  1.00  0.00     0.047 C 
ATOM     10  C   UNL     1       0.474  -3.396   7.570  1.00  0.00     0.014 C 
ATOM     11  C   UNL     1       1.346  -5.317   8.923  1.00  0.00     0.014 C 
ENDBRANCH   1   9
TORSDOF 3
ENDMDL
MODEL 3
REMARK VINA RESULT:    -3.511     13.335     14.354
REMARK INTER + INTRA:          -4.084
REMARK INTER:                  -4.022
REMARK INTRA:                  -0.062
REMARK UNBOUND:                -0.060
REMARK SMILES CC(C)[C@H]([NH3+])C(=O)[O-]
REMARK SMILES IDX 4 1 5 2 6 6 7 7 8 8 2 9 1 10 3 11
REMARK H PARENT 5 3 5 4 5 5
REMARK Flexibility Score: inf
ROOT
ATOM      1  C   UNL     1       7.814  -1.980  -2.265  1.00  0.00     0.230 C 
ENDROOT
BRANCH   1   2
ATOM      2  N   UNL     1       6.594  -2.032  -3.085  1.00  0.00    -0.350 N 
ATOM      3  H   UNL     1       5.786  -1.635  -2.556  1.00  0.00     0.345 HD
ATOM      4  H   UNL     1       6.715  -1.450  -3.946  1.00  0.00     0.345 HD
ATOM      5  H   UNL     1       6.379  -3.017  -3.368  1.00  0.00     0.345 HD
ENDBRANCH   1   2
BRANCH   1   6
ATOM      6  C   UNL     1       7.471  -2.332  -0.839  1.00  0.00     0.099 C 
ATOM      7  O   UNL     1       8.038  -3.303  -0.272  1.00  0.00    -0.544 OA
ATOM      8  O   UNL     1       6.529  -1.586  -0.140  1.00  0.00    -0.544 OA
ENDBRANCH   1   6
BRANCH   1   9
ATOM      9  C   UNL     1       8.502  -0.583  -2.338  1.00  0.00     0.047 C 
ATOM     10  C   UNL     1       8.391   0.039  -3.740  1.00  0.00     0.014 C 
ATOM     11  C   UNL     1       9.987  -0.671  -1.943  1.00  0.00     0.014 C 
ENDBRANCH   1   9
TORSDOF 3
ENDMDL
MODEL 4
REMARK VINA RESULT:    -3.481     10.379     11.491
REMARK INTER + INTRA:          -4.050
REMARK INTER:                  -4.007
REMARK INTRA:                  -0.043
REMARK UNBOUND:                -0.060
REMARK SMILES CC(C)[C@H]([NH3+])C(=O)[O-]
REMARK SMILES IDX 4 1 5 2 6 6 7 7 8 8 2 9 1 10 3 11
REMARK H PARENT 5 3 5 4 5 5
REMARK Flexibility Score: inf
ROOT
ATOM      1  C   UNL     1       6.488  -1.137   1.436  1.00  0.00     0.230 C 
ENDROOT
BRANCH   1   2
ATOM      2  N   UNL     1       6.696   0.137   2.141  1.00  0.00    -0.350 N 
ATOM      3  H   UNL     1       5.894   0.782   1.967  1.00  0.00     0.345 HD
ATOM      4  H   UNL     1       6.740  -0.027   3.174  1.00  0.00     0.345 HD
ATOM      5  H   UNL     1       7.587   0.590   1.831  1.00  0.00     0.345 HD
ENDBRANCH   1   2
BRANCH   1   6
ATOM      6  C   UNL     1       6.001  -2.175   2.416  1.00  0.00     0.099 C 
ATOM      7  O   UNL     1       5.315  -1.831   3.415  1.00  0.00    -0.544 OA
ATOM      8  O   UNL     1       6.304  -3.518   2.224  1.00  0.00    -0.544 OA
ENDBRANCH   1   6
BRANCH   1   9
ATOM      9  C   UNL     1       7.786  -1.622   0.720  1.00  0.00     0.047 C 
ATOM     10  C   UNL     1       8.882  -0.543   0.728  1.00  0.00     0.014 C 
ATOM     11  C   UNL     1       7.499  -2.036  -0.734  1.00  0.00     0.014 C 
ENDBRANCH   1   9
TORSDOF 3
ENDMDL
MODEL 5
REMARK VINA RESULT:    -3.457     14.730     15.889
REMARK INTER + INTRA:          -4.022
REMARK INTER:                  -3.959
REMARK INTRA:                  -0.063
REMARK UNBOUND:                -0.060
REMARK SMILES CC(C)[C@H]([NH3+])C(=O)[O-]
REMARK SMILES IDX 4 1 5 2 6 6 7 7 8 8 2 9 1 10 3 11
REMARK H PARENT 5 3 5 4 5 5
REMARK Flexibility Score: inf
ROOT
ATOM      1  C   UNL     1       2.323   7.548  -0.195  1.00  0.00     0.230 C 
ENDROOT
BRANCH   1   2
ATOM      2  N   UNL     1       1.938   6.179  -0.572  1.00  0.00    -0.350 N 
ATOM      3  H   UNL     1       1.384   5.735   0.193  1.00  0.00     0.345 HD
ATOM      4  H   UNL     1       1.326   6.199  -1.422  1.00  0.00     0.345 HD
ATOM      5  H   UNL     1       2.784   5.599  -0.777  1.00  0.00     0.345 HD
ENDBRANCH   1   2
BRANCH   1   6
ATOM      6  C   UNL     1       3.265   8.104  -1.234  1.00  0.00     0.099 C 
ATOM      7  O   UNL     1       2.846   8.917  -2.099  1.00  0.00    -0.544 OA
ATOM      8  O   UNL     1       4.602   7.724  -1.242  1.00  0.00    -0.544 OA
ENDBRANCH   1   6
BRANCH   1   9
ATOM      9  C   UNL     1       2.974   7.597   1.221  1.00  0.00     0.047 C 
ATOM     10  C   UNL     1       2.114   6.876   2.273  1.00  0.00     0.014 C 
ATOM     11  C   UNL     1       3.211   9.048   1.676  1.00  0.00     0.014 C 
ENDBRANCH   1   9
TORSDOF 3
ENDMDL
MODEL 6
REMARK VINA RESULT:    -3.444     15.157     16.026
REMARK INTER + INTRA:          -4.008
REMARK INTER:                  -3.931
REMARK INTRA:                  -0.077
REMARK UNBOUND:                -0.060
REMARK SMILES CC(C)[C@H]([NH3+])C(=O)[O-]
REMARK SMILES IDX 4 1 5 2 6 6 7 7 8 8 2 9 1 10 3 11
REMARK H PARENT 5 3 5 4 5 5
REMARK Flexibility Score: inf
ROOT
ATOM      1  C   UNL     1       7.482  -0.770  -3.354  1.00  0.00     0.230 C 
ENDROOT
BRANCH   1   2
ATOM      2  N   UNL     1       6.767  -2.036  -3.131  1.00  0.00    -0.350 N 
ATOM      3  H   UNL     1       5.747  -1.857  -2.999  1.00  0.00     0.345 HD
ATOM      4  H   UNL     1       6.865  -2.656  -3.969  1.00  0.00     0.345 HD
ATOM      5  H   UNL     1       7.149  -2.534  -2.294  1.00  0.00     0.345 HD
ENDBRANCH   1   2
BRANCH   1   6
ATOM      6  C   UNL     1       7.755  -0.604  -4.828  1.00  0.00     0.099 C 
ATOM      7  O   UNL     1       8.175   0.497  -5.274  1.00  0.00    -0.544 OA
ATOM      8  O   UNL     1       7.547  -1.663  -5.703  1.00  0.00    -0.544 OA
ENDBRANCH   1   6
BRANCH   1   9
ATOM      9  C   UNL     1       8.809  -0.703  -2.537  1.00  0.00     0.047 C 
ATOM     10  C   UNL     1       9.773  -1.841  -2.914  1.00  0.00     0.014 C 
ATOM     11  C   UNL     1       8.536  -0.758  -1.024  1.00  0.00     0.014 C 
ENDBRANCH   1   9
TORSDOF 3
ENDMDL
MODEL 7
REMARK VINA RESULT:    -3.421      9.308     10.499
REMARK INTER + INTRA:          -3.981
REMARK INTER:                  -3.906
REMARK INTRA:                  -0.075
REMARK UNBOUND:                -0.060
REMARK SMILES CC(C)[C@H]([NH3+])C(=O)[O-]
REMARK SMILES IDX 4 1 5 2 6 6 7 7 8 8 2 9 1 10 3 11
REMARK H PARENT 5 3 5 4 5 5
REMARK Flexibility Score: inf
ROOT
ATOM      1  C   UNL     1       5.951  -1.056   2.447  1.00  0.00     0.230 C 
ENDROOT
BRANCH   1   2
ATOM      2  N   UNL     1       6.724   0.179   2.247  1.00  0.00    -0.350 N 
ATOM      3  H   UNL     1       6.578   0.831   3.050  1.00  0.00     0.345 HD
ATOM      4  H   UNL     1       7.747  -0.039   2.210  1.00  0.00     0.345 HD
ATOM      5  H   UNL     1       6.445   0.650   1.356  1.00  0.00     0.345 HD
ENDBRANCH   1   2
BRANCH   1   6
ATOM      6  C   UNL     1       5.726  -1.270   3.923  1.00  0.00     0.099 C 
ATOM      7  O   UNL     1       6.220  -0.471   4.761  1.00  0.00    -0.544 OA
ATOM      8  O   UNL     1       4.970  -2.348   4.368  1.00  0.00    -0.544 OA
ENDBRANCH   1   6
BRANCH   1   9
ATOM      9  C   UNL     1       6.661  -2.293   1.814  1.00  0.00     0.047 C 
ATOM     10  C   UNL     1       7.994  -2.610   2.513  1.00  0.00     0.014 C 
ATOM     11  C   UNL     1       6.920  -2.078   0.312  1.00  0.00     0.014 C 
ENDBRANCH   1   9
TORSDOF 3
ENDMDL
MODEL 8
REMARK VINA RESULT:    -3.420      4.010      4.719
REMARK INTER + INTRA:          -3.980
REMARK INTER:                  -3.928
REMARK INTRA:                  -0.052
REMARK UNBOUND:                -0.060
REMARK SMILES CC(C)[C@H]([NH3+])C(=O)[O-]
REMARK SMILES IDX 4 1 5 2 6 6 7 7 8 8 2 9 1 10 3 11
REMARK H PARENT 5 3 5 4 5 5
REMARK Flexibility Score: inf
ROOT
ATOM      1  C   UNL     1       1.499  -3.450   7.267  1.00  0.00     0.230 C 
ENDROOT
BRANCH   1   2
ATOM      2  N   UNL     1       0.432  -2.443   7.168  1.00  0.00    -0.350 N 
ATOM      3  H   UNL     1      -0.452  -2.808   7.588  1.00  0.00     0.345 HD
ATOM      4  H   UNL     1       0.696  -1.585   7.707  1.00  0.00     0.345 HD
ATOM      5  H   UNL     1       0.264  -2.178   6.170  1.00  0.00     0.345 HD
ENDBRANCH   1   2
BRANCH   1   6
ATOM      6  C   UNL     1       2.443  -3.292   6.102  1.00  0.00     0.099 C 
ATOM      7  O   UNL     1       2.143  -3.767   4.975  1.00  0.00    -0.544 OA
ATOM      8  O   UNL     1       3.649  -2.621   6.263  1.00  0.00    -0.544 OA
ENDBRANCH   1   6
BRANCH   1   9
ATOM      9  C   UNL     1       0.924  -4.899   7.318  1.00  0.00     0.047 C 
ATOM     10  C   UNL     1      -0.610  -4.905   7.436  1.00  0.00     0.014 C 
ATOM     11  C   UNL     1       1.521  -5.695   8.492  1.00  0.00     0.014 C 
ENDBRANCH   1   9
TORSDOF 3
ENDMDL
MODEL 9
REMARK VINA RESULT:    -3.412      3.432      4.100
REMARK INTER + INTRA:          -3.971
REMARK INTER:                  -3.905
REMARK INTRA:                  -0.066
REMARK UNBOUND:                -0.060
REMARK SMILES CC(C)[C@H]([NH3+])C(=O)[O-]
REMARK SMILES IDX 4 1 5 2 6 6 7 7 8 8 2 9 1 10 3 11
REMARK H PARENT 5 3 5 4 5 5
REMARK Flexibility Score: inf
ROOT
ATOM      1  C   UNL     1       0.361  -3.959   7.238  1.00  0.00     0.230 C 
ENDROOT
BRANCH   1   2
ATOM      2  N   UNL     1      -0.360  -4.863   6.328  1.00  0.00    -0.350 N 
ATOM      3  H   UNL     1      -0.085  -4.675   5.339  1.00  0.00     0.345 HD
ATOM      4  H   UNL     1      -0.107  -5.858   6.535  1.00  0.00     0.345 HD
ATOM      5  H   UNL     1      -1.394  -4.747   6.434  1.00  0.00     0.345 HD
ENDBRANCH   1   2
BRANCH   1   6
ATOM      6  C   UNL     1       1.560  -3.387   6.525  1.00  0.00     0.099 C 
ATOM      7  O   UNL     1       2.300  -2.548   7.103  1.00  0.00    -0.544 OA
ATOM      8  O   UNL     1       1.858  -3.782   5.226  1.00  0.00    -0.544 OA
ENDBRANCH   1   6
BRANCH   1   9
ATOM      9  C   UNL     1       0.794  -4.683   8.550  1.00  0.00     0.047 C 
ATOM     10  C   UNL     1       1.820  -5.797   8.279  1.00  0.00     0.014 C 
ATOM     11  C   UNL     1      -0.419  -5.284   9.282  1.00  0.00     0.014 C 
ENDBRANCH   1   9
TORSDOF 3
ENDMDL
