MODEL 1
REMARK VINA RESULT:    -5.930      0.000      0.000
REMARK INTER + INTRA:         -13.404
REMARK INTER:                 -10.783
REMARK INTRA:                  -2.621
REMARK UNBOUND:                -2.621
REMARK SMILES CCCCCCCCCCCCCC[C@@H](C)C(=O)[O-]
REMARK SMILES IDX 9 1 10 2 11 3 12 4 13 5 14 6 15 7 16 8 17 9 18 10 19 11 8 12
REMARK SMILES IDX 7 13 6 14 5 15 4 16 3 17 2 18 1 19
REMARK H PARENT
REMARK Flexibility Score: inf
ROOT
ATOM      1  C   UNL     1     217.710  -8.681  26.206  1.00  0.00     0.000 C 
ENDROOT
BRANCH   1   2
ATOM      2  C   UNL     1     218.271  -7.249  26.224  1.00  0.00     0.000 C 
BRANCH   2   3
ATOM      3  C   UNL     1     218.657  -6.750  24.821  1.00  0.00     0.000 C 
BRANCH   3   4
ATOM      4  C   UNL     1     220.177  -6.590  24.645  1.00  0.00     0.000 C 
BRANCH   4   5
ATOM      5  C   UNL     1     220.751  -7.526  23.569  1.00  0.00     0.001 C 
BRANCH   5   6
ATOM      6  C   UNL     1     219.672  -8.049  22.603  1.00  0.00     0.009 C 
BRANCH   6   7
ATOM      7  C   UNL     1     219.590  -9.591  22.581  1.00  0.00     0.032 C 
ATOM      8  C   UNL     1     220.219 -10.226  23.829  1.00  0.00     0.014 C 
BRANCH   7   9
ATOM      9  C   UNL     1     218.152 -10.021  22.471  1.00  0.00     0.044 C 
ATOM     10  O   UNL     1     217.868 -11.217  22.198  1.00  0.00    -0.550 OA
ATOM     11  O   UNL     1     217.128  -9.102  22.671  1.00  0.00    -0.550 OA
ENDBRANCH   7   9
ENDBRANCH   6   7
ENDBRANCH   5   6
ENDBRANCH   4   5
ENDBRANCH   3   4
ENDBRANCH   2   3
ENDBRANCH   1   2
BRANCH   1  12
ATOM     12  C   UNL     1     217.246  -9.149  27.594  1.00  0.00     0.000 C 
BRANCH  12  13
ATOM     13  C   UNL     1     217.865  -8.323  28.736  1.00  0.00    -0.000 C 
BRANCH  13  14
ATOM     14  C   UNL     1     218.551  -9.202  29.795  1.00  0.00    -0.000 C 
BRANCH  14  15
ATOM     15  C   UNL     1     220.041  -9.435  29.494  1.00  0.00    -0.000 C 
BRANCH  15  16
ATOM     16  C   UNL     1     220.796  -8.113  29.232  1.00  0.00    -0.000 C 
BRANCH  16  17
ATOM     17  C   UNL     1     221.493  -8.063  27.861  1.00  0.00    -0.000 C 
BRANCH  17  18
ATOM     18  C   UNL     1     221.299  -9.348  27.045  1.00  0.00    -0.003 C 
ATOM     19  C   UNL     1     222.606 -10.126  26.924  1.00  0.00     0.004 C 
ENDBRANCH  17  18
ENDBRANCH  16  17
ENDBRANCH  15  16
ENDBRANCH  14  15
ENDBRANCH  13  14
ENDBRANCH  12  13
ENDBRANCH   1  12
TORSDOF 14
ENDMDL
MODEL 2
REMARK VINA RESULT:    -5.860      1.165      1.849
REMARK INTER + INTRA:         -13.278
REMARK INTER:                 -10.817
REMARK INTRA:                  -2.461
REMARK UNBOUND:                -2.621
REMARK SMILES CCCCCCCCCCCCCC[C@@H](C)C(=O)[O-]
REMARK SMILES IDX 9 1 10 2 11 3 12 4 13 5 14 6 15 7 16 8 17 9 18 10 19 11 8 12
REMARK SMILES IDX 7 13 6 14 5 15 4 16 3 17 2 18 1 19
REMARK H PARENT
REMARK Flexibility Score: inf
ROOT
ATOM      1  C   UNL     1     217.180  -9.163  27.548  1.00  0.00     0.000 C 
ENDROOT
BRANCH   1   2
ATOM      2  C   UNL     1     217.538  -8.586  26.167  1.00  0.00     0.000 C 
BRANCH   2   3
ATOM      3  C   UNL     1     218.266  -7.236  26.263  1.00  0.00     0.000 C 
BRANCH   3   4
ATOM      4  C   UNL     1     218.664  -6.676  24.886  1.00  0.00     0.000 C 
BRANCH   4   5
ATOM      5  C   UNL     1     220.179  -6.450  24.752  1.00  0.00     0.001 C 
BRANCH   5   6
ATOM      6  C   UNL     1     220.836  -7.422  23.755  1.00  0.00     0.009 C 
BRANCH   6   7
ATOM      7  C   UNL     1     219.811  -8.348  23.064  1.00  0.00     0.032 C 
ATOM      8  C   UNL     1     219.926  -8.307  21.535  1.00  0.00     0.014 C 
BRANCH   7   9
ATOM      9  C   UNL     1     220.002  -9.762  23.543  1.00  0.00     0.044 C 
ATOM     10  O   UNL     1     221.138 -10.154  23.920  1.00  0.00    -0.550 OA
ATOM     11  O   UNL     1     218.928 -10.645  23.571  1.00  0.00    -0.550 OA
ENDBRANCH   7   9
ENDBRANCH   6   7
ENDBRANCH   5   6
ENDBRANCH   4   5
ENDBRANCH   3   4
ENDBRANCH   2   3
ENDBRANCH   1   2
BRANCH   1  12
ATOM     12  C   UNL     1     217.979  -8.507  28.685  1.00  0.00     0.000 C 
BRANCH  12  13
ATOM     13  C   UNL     1     218.577  -9.536  29.661  1.00  0.00    -0.000 C 
BRANCH  13  14
ATOM     14  C   UNL     1     219.589  -8.908  30.633  1.00  0.00    -0.000 C 
BRANCH  14  15
ATOM     15  C   UNL     1     220.225  -7.623  30.075  1.00  0.00    -0.000 C 
BRANCH  15  16
ATOM     16  C   UNL     1     221.616  -7.883  29.459  1.00  0.00    -0.000 C 
BRANCH  16  17
ATOM     17  C   UNL     1     221.652  -7.722  27.929  1.00  0.00    -0.000 C 
BRANCH  17  18
ATOM     18  C   UNL     1     221.345  -9.028  27.184  1.00  0.00    -0.003 C 
ATOM     19  C   UNL     1     221.992 -10.222  27.878  1.00  0.00     0.004 C 
ENDBRANCH  17  18
ENDBRANCH  16  17
ENDBRANCH  15  16
ENDBRANCH  14  15
ENDBRANCH  13  14
ENDBRANCH  12  13
ENDBRANCH   1  12
TORSDOF 14
ENDMDL
MODEL 3
REMARK VINA RESULT:    -5.837      2.561      5.438
REMARK INTER + INTRA:         -13.235
REMARK INTER:                 -10.650
REMARK INTRA:                  -2.585
REMARK UNBOUND:                -2.621
REMARK SMILES CCCCCCCCCCCCCC[C@@H](C)C(=O)[O-]
REMARK SMILES IDX 9 1 10 2 11 3 12 4 13 5 14 6 15 7 16 8 17 9 18 10 19 11 8 12
REMARK SMILES IDX 7 13 6 14 5 15 4 16 3 17 2 18 1 19
REMARK H PARENT
REMARK Flexibility Score: inf
ROOT
ATOM      1  C   UNL     1     217.358  -7.609  25.310  1.00  0.00     0.000 C 
ENDROOT
BRANCH   1   2
ATOM      2  C   UNL     1     218.036  -8.662  26.205  1.00  0.00     0.000 C 
BRANCH   2   3
ATOM      3  C   UNL     1     217.144  -9.100  27.378  1.00  0.00     0.000 C 
BRANCH   3   4
ATOM      4  C   UNL     1     217.894  -9.113  28.722  1.00  0.00     0.000 C 
BRANCH   4   5
ATOM      5  C   UNL     1     219.288  -8.470  28.629  1.00  0.00     0.001 C 
BRANCH   5   6
ATOM      6  C   UNL     1     220.421  -9.513  28.608  1.00  0.00     0.009 C 
BRANCH   6   7
ATOM      7  C   UNL     1     221.412  -9.290  27.444  1.00  0.00     0.032 C 
ATOM      8  C   UNL     1     222.079  -7.909  27.503  1.00  0.00     0.014 C 
BRANCH   7   9
ATOM      9  C   UNL     1     222.470 -10.359  27.469  1.00  0.00     0.044 C 
ATOM     10  O   UNL     1     222.321 -11.414  26.797  1.00  0.00    -0.550 OA
ATOM     11  O   UNL     1     223.620 -10.191  28.234  1.00  0.00    -0.550 OA
ENDBRANCH   7   9
ENDBRANCH   6   7
ENDBRANCH   5   6
ENDBRANCH   4   5
ENDBRANCH   3   4
ENDBRANCH   2   3
ENDBRANCH   1   2
BRANCH   1  12
ATOM     12  C   UNL     1     218.335  -6.968  24.312  1.00  0.00     0.000 C 
BRANCH  12  13
ATOM     13  C   UNL     1     219.711  -6.672  24.936  1.00  0.00    -0.000 C 
BRANCH  13  14
ATOM     14  C   UNL     1     220.863  -6.844  23.933  1.00  0.00    -0.000 C 
BRANCH  14  15
ATOM     15  C   UNL     1     220.741  -8.137  23.109  1.00  0.00    -0.000 C 
BRANCH  15  16
ATOM     16  C   UNL     1     221.180  -9.381  23.911  1.00  0.00    -0.000 C 
BRANCH  16  17
ATOM     17  C   UNL     1     220.129 -10.504  23.931  1.00  0.00    -0.000 C 
BRANCH  17  18
ATOM     18  C   UNL     1     219.009 -10.292  22.904  1.00  0.00    -0.003 C 
ATOM     19  C   UNL     1     217.707 -10.938  23.369  1.00  0.00     0.004 C 
ENDBRANCH  17  18
ENDBRANCH  16  17
ENDBRANCH  15  16
ENDBRANCH  14  15
ENDBRANCH  13  14
ENDBRANCH  12  13
ENDBRANCH   1  12
TORSDOF 14
ENDMDL
MODEL 4
REMARK VINA RESULT:    -5.827      2.509      5.849
REMARK INTER + INTRA:         -13.218
REMARK INTER:                 -10.873
REMARK INTRA:                  -2.345
REMARK UNBOUND:                -2.621
REMARK SMILES CCCCCCCCCCCCCC[C@@H](C)C(=O)[O-]
REMARK SMILES IDX 9 1 10 2 11 3 12 4 13 5 14 6 15 7 16 8 17 9 18 10 19 11 8 12
REMARK SMILES IDX 7 13 6 14 5 15 4 16 3 17 2 18 1 19
REMARK H PARENT
REMARK Flexibility Score: inf
ROOT
ATOM      1  C   UNL     1     218.286  -6.845  24.356  1.00  0.00     0.000 C 
ENDROOT
BRANCH   1   2
ATOM      2  C   UNL     1     217.373  -7.684  25.267  1.00  0.00     0.000 C 
BRANCH   2   3
ATOM      3  C   UNL     1     218.165  -8.535  26.273  1.00  0.00     0.000 C 
BRANCH   3   4
ATOM      4  C   UNL     1     217.298  -9.031  27.443  1.00  0.00     0.000 C 
BRANCH   4   5
ATOM      5  C   UNL     1     217.856  -8.612  28.814  1.00  0.00     0.001 C 
BRANCH   5   6
ATOM      6  C   UNL     1     218.804  -7.403  28.722  1.00  0.00     0.009 C 
BRANCH   6   7
ATOM      7  C   UNL     1     220.159  -7.655  29.419  1.00  0.00     0.032 C 
ATOM      8  C   UNL     1     220.064  -8.737  30.503  1.00  0.00     0.014 C 
BRANCH   7   9
ATOM      9  C   UNL     1     221.187  -8.059  28.397  1.00  0.00     0.044 C 
ATOM     10  O   UNL     1     221.252  -9.254  28.003  1.00  0.00    -0.550 OA
ATOM     11  O   UNL     1     222.071  -7.119  27.881  1.00  0.00    -0.550 OA
ENDBRANCH   7   9
ENDBRANCH   6   7
ENDBRANCH   5   6
ENDBRANCH   4   5
ENDBRANCH   3   4
ENDBRANCH   2   3
ENDBRANCH   1   2
BRANCH   1  12
ATOM     12  C   UNL     1     219.575  -6.399  25.065  1.00  0.00     0.000 C 
BRANCH  12  13
ATOM     13  C   UNL     1     220.832  -6.615  24.202  1.00  0.00    -0.000 C 
BRANCH  13  14
ATOM     14  C   UNL     1     221.491  -7.981  24.452  1.00  0.00    -0.000 C 
BRANCH  14  15
ATOM     15  C   UNL     1     221.552  -8.849  23.184  1.00  0.00    -0.000 C 
BRANCH  15  16
ATOM     16  C   UNL     1     220.479  -8.445  22.150  1.00  0.00    -0.000 C 
BRANCH  16  17
ATOM     17  C   UNL     1     219.434  -9.542  21.886  1.00  0.00    -0.000 C 
BRANCH  17  18
ATOM     18  C   UNL     1     218.998 -10.271  23.164  1.00  0.00    -0.003 C 
ATOM     19  C   UNL     1     217.556 -10.758  23.054  1.00  0.00     0.004 C 
ENDBRANCH  17  18
ENDBRANCH  16  17
ENDBRANCH  15  16
ENDBRANCH  14  15
ENDBRANCH  13  14
ENDBRANCH  12  13
ENDBRANCH   1  12
TORSDOF 14
ENDMDL
MODEL 5
REMARK VINA RESULT:    -5.786      3.042      6.308
REMARK INTER + INTRA:         -13.142
REMARK INTER:                 -10.759
REMARK INTRA:                  -2.384
REMARK UNBOUND:                -2.621
REMARK SMILES CCCCCCCCCCCCCC[C@@H](C)C(=O)[O-]
REMARK SMILES IDX 9 1 10 2 11 3 12 4 13 5 14 6 15 7 16 8 17 9 18 10 19 11 8 12
REMARK SMILES IDX 7 13 6 14 5 15 4 16 3 17 2 18 1 19
REMARK H PARENT
REMARK Flexibility Score: inf
ROOT
ATOM      1  C   UNL     1     220.394  -7.176  24.836  1.00  0.00     0.000 C 
ENDROOT
BRANCH   1   2
ATOM      2  C   UNL     1     218.875  -6.947  24.754  1.00  0.00     0.000 C 
BRANCH   2   3
ATOM      3  C   UNL     1     218.167  -7.204  26.094  1.00  0.00     0.000 C 
BRANCH   3   4
ATOM      4  C   UNL     1     217.432  -8.556  26.127  1.00  0.00     0.000 C 
BRANCH   4   5
ATOM      5  C   UNL     1     217.194  -9.067  27.558  1.00  0.00     0.001 C 
BRANCH   5   6
ATOM      6  C   UNL     1     218.098  -8.371  28.592  1.00  0.00     0.009 C 
BRANCH   6   7
ATOM      7  C   UNL     1     219.407  -9.148  28.856  1.00  0.00     0.032 C 
ATOM      8  C   UNL     1     220.645  -8.242  28.795  1.00  0.00     0.014 C 
BRANCH   7   9
ATOM      9  C   UNL     1     219.339  -9.813  30.204  1.00  0.00     0.044 C 
ATOM     10  O   UNL     1     218.423  -9.511  31.013  1.00  0.00    -0.550 OA
ATOM     11  O   UNL     1     220.286 -10.764  30.566  1.00  0.00    -0.550 OA
ENDBRANCH   7   9
ENDBRANCH   6   7
ENDBRANCH   5   6
ENDBRANCH   4   5
ENDBRANCH   3   4
ENDBRANCH   2   3
ENDBRANCH   1   2
BRANCH   1  12
ATOM     12  C   UNL     1     220.760  -8.664  24.946  1.00  0.00     0.000 C 
BRANCH  12  13
ATOM     13  C   UNL     1     221.675  -9.137  23.802  1.00  0.00    -0.000 C 
BRANCH  13  14
ATOM     14  C   UNL     1     221.727  -8.136  22.637  1.00  0.00    -0.000 C 
BRANCH  14  15
ATOM     15  C   UNL     1     221.076  -8.686  21.356  1.00  0.00    -0.000 C 
BRANCH  15  16
ATOM     16  C   UNL     1     219.558  -8.406  21.309  1.00  0.00    -0.000 C 
BRANCH  16  17
ATOM     17  C   UNL     1     218.696  -9.681  21.338  1.00  0.00    -0.000 C 
BRANCH  17  18
ATOM     18  C   UNL     1     217.811  -9.774  22.588  1.00  0.00    -0.003 C 
ATOM     19  C   UNL     1     218.189 -10.983  23.439  1.00  0.00     0.004 C 
ENDBRANCH  17  18
ENDBRANCH  16  17
ENDBRANCH  15  16
ENDBRANCH  14  15
ENDBRANCH  13  14
ENDBRANCH  12  13
ENDBRANCH   1  12
TORSDOF 14
ENDMDL
MODEL 6
REMARK VINA RESULT:    -5.689      2.997      6.039
REMARK INTER + INTRA:         -12.967
REMARK INTER:                 -10.191
REMARK INTRA:                  -2.776
REMARK UNBOUND:                -2.621
REMARK SMILES CCCCCCCCCCCCCC[C@@H](C)C(=O)[O-]
REMARK SMILES IDX 9 1 10 2 11 3 12 4 13 5 14 6 15 7 16 8 17 9 18 10 19 11 8 12
REMARK SMILES IDX 7 13 6 14 5 15 4 16 3 17 2 18 1 19
REMARK H PARENT
REMARK Flexibility Score: inf
ROOT
ATOM      1  C   UNL     1     221.641  -9.484  23.866  1.00  0.00     0.000 C 
ENDROOT
BRANCH   1   2
ATOM      2  C   UNL     1     221.250 -10.347  25.079  1.00  0.00     0.000 C 
BRANCH   2   3
ATOM      3  C   UNL     1     222.360 -10.408  26.141  1.00  0.00     0.000 C 
BRANCH   3   4
ATOM      4  C   UNL     1     221.941  -9.768  27.476  1.00  0.00     0.000 C 
BRANCH   4   5
ATOM      5  C   UNL     1     220.437  -9.452  27.535  1.00  0.00     0.001 C 
BRANCH   5   6
ATOM      6  C   UNL     1     220.156  -7.972  27.856  1.00  0.00     0.009 C 
BRANCH   6   7
ATOM      7  C   UNL     1     218.870  -7.778  28.688  1.00  0.00     0.032 C 
ATOM      8  C   UNL     1     217.705  -8.633  28.170  1.00  0.00     0.014 C 
BRANCH   7   9
ATOM      9  C   UNL     1     219.141  -8.122  30.128  1.00  0.00     0.044 C 
ATOM     10  O   UNL     1     220.075  -7.549  30.750  1.00  0.00    -0.550 OA
ATOM     11  O   UNL     1     218.365  -9.073  30.781  1.00  0.00    -0.550 OA
ENDBRANCH   7   9
ENDBRANCH   6   7
ENDBRANCH   5   6
ENDBRANCH   4   5
ENDBRANCH   3   4
ENDBRANCH   2   3
ENDBRANCH   1   2
BRANCH   1  12
ATOM     12  C   UNL     1     221.652  -7.983  24.191  1.00  0.00     0.000 C 
BRANCH  12  13
ATOM     13  C   UNL     1     220.458  -7.232  23.573  1.00  0.00    -0.000 C 
BRANCH  13  14
ATOM     14  C   UNL     1     219.651  -6.445  24.618  1.00  0.00    -0.000 C 
BRANCH  14  15
ATOM     15  C   UNL     1     218.255  -7.044  24.860  1.00  0.00    -0.000 C 
BRANCH  15  16
ATOM     16  C   UNL     1     217.930  -8.182  23.869  1.00  0.00    -0.000 C 
BRANCH  16  17
ATOM     17  C   UNL     1     217.784  -9.560  24.538  1.00  0.00    -0.000 C 
BRANCH  17  18
ATOM     18  C   UNL     1     217.960 -10.724  23.554  1.00  0.00    -0.003 C 
ATOM     19  C   UNL     1     218.299 -10.215  22.156  1.00  0.00     0.004 C 
ENDBRANCH  17  18
ENDBRANCH  16  17
ENDBRANCH  15  16
ENDBRANCH  14  15
ENDBRANCH  13  14
ENDBRANCH  12  13
ENDBRANCH   1  12
TORSDOF 14
ENDMDL
MODEL 7
REMARK VINA RESULT:    -5.680      2.735      5.450
REMARK INTER + INTRA:         -12.950
REMARK INTER:                 -10.413
REMARK INTRA:                  -2.536
REMARK UNBOUND:                -2.621
REMARK SMILES CCCCCCCCCCCCCC[C@@H](C)C(=O)[O-]
REMARK SMILES IDX 9 1 10 2 11 3 12 4 13 5 14 6 15 7 16 8 17 9 18 10 19 11 8 12
REMARK SMILES IDX 7 13 6 14 5 15 4 16 3 17 2 18 1 19
REMARK H PARENT
REMARK Flexibility Score: inf
ROOT
ATOM      1  C   UNL     1     218.570  -9.385  22.122  1.00  0.00     0.000 C 
ENDROOT
BRANCH   1   2
ATOM      2  C   UNL     1     217.794  -9.222  23.441  1.00  0.00     0.000 C 
BRANCH   2   3
ATOM      3  C   UNL     1     217.732  -7.759  23.911  1.00  0.00     0.000 C 
BRANCH   3   4
ATOM      4  C   UNL     1     217.683  -7.630  25.444  1.00  0.00     0.000 C 
BRANCH   4   5
ATOM      5  C   UNL     1     217.857  -8.980  26.159  1.00  0.00     0.001 C 
BRANCH   5   6
ATOM      6  C   UNL     1     217.794  -8.850  27.692  1.00  0.00     0.009 C 
BRANCH   6   7
ATOM      7  C   UNL     1     218.858  -7.878  28.250  1.00  0.00     0.032 C 
ATOM      8  C   UNL     1     218.240  -6.771  29.115  1.00  0.00     0.014 C 
BRANCH   7   9
ATOM      9  C   UNL     1     219.867  -8.644  29.062  1.00  0.00     0.044 C 
ATOM     10  O   UNL     1     219.770  -9.895  29.175  1.00  0.00    -0.550 OA
ATOM     11  O   UNL     1     220.912  -7.978  29.692  1.00  0.00    -0.550 OA
ENDBRANCH   7   9
ENDBRANCH   6   7
ENDBRANCH   5   6
ENDBRANCH   4   5
ENDBRANCH   3   4
ENDBRANCH   2   3
ENDBRANCH   1   2
BRANCH   1  12
ATOM     12  C   UNL     1     219.573  -8.245  21.884  1.00  0.00     0.000 C 
BRANCH  12  13
ATOM     13  C   UNL     1     220.988  -8.757  21.562  1.00  0.00    -0.000 C 
BRANCH  13  14
ATOM     14  C   UNL     1     221.971  -8.544  22.724  1.00  0.00    -0.000 C 
BRANCH  14  15
ATOM     15  C   UNL     1     221.382  -7.668  23.843  1.00  0.00    -0.000 C 
BRANCH  15  16
ATOM     16  C   UNL     1     221.369  -8.396  25.205  1.00  0.00    -0.000 C 
BRANCH  16  17
ATOM     17  C   UNL     1     221.241  -9.924  25.086  1.00  0.00    -0.000 C 
BRANCH  17  18
ATOM     18  C   UNL     1     221.935 -10.673  26.231  1.00  0.00    -0.003 C 
ATOM     19  C   UNL     1     222.721  -9.713  27.119  1.00  0.00     0.004 C 
ENDBRANCH  17  18
ENDBRANCH  16  17
ENDBRANCH  15  16
ENDBRANCH  14  15
ENDBRANCH  13  14
ENDBRANCH  12  13
ENDBRANCH   1  12
TORSDOF 14
ENDMDL
MODEL 8
REMARK VINA RESULT:    -5.673      2.894      5.713
REMARK INTER + INTRA:         -12.937
REMARK INTER:                 -10.428
REMARK INTRA:                  -2.509
REMARK UNBOUND:                -2.621
REMARK SMILES CCCCCCCCCCCCCC[C@@H](C)C(=O)[O-]
REMARK SMILES IDX 9 1 10 2 11 3 12 4 13 5 14 6 15 7 16 8 17 9 18 10 19 11 8 12
REMARK SMILES IDX 7 13 6 14 5 15 4 16 3 17 2 18 1 19
REMARK H PARENT
REMARK Flexibility Score: inf
ROOT
ATOM      1  C   UNL     1     221.233  -8.379  22.002  1.00  0.00     0.000 C 
ENDROOT
BRANCH   1   2
ATOM      2  C   UNL     1     221.090  -7.413  23.190  1.00  0.00     0.000 C 
BRANCH   2   3
ATOM      3  C   UNL     1     221.631  -8.007  24.502  1.00  0.00     0.000 C 
BRANCH   3   4
ATOM      4  C   UNL     1     221.857  -9.527  24.415  1.00  0.00     0.000 C 
BRANCH   4   5
ATOM      5  C   UNL     1     221.819 -10.212  25.792  1.00  0.00     0.001 C 
BRANCH   5   6
ATOM      6  C   UNL     1     220.977  -9.431  26.817  1.00  0.00     0.009 C 
BRANCH   6   7
ATOM      7  C   UNL     1     221.511  -9.577  28.259  1.00  0.00     0.032 C 
ATOM      8  C   UNL     1     222.843 -10.338  28.313  1.00  0.00     0.014 C 
BRANCH   7   9
ATOM      9  C   UNL     1     221.687  -8.215  28.874  1.00  0.00     0.044 C 
ATOM     10  O   UNL     1     221.252  -7.983  30.033  1.00  0.00    -0.550 OA
ATOM     11  O   UNL     1     222.331  -7.205  28.169  1.00  0.00    -0.550 OA
ENDBRANCH   7   9
ENDBRANCH   6   7
ENDBRANCH   5   6
ENDBRANCH   4   5
ENDBRANCH   3   4
ENDBRANCH   2   3
ENDBRANCH   1   2
BRANCH   1  12
ATOM     12  C   UNL     1     219.896  -8.637  21.289  1.00  0.00     0.000 C 
BRANCH  12  13
ATOM     13  C   UNL     1     218.683  -8.457  22.220  1.00  0.00    -0.000 C 
BRANCH  13  14
ATOM     14  C   UNL     1     218.335  -9.741  22.990  1.00  0.00    -0.000 C 
BRANCH  14  15
ATOM     15  C   UNL     1     218.128  -9.491  24.493  1.00  0.00    -0.000 C 
BRANCH  15  16
ATOM     16  C   UNL     1     217.875  -8.000  24.806  1.00  0.00    -0.000 C 
BRANCH  16  17
ATOM     17  C   UNL     1     217.882  -7.676  26.310  1.00  0.00    -0.000 C 
BRANCH  17  18
ATOM     18  C   UNL     1     217.345  -8.827  27.171  1.00  0.00    -0.003 C 
ATOM     19  C   UNL     1     217.871  -8.736  28.600  1.00  0.00     0.004 C 
ENDBRANCH  17  18
ENDBRANCH  16  17
ENDBRANCH  15  16
ENDBRANCH  14  15
ENDBRANCH  13  14
ENDBRANCH  12  13
ENDBRANCH   1  12
TORSDOF 14
ENDMDL
MODEL 9
REMARK VINA RESULT:    -5.640      3.056      5.929
REMARK INTER + INTRA:         -12.877
REMARK INTER:                 -10.404
REMARK INTRA:                  -2.473
REMARK UNBOUND:                -2.621
REMARK SMILES CCCCCCCCCCCCCC[C@@H](C)C(=O)[O-]
REMARK SMILES IDX 9 1 10 2 11 3 12 4 13 5 14 6 15 7 16 8 17 9 18 10 19 11 8 12
REMARK SMILES IDX 7 13 6 14 5 15 4 16 3 17 2 18 1 19
REMARK H PARENT
REMARK Flexibility Score: inf
ROOT
ATOM      1  C   UNL     1     217.563  -7.837  23.182  1.00  0.00     0.000 C 
ENDROOT
BRANCH   1   2
ATOM      2  C   UNL     1     217.766  -7.592  24.688  1.00  0.00     0.000 C 
BRANCH   2   3
ATOM      3  C   UNL     1     217.879  -8.900  25.488  1.00  0.00     0.000 C 
BRANCH   3   4
ATOM      4  C   UNL     1     217.561  -8.711  26.982  1.00  0.00     0.000 C 
BRANCH   4   5
ATOM      5  C   UNL     1     218.211  -7.447  27.572  1.00  0.00     0.001 C 
BRANCH   5   6
ATOM      6  C   UNL     1     219.590  -7.728  28.194  1.00  0.00     0.009 C 
BRANCH   6   7
ATOM      7  C   UNL     1     219.724  -9.175  28.716  1.00  0.00     0.032 C 
ATOM      8  C   UNL     1     221.133  -9.745  28.502  1.00  0.00     0.014 C 
BRANCH   7   9
ATOM      9  C   UNL     1     219.383  -9.219  30.181  1.00  0.00     0.044 C 
ATOM     10  O   UNL     1     220.243  -9.599  31.020  1.00  0.00    -0.550 OA
ATOM     11  O   UNL     1     218.119  -8.841  30.619  1.00  0.00    -0.550 OA
ENDBRANCH   7   9
ENDBRANCH   6   7
ENDBRANCH   5   6
ENDBRANCH   4   5
ENDBRANCH   3   4
ENDBRANCH   2   3
ENDBRANCH   1   2
BRANCH   1  12
ATOM     12  C   UNL     1     217.566  -9.331  22.824  1.00  0.00     0.000 C 
BRANCH  12  13
ATOM     13  C   UNL     1     218.663  -9.696  21.807  1.00  0.00    -0.000 C 
BRANCH  13  14
ATOM     14  C   UNL     1     219.171  -8.474  21.024  1.00  0.00    -0.000 C 
BRANCH  14  15
ATOM     15  C   UNL     1     220.706  -8.400  20.976  1.00  0.00    -0.000 C 
BRANCH  15  16
ATOM     16  C   UNL     1     221.350  -8.774  22.329  1.00  0.00    -0.000 C 
BRANCH  16  17
ATOM     17  C   UNL     1     221.277  -7.650  23.377  1.00  0.00    -0.000 C 
BRANCH  17  18
ATOM     18  C   UNL     1     221.507  -8.152  24.808  1.00  0.00    -0.003 C 
ATOM     19  C   UNL     1     221.419  -9.674  24.877  1.00  0.00     0.004 C 
ENDBRANCH  17  18
ENDBRANCH  16  17
ENDBRANCH  15  16
ENDBRANCH  14  15
ENDBRANCH  13  14
ENDBRANCH  12  13
ENDBRANCH   1  12
TORSDOF 14
ENDMDL
