MODEL 1
REMARK VINA RESULT:    -4.529      0.000      0.000
REMARK INTER + INTRA:          -5.981
REMARK INTER:                  -6.912
REMARK INTRA:                   0.930
REMARK UNBOUND:                 0.930
REMARK SMILES CC1=CCC[C@@H](C)C(=O)C[C@H](C(C)C)C(=O)C1
REMARK SMILES IDX 8 1 9 2 6 3 7 4 5 5 4 6 3 7 2 8 1 9 10 11 11 12 15 13 16 14
REMARK SMILES IDX 17 15 12 17 13 18 14 19
REMARK H PARENT
REMARK Flexibility Score: 70.00
ROOT
ATOM      1  C   UNL     1     -11.285 -16.370  28.436  1.00  0.00     0.136 C 
ATOM      2  O   UNL     1     -10.207 -16.601  28.965  1.00  0.00    -0.299 OA
ENDROOT
BRANCH   1   3
ATOM      3  C   UNL     1     -11.872 -17.370  27.460  1.00  0.00     0.053 C 
ATOM      4  C   UNL     1     -11.371 -17.089  26.036  1.00  0.00     0.016 C 
BRANCH   3   5
ATOM      5  C   UNL     1     -13.416 -17.335  27.521  1.00  0.00     0.015 C 
BRANCH   5   6
ATOM      6  C   UNL     1     -13.998 -18.571  28.235  1.00  0.00     0.028 C 
BRANCH   6   7
ATOM      7  C   UNL     1     -13.014 -19.154  29.216  1.00  0.00    -0.028 C 
ATOM      8  C   UNL     1     -12.841 -18.731  30.490  1.00  0.00    -0.070 CG0
ATOM      9  C   UNL     1     -11.851 -19.473  31.352  1.00  0.00     0.039 C 
ATOM     10  G   UNL     1     -13.601 -17.560  31.093  1.00  0.00     0.000 G0
ENDBRANCH   6   7
ENDBRANCH   5   6
ENDBRANCH   3   5
ENDBRANCH   1   3
BRANCH   1  11
ATOM     11  C   UNL     1     -12.011 -15.087  28.774  1.00  0.00     0.087 C 
BRANCH  11  12
ATOM     12  C   UNL     1     -13.262 -15.330  29.657  1.00  0.00     0.066 C 
BRANCH  12  13
ATOM     13  C   UNL     1     -12.923 -16.217  30.849  1.00  0.00     0.140 C 
ATOM     14  O   UNL     1     -12.027 -15.869  31.605  1.00  0.00    -0.299 OA
BRANCH  13  15
ATOM     15  C   UNL     1     -13.608 -17.545  31.082  1.00  0.00     0.106 CG0
ATOM     16  G   UNL     1     -12.838 -18.706  30.473  1.00  0.00     0.000 G0
ENDBRANCH  13  15
ENDBRANCH  12  13
BRANCH  12  17
ATOM     17  C   UNL     1     -13.957 -14.004  30.110  1.00  0.00    -0.006 C 
ATOM     18  C   UNL     1     -14.837 -13.396  29.002  1.00  0.00     0.008 C 
ATOM     19  C   UNL     1     -14.827 -14.235  31.360  1.00  0.00     0.008 C 
ENDBRANCH  12  17
ENDBRANCH  11  12
ENDBRANCH   1  11
TORSDOF 1
ENDMDL
MODEL 2
REMARK VINA RESULT:    -4.174      1.984      5.018
REMARK INTER + INTRA:          -5.440
REMARK INTER:                  -5.297
REMARK INTRA:                  -0.143
REMARK UNBOUND:                 0.930
REMARK SMILES CC1=CCC[C@@H](C)C(=O)C[C@H](C(C)C)C(=O)C1
REMARK SMILES IDX 8 1 9 2 6 3 7 4 5 5 4 6 3 7 2 8 1 9 10 11 11 12 15 13 16 14
REMARK SMILES IDX 17 15 12 17 13 18 14 19
REMARK H PARENT
REMARK Flexibility Score: 70.00
ROOT
ATOM      1  C   UNL     1     -13.616 -16.018  31.414  1.00  0.00     0.136 C 
ATOM      2  O   UNL     1     -14.391 -16.898  31.764  1.00  0.00    -0.299 OA
ENDROOT
BRANCH   1   3
ATOM      3  C   UNL     1     -13.982 -14.564  31.636  1.00  0.00     0.053 C 
ATOM      4  C   UNL     1     -14.723 -14.394  32.970  1.00  0.00     0.016 C 
BRANCH   3   5
ATOM      5  C   UNL     1     -14.836 -14.043  30.458  1.00  0.00     0.015 C 
BRANCH   5   6
ATOM      6  C   UNL     1     -13.974 -13.669  29.235  1.00  0.00     0.028 C 
BRANCH   6   7
ATOM      7  C   UNL     1     -14.376 -14.459  28.017  1.00  0.00    -0.028 C 
ATOM      8  C   UNL     1     -13.626 -15.421  27.430  1.00  0.00    -0.070 CG0
ATOM      9  C   UNL     1     -14.215 -16.154  26.251  1.00  0.00     0.039 C 
ATOM     10  G   UNL     1     -12.234 -15.803  27.906  1.00  0.00     0.000 G0
ENDBRANCH   6   7
ENDBRANCH   5   6
ENDBRANCH   3   5
ENDBRANCH   1   3
BRANCH   1  11
ATOM     11  C   UNL     1     -12.305 -16.406  30.769  1.00  0.00     0.087 C 
BRANCH  11  12
ATOM     12  C   UNL     1     -12.447 -17.632  29.830  1.00  0.00     0.066 C 
BRANCH  12  13
ATOM     13  C   UNL     1     -12.178 -17.243  28.382  1.00  0.00     0.140 C 
ATOM     14  O   UNL     1     -11.849 -18.115  27.590  1.00  0.00    -0.299 OA
BRANCH  13  15
ATOM     15  C   UNL     1     -12.235 -15.806  27.913  1.00  0.00     0.106 CG0
ATOM     16  G   UNL     1     -13.617 -15.417  27.414  1.00  0.00     0.000 G0
ENDBRANCH  13  15
ENDBRANCH  12  13
BRANCH  12  17
ATOM     17  C   UNL     1     -11.563 -18.845  30.270  1.00  0.00    -0.006 C 
ATOM     18  C   UNL     1     -10.182 -18.405  30.788  1.00  0.00     0.008 C 
ATOM     19  C   UNL     1     -12.263 -19.669  31.367  1.00  0.00     0.008 C 
ENDBRANCH  12  17
ENDBRANCH  11  12
ENDBRANCH   1  11
TORSDOF 1
ENDMDL
MODEL 3
REMARK VINA RESULT:    -3.984      2.047      4.624
REMARK INTER + INTRA:          -5.150
REMARK INTER:                  -6.565
REMARK INTRA:                   1.415
REMARK UNBOUND:                 0.930
REMARK SMILES CC1=CCC[C@@H](C)C(=O)C[C@H](C(C)C)C(=O)C1
REMARK SMILES IDX 8 1 9 2 6 3 7 4 5 5 4 6 3 7 2 8 1 9 10 11 11 12 15 13 16 14
REMARK SMILES IDX 17 15 12 17 13 18 14 19
REMARK H PARENT
REMARK Flexibility Score: 70.00
ROOT
ATOM      1  C   UNL     1     -13.120 -18.791  29.240  1.00  0.00     0.136 C 
ATOM      2  O   UNL     1     -12.676 -19.826  28.764  1.00  0.00    -0.299 OA
ENDROOT
BRANCH   1   3
ATOM      3  C   UNL     1     -12.740 -18.393  30.653  1.00  0.00     0.053 C 
ATOM      4  C   UNL     1     -12.682 -19.628  31.563  1.00  0.00     0.016 C 
BRANCH   3   5
ATOM      5  C   UNL     1     -13.739 -17.348  31.200  1.00  0.00     0.015 C 
BRANCH   5   6
ATOM      6  C   UNL     1     -13.089 -15.962  31.384  1.00  0.00     0.028 C 
BRANCH   6   7
ATOM      7  C   UNL     1     -14.000 -14.860  30.910  1.00  0.00    -0.028 C 
ATOM      8  C   UNL     1     -13.981 -14.312  29.673  1.00  0.00    -0.070 CG0
ATOM      9  C   UNL     1     -15.011 -13.258  29.352  1.00  0.00     0.039 C 
ATOM     10  G   UNL     1     -12.987 -14.714  28.595  1.00  0.00     0.000 G0
ENDBRANCH   6   7
ENDBRANCH   5   6
ENDBRANCH   3   5
ENDBRANCH   1   3
BRANCH   1  11
ATOM     11  C   UNL     1     -14.038 -17.930  28.403  1.00  0.00     0.087 C 
BRANCH  11  12
ATOM     12  C   UNL     1     -13.265 -17.073  27.368  1.00  0.00     0.066 C 
BRANCH  12  13
ATOM     13  C   UNL     1     -13.615 -15.597  27.513  1.00  0.00     0.140 C 
ATOM     14  O   UNL     1     -14.381 -15.092  26.703  1.00  0.00    -0.299 OA
BRANCH  13  15
ATOM     15  C   UNL     1     -12.991 -14.724  28.578  1.00  0.00     0.106 CG0
ATOM     16  G   UNL     1     -13.989 -14.322  29.653  1.00  0.00     0.000 G0
ENDBRANCH  13  15
ENDBRANCH  12  13
BRANCH  12  17
ATOM     17  C   UNL     1     -11.719 -17.302  27.418  1.00  0.00    -0.006 C 
ATOM     18  C   UNL     1     -11.067 -17.206  26.026  1.00  0.00     0.008 C 
ATOM     19  C   UNL     1     -11.039 -16.284  28.353  1.00  0.00     0.008 C 
ENDBRANCH  12  17
ENDBRANCH  11  12
ENDBRANCH   1  11
TORSDOF 1
ENDMDL
MODEL 4
REMARK VINA RESULT:    -3.915      1.619      3.631
REMARK INTER + INTRA:          -5.044
REMARK INTER:                  -5.509
REMARK INTRA:                   0.465
REMARK UNBOUND:                 0.930
REMARK SMILES CC1=CCC[C@@H](C)C(=O)C[C@H](C(C)C)C(=O)C1
REMARK SMILES IDX 8 1 9 2 6 3 7 4 5 5 4 6 3 7 2 8 1 9 10 11 11 12 15 13 16 14
REMARK SMILES IDX 17 15 12 17 13 18 14 19
REMARK H PARENT
REMARK Flexibility Score: 70.00
ROOT
ATOM      1  C   UNL     1     -11.139 -18.492  30.263  1.00  0.00     0.136 C 
ATOM      2  O   UNL     1     -10.371 -18.227  31.177  1.00  0.00    -0.299 OA
ENDROOT
BRANCH   1   3
ATOM      3  C   UNL     1     -12.167 -19.591  30.442  1.00  0.00     0.053 C 
ATOM      4  C   UNL     1     -12.881 -19.882  29.114  1.00  0.00     0.016 C 
BRANCH   3   5
ATOM      5  C   UNL     1     -13.181 -19.200  31.542  1.00  0.00     0.015 C 
BRANCH   5   6
ATOM      6  C   UNL     1     -14.131 -18.075  31.084  1.00  0.00     0.028 C 
BRANCH   6   7
ATOM      7  C   UNL     1     -14.126 -16.923  32.055  1.00  0.00    -0.028 C 
ATOM      8  C   UNL     1     -13.932 -15.626  31.722  1.00  0.00    -0.070 CG0
ATOM      9  C   UNL     1     -14.021 -14.595  32.819  1.00  0.00     0.039 C 
ATOM     10  G   UNL     1     -13.642 -15.161  30.304  1.00  0.00     0.000 G0
ENDBRANCH   6   7
ENDBRANCH   5   6
ENDBRANCH   3   5
ENDBRANCH   1   3
BRANCH   1  11
ATOM     11  C   UNL     1     -11.044 -17.710  28.972  1.00  0.00     0.087 C 
BRANCH  11  12
ATOM     12  C   UNL     1     -12.283 -16.808  28.734  1.00  0.00     0.066 C 
BRANCH  12  13
ATOM     13  C   UNL     1     -12.336 -15.677  29.754  1.00  0.00     0.140 C 
ATOM     14  O   UNL     1     -11.285 -15.225  30.186  1.00  0.00    -0.299 OA
BRANCH  13  15
ATOM     15  C   UNL     1     -13.644 -15.149  30.300  1.00  0.00     0.106 CG0
ATOM     16  G   UNL     1     -13.914 -15.631  31.716  1.00  0.00     0.000 G0
ENDBRANCH  13  15
ENDBRANCH  12  13
BRANCH  12  17
ATOM     17  C   UNL     1     -12.371 -16.265  27.271  1.00  0.00    -0.006 C 
ATOM     18  C   UNL     1     -11.417 -17.002  26.313  1.00  0.00     0.008 C 
ATOM     19  C   UNL     1     -13.806 -16.379  26.724  1.00  0.00     0.008 C 
ENDBRANCH  12  17
ENDBRANCH  11  12
ENDBRANCH   1  11
TORSDOF 1
ENDMDL
MODEL 5
REMARK VINA RESULT:    -3.882      1.818      2.413
REMARK INTER + INTRA:          -4.994
REMARK INTER:                  -6.525
REMARK INTRA:                   1.531
REMARK UNBOUND:                 0.930
REMARK SMILES CC1=CCC[C@@H](C)C(=O)C[C@H](C(C)C)C(=O)C1
REMARK SMILES IDX 8 1 9 2 6 3 7 4 5 5 4 6 3 7 2 8 1 9 10 11 11 12 15 13 16 14
REMARK SMILES IDX 17 15 12 17 13 18 14 19
REMARK H PARENT
REMARK Flexibility Score: 70.00
ROOT
ATOM      1  C   UNL     1     -13.585 -15.643  27.420  1.00  0.00     0.136 C 
ATOM      2  O   UNL     1     -14.449 -15.083  26.760  1.00  0.00    -0.299 OA
ENDROOT
BRANCH   1   3
ATOM      3  C   UNL     1     -13.105 -17.021  27.012  1.00  0.00     0.053 C 
ATOM      4  C   UNL     1     -13.497 -18.063  28.070  1.00  0.00     0.016 C 
BRANCH   3   5
ATOM      5  C   UNL     1     -11.576 -17.009  26.786  1.00  0.00     0.015 C 
BRANCH   5   6
ATOM      6  C   UNL     1     -10.822 -16.325  27.945  1.00  0.00     0.028 C 
BRANCH   6   7
ATOM      7  C   UNL     1     -10.428 -17.318  29.007  1.00  0.00    -0.028 C 
ATOM      8  C   UNL     1     -10.712 -17.201  30.325  1.00  0.00    -0.070 CG0
ATOM      9  C   UNL     1     -10.292 -18.325  31.240  1.00  0.00     0.039 C 
ATOM     10  G   UNL     1     -11.439 -16.007  30.922  1.00  0.00     0.000 G0
ENDBRANCH   6   7
ENDBRANCH   5   6
ENDBRANCH   3   5
ENDBRANCH   1   3
BRANCH   1  11
ATOM     11  C   UNL     1     -13.013 -14.940  28.630  1.00  0.00     0.087 C 
BRANCH  11  12
ATOM     12  C   UNL     1     -13.794 -15.268  29.929  1.00  0.00     0.066 C 
BRANCH  12  13
ATOM     13  C   UNL     1     -12.953 -16.127  30.867  1.00  0.00     0.140 C 
ATOM     14  O   UNL     1     -13.523 -16.899  31.625  1.00  0.00    -0.299 OA
BRANCH  13  15
ATOM     15  C   UNL     1     -11.448 -15.999  30.939  1.00  0.00     0.106 CG0
ATOM     16  G   UNL     1     -10.738 -17.204  30.342  1.00  0.00     0.000 G0
ENDBRANCH  13  15
ENDBRANCH  12  13
BRANCH  12  17
ATOM     17  C   UNL     1     -14.339 -13.994  30.653  1.00  0.00    -0.006 C 
ATOM     18  C   UNL     1     -15.207 -13.121  29.729  1.00  0.00     0.008 C 
ATOM     19  C   UNL     1     -15.167 -14.376  31.894  1.00  0.00     0.008 C 
ENDBRANCH  12  17
ENDBRANCH  11  12
ENDBRANCH   1  11
TORSDOF 1
ENDMDL
MODEL 6
REMARK VINA RESULT:    -3.704      1.457      3.938
REMARK INTER + INTRA:          -4.722
REMARK INTER:                  -4.817
REMARK INTRA:                   0.095
REMARK UNBOUND:                 0.930
REMARK SMILES CC1=CCC[C@@H](C)C(=O)C[C@H](C(C)C)C(=O)C1
REMARK SMILES IDX 8 1 9 2 6 3 7 4 5 5 4 6 3 7 2 8 1 9 10 11 11 12 15 13 16 14
REMARK SMILES IDX 17 15 12 17 13 18 14 19
REMARK H PARENT
REMARK Flexibility Score: 70.00
ROOT
ATOM      1  C   UNL     1     -12.623 -17.502  27.825  1.00  0.00     0.136 C 
ATOM      2  O   UNL     1     -11.434 -17.742  27.979  1.00  0.00    -0.299 OA
ENDROOT
BRANCH   1   3
ATOM      3  C   UNL     1     -13.075 -16.682  26.633  1.00  0.00     0.053 C 
ATOM      4  C   UNL     1     -11.881 -16.349  25.727  1.00  0.00     0.016 C 
BRANCH   3   5
ATOM      5  C   UNL     1     -13.786 -15.395  27.108  1.00  0.00     0.015 C 
BRANCH   5   6
ATOM      6  C   UNL     1     -13.046 -14.720  28.281  1.00  0.00     0.028 C 
BRANCH   6   7
ATOM      7  C   UNL     1     -14.001 -14.316  29.374  1.00  0.00    -0.028 C 
ATOM      8  C   UNL     1     -13.942 -14.742  30.657  1.00  0.00    -0.070 CG0
ATOM      9  C   UNL     1     -14.947 -14.185  31.633  1.00  0.00     0.039 C 
ATOM     10  G   UNL     1     -12.910 -15.739  31.160  1.00  0.00     0.000 G0
ENDBRANCH   6   7
ENDBRANCH   5   6
ENDBRANCH   3   5
ENDBRANCH   1   3
BRANCH   1  11
ATOM     11  C   UNL     1     -13.618 -18.036  28.831  1.00  0.00     0.087 C 
BRANCH  11  12
ATOM     12  C   UNL     1     -12.992 -18.234  30.235  1.00  0.00     0.066 C 
BRANCH  12  13
ATOM     13  C   UNL     1     -13.466 -17.155  31.201  1.00  0.00     0.140 C 
ATOM     14  O   UNL     1     -14.363 -17.423  31.988  1.00  0.00    -0.299 OA
BRANCH  13  15
ATOM     15  C   UNL     1     -12.915 -15.747  31.165  1.00  0.00     0.106 CG0
ATOM     16  G   UNL     1     -13.942 -14.738  30.678  1.00  0.00     0.000 G0
ENDBRANCH  13  15
ENDBRANCH  12  13
BRANCH  12  17
ATOM     17  C   UNL     1     -13.232 -19.666  30.815  1.00  0.00    -0.006 C 
ATOM     18  C   UNL     1     -13.174 -20.756  29.728  1.00  0.00     0.008 C 
ATOM     19  C   UNL     1     -12.198 -20.002  31.906  1.00  0.00     0.008 C 
ENDBRANCH  12  17
ENDBRANCH  11  12
ENDBRANCH   1  11
TORSDOF 1
ENDMDL
MODEL 7
REMARK VINA RESULT:    -3.212      2.224      3.888
REMARK INTER + INTRA:          -3.972
REMARK INTER:                  -4.374
REMARK INTRA:                   0.402
REMARK UNBOUND:                 0.930
REMARK SMILES CC1=CCC[C@@H](C)C(=O)C[C@H](C(C)C)C(=O)C1
REMARK SMILES IDX 8 1 9 2 6 3 7 4 5 5 4 6 3 7 2 8 1 9 10 11 11 12 15 13 16 14
REMARK SMILES IDX 17 15 12 17 13 18 14 19
REMARK H PARENT
REMARK Flexibility Score: 70.00
ROOT
ATOM      1  C   UNL     1     -13.989 -18.877  28.639  1.00  0.00     0.136 C 
ATOM      2  O   UNL     1     -15.116 -19.236  28.951  1.00  0.00    -0.299 OA
ENDROOT
BRANCH   1   3
ATOM      3  C   UNL     1     -12.786 -19.593  29.219  1.00  0.00     0.053 C 
ATOM      4  C   UNL     1     -13.003 -21.113  29.199  1.00  0.00     0.016 C 
BRANCH   3   5
ATOM      5  C   UNL     1     -12.506 -19.093  30.655  1.00  0.00     0.015 C 
BRANCH   5   6
ATOM      6  C   UNL     1     -11.003 -18.856  30.907  1.00  0.00     0.028 C 
BRANCH   6   7
ATOM      7  C   UNL     1     -10.674 -17.385  30.920  1.00  0.00    -0.028 C 
ATOM      8  C   UNL     1     -10.325 -16.656  29.836  1.00  0.00    -0.070 CG0
ATOM      9  C   UNL     1     -10.089 -15.178  30.025  1.00  0.00     0.039 C 
ATOM     10  G   UNL     1     -10.173 -17.247  28.443  1.00  0.00     0.000 G0
ENDBRANCH   6   7
ENDBRANCH   5   6
ENDBRANCH   3   5
ENDBRANCH   1   3
BRANCH   1  11
ATOM     11  C   UNL     1     -13.825 -17.723  27.677  1.00  0.00     0.087 C 
BRANCH  11  12
ATOM     12  C   UNL     1     -12.767 -16.696  28.158  1.00  0.00     0.066 C 
BRANCH  12  13
ATOM     13  C   UNL     1     -11.398 -17.006  27.564  1.00  0.00     0.140 C 
ATOM     14  O   UNL     1     -11.299 -17.135  26.352  1.00  0.00    -0.299 OA
BRANCH  13  15
ATOM     15  C   UNL     1     -10.179 -17.230  28.430  1.00  0.00     0.106 CG0
ATOM     16  G   UNL     1     -10.336 -16.623  29.815  1.00  0.00     0.000 G0
ENDBRANCH  13  15
ENDBRANCH  12  13
BRANCH  12  17
ATOM     17  C   UNL     1     -13.186 -15.214  27.887  1.00  0.00    -0.006 C 
ATOM     18  C   UNL     1     -14.327 -15.106  26.859  1.00  0.00     0.008 C 
ATOM     19  C   UNL     1     -13.627 -14.518  29.189  1.00  0.00     0.008 C 
ENDBRANCH  12  17
ENDBRANCH  11  12
ENDBRANCH   1  11
TORSDOF 1
ENDMDL
MODEL 8
REMARK VINA RESULT:    -3.066      1.731      4.022
REMARK INTER + INTRA:          -3.748
REMARK INTER:                  -4.410
REMARK INTRA:                   0.662
REMARK UNBOUND:                 0.930
REMARK SMILES CC1=CCC[C@@H](C)C(=O)C[C@H](C(C)C)C(=O)C1
REMARK SMILES IDX 8 1 9 2 6 3 7 4 5 5 4 6 3 7 2 8 1 9 10 11 11 12 15 13 16 14
REMARK SMILES IDX 17 15 12 17 13 18 14 19
REMARK H PARENT
REMARK Flexibility Score: 70.00
ROOT
ATOM      1  C   UNL     1     -13.543 -14.515  28.666  1.00  0.00     0.136 C 
ATOM      2  O   UNL     1     -12.483 -13.910  28.735  1.00  0.00    -0.299 OA
ENDROOT
BRANCH   1   3
ATOM      3  C   UNL     1     -14.740 -14.023  29.455  1.00  0.00     0.053 C 
ATOM      4  C   UNL     1     -15.151 -12.618  28.990  1.00  0.00     0.016 C 
BRANCH   3   5
ATOM      5  C   UNL     1     -14.424 -14.035  30.968  1.00  0.00     0.015 C 
BRANCH   5   6
ATOM      6  C   UNL     1     -14.144 -15.458  31.493  1.00  0.00     0.028 C 
BRANCH   6   7
ATOM      7  C   UNL     1     -12.669 -15.764  31.489  1.00  0.00    -0.028 C 
ATOM      8  C   UNL     1     -12.112 -16.904  31.017  1.00  0.00    -0.070 CG0
ATOM      9  C   UNL     1     -10.608 -17.015  31.036  1.00  0.00     0.039 C 
ATOM     10  G   UNL     1     -12.923 -18.063  30.460  1.00  0.00     0.000 G0
ENDBRANCH   6   7
ENDBRANCH   5   6
ENDBRANCH   3   5
ENDBRANCH   1   3
BRANCH   1  11
ATOM     11  C   UNL     1     -13.635 -15.742  27.788  1.00  0.00     0.087 C 
BRANCH  11  12
ATOM     12  C   UNL     1     -12.564 -16.806  28.144  1.00  0.00     0.066 C 
BRANCH  12  13
ATOM     13  C   UNL     1     -13.170 -17.934  28.969  1.00  0.00     0.140 C 
ATOM     14  O   UNL     1     -13.938 -18.715  28.423  1.00  0.00    -0.299 OA
BRANCH  13  15
ATOM     15  C   UNL     1     -12.910 -18.074  30.452  1.00  0.00     0.106 CG0
ATOM     16  G   UNL     1     -12.126 -16.898  31.013  1.00  0.00     0.000 G0
ENDBRANCH  13  15
ENDBRANCH  12  13
BRANCH  12  17
ATOM     17  C   UNL     1     -11.808 -17.355  26.890  1.00  0.00    -0.006 C 
ATOM     18  C   UNL     1     -12.098 -16.530  25.623  1.00  0.00     0.008 C 
ATOM     19  C   UNL     1     -10.287 -17.378  27.127  1.00  0.00     0.008 C 
ENDBRANCH  12  17
ENDBRANCH  11  12
ENDBRANCH   1  11
TORSDOF 1
ENDMDL
MODEL 9
REMARK VINA RESULT:    -2.702      1.564      3.908
REMARK INTER + INTRA:          -3.193
REMARK INTER:                  -4.239
REMARK INTRA:                   1.046
REMARK UNBOUND:                 0.930
REMARK SMILES CC1=CCC[C@@H](C)C(=O)C[C@H](C(C)C)C(=O)C1
REMARK SMILES IDX 8 1 9 2 6 3 7 4 5 5 4 6 3 7 2 8 1 9 10 11 11 12 15 13 16 14
REMARK SMILES IDX 17 15 12 17 13 18 14 19
REMARK H PARENT
REMARK Flexibility Score: 70.00
ROOT
ATOM      1  C   UNL     1     -13.178 -15.507  30.662  1.00  0.00     0.136 C 
ATOM      2  O   UNL     1     -12.088 -15.293  31.174  1.00  0.00    -0.299 OA
ENDROOT
BRANCH   1   3
ATOM      3  C   UNL     1     -14.377 -15.796  31.544  1.00  0.00     0.053 C 
ATOM      4  C   UNL     1     -14.746 -14.557  32.372  1.00  0.00     0.016 C 
BRANCH   3   5
ATOM      5  C   UNL     1     -14.089 -17.008  32.458  1.00  0.00     0.015 C 
BRANCH   5   6
ATOM      6  C   UNL     1     -13.700 -18.265  31.652  1.00  0.00     0.028 C 
BRANCH   6   7
ATOM      7  C   UNL     1     -12.205 -18.444  31.601  1.00  0.00    -0.028 C 
ATOM      8  C   UNL     1     -11.500 -18.795  30.501  1.00  0.00    -0.070 CG0
ATOM      9  C   UNL     1      -9.999 -18.868  30.618  1.00  0.00     0.039 C 
ATOM     10  G   UNL     1     -12.144 -19.103  29.158  1.00  0.00     0.000 G0
ENDBRANCH   6   7
ENDBRANCH   5   6
ENDBRANCH   3   5
ENDBRANCH   1   3
BRANCH   1  11
ATOM     11  C   UNL     1     -13.302 -15.477  29.156  1.00  0.00     0.087 C 
BRANCH  11  12
ATOM     12  C   UNL     1     -12.410 -16.541  28.466  1.00  0.00     0.066 C 
BRANCH  12  13
ATOM     13  C   UNL     1     -12.992 -17.938  28.647  1.00  0.00     0.140 C 
ATOM     14  O   UNL     1     -14.181 -18.114  28.421  1.00  0.00    -0.299 OA
BRANCH  13  15
ATOM     15  C   UNL     1     -12.162 -19.092  29.165  1.00  0.00     0.106 CG0
ATOM     16  G   UNL     1     -11.496 -18.772  30.493  1.00  0.00     0.000 G0
ENDBRANCH  13  15
ENDBRANCH  12  13
BRANCH  12  17
ATOM     17  C   UNL     1     -12.136 -16.225  26.959  1.00  0.00    -0.006 C 
ATOM     18  C   UNL     1     -11.208 -17.264  26.303  1.00  0.00     0.008 C 
ATOM     19  C   UNL     1     -13.451 -16.162  26.160  1.00  0.00     0.008 C 
ENDBRANCH  12  17
ENDBRANCH  11  12
ENDBRANCH   1  11
TORSDOF 1
ENDMDL
