MODEL 1
REMARK VINA RESULT:    18.250      0.000      0.000
REMARK INTER + INTRA:          19.615
REMARK INTER:                  19.850
REMARK INTRA:                  -0.234
REMARK UNBOUND:                -0.234
REMARK SMILES CC1=CCC[C@@]2(C)CC[C@H](C(C)(C)O)C[C@H]12
REMARK SMILES IDX 11 1 12 2 13 3 10 4 1 5 2 6 3 7 16 8 4 9 6 10 15 11 5 12
REMARK SMILES IDX 7 13 8 14 9 15 14 16
REMARK H PARENT 14 17
REMARK Flexibility Score: inf
ROOT
ATOM      1  C   UNL     1     -33.563  24.578   6.568  1.00  0.00     0.062 C 
ATOM      2  C   UNL     1     -34.091  25.980   6.959  1.00  0.00     0.042 C 
ATOM      3  C   UNL     1     -32.418  24.235   7.545  1.00  0.00     0.042 C 
ENDROOT
BRANCH   1   4
ATOM      4  C   UNL     1     -34.696  23.483   6.651  1.00  0.00     0.021 C 
ATOM      5  C   UNL     1     -38.074  23.975   3.680  1.00  0.00     0.039 C 
ATOM      6  C   UNL     1     -38.050  22.834   4.668  1.00  0.00    -0.074 C 
ATOM      7  C   UNL     1     -39.107  22.005   4.759  1.00  0.00    -0.028 C 
ATOM      8  C   UNL     1     -36.927  22.654   5.684  1.00  0.00     0.021 C 
ATOM      9  C   UNL     1     -39.103  20.875   5.755  1.00  0.00     0.028 C 
ATOM     10  C   UNL     1     -37.544  22.508   7.111  1.00  0.00    -0.026 C 
ATOM     11  C   UNL     1     -35.824  23.735   5.615  1.00  0.00     0.015 C 
ATOM     12  C   UNL     1     -38.531  21.284   7.136  1.00  0.00     0.011 C 
ATOM     13  C   UNL     1     -38.341  23.780   7.522  1.00  0.00     0.012 C 
ATOM     14  C   UNL     1     -36.397  22.261   8.125  1.00  0.00     0.008 C 
ATOM     15  C   UNL     1     -35.303  23.336   8.071  1.00  0.00     0.007 C 
ENDBRANCH   1   4
BRANCH   1  16
ATOM     16  O   UNL     1     -33.009  24.625   5.273  1.00  0.00    -0.390 OA
ATOM     17  H   UNL     1     -32.029  24.751   5.355  1.00  0.00     0.211 HD
ENDBRANCH   1  16
TORSDOF 2
ENDMDL
