MODEL 1
REMARK VINA RESULT:    -5.253      0.000      0.000
REMARK INTER + INTRA:          -5.977
REMARK INTER:                  -5.867
REMARK INTRA:                  -0.110
REMARK UNBOUND:                -0.110
REMARK SMILES COc1cc2ccc(=O)oc2cc1OC
REMARK SMILES IDX 3 1 13 2 12 3 11 4 5 5 4 6 6 7 7 8 8 9 9 10 10 11 2 12 1 13
REMARK SMILES IDX 14 14 15 15
REMARK H PARENT
REMARK Flexibility Score: inf
ROOT
ATOM      1  C   UNL     1     -12.639  -0.735 -10.012  1.00  0.00     0.161 A 
ATOM      2  C   UNL     1     -11.460   0.004  -9.815  1.00  0.00     0.164 A 
ATOM      3  C   UNL     1     -10.222  -0.666  -9.725  1.00  0.00     0.098 A 
ATOM      4  C   UNL     1     -10.161  -2.056  -9.829  1.00  0.00     0.142 A 
ATOM      5  C   UNL     1     -11.344  -2.798 -10.025  1.00  0.00     0.022 A 
ATOM      6  C   UNL     1     -12.576  -2.139 -10.116  1.00  0.00     0.062 A 
ATOM      7  C   UNL     1     -11.249  -4.191 -10.125  1.00  0.00     0.019 A 
ATOM      8  C   UNL     1     -10.000  -4.800 -10.029  1.00  0.00     0.094 A 
ATOM      9  C   UNL     1      -8.868  -4.001  -9.834  1.00  0.00     0.336 A 
ATOM     10  O   UNL     1      -7.731  -4.532  -9.744  1.00  0.00    -0.246 OA
ATOM     11  O   UNL     1      -8.988  -2.678  -9.742  1.00  0.00    -0.423 OA
ENDROOT
BRANCH   1  12
ATOM     12  O   UNL     1     -13.853  -0.036 -10.097  1.00  0.00    -0.493 OA
ATOM     13  C   UNL     1     -15.034  -0.378  -9.378  1.00  0.00     0.278 C 
ENDBRANCH   1  12
BRANCH   2  14
ATOM     14  O   UNL     1     -11.559   1.400  -9.717  1.00  0.00    -0.493 OA
ATOM     15  C   UNL     1     -10.464   2.270  -9.440  1.00  0.00     0.278 C 
ENDBRANCH   2  14
TORSDOF 2
ENDMDL
MODEL 2
REMARK VINA RESULT:    -4.936     17.554     18.268
REMARK INTER + INTRA:          -5.623
REMARK INTER:                  -5.496
REMARK INTRA:                  -0.127
REMARK UNBOUND:                -0.110
REMARK SMILES COc1cc2ccc(=O)oc2cc1OC
REMARK SMILES IDX 3 1 13 2 12 3 11 4 5 5 4 6 6 7 7 8 8 9 9 10 10 11 2 12 1 13
REMARK SMILES IDX 14 14 15 15
REMARK H PARENT
REMARK Flexibility Score: inf
ROOT
ATOM      1  C   UNL     1      -9.629   8.582   5.257  1.00  0.00     0.161 A 
ATOM      2  C   UNL     1     -10.966   9.009   5.318  1.00  0.00     0.164 A 
ATOM      3  C   UNL     1     -11.981   8.084   5.635  1.00  0.00     0.098 A 
ATOM      4  C   UNL     1     -11.667   6.748   5.889  1.00  0.00     0.142 A 
ATOM      5  C   UNL     1     -10.325   6.319   5.827  1.00  0.00     0.022 A 
ATOM      6  C   UNL     1      -9.312   7.233   5.513  1.00  0.00     0.062 A 
ATOM      7  C   UNL     1     -10.044   4.973   6.086  1.00  0.00     0.019 A 
ATOM      8  C   UNL     1     -11.086   4.102   6.396  1.00  0.00     0.094 A 
ATOM      9  C   UNL     1     -12.394   4.598   6.438  1.00  0.00     0.336 A 
ATOM     10  O   UNL     1     -13.350   3.828   6.715  1.00  0.00    -0.246 OA
ATOM     11  O   UNL     1     -12.634   5.883   6.187  1.00  0.00    -0.423 OA
ENDROOT
BRANCH   1  12
ATOM     12  O   UNL     1      -8.643   9.530   4.938  1.00  0.00    -0.493 OA
ATOM     13  C   UNL     1      -7.437   9.719   5.673  1.00  0.00     0.278 C 
ENDBRANCH   1  12
BRANCH   2  14
ATOM     14  O   UNL     1     -11.245  10.360   5.058  1.00  0.00    -0.493 OA
ATOM     15  C   UNL     1     -11.947  10.834   3.912  1.00  0.00     0.278 C 
ENDBRANCH   2  14
TORSDOF 2
ENDMDL
MODEL 3
REMARK VINA RESULT:    -4.766     16.984     18.034
REMARK INTER + INTRA:          -5.433
REMARK INTER:                  -5.268
REMARK INTRA:                  -0.165
REMARK UNBOUND:                -0.110
REMARK SMILES COc1cc2ccc(=O)oc2cc1OC
REMARK SMILES IDX 3 1 13 2 12 3 11 4 5 5 4 6 6 7 7 8 8 9 9 10 10 11 2 12 1 13
REMARK SMILES IDX 14 14 15 15
REMARK H PARENT
REMARK Flexibility Score: inf
ROOT
ATOM      1  C   UNL     1     -11.095   8.761   5.381  1.00  0.00     0.161 A 
ATOM      2  C   UNL     1      -9.847   8.129   5.250  1.00  0.00     0.164 A 
ATOM      3  C   UNL     1      -9.755   6.728   5.384  1.00  0.00     0.098 A 
ATOM      4  C   UNL     1     -10.895   5.967   5.647  1.00  0.00     0.142 A 
ATOM      5  C   UNL     1     -12.148   6.601   5.779  1.00  0.00     0.022 A 
ATOM      6  C   UNL     1     -12.245   7.991   5.647  1.00  0.00     0.062 A 
ATOM      7  C   UNL     1     -13.271   5.809   6.043  1.00  0.00     0.019 A 
ATOM      8  C   UNL     1     -13.123   4.429   6.165  1.00  0.00     0.094 A 
ATOM      9  C   UNL     1     -11.849   3.868   6.022  1.00  0.00     0.336 A 
ATOM     10  O   UNL     1     -11.694   2.624   6.130  1.00  0.00    -0.246 OA
ATOM     11  O   UNL     1     -10.797   4.645   5.772  1.00  0.00    -0.423 OA
ENDROOT
BRANCH   1  12
ATOM     12  O   UNL     1     -11.150  10.157   5.242  1.00  0.00    -0.493 OA
ATOM     13  C   UNL     1     -11.241  11.074   6.327  1.00  0.00     0.278 C 
ENDBRANCH   1  12
BRANCH   2  14
ATOM     14  O   UNL     1      -8.722   8.925   4.985  1.00  0.00    -0.493 OA
ATOM     15  C   UNL     1      -7.779   9.343   5.968  1.00  0.00     0.278 C 
ENDBRANCH   2  14
TORSDOF 2
ENDMDL
MODEL 4
REMARK VINA RESULT:    -4.745     17.373     18.520
REMARK INTER + INTRA:          -5.410
REMARK INTER:                  -5.296
REMARK INTRA:                  -0.114
REMARK UNBOUND:                -0.110
REMARK SMILES COc1cc2ccc(=O)oc2cc1OC
REMARK SMILES IDX 3 1 13 2 12 3 11 4 5 5 4 6 6 7 7 8 8 9 9 10 10 11 2 12 1 13
REMARK SMILES IDX 14 14 15 15
REMARK H PARENT
REMARK Flexibility Score: inf
ROOT
ATOM      1  C   UNL     1     -12.168   6.836   5.696  1.00  0.00     0.161 A 
ATOM      2  C   UNL     1     -11.014   6.036   5.642  1.00  0.00     0.164 A 
ATOM      3  C   UNL     1      -9.749   6.642   5.498  1.00  0.00     0.098 A 
ATOM      4  C   UNL     1      -9.637   8.031   5.408  1.00  0.00     0.142 A 
ATOM      5  C   UNL     1     -10.794   8.834   5.461  1.00  0.00     0.022 A 
ATOM      6  C   UNL     1     -12.053   8.237   5.604  1.00  0.00     0.062 A 
ATOM      7  C   UNL     1     -10.647  10.222   5.367  1.00  0.00     0.019 A 
ATOM      8  C   UNL     1      -9.373  10.768   5.226  1.00  0.00     0.094 A 
ATOM      9  C   UNL     1      -8.269   9.910   5.180  1.00  0.00     0.336 A 
ATOM     10  O   UNL     1      -7.110  10.383   5.052  1.00  0.00    -0.246 OA
ATOM     11  O   UNL     1      -8.438   8.592   5.271  1.00  0.00    -0.423 OA
ENDROOT
BRANCH   1  12
ATOM     12  O   UNL     1     -13.411   6.199   5.840  1.00  0.00    -0.493 OA
ATOM     13  C   UNL     1     -14.627   6.663   5.263  1.00  0.00     0.278 C 
ENDBRANCH   1  12
BRANCH   2  14
ATOM     14  O   UNL     1     -11.165   4.644   5.737  1.00  0.00    -0.493 OA
ATOM     15  C   UNL     1     -11.003   3.894   6.938  1.00  0.00     0.278 C 
ENDBRANCH   2  14
TORSDOF 2
ENDMDL
MODEL 5
REMARK VINA RESULT:    -4.623     17.291     18.674
REMARK INTER + INTRA:          -5.274
REMARK INTER:                  -5.168
REMARK INTRA:                  -0.106
REMARK UNBOUND:                -0.110
REMARK SMILES COc1cc2ccc(=O)oc2cc1OC
REMARK SMILES IDX 3 1 13 2 12 3 11 4 5 5 4 6 6 7 7 8 8 9 9 10 10 11 2 12 1 13
REMARK SMILES IDX 14 14 15 15
REMARK H PARENT
REMARK Flexibility Score: inf
ROOT
ATOM      1  C   UNL     1     -10.998   5.911   5.631  1.00  0.00     0.161 A 
ATOM      2  C   UNL     1     -12.181   6.667   5.684  1.00  0.00     0.164 A 
ATOM      3  C   UNL     1     -12.117   8.073   5.613  1.00  0.00     0.098 A 
ATOM      4  C   UNL     1     -10.885   8.720   5.491  1.00  0.00     0.142 A 
ATOM      5  C   UNL     1      -9.697   7.962   5.439  1.00  0.00     0.022 A 
ATOM      6  C   UNL     1      -9.755   6.565   5.509  1.00  0.00     0.062 A 
ATOM      7  C   UNL     1      -8.479   8.640   5.317  1.00  0.00     0.019 A 
ATOM      8  C   UNL     1      -8.474  10.032   5.251  1.00  0.00     0.094 A 
ATOM      9  C   UNL     1      -9.692  10.718   5.309  1.00  0.00     0.336 A 
ATOM     10  O   UNL     1      -9.709  11.975   5.252  1.00  0.00    -0.246 OA
ATOM     11  O   UNL     1     -10.836  10.048   5.426  1.00  0.00    -0.423 OA
ENDROOT
BRANCH   1  12
ATOM     12  O   UNL     1     -11.098   4.513   5.704  1.00  0.00    -0.493 OA
ATOM     13  C   UNL     1     -10.975   3.756   6.904  1.00  0.00     0.278 C 
ENDBRANCH   1  12
BRANCH   2  14
ATOM     14  O   UNL     1     -13.401   5.983   5.806  1.00  0.00    -0.493 OA
ATOM     15  C   UNL     1     -14.632   6.420   5.235  1.00  0.00     0.278 C 
ENDBRANCH   2  14
TORSDOF 2
ENDMDL
MODEL 6
REMARK VINA RESULT:    -4.605      1.579      2.081
REMARK INTER + INTRA:          -5.253
REMARK INTER:                  -5.484
REMARK INTRA:                   0.231
REMARK UNBOUND:                -0.110
REMARK SMILES COc1cc2ccc(=O)oc2cc1OC
REMARK SMILES IDX 3 1 13 2 12 3 11 4 5 5 4 6 6 7 7 8 8 9 9 10 10 11 2 12 1 13
REMARK SMILES IDX 14 14 15 15
REMARK H PARENT
REMARK Flexibility Score: inf
ROOT
ATOM      1  C   UNL     1     -12.841   1.321  -9.798  1.00  0.00     0.161 A 
ATOM      2  C   UNL     1     -11.473   1.630  -9.724  1.00  0.00     0.164 A 
ATOM      3  C   UNL     1     -10.519   0.593  -9.771  1.00  0.00     0.098 A 
ATOM      4  C   UNL     1     -10.925  -0.737  -9.890  1.00  0.00     0.142 A 
ATOM      5  C   UNL     1     -12.298  -1.047  -9.963  1.00  0.00     0.022 A 
ATOM      6  C   UNL     1     -13.251  -0.022  -9.917  1.00  0.00     0.062 A 
ATOM      7  C   UNL     1     -12.672  -2.391 -10.081  1.00  0.00     0.019 A 
ATOM      8  C   UNL     1     -11.687  -3.375 -10.123  1.00  0.00     0.094 A 
ATOM      9  C   UNL     1     -10.343  -2.993 -10.045  1.00  0.00     0.336 A 
ATOM     10  O   UNL     1      -9.439  -3.867 -10.080  1.00  0.00    -0.246 OA
ATOM     11  O   UNL     1     -10.015  -1.708  -9.933  1.00  0.00    -0.423 OA
ENDROOT
BRANCH   1  12
ATOM     12  O   UNL     1     -13.764   2.378  -9.749  1.00  0.00    -0.493 OA
ATOM     13  C   UNL     1     -13.892   3.289  -8.661  1.00  0.00     0.278 C 
ENDBRANCH   1  12
BRANCH   2  14
ATOM     14  O   UNL     1     -11.101   2.978  -9.606  1.00  0.00    -0.493 OA
ATOM     15  C   UNL     1      -9.819   3.496  -9.953  1.00  0.00     0.278 C 
ENDBRANCH   2  14
TORSDOF 2
ENDMDL
MODEL 7
REMARK VINA RESULT:    -4.301     18.409     20.891
REMARK INTER + INTRA:          -4.913
REMARK INTER:                  -4.794
REMARK INTRA:                  -0.119
REMARK UNBOUND:                -0.110
REMARK SMILES COc1cc2ccc(=O)oc2cc1OC
REMARK SMILES IDX 3 1 13 2 12 3 11 4 5 5 4 6 6 7 7 8 8 9 9 10 10 11 2 12 1 13
REMARK SMILES IDX 14 14 15 15
REMARK H PARENT
REMARK Flexibility Score: inf
ROOT
ATOM      1  C   UNL     1     -10.350  10.081   5.333  1.00  0.00     0.161 A 
ATOM      2  C   UNL     1      -9.296   9.159   5.437  1.00  0.00     0.164 A 
ATOM      3  C   UNL     1      -8.194   9.447   6.268  1.00  0.00     0.098 A 
ATOM      4  C   UNL     1      -8.145  10.642   6.988  1.00  0.00     0.142 A 
ATOM      5  C   UNL     1      -9.203  11.568   6.884  1.00  0.00     0.022 A 
ATOM      6  C   UNL     1     -10.299  11.288   6.060  1.00  0.00     0.062 A 
ATOM      7  C   UNL     1      -9.123  12.757   7.618  1.00  0.00     0.019 A 
ATOM      8  C   UNL     1      -8.011  12.990   8.425  1.00  0.00     0.094 A 
ATOM      9  C   UNL     1      -6.999  12.026   8.480  1.00  0.00     0.336 A 
ATOM     10  O   UNL     1      -5.986  12.217   9.201  1.00  0.00    -0.246 OA
ATOM     11  O   UNL     1      -7.100  10.904   7.770  1.00  0.00    -0.423 OA
ENDROOT
BRANCH   1  12
ATOM     12  O   UNL     1     -11.431   9.763   4.496  1.00  0.00    -0.493 OA
ATOM     13  C   UNL     1     -12.293  10.721   3.889  1.00  0.00     0.278 C 
ENDBRANCH   1  12
BRANCH   2  14
ATOM     14  O   UNL     1      -9.379   7.968   4.699  1.00  0.00    -0.493 OA
ATOM     15  C   UNL     1      -9.733   6.701   5.248  1.00  0.00     0.278 C 
ENDBRANCH   2  14
TORSDOF 2
ENDMDL
MODEL 8
REMARK VINA RESULT:    -4.267     18.700     20.231
REMARK INTER + INTRA:          -4.876
REMARK INTER:                  -4.737
REMARK INTRA:                  -0.139
REMARK UNBOUND:                -0.110
REMARK SMILES COc1cc2ccc(=O)oc2cc1OC
REMARK SMILES IDX 3 1 13 2 12 3 11 4 5 5 4 6 6 7 7 8 8 9 9 10 10 11 2 12 1 13
REMARK SMILES IDX 14 14 15 15
REMARK H PARENT
REMARK Flexibility Score: inf
ROOT
ATOM      1  C   UNL     1     -11.817   9.845   5.525  1.00  0.00     0.161 A 
ATOM      2  C   UNL     1     -11.827  10.960   6.379  1.00  0.00     0.164 A 
ATOM      3  C   UNL     1     -10.610  11.473   6.873  1.00  0.00     0.098 A 
ATOM      4  C   UNL     1      -9.397  10.880   6.519  1.00  0.00     0.142 A 
ATOM      5  C   UNL     1      -9.386   9.760   5.663  1.00  0.00     0.022 A 
ATOM      6  C   UNL     1     -10.592   9.246   5.169  1.00  0.00     0.062 A 
ATOM      7  C   UNL     1      -8.154   9.188   5.328  1.00  0.00     0.019 A 
ATOM      8  C   UNL     1      -6.982   9.736   5.845  1.00  0.00     0.094 A 
ATOM      9  C   UNL     1      -7.068  10.848   6.690  1.00  0.00     0.336 A 
ATOM     10  O   UNL     1      -6.021  11.358   7.168  1.00  0.00    -0.246 OA
ATOM     11  O   UNL     1      -8.254  11.372   6.992  1.00  0.00    -0.423 OA
ENDROOT
BRANCH   1  12
ATOM     12  O   UNL     1     -13.046   9.360   5.051  1.00  0.00    -0.493 OA
ATOM     13  C   UNL     1     -13.706   8.203   5.554  1.00  0.00     0.278 C 
ENDBRANCH   1  12
BRANCH   2  14
ATOM     14  O   UNL     1     -13.064  11.532   6.712  1.00  0.00    -0.493 OA
ATOM     15  C   UNL     1     -13.574  12.739   6.152  1.00  0.00     0.278 C 
ENDBRANCH   2  14
TORSDOF 2
ENDMDL
MODEL 9
REMARK VINA RESULT:    -4.211     17.395     18.346
REMARK INTER + INTRA:          -4.813
REMARK INTER:                  -4.688
REMARK INTRA:                  -0.125
REMARK UNBOUND:                -0.110
REMARK SMILES COc1cc2ccc(=O)oc2cc1OC
REMARK SMILES IDX 3 1 13 2 12 3 11 4 5 5 4 6 6 7 7 8 8 9 9 10 10 11 2 12 1 13
REMARK SMILES IDX 14 14 15 15
REMARK H PARENT
REMARK Flexibility Score: inf
ROOT
ATOM      1  C   UNL     1     -11.230   9.358   5.242  1.00  0.00     0.161 A 
ATOM      2  C   UNL     1     -12.570   9.082   5.560  1.00  0.00     0.164 A 
ATOM      3  C   UNL     1     -12.949   7.771   5.911  1.00  0.00     0.098 A 
ATOM      4  C   UNL     1     -12.003   6.745   5.943  1.00  0.00     0.142 A 
ATOM      5  C   UNL     1     -10.657   7.022   5.623  1.00  0.00     0.022 A 
ATOM      6  C   UNL     1     -10.275   8.323   5.274  1.00  0.00     0.062 A 
ATOM      7  C   UNL     1      -9.733   5.972   5.664  1.00  0.00     0.019 A 
ATOM      8  C   UNL     1     -10.163   4.694   6.018  1.00  0.00     0.094 A 
ATOM      9  C   UNL     1     -11.513   4.493   6.323  1.00  0.00     0.336 A 
ATOM     10  O   UNL     1     -11.922   3.347   6.644  1.00  0.00    -0.246 OA
ATOM     11  O   UNL     1     -12.372   5.510   6.275  1.00  0.00    -0.423 OA
ENDROOT
BRANCH   1  12
ATOM     12  O   UNL     1     -10.887  10.675   4.897  1.00  0.00    -0.493 OA
ATOM     13  C   UNL     1      -9.776  11.388   5.434  1.00  0.00     0.278 C 
ENDBRANCH   1  12
BRANCH   2  14
ATOM     14  O   UNL     1     -13.494  10.137   5.518  1.00  0.00    -0.493 OA
ATOM     15  C   UNL     1     -14.403  10.373   4.447  1.00  0.00     0.278 C 
ENDBRANCH   2  14
TORSDOF 2
ENDMDL
