MODEL 1
REMARK VINA RESULT:    -2.958      0.000      0.000
REMARK INTER + INTRA:          -3.563
REMARK INTER:                  -3.477
REMARK INTRA:                  -0.086
REMARK UNBOUND:                -0.086
REMARK SMILES O=C([O-])CCC(=O)[O-]
REMARK SMILES IDX 4 1 2 2 1 3 3 4 5 5 6 6 7 7 8 8
REMARK H PARENT
REMARK Flexibility Score: inf
ROOT
ATOM      1  C   UNL     1      65.642  43.308  56.844  1.00  0.00     0.059 C 
ENDROOT
BRANCH   1   2
ATOM      2  C   UNL     1      66.672  42.490  57.562  1.00  0.00     0.042 C 
ATOM      3  O   UNL     1      67.361  43.005  58.482  1.00  0.00    -0.550 OA
ATOM      4  O   UNL     1      66.902  41.173  57.186  1.00  0.00    -0.550 OA
ENDBRANCH   1   2
BRANCH   1   5
ATOM      5  C   UNL     1      65.332  44.610  57.591  1.00  0.00     0.059 C 
BRANCH   5   6
ATOM      6  C   UNL     1      65.792  45.810  56.822  1.00  0.00     0.042 C 
ATOM      7  O   UNL     1      66.055  45.713  55.594  1.00  0.00    -0.550 OA
ATOM      8  O   UNL     1      65.969  47.026  57.470  1.00  0.00    -0.550 OA
ENDBRANCH   5   6
ENDBRANCH   1   5
TORSDOF 3
ENDMDL
MODEL 2
REMARK VINA RESULT:    -2.940      0.162      4.094
REMARK INTER + INTRA:          -3.542
REMARK INTER:                  -3.456
REMARK INTRA:                  -0.086
REMARK UNBOUND:                -0.086
REMARK SMILES O=C([O-])CCC(=O)[O-]
REMARK SMILES IDX 4 1 2 2 1 3 3 4 5 5 6 6 7 7 8 8
REMARK H PARENT
REMARK Flexibility Score: inf
ROOT
ATOM      1  C   UNL     1      65.357  44.599  57.555  1.00  0.00     0.059 C 
ENDROOT
BRANCH   1   2
ATOM      2  C   UNL     1      65.855  45.732  56.709  1.00  0.00     0.042 C 
ATOM      3  O   UNL     1      66.081  45.554  55.483  1.00  0.00    -0.550 OA
ATOM      4  O   UNL     1      66.109  46.971  57.283  1.00  0.00    -0.550 OA
ENDBRANCH   1   2
BRANCH   1   5
ATOM      5  C   UNL     1      65.622  43.242  56.896  1.00  0.00     0.059 C 
BRANCH   5   6
ATOM      6  C   UNL     1      66.639  42.447  57.658  1.00  0.00     0.042 C 
ATOM      7  O   UNL     1      67.383  43.014  58.501  1.00  0.00    -0.550 OA
ATOM      8  O   UNL     1      66.789  41.089  57.409  1.00  0.00    -0.550 OA
ENDBRANCH   5   6
ENDBRANCH   1   5
TORSDOF 3
ENDMDL
MODEL 3
REMARK VINA RESULT:    -2.884      0.212      3.800
REMARK INTER + INTRA:          -3.476
REMARK INTER:                  -3.397
REMARK INTRA:                  -0.078
REMARK UNBOUND:                -0.086
REMARK SMILES O=C([O-])CCC(=O)[O-]
REMARK SMILES IDX 4 1 2 2 1 3 3 4 5 5 6 6 7 7 8 8
REMARK H PARENT
REMARK Flexibility Score: inf
ROOT
ATOM      1  C   UNL     1      65.266  44.467  57.621  1.00  0.00     0.059 C 
ENDROOT
BRANCH   1   2
ATOM      2  C   UNL     1      65.776  45.734  57.005  1.00  0.00     0.042 C 
ATOM      3  O   UNL     1      65.860  46.784  57.695  1.00  0.00    -0.550 OA
ATOM      4  O   UNL     1      66.119  45.766  55.659  1.00  0.00    -0.550 OA
ENDBRANCH   1   2
BRANCH   1   5
ATOM      5  C   UNL     1      65.723  43.233  56.836  1.00  0.00     0.059 C 
BRANCH   5   6
ATOM      6  C   UNL     1      66.659  42.383  57.640  1.00  0.00     0.042 C 
ATOM      7  O   UNL     1      66.715  41.141  57.441  1.00  0.00    -0.550 OA
ATOM      8  O   UNL     1      67.440  42.957  58.634  1.00  0.00    -0.550 OA
ENDBRANCH   5   6
ENDBRANCH   1   5
TORSDOF 3
ENDMDL
MODEL 4
REMARK VINA RESULT:    -2.861      9.426     10.991
REMARK INTER + INTRA:          -3.449
REMARK INTER:                  -3.392
REMARK INTRA:                  -0.057
REMARK UNBOUND:                -0.086
REMARK SMILES O=C([O-])CCC(=O)[O-]
REMARK SMILES IDX 4 1 2 2 1 3 3 4 5 5 6 6 7 7 8 8
REMARK H PARENT
REMARK Flexibility Score: inf
ROOT
ATOM      1  C   UNL     1      68.743  51.636  49.778  1.00  0.00     0.059 C 
ENDROOT
BRANCH   1   2
ATOM      2  C   UNL     1      68.746  50.710  50.955  1.00  0.00     0.042 C 
ATOM      3  O   UNL     1      69.430  50.985  51.976  1.00  0.00    -0.550 OA
ATOM      4  O   UNL     1      68.028  49.522  50.909  1.00  0.00    -0.550 OA
ENDBRANCH   1   2
BRANCH   1   5
ATOM      5  C   UNL     1      69.155  53.057  50.175  1.00  0.00     0.059 C 
BRANCH   5   6
ATOM      6  C   UNL     1      68.078  54.052  49.866  1.00  0.00     0.042 C 
ATOM      7  O   UNL     1      67.972  55.104  50.550  1.00  0.00    -0.550 OA
ATOM      8  O   UNL     1      67.168  53.797  48.848  1.00  0.00    -0.550 OA
ENDBRANCH   5   6
ENDBRANCH   1   5
TORSDOF 3
ENDMDL
MODEL 5
REMARK VINA RESULT:    -2.827     12.058     12.523
REMARK INTER + INTRA:          -3.409
REMARK INTER:                  -3.330
REMARK INTRA:                  -0.079
REMARK UNBOUND:                -0.086
REMARK SMILES O=C([O-])CCC(=O)[O-]
REMARK SMILES IDX 4 1 2 2 1 3 3 4 5 5 6 6 7 7 8 8
REMARK H PARENT
REMARK Flexibility Score: inf
ROOT
ATOM      1  C   UNL     1      62.004  35.393  48.135  1.00  0.00     0.059 C 
ENDROOT
BRANCH   1   2
ATOM      2  C   UNL     1      62.920  35.250  49.312  1.00  0.00     0.042 C 
ATOM      3  O   UNL     1      64.165  35.179  49.141  1.00  0.00    -0.550 OA
ATOM      4  O   UNL     1      62.396  35.153  50.595  1.00  0.00    -0.550 OA
ENDBRANCH   1   2
BRANCH   1   5
ATOM      5  C   UNL     1      60.743  36.187  48.492  1.00  0.00     0.059 C 
BRANCH   5   6
ATOM      6  C   UNL     1      60.743  37.540  47.850  1.00  0.00     0.042 C 
ATOM      7  O   UNL     1      61.727  38.312  48.000  1.00  0.00    -0.550 OA
ATOM      8  O   UNL     1      59.640  37.964  47.120  1.00  0.00    -0.550 OA
ENDBRANCH   5   6
ENDBRANCH   1   5
TORSDOF 3
ENDMDL
MODEL 6
REMARK VINA RESULT:    -2.815      9.121     10.146
REMARK INTER + INTRA:          -3.395
REMARK INTER:                  -3.274
REMARK INTRA:                  -0.121
REMARK UNBOUND:                -0.086
REMARK SMILES O=C([O-])CCC(=O)[O-]
REMARK SMILES IDX 4 1 2 2 1 3 3 4 5 5 6 6 7 7 8 8
REMARK H PARENT
REMARK Flexibility Score: inf
ROOT
ATOM      1  C   UNL     1      70.423  52.376  51.896  1.00  0.00     0.059 C 
ENDROOT
BRANCH   1   2
ATOM      2  C   UNL     1      70.495  51.371  53.006  1.00  0.00     0.042 C 
ATOM      3  O   UNL     1      71.607  50.903  53.364  1.00  0.00    -0.550 OA
ATOM      4  O   UNL     1      69.330  50.921  53.614  1.00  0.00    -0.550 OA
ENDBRANCH   1   2
BRANCH   1   5
ATOM      5  C   UNL     1      70.268  51.700  50.530  1.00  0.00     0.059 C 
BRANCH   5   6
ATOM      6  C   UNL     1      68.828  51.470  50.187  1.00  0.00     0.042 C 
ATOM      7  O   UNL     1      68.300  50.345  50.393  1.00  0.00    -0.550 OA
ATOM      8  O   UNL     1      68.081  52.485  49.604  1.00  0.00    -0.550 OA
ENDBRANCH   5   6
ENDBRANCH   1   5
TORSDOF 3
ENDMDL
MODEL 7
REMARK VINA RESULT:    -2.792     13.050     14.083
REMARK INTER + INTRA:          -3.368
REMARK INTER:                  -3.276
REMARK INTRA:                  -0.092
REMARK UNBOUND:                -0.086
REMARK SMILES O=C([O-])CCC(=O)[O-]
REMARK SMILES IDX 4 1 2 2 1 3 3 4 5 5 6 6 7 7 8 8
REMARK H PARENT
REMARK Flexibility Score: inf
ROOT
ATOM      1  C   UNL     1      59.858  36.960  48.186  1.00  0.00     0.059 C 
ENDROOT
BRANCH   1   2
ATOM      2  C   UNL     1      61.348  37.095  48.113  1.00  0.00     0.042 C 
ATOM      3  O   UNL     1      62.068  36.077  47.939  1.00  0.00    -0.550 OA
ATOM      4  O   UNL     1      61.944  38.339  48.280  1.00  0.00    -0.550 OA
ENDBRANCH   1   2
BRANCH   1   5
ATOM      5  C   UNL     1      59.160  37.799  47.111  1.00  0.00     0.059 C 
BRANCH   5   6
ATOM      6  C   UNL     1      58.823  36.980  45.903  1.00  0.00     0.042 C 
ATOM      7  O   UNL     1      59.719  36.684  45.069  1.00  0.00    -0.550 OA
ATOM      8  O   UNL     1      57.513  36.578  45.678  1.00  0.00    -0.550 OA
ENDBRANCH   5   6
ENDBRANCH   1   5
TORSDOF 3
ENDMDL
MODEL 8
REMARK VINA RESULT:    -2.785      9.629     11.163
REMARK INTER + INTRA:          -3.360
REMARK INTER:                  -3.242
REMARK INTRA:                  -0.118
REMARK UNBOUND:                -0.086
REMARK SMILES O=C([O-])CCC(=O)[O-]
REMARK SMILES IDX 4 1 2 2 1 3 3 4 5 5 6 6 7 7 8 8
REMARK H PARENT
REMARK Flexibility Score: inf
ROOT
ATOM      1  C   UNL     1      68.737  51.584  49.779  1.00  0.00     0.059 C 
ENDROOT
BRANCH   1   2
ATOM      2  C   UNL     1      68.703  50.651  50.952  1.00  0.00     0.042 C 
ATOM      3  O   UNL     1      69.356  50.921  51.994  1.00  0.00    -0.550 OA
ATOM      4  O   UNL     1      67.984  49.465  50.877  1.00  0.00    -0.550 OA
ENDBRANCH   1   2
BRANCH   1   5
ATOM      5  C   UNL     1      69.135  53.003  50.197  1.00  0.00     0.059 C 
BRANCH   5   6
ATOM      6  C   UNL     1      70.466  53.393  49.630  1.00  0.00     0.042 C 
ATOM      7  O   UNL     1      71.527  53.064  50.223  1.00  0.00    -0.550 OA
ATOM      8  O   UNL     1      70.532  54.153  48.469  1.00  0.00    -0.550 OA
ENDBRANCH   5   6
ENDBRANCH   1   5
TORSDOF 3
ENDMDL
MODEL 9
REMARK VINA RESULT:    -2.778     13.108     14.230
REMARK INTER + INTRA:          -3.351
REMARK INTER:                  -3.245
REMARK INTRA:                  -0.106
REMARK UNBOUND:                -0.086
REMARK SMILES O=C([O-])CCC(=O)[O-]
REMARK SMILES IDX 4 1 2 2 1 3 3 4 5 5 6 6 7 7 8 8
REMARK H PARENT
REMARK Flexibility Score: inf
ROOT
ATOM      1  C   UNL     1      59.069  37.795  47.099  1.00  0.00     0.059 C 
ENDROOT
BRANCH   1   2
ATOM      2  C   UNL     1      58.719  36.964  45.902  1.00  0.00     0.042 C 
ATOM      3  O   UNL     1      57.611  36.369  45.847  1.00  0.00    -0.550 OA
ATOM      4  O   UNL     1      59.633  36.813  44.868  1.00  0.00    -0.550 OA
ENDBRANCH   1   2
BRANCH   1   5
ATOM      5  C   UNL     1      59.799  36.972  48.166  1.00  0.00     0.059 C 
BRANCH   5   6
ATOM      6  C   UNL     1      61.286  37.093  48.036  1.00  0.00     0.042 C 
ATOM      7  O   UNL     1      61.987  36.072  47.810  1.00  0.00    -0.550 OA
ATOM      8  O   UNL     1      61.901  38.327  48.205  1.00  0.00    -0.550 OA
ENDBRANCH   5   6
ENDBRANCH   1   5
TORSDOF 3
ENDMDL
