MODEL 1
REMARK VINA RESULT:    -0.275      0.000      0.000
REMARK INTER + INTRA:           2.313
REMARK INTER:                  -0.420
REMARK INTRA:                   2.733
REMARK UNBOUND:                 2.733
REMARK SMILES CC1=CCC[C@@H](C)C(=O)C[C@H](C(C)C)C(=O)C1
REMARK SMILES IDX 8 1 9 2 6 3 7 4 5 5 4 6 3 7 2 8 1 9 10 11 11 12 15 13 16 14
REMARK SMILES IDX 17 15 12 17 13 18 14 19
REMARK H PARENT
REMARK Flexibility Score: 70.00
ROOT
ATOM      1  C   UNL     1      -8.568 -22.290  24.396  1.00  0.00     0.136 C 
ATOM      2  O   UNL     1      -7.532 -21.640  24.381  1.00  0.00    -0.299 OA
ENDROOT
BRANCH   1   3
ATOM      3  C   UNL     1      -8.867 -23.191  25.580  1.00  0.00     0.053 C 
ATOM      4  C   UNL     1      -7.978 -24.442  25.539  1.00  0.00     0.016 C 
BRANCH   3   5
ATOM      5  C   UNL     1     -10.364 -23.578  25.601  1.00  0.00     0.015 C 
BRANCH   5   6
ATOM      6  C   UNL     1     -10.583 -25.028  25.127  1.00  0.00     0.028 C 
BRANCH   6   7
ATOM      7  C   UNL     1     -11.072 -25.123  23.703  1.00  0.00    -0.028 C 
ATOM      8  C   UNL     1     -10.299 -25.001  22.595  1.00  0.00    -0.070 CG0
ATOM      9  C   UNL     1     -10.993 -25.023  21.255  1.00  0.00     0.039 C 
ATOM     10  G   UNL     1      -8.780 -24.893  22.629  1.00  0.00     0.000 G0
ENDBRANCH   6   7
ENDBRANCH   5   6
ENDBRANCH   3   5
ENDBRANCH   1   3
BRANCH   1  11
ATOM     11  C   UNL     1      -9.529 -22.165  23.233  1.00  0.00     0.087 C 
BRANCH  11  12
ATOM     12  C   UNL     1      -8.818 -22.353  21.869  1.00  0.00     0.066 C 
BRANCH  12  13
ATOM     13  C   UNL     1      -8.255 -23.761  21.732  1.00  0.00     0.140 C 
ATOM     14  O   UNL     1      -7.356 -23.998  20.938  1.00  0.00    -0.299 OA
BRANCH  13  15
ATOM     15  C   UNL     1      -8.786 -24.868  22.610  1.00  0.00     0.106 CG0
ATOM     16  G   UNL     1     -10.304 -25.001  22.590  1.00  0.00     0.000 G0
ENDBRANCH  13  15
ENDBRANCH  12  13
BRANCH  12  17
ATOM     17  C   UNL     1      -9.706 -21.900  20.667  1.00  0.00    -0.006 C 
ATOM     18  C   UNL     1     -11.097 -21.371  21.061  1.00  0.00     0.008 C 
ATOM     19  C   UNL     1      -9.835 -23.007  19.609  1.00  0.00     0.008 C 
ENDBRANCH  12  17
ENDBRANCH  11  12
ENDBRANCH   1  11
TORSDOF 1
ENDMDL
