MODEL 1
REMARK VINA RESULT:    -5.054      0.000      0.000
REMARK INTER + INTRA:          -5.054
REMARK INTER:                  -5.054
REMARK INTRA:                   0.000
REMARK UNBOUND:                 0.000
REMARK SMILES C=C1CC[C@H]2C[C@@H]1C2(C)C
REMARK SMILES IDX 9 1 8 2 5 3 4 4 3 5 2 6 1 7 7 8 6 9 10 10
REMARK H PARENT
REMARK Flexibility Score: inf
ROOT
ATOM      1  C   UNL     1     110.316 112.855 110.776  1.00  0.00     0.012 C 
ATOM      2  C   UNL     1     111.378 111.723 110.822  1.00  0.00    -0.026 C 
ATOM      3  C   UNL     1     111.180 110.559 111.827  1.00  0.00    -0.004 C 
ATOM      4  C   UNL     1     109.668 110.190 111.968  1.00  0.00     0.008 C 
ATOM      5  C   UNL     1     108.972 109.947 110.575  1.00  0.00     0.031 C 
ATOM      6  C   UNL     1     109.891 110.294 109.394  1.00  0.00    -0.074 C 
ATOM      7  C   UNL     1     109.440 110.289 108.135  1.00  0.00     0.008 C 
ATOM      8  C   UNL     1     111.341 110.637 109.720  1.00  0.00     0.021 C 
ATOM      9  C   UNL     1     111.767 109.603 110.776  1.00  0.00     0.012 C 
ATOM     10  C   UNL     1     112.778 112.371 110.955  1.00  0.00     0.012 C 
ENDROOT
TORSDOF 0
ENDMDL
MODEL 2
REMARK VINA RESULT:    -5.053      1.215      3.576
REMARK INTER + INTRA:          -5.053
REMARK INTER:                  -5.053
REMARK INTRA:                   0.000
REMARK UNBOUND:                 0.000
REMARK SMILES C=C1CC[C@H]2C[C@@H]1C2(C)C
REMARK SMILES IDX 9 1 8 2 5 3 4 4 3 5 2 6 1 7 7 8 6 9 10 10
REMARK H PARENT
REMARK Flexibility Score: inf
ROOT
ATOM      1  C   UNL     1     109.935 112.263 111.084  1.00  0.00     0.012 C 
ATOM      2  C   UNL     1     110.493 110.819 110.962  1.00  0.00    -0.026 C 
ATOM      3  C   UNL     1     111.533 110.515 109.854  1.00  0.00    -0.004 C 
ATOM      4  C   UNL     1     112.501 111.724 109.645  1.00  0.00     0.008 C 
ATOM      5  C   UNL     1     113.143 112.224 110.995  1.00  0.00     0.031 C 
ATOM      6  C   UNL     1     112.543 111.522 112.223  1.00  0.00    -0.074 C 
ATOM      7  C   UNL     1     112.855 111.906 113.465  1.00  0.00     0.008 C 
ATOM      8  C   UNL     1     111.583 110.366 111.962  1.00  0.00     0.021 C 
ATOM      9  C   UNL     1     112.235 109.556 110.829  1.00  0.00     0.012 C 
ATOM     10  C   UNL     1     109.297 109.835 110.920  1.00  0.00     0.012 C 
ENDROOT
TORSDOF 0
ENDMDL
MODEL 3
REMARK VINA RESULT:    -5.053      4.568      6.543
REMARK INTER + INTRA:          -5.053
REMARK INTER:                  -5.053
REMARK INTRA:                   0.000
REMARK UNBOUND:                 0.000
REMARK SMILES C=C1CC[C@H]2C[C@@H]1C2(C)C
REMARK SMILES IDX 9 1 8 2 5 3 4 4 3 5 2 6 1 7 7 8 6 9 10 10
REMARK H PARENT
REMARK Flexibility Score: inf
ROOT
ATOM      1  C   UNL     1     109.956 112.252 115.919  1.00  0.00     0.012 C 
ATOM      2  C   UNL     1     110.465 110.789 115.804  1.00  0.00    -0.026 C 
ATOM      3  C   UNL     1     111.487 110.443 114.690  1.00  0.00    -0.004 C 
ATOM      4  C   UNL     1     112.493 111.618 114.466  1.00  0.00     0.008 C 
ATOM      5  C   UNL     1     113.160 112.106 115.808  1.00  0.00     0.031 C 
ATOM      6  C   UNL     1     112.547 111.433 117.045  1.00  0.00    -0.074 C 
ATOM      7  C   UNL     1     112.879 111.814 118.283  1.00  0.00     0.008 C 
ATOM      8  C   UNL     1     111.547 110.307 116.799  1.00  0.00     0.021 C 
ATOM      9  C   UNL     1     112.163 109.468 115.668  1.00  0.00     0.012 C 
ATOM     10  C   UNL     1     109.238 109.845 115.776  1.00  0.00     0.012 C 
ENDROOT
TORSDOF 0
ENDMDL
MODEL 4
REMARK VINA RESULT:    -5.044      3.795      4.804
REMARK INTER + INTRA:          -5.044
REMARK INTER:                  -5.044
REMARK INTRA:                   0.000
REMARK UNBOUND:                 0.000
REMARK SMILES C=C1CC[C@H]2C[C@@H]1C2(C)C
REMARK SMILES IDX 9 1 8 2 5 3 4 4 3 5 2 6 1 7 7 8 6 9 10 10
REMARK H PARENT
REMARK Flexibility Score: inf
ROOT
ATOM      1  C   UNL     1     110.312 112.857 115.589  1.00  0.00     0.012 C 
ATOM      2  C   UNL     1     111.379 111.728 115.596  1.00  0.00    -0.026 C 
ATOM      3  C   UNL     1     111.224 110.566 116.610  1.00  0.00    -0.004 C 
ATOM      4  C   UNL     1     109.721 110.192 116.811  1.00  0.00     0.008 C 
ATOM      5  C   UNL     1     108.972 109.944 115.447  1.00  0.00     0.031 C 
ATOM      6  C   UNL     1     109.843 110.290 114.231  1.00  0.00    -0.074 C 
ATOM      7  C   UNL     1     109.343 110.282 112.990  1.00  0.00     0.008 C 
ATOM      8  C   UNL     1     111.304 110.640 114.499  1.00  0.00     0.021 C 
ATOM      9  C   UNL     1     111.773 109.610 115.539  1.00  0.00     0.012 C 
ATOM     10  C   UNL     1     112.781 112.381 115.673  1.00  0.00     0.012 C 
ENDROOT
TORSDOF 0
ENDMDL
MODEL 5
REMARK VINA RESULT:    -5.038      1.196      3.248
REMARK INTER + INTRA:          -5.038
REMARK INTER:                  -5.038
REMARK INTRA:                   0.000
REMARK UNBOUND:                 0.000
REMARK SMILES C=C1CC[C@H]2C[C@@H]1C2(C)C
REMARK SMILES IDX 9 1 8 2 5 3 4 4 3 5 2 6 1 7 7 8 6 9 10 10
REMARK H PARENT
REMARK Flexibility Score: inf
ROOT
ATOM      1  C   UNL     1     111.949 109.384 110.861  1.00  0.00     0.012 C 
ATOM      2  C   UNL     1     110.868 110.499 110.833  1.00  0.00    -0.026 C 
ATOM      3  C   UNL     1     111.018 111.704 111.797  1.00  0.00    -0.004 C 
ATOM      4  C   UNL     1     112.519 112.105 111.965  1.00  0.00     0.008 C 
ATOM      5  C   UNL     1     113.251 112.305 110.583  1.00  0.00     0.031 C 
ATOM      6  C   UNL     1     112.370 111.897 109.392  1.00  0.00    -0.074 C 
ATOM      7  C   UNL     1     112.857 111.860 108.147  1.00  0.00     0.008 C 
ATOM      8  C   UNL     1     110.917 111.541 109.691  1.00  0.00     0.021 C 
ATOM      9  C   UNL     1     110.446 112.608 110.693  1.00  0.00     0.012 C 
ATOM     10  C   UNL     1     109.475 109.833 110.953  1.00  0.00     0.012 C 
ENDROOT
TORSDOF 0
ENDMDL
MODEL 6
REMARK VINA RESULT:    -5.037      4.345      6.026
REMARK INTER + INTRA:          -5.037
REMARK INTER:                  -5.037
REMARK INTRA:                   0.000
REMARK UNBOUND:                 0.000
REMARK SMILES C=C1CC[C@H]2C[C@@H]1C2(C)C
REMARK SMILES IDX 9 1 8 2 5 3 4 4 3 5 2 6 1 7 7 8 6 9 10 10
REMARK H PARENT
REMARK Flexibility Score: inf
ROOT
ATOM      1  C   UNL     1     112.323 110.047 115.741  1.00  0.00     0.012 C 
ATOM      2  C   UNL     1     111.755 111.488 115.619  1.00  0.00    -0.026 C 
ATOM      3  C   UNL     1     110.708 111.783 114.515  1.00  0.00    -0.004 C 
ATOM      4  C   UNL     1     109.746 110.568 114.314  1.00  0.00     0.008 C 
ATOM      5  C   UNL     1     109.114 110.066 115.667  1.00  0.00     0.031 C 
ATOM      6  C   UNL     1     109.715 110.775 116.891  1.00  0.00    -0.074 C 
ATOM      7  C   UNL     1     109.412 110.392 118.136  1.00  0.00     0.008 C 
ATOM      8  C   UNL     1     110.667 111.936 116.623  1.00  0.00     0.021 C 
ATOM      9  C   UNL     1     110.005 112.739 115.492  1.00  0.00     0.012 C 
ATOM     10  C   UNL     1     112.944 112.479 115.568  1.00  0.00     0.012 C 
ENDROOT
TORSDOF 0
ENDMDL
MODEL 7
REMARK VINA RESULT:    -5.032      4.104      5.920
REMARK INTER + INTRA:          -5.032
REMARK INTER:                  -5.032
REMARK INTRA:                   0.000
REMARK UNBOUND:                 0.000
REMARK SMILES C=C1CC[C@H]2C[C@@H]1C2(C)C
REMARK SMILES IDX 9 1 8 2 5 3 4 4 3 5 2 6 1 7 7 8 6 9 10 10
REMARK H PARENT
REMARK Flexibility Score: inf
ROOT
ATOM      1  C   UNL     1     111.904 109.393 115.742  1.00  0.00     0.012 C 
ATOM      2  C   UNL     1     110.855 110.538 115.749  1.00  0.00    -0.026 C 
ATOM      3  C   UNL     1     111.038 111.707 116.751  1.00  0.00    -0.004 C 
ATOM      4  C   UNL     1     112.550 112.059 116.933  1.00  0.00     0.008 C 
ATOM      5  C   UNL     1     113.288 112.283 115.558  1.00  0.00     0.031 C 
ATOM      6  C   UNL     1     112.399 111.938 114.354  1.00  0.00    -0.074 C 
ATOM      7  C   UNL     1     112.885 111.927 113.109  1.00  0.00     0.008 C 
ATOM      8  C   UNL     1     110.936 111.615 114.642  1.00  0.00     0.021 C 
ATOM      9  C   UNL     1     110.493 112.662 115.676  1.00  0.00     0.012 C 
ATOM     10  C   UNL     1     109.444 109.909 115.847  1.00  0.00     0.012 C 
ENDROOT
TORSDOF 0
ENDMDL
MODEL 8
REMARK VINA RESULT:    -5.020      0.894      2.825
REMARK INTER + INTRA:          -5.020
REMARK INTER:                  -5.020
REMARK INTRA:                   0.000
REMARK UNBOUND:                 0.000
REMARK SMILES C=C1CC[C@H]2C[C@@H]1C2(C)C
REMARK SMILES IDX 9 1 8 2 5 3 4 4 3 5 2 6 1 7 7 8 6 9 10 10
REMARK H PARENT
REMARK Flexibility Score: inf
ROOT
ATOM      1  C   UNL     1     112.335 110.028 110.906  1.00  0.00     0.012 C 
ATOM      2  C   UNL     1     111.823 111.494 110.883  1.00  0.00    -0.026 C 
ATOM      3  C   UNL     1     110.771 111.897 109.819  1.00  0.00    -0.004 C 
ATOM      4  C   UNL     1     109.759 110.734 109.560  1.00  0.00     0.008 C 
ATOM      5  C   UNL     1     109.129 110.174 110.892  1.00  0.00     0.031 C 
ATOM      6  C   UNL     1     109.776 110.781 112.145  1.00  0.00    -0.074 C 
ATOM      7  C   UNL     1     109.478 110.333 113.370  1.00  0.00     0.008 C 
ATOM      8  C   UNL     1     110.769 111.920 111.932  1.00  0.00     0.021 C 
ATOM      9  C   UNL     1     110.121 112.817 110.865  1.00  0.00     0.012 C 
ATOM     10  C   UNL     1     113.049 112.440 110.872  1.00  0.00     0.012 C 
ENDROOT
TORSDOF 0
ENDMDL
MODEL 9
REMARK VINA RESULT:    -4.965      3.120      5.132
REMARK INTER + INTRA:          -4.965
REMARK INTER:                  -4.965
REMARK INTRA:                   0.000
REMARK UNBOUND:                 0.000
REMARK SMILES C=C1CC[C@H]2C[C@@H]1C2(C)C
REMARK SMILES IDX 9 1 8 2 5 3 4 4 3 5 2 6 1 7 7 8 6 9 10 10
REMARK H PARENT
REMARK Flexibility Score: inf
ROOT
ATOM      1  C   UNL     1     112.334 110.016 106.030  1.00  0.00     0.012 C 
ATOM      2  C   UNL     1     111.711 111.435 105.920  1.00  0.00    -0.026 C 
ATOM      3  C   UNL     1     110.656 111.699 104.815  1.00  0.00    -0.004 C 
ATOM      4  C   UNL     1     109.743 110.449 104.599  1.00  0.00     0.008 C 
ATOM      5  C   UNL     1     109.127 109.910 105.946  1.00  0.00     0.031 C 
ATOM      6  C   UNL     1     109.697 110.630 107.178  1.00  0.00    -0.074 C 
ATOM      7  C   UNL     1     109.406 110.223 108.419  1.00  0.00     0.008 C 
ATOM      8  C   UNL     1     110.603 111.830 106.924  1.00  0.00     0.021 C 
ATOM      9  C   UNL     1     109.913 112.618 105.799  1.00  0.00     0.012 C 
ATOM     10  C   UNL     1     112.860 112.472 105.882  1.00  0.00     0.012 C 
ENDROOT
TORSDOF 0
ENDMDL
