MODEL 1
REMARK VINA RESULT:    -4.051      0.000      0.000
REMARK INTER + INTRA:          -6.896
REMARK INTER:                  -6.182
REMARK INTRA:                  -0.714
REMARK UNBOUND:                -0.714
REMARK SMILES O=C([O-])CCCCCCCCC(=O)[O-]
REMARK SMILES IDX 7 1 6 2 5 3 4 4 2 5 1 6 3 7 8 8 9 9 10 10 11 11 12 12 13 13
REMARK SMILES IDX 14 14
REMARK H PARENT
REMARK Flexibility Score: inf
ROOT
ATOM      1  C   UNL     1       2.596  -8.142  -8.962  1.00  0.00     0.000 C 
ENDROOT
BRANCH   1   2
ATOM      2  C   UNL     1       2.879  -7.178 -10.125  1.00  0.00     0.000 C 
BRANCH   2   3
ATOM      3  C   UNL     1       2.782  -5.719  -9.662  1.00  0.00     0.006 C 
BRANCH   3   4
ATOM      4  C   UNL     1       2.694  -5.632  -8.136  1.00  0.00     0.053 C 
BRANCH   4   5
ATOM      5  C   UNL     1       1.899  -4.434  -7.725  1.00  0.00     0.041 C 
ATOM      6  O   UNL     1       1.526  -3.595  -8.585  1.00  0.00    -0.550 OA
ATOM      7  O   UNL     1       1.525  -4.270  -6.396  1.00  0.00    -0.550 OA
ENDBRANCH   4   5
ENDBRANCH   3   4
ENDBRANCH   2   3
ENDBRANCH   1   2
BRANCH   1   8
ATOM      8  C   UNL     1       3.782  -9.072  -8.657  1.00  0.00     0.000 C 
BRANCH   8   9
ATOM      9  C   UNL     1       4.972  -8.395  -7.949  1.00  0.00     0.000 C 
BRANCH   9  10
ATOM     10  C   UNL     1       6.277  -8.408  -8.774  1.00  0.00     0.006 C 
BRANCH  10  11
ATOM     11  C   UNL     1       6.491  -7.099  -9.544  1.00  0.00     0.053 C 
BRANCH  11  12
ATOM     12  C   UNL     1       7.876  -6.579  -9.316  1.00  0.00     0.041 C 
ATOM     13  O   UNL     1       8.053  -5.391  -8.939  1.00  0.00    -0.550 OA
ATOM     14  O   UNL     1       8.969  -7.423  -9.470  1.00  0.00    -0.550 OA
ENDBRANCH  11  12
ENDBRANCH  10  11
ENDBRANCH   9  10
ENDBRANCH   8   9
ENDBRANCH   1   8
TORSDOF 9
ENDMDL
MODEL 2
REMARK VINA RESULT:    -3.797      0.923      5.566
REMARK INTER + INTRA:          -6.509
REMARK INTER:                  -5.924
REMARK INTRA:                  -0.585
REMARK UNBOUND:                -0.714
REMARK SMILES O=C([O-])CCCCCCCCC(=O)[O-]
REMARK SMILES IDX 7 1 6 2 5 3 4 4 2 5 1 6 3 7 8 8 9 9 10 10 11 11 12 12 13 13
REMARK SMILES IDX 14 14
REMARK H PARENT
REMARK Flexibility Score: inf
ROOT
ATOM      1  C   UNL     1       5.259  -8.275  -8.031  1.00  0.00     0.000 C 
ENDROOT
BRANCH   1   2
ATOM      2  C   UNL     1       6.070  -8.929  -9.160  1.00  0.00     0.000 C 
BRANCH   2   3
ATOM      3  C   UNL     1       7.177  -7.990  -9.653  1.00  0.00     0.006 C 
BRANCH   3   4
ATOM      4  C   UNL     1       6.759  -6.524  -9.508  1.00  0.00     0.053 C 
BRANCH   4   5
ATOM      5  C   UNL     1       7.957  -5.630  -9.558  1.00  0.00     0.041 C 
ATOM      6  O   UNL     1       7.887  -4.508 -10.125  1.00  0.00    -0.550 OA
ATOM      7  O   UNL     1       9.137  -6.014  -8.934  1.00  0.00    -0.550 OA
ENDBRANCH   4   5
ENDBRANCH   3   4
ENDBRANCH   2   3
ENDBRANCH   1   2
BRANCH   1   8
ATOM      8  C   UNL     1       3.776  -8.682  -8.049  1.00  0.00     0.000 C 
BRANCH   8   9
ATOM      9  C   UNL     1       2.848  -7.719  -8.814  1.00  0.00     0.000 C 
BRANCH   9  10
ATOM     10  C   UNL     1       2.938  -6.254  -8.334  1.00  0.00     0.006 C 
BRANCH  10  11
ATOM     11  C   UNL     1       2.155  -5.295  -9.239  1.00  0.00     0.053 C 
BRANCH  11  12
ATOM     12  C   UNL     1       1.648  -4.128  -8.450  1.00  0.00     0.041 C 
ATOM     13  O   UNL     1       1.661  -4.159  -7.192  1.00  0.00    -0.550 OA
ATOM     14  O   UNL     1       1.209  -2.985  -9.107  1.00  0.00    -0.550 OA
ENDBRANCH  11  12
ENDBRANCH  10  11
ENDBRANCH   9  10
ENDBRANCH   8   9
ENDBRANCH   1   8
TORSDOF 9
ENDMDL
MODEL 3
REMARK VINA RESULT:    -3.745     15.769     18.927
REMARK INTER + INTRA:          -6.430
REMARK INTER:                  -5.995
REMARK INTRA:                  -0.435
REMARK UNBOUND:                -0.714
REMARK SMILES O=C([O-])CCCCCCCCC(=O)[O-]
REMARK SMILES IDX 7 1 6 2 5 3 4 4 2 5 1 6 3 7 8 8 9 9 10 10 11 11 12 12 13 13
REMARK SMILES IDX 14 14
REMARK H PARENT
REMARK Flexibility Score: inf
ROOT
ATOM      1  C   UNL     1      -5.162   5.838  -0.861  1.00  0.00     0.000 C 
ENDROOT
BRANCH   1   2
ATOM      2  C   UNL     1      -4.119   5.294  -1.850  1.00  0.00     0.000 C 
BRANCH   2   3
ATOM      3  C   UNL     1      -3.027   6.335  -2.122  1.00  0.00     0.006 C 
BRANCH   3   4
ATOM      4  C   UNL     1      -1.633   5.737  -1.915  1.00  0.00     0.053 C 
BRANCH   4   5
ATOM      5  C   UNL     1      -1.044   6.215  -0.626  1.00  0.00     0.041 C 
ATOM      6  O   UNL     1      -1.735   6.214   0.426  1.00  0.00    -0.550 OA
ATOM      7  O   UNL     1       0.286   6.615  -0.576  1.00  0.00    -0.550 OA
ENDBRANCH   4   5
ENDBRANCH   3   4
ENDBRANCH   2   3
ENDBRANCH   1   2
BRANCH   1   8
ATOM      8  C   UNL     1      -5.916   7.063  -1.406  1.00  0.00     0.000 C 
BRANCH   8   9
ATOM      9  C   UNL     1      -7.418   6.838  -1.667  1.00  0.00     0.000 C 
BRANCH   9  10
ATOM     10  C   UNL     1      -8.300   7.005  -0.411  1.00  0.00     0.006 C 
BRANCH  10  11
ATOM     11  C   UNL     1      -9.267   5.830  -0.218  1.00  0.00     0.053 C 
BRANCH  11  12
ATOM     12  C   UNL     1      -9.032   5.170   1.104  1.00  0.00     0.041 C 
ATOM     13  O   UNL     1      -9.993   4.966   1.891  1.00  0.00    -0.550 OA
ATOM     14  O   UNL     1      -7.758   4.735   1.446  1.00  0.00    -0.550 OA
ENDBRANCH  11  12
ENDBRANCH  10  11
ENDBRANCH   9  10
ENDBRANCH   8   9
ENDBRANCH   1   8
TORSDOF 9
ENDMDL
MODEL 4
REMARK VINA RESULT:    -3.744     14.943     16.219
REMARK INTER + INTRA:          -6.427
REMARK INTER:                  -5.950
REMARK INTRA:                  -0.478
REMARK UNBOUND:                -0.714
REMARK SMILES O=C([O-])CCCCCCCCC(=O)[O-]
REMARK SMILES IDX 7 1 6 2 5 3 4 4 2 5 1 6 3 7 8 8 9 9 10 10 11 11 12 12 13 13
REMARK SMILES IDX 14 14
REMARK H PARENT
REMARK Flexibility Score: inf
ROOT
ATOM      1  C   UNL     1      -5.453   6.053  -2.919  1.00  0.00     0.000 C 
ENDROOT
BRANCH   1   2
ATOM      2  C   UNL     1      -4.736   6.836  -4.030  1.00  0.00     0.000 C 
BRANCH   2   3
ATOM      3  C   UNL     1      -4.630   5.996  -5.309  1.00  0.00     0.006 C 
BRANCH   3   4
ATOM      4  C   UNL     1      -5.830   5.056  -5.450  1.00  0.00     0.053 C 
BRANCH   4   5
ATOM      5  C   UNL     1      -5.673   4.182  -6.653  1.00  0.00     0.041 C 
ATOM      6  O   UNL     1      -4.532   3.977  -7.143  1.00  0.00    -0.550 OA
ATOM      7  O   UNL     1      -6.783   3.551  -7.203  1.00  0.00    -0.550 OA
ENDBRANCH   4   5
ENDBRANCH   3   4
ENDBRANCH   2   3
ENDBRANCH   1   2
BRANCH   1   8
ATOM      8  C   UNL     1      -4.476   5.392  -1.932  1.00  0.00     0.000 C 
BRANCH   8   9
ATOM      9  C   UNL     1      -4.379   6.080  -0.556  1.00  0.00     0.000 C 
BRANCH   9  10
ATOM     10  C   UNL     1      -3.097   6.919  -0.368  1.00  0.00     0.006 C 
BRANCH  10  11
ATOM     11  C   UNL     1      -1.872   6.050  -0.057  1.00  0.00     0.053 C 
BRANCH  11  12
ATOM     12  C   UNL     1      -0.774   6.323  -1.036  1.00  0.00     0.041 C 
ATOM     13  O   UNL     1      -0.959   6.132  -2.266  1.00  0.00    -0.550 OA
ATOM     14  O   UNL     1       0.439   6.836  -0.593  1.00  0.00    -0.550 OA
ENDBRANCH  11  12
ENDBRANCH  10  11
ENDBRANCH   9  10
ENDBRANCH   8   9
ENDBRANCH   1   8
TORSDOF 9
ENDMDL
MODEL 5
REMARK VINA RESULT:    -3.628     13.424     14.731
REMARK INTER + INTRA:          -6.252
REMARK INTER:                  -5.658
REMARK INTRA:                  -0.594
REMARK UNBOUND:                -0.714
REMARK SMILES O=C([O-])CCCCCCCCC(=O)[O-]
REMARK SMILES IDX 7 1 6 2 5 3 4 4 2 5 1 6 3 7 8 8 9 9 10 10 11 11 12 12 13 13
REMARK SMILES IDX 14 14
REMARK H PARENT
REMARK Flexibility Score: inf
ROOT
ATOM      1  C   UNL     1      -8.303  -5.653  -4.164  1.00  0.00     0.000 C 
ENDROOT
BRANCH   1   2
ATOM      2  C   UNL     1      -9.797  -5.832  -4.474  1.00  0.00     0.000 C 
BRANCH   2   3
ATOM      3  C   UNL     1     -10.125  -7.305  -4.751  1.00  0.00     0.006 C 
BRANCH   3   4
ATOM      4  C   UNL     1      -9.056  -8.226  -4.157  1.00  0.00     0.053 C 
BRANCH   4   5
ATOM      5  C   UNL     1      -9.266  -9.635  -4.614  1.00  0.00     0.041 C 
ATOM      6  O   UNL     1      -9.324  -9.900  -5.843  1.00  0.00    -0.550 OA
ATOM      7  O   UNL     1      -9.346 -10.663  -3.682  1.00  0.00    -0.550 OA
ENDBRANCH   4   5
ENDBRANCH   3   4
ENDBRANCH   2   3
ENDBRANCH   1   2
BRANCH   1   8
ATOM      8  C   UNL     1      -7.928  -4.190  -3.870  1.00  0.00     0.000 C 
BRANCH   8   9
ATOM      9  C   UNL     1      -9.124  -3.229  -3.729  1.00  0.00     0.000 C 
BRANCH   9  10
ATOM     10  C   UNL     1      -9.268  -2.237  -4.903  1.00  0.00     0.006 C 
BRANCH  10  11
ATOM     11  C   UNL     1      -8.002  -2.168  -5.765  1.00  0.00     0.053 C 
BRANCH  11  12
ATOM     12  C   UNL     1      -8.245  -2.793  -7.103  1.00  0.00     0.041 C 
ATOM     13  O   UNL     1      -9.209  -3.585  -7.267  1.00  0.00    -0.550 OA
ATOM     14  O   UNL     1      -7.436  -2.459  -8.182  1.00  0.00    -0.550 OA
ENDBRANCH  11  12
ENDBRANCH  10  11
ENDBRANCH   9  10
ENDBRANCH   8   9
ENDBRANCH   1   8
TORSDOF 9
ENDMDL
MODEL 6
REMARK VINA RESULT:    -3.614     14.657     16.416
REMARK INTER + INTRA:          -6.230
REMARK INTER:                  -5.814
REMARK INTRA:                  -0.416
REMARK UNBOUND:                -0.714
REMARK SMILES O=C([O-])CCCCCCCCC(=O)[O-]
REMARK SMILES IDX 7 1 6 2 5 3 4 4 2 5 1 6 3 7 8 8 9 9 10 10 11 11 12 12 13 13
REMARK SMILES IDX 14 14
REMARK H PARENT
REMARK Flexibility Score: inf
ROOT
ATOM      1  C   UNL     1      -5.386   5.966  -1.672  1.00  0.00     0.000 C 
ENDROOT
BRANCH   1   2
ATOM      2  C   UNL     1      -3.940   5.457  -1.576  1.00  0.00     0.000 C 
BRANCH   2   3
ATOM      3  C   UNL     1      -3.102   6.357  -0.659  1.00  0.00     0.006 C 
BRANCH   3   4
ATOM      4  C   UNL     1      -1.730   5.736  -0.385  1.00  0.00     0.053 C 
BRANCH   4   5
ATOM      5  C   UNL     1      -0.665   6.463  -1.144  1.00  0.00     0.041 C 
ATOM      6  O   UNL     1       0.421   6.762  -0.584  1.00  0.00    -0.550 OA
ATOM      7  O   UNL     1      -0.853   6.764  -2.488  1.00  0.00    -0.550 OA
ENDBRANCH   4   5
ENDBRANCH   3   4
ENDBRANCH   2   3
ENDBRANCH   1   2
BRANCH   1   8
ATOM      8  C   UNL     1      -5.801   6.312  -3.112  1.00  0.00     0.000 C 
BRANCH   8   9
ATOM      9  C   UNL     1      -4.664   6.237  -4.150  1.00  0.00     0.000 C 
BRANCH   9  10
ATOM     10  C   UNL     1      -5.154   5.988  -5.593  1.00  0.00     0.006 C 
BRANCH  10  11
ATOM     11  C   UNL     1      -5.722   4.576  -5.780  1.00  0.00     0.053 C 
BRANCH  11  12
ATOM     12  C   UNL     1      -5.445   4.080  -7.164  1.00  0.00     0.041 C 
ATOM     13  O   UNL     1      -6.395   3.764  -7.927  1.00  0.00    -0.550 OA
ATOM     14  O   UNL     1      -4.137   4.014  -7.630  1.00  0.00    -0.550 OA
ENDBRANCH  11  12
ENDBRANCH  10  11
ENDBRANCH   9  10
ENDBRANCH   8   9
ENDBRANCH   1   8
TORSDOF 9
ENDMDL
MODEL 7
REMARK VINA RESULT:    -3.589     13.548     14.622
REMARK INTER + INTRA:          -6.191
REMARK INTER:                  -5.688
REMARK INTRA:                  -0.503
REMARK UNBOUND:                -0.714
REMARK SMILES O=C([O-])CCCCCCCCC(=O)[O-]
REMARK SMILES IDX 7 1 6 2 5 3 4 4 2 5 1 6 3 7 8 8 9 9 10 10 11 11 12 12 13 13
REMARK SMILES IDX 14 14
REMARK H PARENT
REMARK Flexibility Score: inf
ROOT
ATOM      1  C   UNL     1      -7.932  -4.263  -3.881  1.00  0.00     0.000 C 
ENDROOT
BRANCH   1   2
ATOM      2  C   UNL     1      -9.177  -3.397  -3.631  1.00  0.00     0.000 C 
BRANCH   2   3
ATOM      3  C   UNL     1      -9.252  -2.244  -4.640  1.00  0.00     0.006 C 
BRANCH   3   4
ATOM      4  C   UNL     1      -7.992  -2.190  -5.507  1.00  0.00     0.053 C 
BRANCH   4   5
ATOM      5  C   UNL     1      -8.322  -2.503  -6.932  1.00  0.00     0.041 C 
ATOM      6  O   UNL     1      -8.977  -1.681  -7.626  1.00  0.00    -0.550 OA
ATOM      7  O   UNL     1      -7.864  -3.681  -7.510  1.00  0.00    -0.550 OA
ENDBRANCH   4   5
ENDBRANCH   3   4
ENDBRANCH   2   3
ENDBRANCH   1   2
BRANCH   1   8
ATOM      8  C   UNL     1      -8.279  -5.727  -4.197  1.00  0.00     0.000 C 
BRANCH   8   9
ATOM      9  C   UNL     1      -9.786  -6.023  -4.331  1.00  0.00     0.000 C 
BRANCH   9  10
ATOM     10  C   UNL     1     -10.100  -7.466  -4.779  1.00  0.00     0.006 C 
BRANCH  10  11
ATOM     11  C   UNL     1      -9.210  -8.500  -4.079  1.00  0.00     0.053 C 
BRANCH  11  12
ATOM     12  C   UNL     1      -9.306  -9.825  -4.768  1.00  0.00     0.041 C 
ATOM     13  O   UNL     1      -9.268  -9.891  -6.024  1.00  0.00    -0.550 OA
ATOM     14  O   UNL     1      -9.386 -10.993  -4.019  1.00  0.00    -0.550 OA
ENDBRANCH  11  12
ENDBRANCH  10  11
ENDBRANCH   9  10
ENDBRANCH   8   9
ENDBRANCH   1   8
TORSDOF 9
ENDMDL
MODEL 8
REMARK VINA RESULT:    -3.524     17.493     19.442
REMARK INTER + INTRA:          -6.091
REMARK INTER:                  -5.454
REMARK INTRA:                  -0.637
REMARK UNBOUND:                -0.714
REMARK SMILES O=C([O-])CCCCCCCCC(=O)[O-]
REMARK SMILES IDX 7 1 6 2 5 3 4 4 2 5 1 6 3 7 8 8 9 9 10 10 11 11 12 12 13 13
REMARK SMILES IDX 14 14
REMARK H PARENT
REMARK Flexibility Score: inf
ROOT
ATOM      1  C   UNL     1      -3.543  -8.048   9.224  1.00  0.00     0.000 C 
ENDROOT
BRANCH   1   2
ATOM      2  C   UNL     1      -2.380  -8.823   8.585  1.00  0.00     0.000 C 
BRANCH   2   3
ATOM      3  C   UNL     1      -1.313  -9.168   9.630  1.00  0.00     0.006 C 
BRANCH   3   4
ATOM      4  C   UNL     1       0.064  -8.655   9.199  1.00  0.00     0.053 C 
BRANCH   4   5
ATOM      5  C   UNL     1       0.761  -9.673   8.353  1.00  0.00     0.041 C 
ATOM      6  O   UNL     1       0.569 -10.901   8.552  1.00  0.00    -0.550 OA
ATOM      7  O   UNL     1       1.584  -9.264   7.311  1.00  0.00    -0.550 OA
ENDBRANCH   4   5
ENDBRANCH   3   4
ENDBRANCH   2   3
ENDBRANCH   1   2
BRANCH   1   8
ATOM      8  C   UNL     1      -4.569  -7.555   8.190  1.00  0.00     0.000 C 
BRANCH   8   9
ATOM      9  C   UNL     1      -4.271  -7.963   6.734  1.00  0.00     0.000 C 
BRANCH   9  10
ATOM     10  C   UNL     1      -5.229  -9.040   6.180  1.00  0.00     0.006 C 
BRANCH  10  11
ATOM     11  C   UNL     1      -6.148  -9.615   7.266  1.00  0.00     0.053 C 
BRANCH  11  12
ATOM     12  C   UNL     1      -5.822 -11.054   7.518  1.00  0.00     0.041 C 
ATOM     13  O   UNL     1      -6.736 -11.919   7.527  1.00  0.00    -0.550 OA
ATOM     14  O   UNL     1      -4.501 -11.447   7.692  1.00  0.00    -0.550 OA
ENDBRANCH  11  12
ENDBRANCH  10  11
ENDBRANCH   9  10
ENDBRANCH   8   9
ENDBRANCH   1   8
TORSDOF 9
ENDMDL
MODEL 9
REMARK VINA RESULT:    -3.507     13.807     15.005
REMARK INTER + INTRA:          -6.066
REMARK INTER:                  -5.751
REMARK INTRA:                  -0.315
REMARK UNBOUND:                -0.714
REMARK SMILES O=C([O-])CCCCCCCCC(=O)[O-]
REMARK SMILES IDX 7 1 6 2 5 3 4 4 2 5 1 6 3 7 8 8 9 9 10 10 11 11 12 12 13 13
REMARK SMILES IDX 14 14
REMARK H PARENT
REMARK Flexibility Score: inf
ROOT
ATOM      1  C   UNL     1      -8.924  -9.187  -4.504  1.00  0.00     0.000 C 
ENDROOT
BRANCH   1   2
ATOM      2  C   UNL     1      -9.781 -10.455  -4.367  1.00  0.00     0.000 C 
BRANCH   2   3
ATOM      3  C   UNL     1      -9.728 -11.292  -5.651  1.00  0.00     0.006 C 
BRANCH   3   4
ATOM      4  C   UNL     1      -9.478 -10.406  -6.875  1.00  0.00     0.053 C 
BRANCH   4   5
ATOM      5  C   UNL     1      -9.079 -11.238  -8.052  1.00  0.00     0.041 C 
ATOM      6  O   UNL     1      -9.436 -12.442  -8.127  1.00  0.00    -0.550 OA
ATOM      7  O   UNL     1      -8.354 -10.667  -9.092  1.00  0.00    -0.550 OA
ENDBRANCH   4   5
ENDBRANCH   3   4
ENDBRANCH   2   3
ENDBRANCH   1   2
BRANCH   1   8
ATOM      8  C   UNL     1      -9.672  -7.915  -4.072  1.00  0.00     0.000 C 
BRANCH   8   9
ATOM      9  C   UNL     1      -8.856  -6.612  -4.189  1.00  0.00     0.000 C 
BRANCH   9  10
ATOM     10  C   UNL     1      -9.669  -5.415  -4.727  1.00  0.00     0.006 C 
BRANCH  10  11
ATOM     11  C   UNL     1      -8.770  -4.297  -5.269  1.00  0.00     0.053 C 
BRANCH  11  12
ATOM     12  C   UNL     1      -8.459  -3.306  -4.191  1.00  0.00     0.041 C 
ATOM     13  O   UNL     1      -9.149  -3.276  -3.139  1.00  0.00    -0.550 OA
ATOM     14  O   UNL     1      -7.374  -2.448  -4.328  1.00  0.00    -0.550 OA
ENDBRANCH  11  12
ENDBRANCH  10  11
ENDBRANCH   9  10
ENDBRANCH   8   9
ENDBRANCH   1   8
TORSDOF 9
ENDMDL
