MODEL 1
REMARK VINA RESULT:    -4.469      0.000      0.000
REMARK INTER + INTRA:          -8.443
REMARK INTER:                  -7.082
REMARK INTRA:                  -1.361
REMARK UNBOUND:                -1.361
REMARK SMILES CCCCCCCCCCCC(=O)[O-]
REMARK SMILES IDX 7 1 8 2 9 3 10 4 11 5 12 6 13 7 14 8 6 9 5 10 4 11 3 12 2 13
REMARK SMILES IDX 1 14
REMARK H PARENT
REMARK Flexibility Score: inf
ROOT
ATOM      1  C   UNL     1      86.736  77.009  70.267  1.00  0.00     0.000 C 
ENDROOT
BRANCH   1   2
ATOM      2  C   UNL     1      85.681  75.935  70.592  1.00  0.00     0.000 C 
BRANCH   2   3
ATOM      3  C   UNL     1      86.207  74.486  70.596  1.00  0.00     0.000 C 
BRANCH   3   4
ATOM      4  C   UNL     1      87.724  74.343  70.836  1.00  0.00     0.006 C 
BRANCH   4   5
ATOM      5  C   UNL     1      88.104  73.893  72.255  1.00  0.00     0.053 C 
BRANCH   5   6
ATOM      6  C   UNL     1      89.099  72.773  72.241  1.00  0.00     0.041 C 
ATOM      7  O   UNL     1      89.608  72.393  71.154  1.00  0.00    -0.550 OA
ATOM      8  O   UNL     1      89.488  72.173  73.431  1.00  0.00    -0.550 OA
ENDBRANCH   5   6
ENDBRANCH   4   5
ENDBRANCH   3   4
ENDBRANCH   2   3
ENDBRANCH   1   2
BRANCH   1   9
ATOM      9  C   UNL     1      86.412  77.895  69.046  1.00  0.00     0.000 C 
BRANCH   9  10
ATOM     10  C   UNL     1      87.189  77.553  67.762  1.00  0.00    -0.000 C 
BRANCH  10  11
ATOM     11  C   UNL     1      88.547  76.889  68.044  1.00  0.00    -0.000 C 
BRANCH  11  12
ATOM     12  C   UNL     1      88.634  75.448  67.508  1.00  0.00    -0.000 C 
BRANCH  12  13
ATOM     13  C   UNL     1      87.305  74.862  66.998  1.00  0.00    -0.003 C 
ATOM     14  C   UNL     1      87.203  73.349  67.190  1.00  0.00     0.004 C 
ENDBRANCH  12  13
ENDBRANCH  11  12
ENDBRANCH  10  11
ENDBRANCH   9  10
ENDBRANCH   1   9
TORSDOF 10
ENDMDL
MODEL 2
REMARK VINA RESULT:    -4.018      1.840      4.170
REMARK INTER + INTRA:          -7.729
REMARK INTER:                  -6.449
REMARK INTRA:                  -1.280
REMARK UNBOUND:                -1.361
REMARK SMILES CCCCCCCCCCCC(=O)[O-]
REMARK SMILES IDX 7 1 8 2 9 3 10 4 11 5 12 6 13 7 14 8 6 9 5 10 4 11 3 12 2 13
REMARK SMILES IDX 1 14
REMARK H PARENT
REMARK Flexibility Score: inf
ROOT
ATOM      1  C   UNL     1      86.883  77.958  69.705  1.00  0.00     0.000 C 
ENDROOT
BRANCH   1   2
ATOM      2  C   UNL     1      86.509  77.837  68.216  1.00  0.00     0.000 C 
BRANCH   2   3
ATOM      3  C   UNL     1      86.245  76.399  67.725  1.00  0.00     0.000 C 
BRANCH   3   4
ATOM      4  C   UNL     1      87.437  75.720  67.021  1.00  0.00     0.006 C 
BRANCH   4   5
ATOM      5  C   UNL     1      88.526  75.201  67.974  1.00  0.00     0.053 C 
BRANCH   5   6
ATOM      6  C   UNL     1      88.361  73.742  68.272  1.00  0.00     0.041 C 
ATOM      7  O   UNL     1      87.537  73.052  67.617  1.00  0.00    -0.550 OA
ATOM      8  O   UNL     1      89.142  73.139  69.249  1.00  0.00    -0.550 OA
ENDBRANCH   5   6
ENDBRANCH   4   5
ENDBRANCH   3   4
ENDBRANCH   2   3
ENDBRANCH   1   2
BRANCH   1   9
ATOM      9  C   UNL     1      86.264  76.885  70.624  1.00  0.00     0.000 C 
BRANCH   9  10
ATOM     10  C   UNL     1      87.276  76.011  71.386  1.00  0.00    -0.000 C 
BRANCH  10  11
ATOM     11  C   UNL     1      86.782  74.570  71.597  1.00  0.00    -0.000 C 
BRANCH  11  12
ATOM     12  C   UNL     1      85.604  74.199  70.677  1.00  0.00    -0.000 C 
BRANCH  12  13
ATOM     13  C   UNL     1      84.237  74.098  71.377  1.00  0.00    -0.003 C 
ATOM     14  C   UNL     1      84.347  73.760  72.863  1.00  0.00     0.004 C 
ENDBRANCH  12  13
ENDBRANCH  11  12
ENDBRANCH  10  11
ENDBRANCH   9  10
ENDBRANCH   1   9
TORSDOF 10
ENDMDL
MODEL 3
REMARK VINA RESULT:    -3.988      1.798      4.511
REMARK INTER + INTRA:          -7.681
REMARK INTER:                  -6.696
REMARK INTRA:                  -0.985
REMARK UNBOUND:                -1.361
REMARK SMILES CCCCCCCCCCCC(=O)[O-]
REMARK SMILES IDX 7 1 8 2 9 3 10 4 11 5 12 6 13 7 14 8 6 9 5 10 4 11 3 12 2 13
REMARK SMILES IDX 1 14
REMARK H PARENT
REMARK Flexibility Score: inf
ROOT
ATOM      1  C   UNL     1      86.649  76.965  70.466  1.00  0.00     0.000 C 
ENDROOT
BRANCH   1   2
ATOM      2  C   UNL     1      86.704  77.618  69.072  1.00  0.00     0.000 C 
BRANCH   2   3
ATOM      3  C   UNL     1      86.092  76.777  67.934  1.00  0.00     0.000 C 
BRANCH   3   4
ATOM      4  C   UNL     1      87.111  76.180  66.942  1.00  0.00     0.006 C 
BRANCH   4   5
ATOM      5  C   UNL     1      88.389  75.632  67.597  1.00  0.00     0.053 C 
BRANCH   5   6
ATOM      6  C   UNL     1      88.304  74.157  67.844  1.00  0.00     0.041 C 
ATOM      7  O   UNL     1      89.242  73.559  68.433  1.00  0.00    -0.550 OA
ATOM      8  O   UNL     1      87.174  73.450  67.456  1.00  0.00    -0.550 OA
ENDBRANCH   5   6
ENDBRANCH   4   5
ENDBRANCH   3   4
ENDBRANCH   2   3
ENDBRANCH   1   2
BRANCH   1   9
ATOM      9  C   UNL     1      85.558  75.889  70.642  1.00  0.00     0.000 C 
BRANCH   9  10
ATOM     10  C   UNL     1      86.070  74.494  71.039  1.00  0.00    -0.000 C 
BRANCH  10  11
ATOM     11  C   UNL     1      87.583  74.469  71.317  1.00  0.00    -0.000 C 
BRANCH  11  12
ATOM     12  C   UNL     1      87.916  74.431  72.820  1.00  0.00    -0.000 C 
BRANCH  12  13
ATOM     13  C   UNL     1      89.008  73.423  73.221  1.00  0.00    -0.003 C 
ATOM     14  C   UNL     1      89.431  72.509  72.071  1.00  0.00     0.004 C 
ENDBRANCH  12  13
ENDBRANCH  11  12
ENDBRANCH  10  11
ENDBRANCH   9  10
ENDBRANCH   1   9
TORSDOF 10
ENDMDL
MODEL 4
REMARK VINA RESULT:    -3.799      0.974      2.757
REMARK INTER + INTRA:          -7.381
REMARK INTER:                  -6.452
REMARK INTRA:                  -0.929
REMARK UNBOUND:                -1.361
REMARK SMILES CCCCCCCCCCCC(=O)[O-]
REMARK SMILES IDX 7 1 8 2 9 3 10 4 11 5 12 6 13 7 14 8 6 9 5 10 4 11 3 12 2 13
REMARK SMILES IDX 1 14
REMARK H PARENT
REMARK Flexibility Score: inf
ROOT
ATOM      1  C   UNL     1      87.279  73.686  68.902  1.00  0.00     0.000 C 
ENDROOT
BRANCH   1   2
ATOM      2  C   UNL     1      87.569  74.542  70.149  1.00  0.00     0.000 C 
BRANCH   2   3
ATOM      3  C   UNL     1      86.465  74.518  71.227  1.00  0.00     0.000 C 
BRANCH   3   4
ATOM      4  C   UNL     1      86.963  74.264  72.664  1.00  0.00     0.006 C 
BRANCH   4   5
ATOM      5  C   UNL     1      88.491  74.299  72.824  1.00  0.00     0.053 C 
BRANCH   5   6
ATOM      6  C   UNL     1      89.077  72.923  72.917  1.00  0.00     0.041 C 
ATOM      7  O   UNL     1      89.058  72.300  74.011  1.00  0.00    -0.550 OA
ATOM      8  O   UNL     1      89.612  72.317  71.789  1.00  0.00    -0.550 OA
ENDBRANCH   5   6
ENDBRANCH   4   5
ENDBRANCH   3   4
ENDBRANCH   2   3
ENDBRANCH   1   2
BRANCH   1   9
ATOM      9  C   UNL     1      87.908  74.203  67.593  1.00  0.00     0.000 C 
BRANCH   9  10
ATOM     10  C   UNL     1      87.262  75.473  67.011  1.00  0.00    -0.000 C 
BRANCH  10  11
ATOM     11  C   UNL     1      88.254  76.640  66.875  1.00  0.00    -0.000 C 
BRANCH  11  12
ATOM     12  C   UNL     1      87.859  77.865  67.721  1.00  0.00    -0.000 C 
BRANCH  12  13
ATOM     13  C   UNL     1      86.482  77.770  68.403  1.00  0.00    -0.003 C 
ATOM     14  C   UNL     1      86.554  77.919  69.922  1.00  0.00     0.004 C 
ENDBRANCH  12  13
ENDBRANCH  11  12
ENDBRANCH  10  11
ENDBRANCH   9  10
ENDBRANCH   1   9
TORSDOF 10
ENDMDL
MODEL 5
REMARK VINA RESULT:    -3.773     13.732     15.265
REMARK INTER + INTRA:          -7.340
REMARK INTER:                  -6.375
REMARK INTRA:                  -0.965
REMARK UNBOUND:                -1.361
REMARK SMILES CCCCCCCCCCCC(=O)[O-]
REMARK SMILES IDX 7 1 8 2 9 3 10 4 11 5 12 6 13 7 14 8 6 9 5 10 4 11 3 12 2 13
REMARK SMILES IDX 1 14
REMARK H PARENT
REMARK Flexibility Score: inf
ROOT
ATOM      1  C   UNL     1      95.988  84.088  78.120  1.00  0.00     0.000 C 
ENDROOT
BRANCH   1   2
ATOM      2  C   UNL     1      94.933  85.127  77.696  1.00  0.00     0.000 C 
BRANCH   2   3
ATOM      3  C   UNL     1      94.105  84.745  76.452  1.00  0.00     0.000 C 
BRANCH   3   4
ATOM      4  C   UNL     1      92.589  84.599  76.696  1.00  0.00     0.006 C 
BRANCH   4   5
ATOM      5  C   UNL     1      92.177  83.269  77.347  1.00  0.00     0.053 C 
BRANCH   5   6
ATOM      6  C   UNL     1      91.459  83.480  78.646  1.00  0.00     0.041 C 
ATOM      7  O   UNL     1      92.005  84.136  79.571  1.00  0.00    -0.550 OA
ATOM      8  O   UNL     1      90.175  82.981  78.820  1.00  0.00    -0.550 OA
ENDBRANCH   5   6
ENDBRANCH   4   5
ENDBRANCH   3   4
ENDBRANCH   2   3
ENDBRANCH   1   2
BRANCH   1   9
ATOM      9  C   UNL     1      95.488  83.015  79.108  1.00  0.00     0.000 C 
BRANCH   9  10
ATOM     10  C   UNL     1      96.375  81.762  79.219  1.00  0.00    -0.000 C 
BRANCH  10  11
ATOM     11  C   UNL     1      97.862  82.056  78.960  1.00  0.00    -0.000 C 
BRANCH  11  12
ATOM     12  C   UNL     1      98.694  82.127  80.254  1.00  0.00    -0.000 C 
BRANCH  12  13
ATOM     13  C   UNL     1      98.694  83.497  80.956  1.00  0.00    -0.003 C 
ATOM     14  C   UNL     1      97.875  83.510  82.246  1.00  0.00     0.004 C 
ENDBRANCH  12  13
ENDBRANCH  11  12
ENDBRANCH  10  11
ENDBRANCH   9  10
ENDBRANCH   1   9
TORSDOF 10
ENDMDL
MODEL 6
REMARK VINA RESULT:    -3.726     14.197     15.328
REMARK INTER + INTRA:          -7.265
REMARK INTER:                  -6.703
REMARK INTRA:                  -0.563
REMARK UNBOUND:                -1.361
REMARK SMILES CCCCCCCCCCCC(=O)[O-]
REMARK SMILES IDX 7 1 8 2 9 3 10 4 11 5 12 6 13 7 14 8 6 9 5 10 4 11 3 12 2 13
REMARK SMILES IDX 1 14
REMARK H PARENT
REMARK Flexibility Score: inf
ROOT
ATOM      1  C   UNL     1      96.097  83.908  78.210  1.00  0.00     0.000 C 
ENDROOT
BRANCH   1   2
ATOM      2  C   UNL     1      95.803  82.590  78.950  1.00  0.00     0.000 C 
BRANCH   2   3
ATOM      3  C   UNL     1      97.038  81.709  79.227  1.00  0.00     0.000 C 
BRANCH   3   4
ATOM      4  C   UNL     1      97.941  82.194  80.380  1.00  0.00     0.006 C 
BRANCH   4   5
ATOM      5  C   UNL     1      99.447  82.046  80.113  1.00  0.00     0.053 C 
BRANCH   5   6
ATOM      6  C   UNL     1     100.266  82.888  81.043  1.00  0.00     0.041 C 
ATOM      7  O   UNL     1     100.117  82.784  82.289  1.00  0.00    -0.550 OA
ATOM      8  O   UNL     1     101.218  83.762  80.535  1.00  0.00    -0.550 OA
ENDBRANCH   5   6
ENDBRANCH   4   5
ENDBRANCH   3   4
ENDBRANCH   2   3
ENDBRANCH   1   2
BRANCH   1   9
ATOM      9  C   UNL     1      94.877  84.828  78.002  1.00  0.00     0.000 C 
BRANCH   9  10
ATOM     10  C   UNL     1      94.199  84.718  76.624  1.00  0.00    -0.000 C 
BRANCH  10  11
ATOM     11  C   UNL     1      92.712  84.337  76.718  1.00  0.00    -0.000 C 
BRANCH  11  12
ATOM     12  C   UNL     1      92.479  83.005  77.455  1.00  0.00    -0.000 C 
BRANCH  12  13
ATOM     13  C   UNL     1      91.348  83.027  78.498  1.00  0.00    -0.003 C 
ATOM     14  C   UNL     1      90.100  83.765  78.015  1.00  0.00     0.004 C 
ENDBRANCH  12  13
ENDBRANCH  11  12
ENDBRANCH  10  11
ENDBRANCH   9  10
ENDBRANCH   1   9
TORSDOF 10
ENDMDL
MODEL 7
REMARK VINA RESULT:    -3.689      2.701      5.247
REMARK INTER + INTRA:          -7.206
REMARK INTER:                  -6.205
REMARK INTRA:                  -1.002
REMARK UNBOUND:                -1.361
REMARK SMILES CCCCCCCCCCCC(=O)[O-]
REMARK SMILES IDX 7 1 8 2 9 3 10 4 11 5 12 6 13 7 14 8 6 9 5 10 4 11 3 12 2 13
REMARK SMILES IDX 1 14
REMARK H PARENT
REMARK Flexibility Score: inf
ROOT
ATOM      1  C   UNL     1      86.157  75.248  70.074  1.00  0.00     0.000 C 
ENDROOT
BRANCH   1   2
ATOM      2  C   UNL     1      86.758  73.956  69.487  1.00  0.00     0.000 C 
BRANCH   2   3
ATOM      3  C   UNL     1      87.917  74.171  68.492  1.00  0.00     0.000 C 
BRANCH   3   4
ATOM      4  C   UNL     1      87.532  74.906  67.192  1.00  0.00     0.006 C 
BRANCH   4   5
ATOM      5  C   UNL     1      88.400  76.134  66.876  1.00  0.00     0.053 C 
BRANCH   5   6
ATOM      6  C   UNL     1      88.245  77.211  67.906  1.00  0.00     0.041 C 
ATOM      7  O   UNL     1      89.185  77.463  68.704  1.00  0.00    -0.550 OA
ATOM      8  O   UNL     1      87.076  77.957  67.962  1.00  0.00    -0.550 OA
ENDBRANCH   5   6
ENDBRANCH   4   5
ENDBRANCH   3   4
ENDBRANCH   2   3
ENDBRANCH   1   2
BRANCH   1   9
ATOM      9  C   UNL     1      86.801  75.730  71.390  1.00  0.00     0.000 C 
BRANCH   9  10
ATOM     10  C   UNL     1      87.017  74.639  72.453  1.00  0.00    -0.000 C 
BRANCH  10  11
ATOM     11  C   UNL     1      88.494  74.471  72.847  1.00  0.00    -0.000 C 
BRANCH  11  12
ATOM     12  C   UNL     1      88.815  73.064  73.387  1.00  0.00    -0.000 C 
BRANCH  12  13
ATOM     13  C   UNL     1      90.000  72.358  72.705  1.00  0.00    -0.003 C 
ATOM     14  C   UNL     1      89.857  72.279  71.185  1.00  0.00     0.004 C 
ENDBRANCH  12  13
ENDBRANCH  11  12
ENDBRANCH  10  11
ENDBRANCH   9  10
ENDBRANCH   1   9
TORSDOF 10
ENDMDL
MODEL 8
REMARK VINA RESULT:    -3.640     13.261     14.510
REMARK INTER + INTRA:          -7.129
REMARK INTER:                  -6.563
REMARK INTRA:                  -0.566
REMARK UNBOUND:                -1.361
REMARK SMILES CCCCCCCCCCCC(=O)[O-]
REMARK SMILES IDX 7 1 8 2 9 3 10 4 11 5 12 6 13 7 14 8 6 9 5 10 4 11 3 12 2 13
REMARK SMILES IDX 1 14
REMARK H PARENT
REMARK Flexibility Score: inf
ROOT
ATOM      1  C   UNL     1      94.734  84.855  77.271  1.00  0.00     0.000 C 
ENDROOT
BRANCH   1   2
ATOM      2  C   UNL     1      95.884  84.105  77.970  1.00  0.00     0.000 C 
BRANCH   2   3
ATOM      3  C   UNL     1      95.447  83.143  79.093  1.00  0.00     0.000 C 
BRANCH   3   4
ATOM      4  C   UNL     1      96.322  81.883  79.250  1.00  0.00     0.006 C 
BRANCH   4   5
ATOM      5  C   UNL     1      97.806  82.094  78.910  1.00  0.00     0.053 C 
BRANCH   5   6
ATOM      6  C   UNL     1      98.637  82.314  80.137  1.00  0.00     0.041 C 
ATOM      7  O   UNL     1      98.088  82.633  81.224  1.00  0.00    -0.550 OA
ATOM      8  O   UNL     1     100.013  82.134  80.088  1.00  0.00    -0.550 OA
ENDBRANCH   5   6
ENDBRANCH   4   5
ENDBRANCH   3   4
ENDBRANCH   2   3
ENDBRANCH   1   2
BRANCH   1   9
ATOM      9  C   UNL     1      93.328  84.568  77.835  1.00  0.00     0.000 C 
BRANCH   9  10
ATOM     10  C   UNL     1      92.417  83.721  76.929  1.00  0.00    -0.000 C 
BRANCH  10  11
ATOM     11  C   UNL     1      91.003  83.539  77.505  1.00  0.00    -0.000 C 
BRANCH  11  12
ATOM     12  C   UNL     1      90.992  83.413  79.040  1.00  0.00    -0.000 C 
BRANCH  12  13
ATOM     13  C   UNL     1      89.600  83.500  79.691  1.00  0.00    -0.003 C 
ATOM     14  C   UNL     1      88.478  83.005  78.778  1.00  0.00     0.004 C 
ENDBRANCH  12  13
ENDBRANCH  11  12
ENDBRANCH  10  11
ENDBRANCH   9  10
ENDBRANCH   1   9
TORSDOF 10
ENDMDL
MODEL 9
REMARK VINA RESULT:    -3.610     13.243     14.614
REMARK INTER + INTRA:          -7.081
REMARK INTER:                  -6.195
REMARK INTRA:                  -0.887
REMARK UNBOUND:                -1.361
REMARK SMILES CCCCCCCCCCCC(=O)[O-]
REMARK SMILES IDX 7 1 8 2 9 3 10 4 11 5 12 6 13 7 14 8 6 9 5 10 4 11 3 12 2 13
REMARK SMILES IDX 1 14
REMARK H PARENT
REMARK Flexibility Score: inf
ROOT
ATOM      1  C   UNL     1      94.016  85.253  77.753  1.00  0.00     0.000 C 
ENDROOT
BRANCH   1   2
ATOM      2  C   UNL     1      92.810  84.774  76.924  1.00  0.00     0.000 C 
BRANCH   2   3
ATOM      3  C   UNL     1      92.552  83.254  76.967  1.00  0.00     0.000 C 
BRANCH   3   4
ATOM      4  C   UNL     1      91.805  82.754  78.220  1.00  0.00     0.006 C 
BRANCH   4   5
ATOM      5  C   UNL     1      90.500  83.506  78.524  1.00  0.00     0.053 C 
BRANCH   5   6
ATOM      6  C   UNL     1      90.504  84.104  79.898  1.00  0.00     0.041 C 
ATOM      7  O   UNL     1      89.909  83.522  80.843  1.00  0.00    -0.550 OA
ATOM      8  O   UNL     1      91.193  85.284  80.141  1.00  0.00    -0.550 OA
ENDBRANCH   5   6
ENDBRANCH   4   5
ENDBRANCH   3   4
ENDBRANCH   2   3
ENDBRANCH   1   2
BRANCH   1   9
ATOM      9  C   UNL     1      95.369  84.624  77.364  1.00  0.00     0.000 C 
BRANCH   9  10
ATOM     10  C   UNL     1      96.189  84.053  78.535  1.00  0.00    -0.000 C 
BRANCH  10  11
ATOM     11  C   UNL     1      95.552  82.798  79.155  1.00  0.00    -0.000 C 
BRANCH  11  12
ATOM     12  C   UNL     1      96.525  81.607  79.232  1.00  0.00    -0.000 C 
BRANCH  12  13
ATOM     13  C   UNL     1      98.017  81.981  79.189  1.00  0.00    -0.003 C 
ATOM     14  C   UNL     1      98.643  82.113  80.577  1.00  0.00     0.004 C 
ENDBRANCH  12  13
ENDBRANCH  11  12
ENDBRANCH  10  11
ENDBRANCH   9  10
ENDBRANCH   1   9
TORSDOF 10
ENDMDL
