MODEL 1
REMARK VINA RESULT:    -5.879      0.000      0.000
REMARK INTER + INTRA:          -8.001
REMARK INTER:                  -7.597
REMARK INTRA:                  -0.403
REMARK UNBOUND:                -0.403
REMARK SMILES CCO[C@H]1O[C@H](CO)[C@@H](O)[C@@H](O)[C@H]1O
REMARK SMILES IDX 4 1 13 2 11 3 9 4 6 5 5 6 3 7 2 8 1 9 14 10 12 12 7 14 8 15
REMARK SMILES IDX 10 17
REMARK H PARENT 14 11 12 13 8 16 10 18
REMARK Flexibility Score: inf
ROOT
ATOM      1  C   UNL     1      34.698   2.919  43.747  1.00  0.00     0.281 C 
ATOM      2  C   UNL     1      34.920   4.357  43.233  1.00  0.00     0.202 C 
ATOM      3  C   UNL     1      36.221   4.983  43.812  1.00  0.00     0.179 C 
ATOM      4  C   UNL     1      36.702   4.206  45.048  1.00  0.00     0.177 C 
ATOM      5  C   UNL     1      36.863   2.696  44.681  1.00  0.00     0.178 C 
ATOM      6  O   UNL     1      35.922   2.205  43.728  1.00  0.00    -0.341 OA
ENDROOT
BRANCH   1   7
ATOM      7  O   UNL     1      33.759   2.267  42.911  1.00  0.00    -0.350 OA
BRANCH   7   8
ATOM      8  C   UNL     1      32.894   1.436  43.662  1.00  0.00     0.160 C 
ATOM      9  C   UNL     1      31.831   2.279  44.357  1.00  0.00     0.035 C 
ENDBRANCH   7   8
ENDBRANCH   1   7
BRANCH   2  10
ATOM     10  O   UNL     1      34.954   4.356  41.827  1.00  0.00    -0.385 OA
ATOM     11  H   UNL     1      34.369   3.611  41.526  1.00  0.00     0.211 HD
ENDBRANCH   2  10
BRANCH   3  12
ATOM     12  O   UNL     1      37.234   4.990  42.836  1.00  0.00    -0.387 OA
ATOM     13  H   UNL     1      37.102   5.804  42.283  1.00  0.00     0.211 HD
ENDBRANCH   3  12
BRANCH   5  14
ATOM     14  C   UNL     1      36.883   1.783  45.919  1.00  0.00     0.191 C 
BRANCH  14  15
ATOM     15  O   UNL     1      36.716   2.530  47.091  1.00  0.00    -0.394 OA
ATOM     16  H   UNL     1      36.399   1.892  47.781  1.00  0.00     0.210 HD
ENDBRANCH  14  15
ENDBRANCH   5  14
BRANCH   4  17
ATOM     17  O   UNL     1      37.919   4.744  45.497  1.00  0.00    -0.387 OA
ATOM     18  H   UNL     1      38.630   4.401  44.894  1.00  0.00     0.211 HD
ENDBRANCH   4  17
TORSDOF 7
ENDMDL
MODEL 2
REMARK VINA RESULT:    -5.442      1.220      3.298
REMARK INTER + INTRA:          -7.437
REMARK INTER:                  -7.123
REMARK INTRA:                  -0.314
REMARK UNBOUND:                -0.403
REMARK SMILES CCO[C@H]1O[C@H](CO)[C@@H](O)[C@@H](O)[C@H]1O
REMARK SMILES IDX 4 1 13 2 11 3 9 4 6 5 5 6 3 7 2 8 1 9 14 10 12 12 7 14 8 15
REMARK SMILES IDX 10 17
REMARK H PARENT 14 11 12 13 8 16 10 18
REMARK Flexibility Score: inf
ROOT
ATOM      1  C   UNL     1      34.885   3.022  44.430  1.00  0.00     0.281 C 
ATOM      2  C   UNL     1      36.309   2.839  44.999  1.00  0.00     0.202 C 
ATOM      3  C   UNL     1      37.272   3.960  44.513  1.00  0.00     0.179 C 
ATOM      4  C   UNL     1      36.699   4.684  43.284  1.00  0.00     0.177 C 
ATOM      5  C   UNL     1      35.267   5.213  43.615  1.00  0.00     0.178 C 
ATOM      6  O   UNL     1      34.510   4.387  44.498  1.00  0.00    -0.341 OA
ENDROOT
BRANCH   1   7
ATOM      7  O   UNL     1      33.978   2.246  45.192  1.00  0.00    -0.350 OA
BRANCH   7   8
ATOM      8  C   UNL     1      33.081   1.540  44.357  1.00  0.00     0.160 C 
ATOM      9  C   UNL     1      31.711   2.207  44.378  1.00  0.00     0.035 C 
ENDBRANCH   7   8
ENDBRANCH   1   7
BRANCH   2  10
ATOM     10  O   UNL     1      36.255   2.807  46.403  1.00  0.00    -0.385 OA
ATOM     11  H   UNL     1      35.707   2.015  46.652  1.00  0.00     0.211 HD
ENDBRANCH   2  10
BRANCH   3  12
ATOM     12  O   UNL     1      37.497   4.889  45.545  1.00  0.00    -0.387 OA
ATOM     13  H   UNL     1      36.629   5.033  46.004  1.00  0.00     0.211 HD
ENDBRANCH   3  12
BRANCH   5  14
ATOM     14  C   UNL     1      34.445   5.527  42.354  1.00  0.00     0.191 C 
BRANCH  14  15
ATOM     15  O   UNL     1      34.904   4.782  41.261  1.00  0.00    -0.394 OA
ATOM     16  H   UNL     1      35.102   5.439  40.544  1.00  0.00     0.210 HD
ENDBRANCH  14  15
ENDBRANCH   5  14
BRANCH   4  17
ATOM     17  O   UNL     1      37.551   5.739  42.921  1.00  0.00    -0.387 OA
ATOM     18  H   UNL     1      37.690   6.294  43.732  1.00  0.00     0.211 HD
ENDBRANCH   4  17
TORSDOF 7
ENDMDL
MODEL 3
REMARK VINA RESULT:    -5.389      2.953      5.011
REMARK INTER + INTRA:          -7.367
REMARK INTER:                  -6.964
REMARK INTRA:                  -0.403
REMARK UNBOUND:                -0.403
REMARK SMILES CCO[C@H]1O[C@H](CO)[C@@H](O)[C@@H](O)[C@H]1O
REMARK SMILES IDX 4 1 13 2 11 3 9 4 6 5 5 6 3 7 2 8 1 9 14 10 12 12 7 14 8 15
REMARK SMILES IDX 10 17
REMARK H PARENT 14 11 12 13 8 16 10 18
REMARK Flexibility Score: inf
ROOT
ATOM      1  C   UNL     1      38.623   4.962  44.449  1.00  0.00     0.281 C 
ATOM      2  C   UNL     1      39.558   6.166  44.694  1.00  0.00     0.202 C 
ATOM      3  C   UNL     1      38.811   7.521  44.523  1.00  0.00     0.179 C 
ATOM      4  C   UNL     1      37.497   7.331  43.750  1.00  0.00     0.177 C 
ATOM      5  C   UNL     1      36.630   6.242  44.461  1.00  0.00     0.178 C 
ATOM      6  O   UNL     1      37.372   5.189  45.074  1.00  0.00    -0.341 OA
ENDROOT
BRANCH   1   7
ATOM      7  O   UNL     1      39.217   3.797  44.992  1.00  0.00    -0.350 OA
BRANCH   7   8
ATOM      8  C   UNL     1      38.242   2.811  45.276  1.00  0.00     0.160 C 
ATOM      9  C   UNL     1      38.061   1.893  44.072  1.00  0.00     0.035 C 
ENDBRANCH   7   8
ENDBRANCH   1   7
BRANCH   2  10
ATOM     10  O   UNL     1      40.125   6.071  45.977  1.00  0.00    -0.385 OA
ATOM     11  H   UNL     1      39.508   5.515  46.523  1.00  0.00     0.211 HD
ENDBRANCH   2  10
BRANCH   3  12
ATOM     12  O   UNL     1      38.541   8.088  45.782  1.00  0.00    -0.387 OA
ATOM     13  H   UNL     1      38.100   8.963  45.620  1.00  0.00     0.211 HD
ENDBRANCH   3  12
BRANCH   5  14
ATOM     14  C   UNL     1      35.545   5.656  43.542  1.00  0.00     0.191 C 
BRANCH  14  15
ATOM     15  O   UNL     1      35.823   5.937  42.199  1.00  0.00    -0.394 OA
ATOM     16  H   UNL     1      36.777   5.703  42.061  1.00  0.00     0.210 HD
ENDBRANCH  14  15
ENDBRANCH   5  14
BRANCH   4  17
ATOM     17  O   UNL     1      36.810   8.553  43.685  1.00  0.00    -0.387 OA
ATOM     18  H   UNL     1      36.709   8.882  44.617  1.00  0.00     0.211 HD
ENDBRANCH   4  17
TORSDOF 7
ENDMDL
MODEL 4
REMARK VINA RESULT:    -5.375      2.535      4.639
REMARK INTER + INTRA:          -7.350
REMARK INTER:                  -6.979
REMARK INTRA:                  -0.371
REMARK UNBOUND:                -0.403
REMARK SMILES CCO[C@H]1O[C@H](CO)[C@@H](O)[C@@H](O)[C@H]1O
REMARK SMILES IDX 4 1 13 2 11 3 9 4 6 5 5 6 3 7 2 8 1 9 14 10 12 12 7 14 8 15
REMARK SMILES IDX 10 17
REMARK H PARENT 14 11 12 13 8 16 10 18
REMARK Flexibility Score: inf
ROOT
ATOM      1  C   UNL     1      36.758   0.102  44.834  1.00  0.00     0.281 C 
ATOM      2  C   UNL     1      37.714   0.283  46.032  1.00  0.00     0.202 C 
ATOM      3  C   UNL     1      37.871   1.780  46.425  1.00  0.00     0.179 C 
ATOM      4  C   UNL     1      37.403   2.699  45.285  1.00  0.00     0.177 C 
ATOM      5  C   UNL     1      35.940   2.325  44.883  1.00  0.00     0.178 C 
ATOM      6  O   UNL     1      35.624   0.938  44.991  1.00  0.00    -0.341 OA
ENDROOT
BRANCH   1   7
ATOM      7  O   UNL     1      36.342  -1.250  44.772  1.00  0.00    -0.350 OA
BRANCH   7   8
ATOM      8  C   UNL     1      37.262  -2.036  44.039  1.00  0.00     0.160 C 
ATOM      9  C   UNL     1      36.874  -3.508  44.122  1.00  0.00     0.035 C 
ENDBRANCH   7   8
ENDBRANCH   1   7
BRANCH   2  10
ATOM     10  O   UNL     1      37.248  -0.470  47.125  1.00  0.00    -0.385 OA
ATOM     11  H   UNL     1      37.017  -1.371  46.775  1.00  0.00     0.211 HD
ENDBRANCH   2  10
BRANCH   3  12
ATOM     12  O   UNL     1      37.130   2.057  47.588  1.00  0.00    -0.387 OA
ATOM     13  H   UNL     1      37.693   2.641  48.161  1.00  0.00     0.211 HD
ENDBRANCH   3  12
BRANCH   5  14
ATOM     14  C   UNL     1      35.557   2.846  43.489  1.00  0.00     0.191 C 
BRANCH  14  15
ATOM     15  O   UNL     1      36.646   3.475  42.875  1.00  0.00    -0.394 OA
ATOM     16  H   UNL     1      37.459   3.080  43.283  1.00  0.00     0.210 HD
ENDBRANCH  14  15
ENDBRANCH   5  14
BRANCH   4  17
ATOM     17  O   UNL     1      37.480   4.038  45.700  1.00  0.00    -0.387 OA
ATOM     18  H   UNL     1      36.665   4.495  45.366  1.00  0.00     0.211 HD
ENDBRANCH   4  17
TORSDOF 7
ENDMDL
MODEL 5
REMARK VINA RESULT:    -5.223      1.565      2.853
REMARK INTER + INTRA:          -7.153
REMARK INTER:                  -6.721
REMARK INTRA:                  -0.432
REMARK UNBOUND:                -0.403
REMARK SMILES CCO[C@H]1O[C@H](CO)[C@@H](O)[C@@H](O)[C@H]1O
REMARK SMILES IDX 4 1 13 2 11 3 9 4 6 5 5 6 3 7 2 8 1 9 14 10 12 12 7 14 8 15
REMARK SMILES IDX 10 17
REMARK H PARENT 14 11 12 13 8 16 10 18
REMARK Flexibility Score: inf
ROOT
ATOM      1  C   UNL     1      35.605   2.664  44.521  1.00  0.00     0.281 C 
ATOM      2  C   UNL     1      34.401   3.309  43.800  1.00  0.00     0.202 C 
ATOM      3  C   UNL     1      34.791   4.650  43.115  1.00  0.00     0.179 C 
ATOM      4  C   UNL     1      36.112   5.194  43.682  1.00  0.00     0.177 C 
ATOM      5  C   UNL     1      37.221   4.101  43.555  1.00  0.00     0.178 C 
ATOM      6  O   UNL     1      36.762   2.759  43.709  1.00  0.00    -0.341 OA
ENDROOT
BRANCH   1   7
ATOM      7  O   UNL     1      35.317   1.300  44.774  1.00  0.00    -0.350 OA
BRANCH   7   8
ATOM      8  C   UNL     1      36.502   0.529  44.832  1.00  0.00     0.160 C 
ATOM      9  C   UNL     1      36.161  -0.956  44.807  1.00  0.00     0.035 C 
ENDBRANCH   7   8
ENDBRANCH   1   7
BRANCH   2  10
ATOM     10  O   UNL     1      33.876   2.406  42.859  1.00  0.00    -0.385 OA
ATOM     11  H   UNL     1      34.496   2.408  42.082  1.00  0.00     0.211 HD
ENDBRANCH   2  10
BRANCH   3  12
ATOM     12  O   UNL     1      34.914   4.468  41.725  1.00  0.00    -0.387 OA
ATOM     13  H   UNL     1      35.862   4.640  41.490  1.00  0.00     0.211 HD
ENDBRANCH   3  12
BRANCH   5  14
ATOM     14  C   UNL     1      38.416   4.358  44.487  1.00  0.00     0.191 C 
BRANCH  14  15
ATOM     15  O   UNL     1      38.194   5.488  45.282  1.00  0.00    -0.394 OA
ATOM     16  H   UNL     1      38.335   5.197  46.220  1.00  0.00     0.210 HD
ENDBRANCH  14  15
ENDBRANCH   5  14
BRANCH   4  17
ATOM     17  O   UNL     1      36.476   6.359  42.988  1.00  0.00    -0.387 OA
ATOM     18  H   UNL     1      36.770   6.079  42.082  1.00  0.00     0.211 HD
ENDBRANCH   4  17
TORSDOF 7
ENDMDL
MODEL 6
REMARK VINA RESULT:    -5.222      1.252      4.095
REMARK INTER + INTRA:          -7.152
REMARK INTER:                  -6.738
REMARK INTRA:                  -0.413
REMARK UNBOUND:                -0.403
REMARK SMILES CCO[C@H]1O[C@H](CO)[C@@H](O)[C@@H](O)[C@H]1O
REMARK SMILES IDX 4 1 13 2 11 3 9 4 6 5 5 6 3 7 2 8 1 9 14 10 12 12 7 14 8 15
REMARK SMILES IDX 10 17
REMARK H PARENT 14 11 12 13 8 16 10 18
REMARK Flexibility Score: inf
ROOT
ATOM      1  C   UNL     1      36.136   2.630  45.324  1.00  0.00     0.281 C 
ATOM      2  C   UNL     1      36.967   3.731  44.630  1.00  0.00     0.202 C 
ATOM      3  C   UNL     1      36.139   4.483  43.548  1.00  0.00     0.179 C 
ATOM      4  C   UNL     1      34.892   3.677  43.151  1.00  0.00     0.177 C 
ATOM      5  C   UNL     1      34.061   3.342  44.431  1.00  0.00     0.178 C 
ATOM      6  O   UNL     1      34.835   3.114  45.608  1.00  0.00    -0.341 OA
ENDROOT
BRANCH   1   7
ATOM      7  O   UNL     1      36.775   2.260  46.532  1.00  0.00    -0.350 OA
BRANCH   7   8
ATOM      8  C   UNL     1      37.360   0.976  46.430  1.00  0.00     0.160 C 
ATOM      9  C   UNL     1      38.880   1.093  46.414  1.00  0.00     0.035 C 
ENDBRANCH   7   8
ENDBRANCH   1   7
BRANCH   2  10
ATOM     10  O   UNL     1      37.457   4.630  45.593  1.00  0.00    -0.385 OA
ATOM     11  H   UNL     1      37.081   5.523  45.370  1.00  0.00     0.211 HD
ENDBRANCH   2  10
BRANCH   3  12
ATOM     12  O   UNL     1      35.750   5.748  44.027  1.00  0.00    -0.387 OA
ATOM     13  H   UNL     1      35.825   6.383  43.268  1.00  0.00     0.211 HD
ENDBRANCH   3  12
BRANCH   5  14
ATOM     14  C   UNL     1      33.080   2.178  44.213  1.00  0.00     0.191 C 
BRANCH  14  15
ATOM     15  O   UNL     1      33.306   1.561  42.977  1.00  0.00    -0.394 OA
ATOM     16  H   UNL     1      33.978   2.120  42.508  1.00  0.00     0.210 HD
ENDBRANCH  14  15
ENDBRANCH   5  14
BRANCH   4  17
ATOM     17  O   UNL     1      34.126   4.418  42.237  1.00  0.00    -0.387 OA
ATOM     18  H   UNL     1      34.611   4.405  41.371  1.00  0.00     0.211 HD
ENDBRANCH   4  17
TORSDOF 7
ENDMDL
MODEL 7
REMARK VINA RESULT:    -5.106      1.959      3.117
REMARK INTER + INTRA:          -7.002
REMARK INTER:                  -6.663
REMARK INTRA:                  -0.339
REMARK UNBOUND:                -0.403
REMARK SMILES CCO[C@H]1O[C@H](CO)[C@@H](O)[C@@H](O)[C@H]1O
REMARK SMILES IDX 4 1 13 2 11 3 9 4 6 5 5 6 3 7 2 8 1 9 14 10 12 12 7 14 8 15
REMARK SMILES IDX 10 17
REMARK H PARENT 14 11 12 13 8 16 10 18
REMARK Flexibility Score: inf
ROOT
ATOM      1  C   UNL     1      36.372   3.350  43.973  1.00  0.00     0.281 C 
ATOM      2  C   UNL     1      35.036   3.898  43.428  1.00  0.00     0.202 C 
ATOM      3  C   UNL     1      35.079   5.443  43.244  1.00  0.00     0.179 C 
ATOM      4  C   UNL     1      36.241   6.060  44.038  1.00  0.00     0.177 C 
ATOM      5  C   UNL     1      37.577   5.360  43.630  1.00  0.00     0.178 C 
ATOM      6  O   UNL     1      37.457   3.975  43.309  1.00  0.00    -0.341 OA
ENDROOT
BRANCH   1   7
ATOM      7  O   UNL     1      36.426   1.952  43.749  1.00  0.00    -0.350 OA
BRANCH   7   8
ATOM      8  C   UNL     1      36.368   1.236  44.967  1.00  0.00     0.160 C 
ATOM      9  C   UNL     1      36.182  -0.252  44.691  1.00  0.00     0.035 C 
ENDBRANCH   7   8
ENDBRANCH   1   7
BRANCH   2  10
ATOM     10  O   UNL     1      34.725   3.263  42.213  1.00  0.00    -0.385 OA
ATOM     11  H   UNL     1      34.056   3.835  41.752  1.00  0.00     0.211 HD
ENDBRANCH   2  10
BRANCH   3  12
ATOM     12  O   UNL     1      35.215   5.765  41.881  1.00  0.00    -0.387 OA
ATOM     13  H   UNL     1      35.750   6.600  41.830  1.00  0.00     0.211 HD
ENDBRANCH   3  12
BRANCH   5  14
ATOM     14  C   UNL     1      38.694   5.565  44.667  1.00  0.00     0.191 C 
BRANCH  14  15
ATOM     15  O   UNL     1      38.623   6.844  45.231  1.00  0.00    -0.394 OA
ATOM     16  H   UNL     1      39.377   7.359  44.842  1.00  0.00     0.210 HD
ENDBRANCH  14  15
ENDBRANCH   5  14
BRANCH   4  17
ATOM     17  O   UNL     1      36.302   7.439  43.786  1.00  0.00    -0.387 OA
ATOM     18  H   UNL     1      37.251   7.660  43.596  1.00  0.00     0.211 HD
ENDBRANCH   4  17
TORSDOF 7
ENDMDL
MODEL 8
REMARK VINA RESULT:    -5.083      2.489      4.376
REMARK INTER + INTRA:          -6.973
REMARK INTER:                  -6.614
REMARK INTRA:                  -0.359
REMARK UNBOUND:                -0.403
REMARK SMILES CCO[C@H]1O[C@H](CO)[C@@H](O)[C@@H](O)[C@H]1O
REMARK SMILES IDX 4 1 13 2 11 3 9 4 6 5 5 6 3 7 2 8 1 9 14 10 12 12 7 14 8 15
REMARK SMILES IDX 10 17
REMARK H PARENT 14 11 12 13 8 16 10 18
REMARK Flexibility Score: inf
ROOT
ATOM      1  C   UNL     1      37.514   4.453  44.322  1.00  0.00     0.281 C 
ATOM      2  C   UNL     1      39.053   4.437  44.444  1.00  0.00     0.202 C 
ATOM      3  C   UNL     1      39.633   5.870  44.624  1.00  0.00     0.179 C 
ATOM      4  C   UNL     1      38.607   6.935  44.205  1.00  0.00     0.177 C 
ATOM      5  C   UNL     1      37.277   6.713  44.994  1.00  0.00     0.178 C 
ATOM      6  O   UNL     1      36.964   5.349  45.273  1.00  0.00    -0.341 OA
ENDROOT
BRANCH   1   7
ATOM      7  O   UNL     1      37.017   3.149  44.561  1.00  0.00    -0.350 OA
BRANCH   7   8
ATOM      8  C   UNL     1      35.881   2.880  43.761  1.00  0.00     0.160 C 
ATOM      9  C   UNL     1      34.769   2.283  44.615  1.00  0.00     0.035 C 
ENDBRANCH   7   8
ENDBRANCH   1   7
BRANCH   2  10
ATOM     10  O   UNL     1      39.433   3.611  45.517  1.00  0.00    -0.385 OA
ATOM     11  H   UNL     1      39.538   4.200  46.310  1.00  0.00     0.211 HD
ENDBRANCH   2  10
BRANCH   3  12
ATOM     12  O   UNL     1      40.008   6.078  45.964  1.00  0.00    -0.387 OA
ATOM     13  H   UNL     1      40.903   5.666  46.084  1.00  0.00     0.211 HD
ENDBRANCH   3  12
BRANCH   5  14
ATOM     14  C   UNL     1      36.073   7.403  44.332  1.00  0.00     0.191 C 
BRANCH  14  15
ATOM     15  O   UNL     1      36.414   8.688  43.894  1.00  0.00    -0.394 OA
ATOM     16  H   UNL     1      36.576   9.224  44.712  1.00  0.00     0.210 HD
ENDBRANCH  14  15
ENDBRANCH   5  14
BRANCH   4  17
ATOM     17  O   UNL     1      39.129   8.214  44.455  1.00  0.00    -0.387 OA
ATOM     18  H   UNL     1      38.418   8.735  44.912  1.00  0.00     0.211 HD
ENDBRANCH   4  17
TORSDOF 7
ENDMDL
MODEL 9
REMARK VINA RESULT:    -5.072      2.779      4.763
REMARK INTER + INTRA:          -6.958
REMARK INTER:                  -6.559
REMARK INTRA:                  -0.399
REMARK UNBOUND:                -0.403
REMARK SMILES CCO[C@H]1O[C@H](CO)[C@@H](O)[C@@H](O)[C@H]1O
REMARK SMILES IDX 4 1 13 2 11 3 9 4 6 5 5 6 3 7 2 8 1 9 14 10 12 12 7 14 8 15
REMARK SMILES IDX 10 17
REMARK H PARENT 14 11 12 13 8 16 10 18
REMARK Flexibility Score: inf
ROOT
ATOM      1  C   UNL     1      38.013   4.368  44.821  1.00  0.00     0.281 C 
ATOM      2  C   UNL     1      36.678   4.534  44.063  1.00  0.00     0.202 C 
ATOM      3  C   UNL     1      36.482   5.991  43.553  1.00  0.00     0.179 C 
ATOM      4  C   UNL     1      37.419   6.962  44.289  1.00  0.00     0.177 C 
ATOM      5  C   UNL     1      38.893   6.463  44.152  1.00  0.00     0.178 C 
ATOM      6  O   UNL     1      39.048   5.045  44.129  1.00  0.00    -0.341 OA
ENDROOT
BRANCH   1   7
ATOM      7  O   UNL     1      38.328   2.990  44.909  1.00  0.00    -0.350 OA
BRANCH   7   8
ATOM      8  C   UNL     1      39.690   2.796  45.239  1.00  0.00     0.160 C 
ATOM      9  C   UNL     1      40.125   1.385  44.859  1.00  0.00     0.035 C 
ENDBRANCH   7   8
ENDBRANCH   1   7
BRANCH   2  10
ATOM     10  O   UNL     1      36.627   3.624  42.993  1.00  0.00    -0.385 OA
ATOM     11  H   UNL     1      35.702   3.659  42.629  1.00  0.00     0.211 HD
ENDBRANCH   2  10
BRANCH   3  12
ATOM     12  O   UNL     1      36.723   6.058  42.169  1.00  0.00    -0.387 OA
ATOM     13  H   UNL     1      36.422   6.953  41.863  1.00  0.00     0.211 HD
ENDBRANCH   3  12
BRANCH   5  14
ATOM     14  C   UNL     1      39.827   7.077  45.209  1.00  0.00     0.191 C 
BRANCH  14  15
ATOM     15  O   UNL     1      39.726   8.473  45.212  1.00  0.00    -0.394 OA
ATOM     16  H   UNL     1      38.762   8.680  45.314  1.00  0.00     0.210 HD
ENDBRANCH  14  15
ENDBRANCH   5  14
BRANCH   4  17
ATOM     17  O   UNL     1      37.276   8.251  43.750  1.00  0.00    -0.387 OA
ATOM     18  H   UNL     1      36.608   8.728  44.309  1.00  0.00     0.211 HD
ENDBRANCH   4  17
TORSDOF 7
ENDMDL
