MODEL 1
REMARK VINA RESULT:    -4.046      0.000      0.000
REMARK INTER + INTRA:          -4.164
REMARK INTER:                  -4.164
REMARK INTRA:                   0.000
REMARK UNBOUND:                 0.000
REMARK SMILES Cc1ccccc1O
REMARK SMILES IDX 1 1 2 2 3 3 4 4 5 5 6 6 7 7 8 8
REMARK H PARENT 8 9
REMARK Flexibility Score: inf
ROOT
ATOM      1  C   UNL     1     475.893  34.200 463.191  1.00  0.00     0.048 C 
ATOM      2  C   UNL     1     476.743  35.131 462.374  1.00  0.00    -0.009 A 
ATOM      3  C   UNL     1     477.811  34.630 461.609  1.00  0.00     0.007 A 
ATOM      4  C   UNL     1     478.601  35.496 460.849  1.00  0.00     0.001 A 
ATOM      5  C   UNL     1     478.334  36.866 460.844  1.00  0.00     0.004 A 
ATOM      6  C   UNL     1     477.276  37.376 461.601  1.00  0.00     0.046 A 
ATOM      7  C   UNL     1     476.476  36.514 462.367  1.00  0.00     0.118 A 
ENDROOT
BRANCH   7   8
ATOM      8  O   UNL     1     475.421  37.026 463.120  1.00  0.00    -0.508 OA
ATOM      9  H   UNL     1     474.636  36.449 463.397  1.00  0.00     0.293 HD
ENDBRANCH   7   8
TORSDOF 1
ENDMDL
MODEL 2
REMARK VINA RESULT:    -4.026      2.347      3.981
REMARK INTER + INTRA:          -4.143
REMARK INTER:                  -4.143
REMARK INTRA:                   0.000
REMARK UNBOUND:                 0.000
REMARK SMILES Cc1ccccc1O
REMARK SMILES IDX 1 1 2 2 3 3 4 4 5 5 6 6 7 7 8 8
REMARK H PARENT 8 9
REMARK Flexibility Score: inf
ROOT
ATOM      1  C   UNL     1     479.840  37.403 459.291  1.00  0.00     0.048 C 
ATOM      2  C   UNL     1     478.906  36.760 460.276  1.00  0.00    -0.009 A 
ATOM      3  C   UNL     1     478.041  37.549 461.053  1.00  0.00     0.007 A 
ATOM      4  C   UNL     1     477.172  36.951 461.970  1.00  0.00     0.001 A 
ATOM      5  C   UNL     1     477.158  35.563 462.120  1.00  0.00     0.004 A 
ATOM      6  C   UNL     1     478.015  34.768 461.353  1.00  0.00     0.046 A 
ATOM      7  C   UNL     1     478.890  35.360 460.430  1.00  0.00     0.118 A 
ENDROOT
BRANCH   7   8
ATOM      8  O   UNL     1     479.743  34.563 459.667  1.00  0.00    -0.508 OA
ATOM      9  H   UNL     1     480.085  34.865 458.763  1.00  0.00     0.293 HD
ENDBRANCH   7   8
TORSDOF 1
ENDMDL
MODEL 3
REMARK VINA RESULT:    -3.985      1.027      2.294
REMARK INTER + INTRA:          -4.101
REMARK INTER:                  -4.101
REMARK INTRA:                   0.000
REMARK UNBOUND:                 0.000
REMARK SMILES Cc1ccccc1O
REMARK SMILES IDX 1 1 2 2 3 3 4 4 5 5 6 6 7 7 8 8
REMARK H PARENT 8 9
REMARK Flexibility Score: inf
ROOT
ATOM      1  C   UNL     1     475.995  38.085 462.568  1.00  0.00     0.048 C 
ATOM      2  C   UNL     1     476.854  36.982 462.018  1.00  0.00    -0.009 A 
ATOM      3  C   UNL     1     477.888  37.272 461.112  1.00  0.00     0.007 A 
ATOM      4  C   UNL     1     478.687  36.246 460.600  1.00  0.00     0.001 A 
ATOM      5  C   UNL     1     478.462  34.923 460.989  1.00  0.00     0.004 A 
ATOM      6  C   UNL     1     477.437  34.622 461.888  1.00  0.00     0.046 A 
ATOM      7  C   UNL     1     476.630  35.647 462.407  1.00  0.00     0.118 A 
ENDROOT
BRANCH   7   8
ATOM      8  O   UNL     1     475.607  35.342 463.305  1.00  0.00    -0.508 OA
ATOM      9  H   UNL     1     475.617  35.686 464.258  1.00  0.00     0.293 HD
ENDBRANCH   7   8
TORSDOF 1
ENDMDL
MODEL 4
REMARK VINA RESULT:    -3.930      1.929      3.072
REMARK INTER + INTRA:          -4.045
REMARK INTER:                  -4.045
REMARK INTRA:                   0.000
REMARK UNBOUND:                 0.000
REMARK SMILES Cc1ccccc1O
REMARK SMILES IDX 1 1 2 2 3 3 4 4 5 5 6 6 7 7 8 8
REMARK H PARENT 8 9
REMARK Flexibility Score: inf
ROOT
ATOM      1  C   UNL     1     479.535  34.628 459.738  1.00  0.00     0.048 C 
ATOM      2  C   UNL     1     478.569  35.346 460.636  1.00  0.00    -0.009 A 
ATOM      3  C   UNL     1     477.827  34.633 461.594  1.00  0.00     0.007 A 
ATOM      4  C   UNL     1     476.927  35.301 462.429  1.00  0.00     0.001 A 
ATOM      5  C   UNL     1     476.760  36.682 462.318  1.00  0.00     0.004 A 
ATOM      6  C   UNL     1     477.491  37.401 461.368  1.00  0.00     0.046 A 
ATOM      7  C   UNL     1     478.397  36.739 460.525  1.00  0.00     0.118 A 
ENDROOT
BRANCH   7   8
ATOM      8  O   UNL     1     479.125  37.461 459.580  1.00  0.00    -0.508 OA
ATOM      9  H   UNL     1     479.959  37.977 459.832  1.00  0.00     0.293 HD
ENDBRANCH   7   8
TORSDOF 1
ENDMDL
MODEL 5
REMARK VINA RESULT:    -3.805      2.178      3.766
REMARK INTER + INTRA:          -3.916
REMARK INTER:                  -3.916
REMARK INTRA:                   0.000
REMARK UNBOUND:                 0.000
REMARK SMILES Cc1ccccc1O
REMARK SMILES IDX 1 1 2 2 3 3 4 4 5 5 6 6 7 7 8 8
REMARK H PARENT 8 9
REMARK Flexibility Score: inf
ROOT
ATOM      1  C   UNL     1     478.768  38.287 460.189  1.00  0.00     0.048 C 
ATOM      2  C   UNL     1     478.226  37.052 460.852  1.00  0.00    -0.009 A 
ATOM      3  C   UNL     1     477.231  37.156 461.840  1.00  0.00     0.007 A 
ATOM      4  C   UNL     1     476.727  36.008 462.457  1.00  0.00     0.001 A 
ATOM      5  C   UNL     1     477.211  34.749 462.095  1.00  0.00     0.004 A 
ATOM      6  C   UNL     1     478.201  34.633 461.116  1.00  0.00     0.046 A 
ATOM      7  C   UNL     1     478.712  35.781 460.491  1.00  0.00     0.118 A 
ENDROOT
BRANCH   7   8
ATOM      8  O   UNL     1     479.700  35.662 459.514  1.00  0.00    -0.508 OA
ATOM      9  H   UNL     1     479.479  35.377 458.567  1.00  0.00     0.293 HD
ENDBRANCH   7   8
TORSDOF 1
ENDMDL
MODEL 6
REMARK VINA RESULT:    -3.783      1.894      2.544
REMARK INTER + INTRA:          -3.894
REMARK INTER:                  -3.894
REMARK INTRA:                   0.000
REMARK UNBOUND:                 0.000
REMARK SMILES Cc1ccccc1O
REMARK SMILES IDX 1 1 2 2 3 3 4 4 5 5 6 6 7 7 8 8
REMARK H PARENT 8 9
REMARK Flexibility Score: inf
ROOT
ATOM      1  C   UNL     1     476.877  33.898 462.709  1.00  0.00     0.048 C 
ATOM      2  C   UNL     1     477.157  35.257 462.135  1.00  0.00    -0.009 A 
ATOM      3  C   UNL     1     476.351  36.355 462.484  1.00  0.00     0.007 A 
ATOM      4  C   UNL     1     476.612  37.620 461.950  1.00  0.00     0.001 A 
ATOM      5  C   UNL     1     477.677  37.801 461.066  1.00  0.00     0.004 A 
ATOM      6  C   UNL     1     478.485  36.717 460.711  1.00  0.00     0.046 A 
ATOM      7  C   UNL     1     478.231  35.444 461.243  1.00  0.00     0.118 A 
ENDROOT
BRANCH   7   8
ATOM      8  O   UNL     1     479.039  34.365 460.887  1.00  0.00    -0.508 OA
ATOM      9  H   UNL     1     478.858  33.429 461.230  1.00  0.00     0.293 HD
ENDBRANCH   7   8
TORSDOF 1
ENDMDL
MODEL 7
REMARK VINA RESULT:    -3.534      1.823      3.006
REMARK INTER + INTRA:          -3.638
REMARK INTER:                  -3.638
REMARK INTRA:                   0.000
REMARK UNBOUND:                 0.000
REMARK SMILES Cc1ccccc1O
REMARK SMILES IDX 1 1 2 2 3 3 4 4 5 5 6 6 7 7 8 8
REMARK H PARENT 8 9
REMARK Flexibility Score: inf
ROOT
ATOM      1  C   UNL     1     479.519  34.731 459.849  1.00  0.00     0.048 C 
ATOM      2  C   UNL     1     478.700  35.774 460.554  1.00  0.00    -0.009 A 
ATOM      3  C   UNL     1     478.742  37.114 460.131  1.00  0.00     0.007 A 
ATOM      4  C   UNL     1     477.981  38.085 460.787  1.00  0.00     0.001 A 
ATOM      5  C   UNL     1     477.172  37.730 461.867  1.00  0.00     0.004 A 
ATOM      6  C   UNL     1     477.123  36.401 462.298  1.00  0.00     0.046 A 
ATOM      7  C   UNL     1     477.883  35.419 461.645  1.00  0.00     0.118 A 
ENDROOT
BRANCH   7   8
ATOM      8  O   UNL     1     477.831  34.094 462.077  1.00  0.00    -0.508 OA
ATOM      9  H   UNL     1     476.978  33.687 462.441  1.00  0.00     0.293 HD
ENDBRANCH   7   8
TORSDOF 1
ENDMDL
MODEL 8
REMARK VINA RESULT:    -3.462      7.274      8.148
REMARK INTER + INTRA:          -3.563
REMARK INTER:                  -3.563
REMARK INTRA:                   0.000
REMARK UNBOUND:                 0.000
REMARK SMILES Cc1ccccc1O
REMARK SMILES IDX 1 1 2 2 3 3 4 4 5 5 6 6 7 7 8 8
REMARK H PARENT 8 9
REMARK Flexibility Score: inf
ROOT
ATOM      1  C   UNL     1     481.926  38.339 458.104  1.00  0.00     0.048 C 
ATOM      2  C   UNL     1     482.948  38.649 459.159  1.00  0.00    -0.009 A 
ATOM      3  C   UNL     1     482.612  39.463 460.255  1.00  0.00     0.007 A 
ATOM      4  C   UNL     1     483.563  39.752 461.237  1.00  0.00     0.001 A 
ATOM      5  C   UNL     1     484.855  39.233 461.136  1.00  0.00     0.004 A 
ATOM      6  C   UNL     1     485.201  38.424 460.050  1.00  0.00     0.046 A 
ATOM      7  C   UNL     1     484.253  38.128 459.060  1.00  0.00     0.118 A 
ENDROOT
BRANCH   7   8
ATOM      8  O   UNL     1     484.602  37.320 457.978  1.00  0.00    -0.508 OA
ATOM      9  H   UNL     1     485.563  37.051 457.804  1.00  0.00     0.293 HD
ENDBRANCH   7   8
TORSDOF 1
ENDMDL
