MODEL 1
REMARK VINA RESULT:    -3.973      0.000      0.000
REMARK INTER + INTRA:          -9.722
REMARK INTER:                  -7.457
REMARK INTRA:                  -2.265
REMARK UNBOUND:                -2.265
REMARK SMILES CCCCCCCCC=CCCCCCCCC(=O)[O-]
REMARK SMILES IDX 10 1 9 2 11 3 12 4 13 5 14 6 15 7 16 8 17 9 18 10 19 11
REMARK SMILES IDX 20 12 8 13 7 14 6 15 5 16 4 17 3 18 2 19 1 20
REMARK H PARENT
REMARK Flexibility Score: inf
ROOT
ATOM      1  C   UNL     1       6.514  -4.611 -10.015  1.00  0.00    -0.031 C 
ATOM      2  C   UNL     1       5.839  -5.755  -9.804  1.00  0.00    -0.031 C 
ENDROOT
BRANCH   1   3
ATOM      3  C   UNL     1       5.889  -3.244 -10.125  1.00  0.00     0.027 C 
BRANCH   3   4
ATOM      4  C   UNL     1       6.397  -2.271  -9.045  1.00  0.00     0.004 C 
BRANCH   4   5
ATOM      5  C   UNL     1       7.694  -2.714  -8.343  1.00  0.00     0.000 C 
BRANCH   5   6
ATOM      6  C   UNL     1       7.524  -2.902  -6.828  1.00  0.00     0.000 C 
BRANCH   6   7
ATOM      7  C   UNL     1       8.075  -4.264  -6.377  1.00  0.00     0.000 C 
BRANCH   7   8
ATOM      8  C   UNL     1       6.984  -5.349  -6.298  1.00  0.00     0.006 C 
BRANCH   8   9
ATOM      9  C   UNL     1       7.471  -6.756  -6.680  1.00  0.00     0.053 C 
BRANCH   9  10
ATOM     10  C   UNL     1       6.591  -7.828  -6.112  1.00  0.00     0.041 C 
ATOM     11  O   UNL     1       6.991  -9.022  -6.075  1.00  0.00    -0.550 OA
ATOM     12  O   UNL     1       5.322  -7.513  -5.641  1.00  0.00    -0.550 OA
ENDBRANCH   9  10
ENDBRANCH   8   9
ENDBRANCH   7   8
ENDBRANCH   6   7
ENDBRANCH   5   6
ENDBRANCH   4   5
ENDBRANCH   3   4
ENDBRANCH   1   3
BRANCH   2  13
ATOM     13  C   UNL     1       4.337  -5.869  -9.728  1.00  0.00     0.027 C 
BRANCH  13  14
ATOM     14  C   UNL     1       3.852  -5.680  -8.284  1.00  0.00     0.004 C 
BRANCH  14  15
ATOM     15  C   UNL     1       3.407  -4.231  -8.012  1.00  0.00     0.000 C 
BRANCH  15  16
ATOM     16  C   UNL     1       3.766  -3.754  -6.592  1.00  0.00     0.000 C 
BRANCH  16  17
ATOM     17  C   UNL     1       2.540  -3.741  -5.663  1.00  0.00    -0.000 C 
BRANCH  17  18
ATOM     18  C   UNL     1       2.577  -2.603  -4.629  1.00  0.00    -0.000 C 
BRANCH  18  19
ATOM     19  C   UNL     1       1.737  -2.881  -3.366  1.00  0.00    -0.003 C 
ATOM     20  C   UNL     1       2.487  -2.563  -2.072  1.00  0.00     0.004 C 
ENDBRANCH  18  19
ENDBRANCH  17  18
ENDBRANCH  16  17
ENDBRANCH  15  16
ENDBRANCH  14  15
ENDBRANCH  13  14
ENDBRANCH   2  13
TORSDOF 15
ENDMDL
MODEL 2
REMARK VINA RESULT:    -3.874      1.359      2.272
REMARK INTER + INTRA:          -9.536
REMARK INTER:                  -7.805
REMARK INTRA:                  -1.731
REMARK UNBOUND:                -2.265
REMARK SMILES CCCCCCCCC=CCCCCCCCC(=O)[O-]
REMARK SMILES IDX 10 1 9 2 11 3 12 4 13 5 14 6 15 7 16 8 17 9 18 10 19 11
REMARK SMILES IDX 20 12 8 13 7 14 6 15 5 16 4 17 3 18 2 19 1 20
REMARK H PARENT
REMARK Flexibility Score: inf
ROOT
ATOM      1  C   UNL     1       7.942  -1.786  -9.294  1.00  0.00    -0.031 C 
ATOM      2  C   UNL     1       6.744  -2.244  -9.701  1.00  0.00    -0.031 C 
ENDROOT
BRANCH   1   3
ATOM      3  C   UNL     1       8.724  -2.328  -8.124  1.00  0.00     0.027 C 
BRANCH   3   4
ATOM      4  C   UNL     1      10.078  -2.927  -8.543  1.00  0.00     0.004 C 
BRANCH   4   5
ATOM      5  C   UNL     1      10.024  -4.408  -8.958  1.00  0.00     0.000 C 
BRANCH   5   6
ATOM      6  C   UNL     1       9.813  -5.359  -7.771  1.00  0.00     0.000 C 
BRANCH   6   7
ATOM      7  C   UNL     1       8.358  -5.853  -7.712  1.00  0.00     0.000 C 
BRANCH   7   8
ATOM      8  C   UNL     1       7.674  -5.530  -6.370  1.00  0.00     0.006 C 
BRANCH   8   9
ATOM      9  C   UNL     1       7.520  -6.742  -5.437  1.00  0.00     0.053 C 
BRANCH   9  10
ATOM     10  C   UNL     1       6.481  -7.702  -5.931  1.00  0.00     0.041 C 
ATOM     11  O   UNL     1       6.764  -8.921  -6.078  1.00  0.00    -0.550 OA
ATOM     12  O   UNL     1       5.206  -7.249  -6.248  1.00  0.00    -0.550 OA
ENDBRANCH   9  10
ENDBRANCH   8   9
ENDBRANCH   7   8
ENDBRANCH   6   7
ENDBRANCH   5   6
ENDBRANCH   4   5
ENDBRANCH   3   4
ENDBRANCH   1   3
BRANCH   2  13
ATOM     13  C   UNL     1       5.946  -3.315  -9.003  1.00  0.00     0.027 C 
BRANCH  13  14
ATOM     14  C   UNL     1       4.921  -2.691  -8.046  1.00  0.00     0.004 C 
BRANCH  14  15
ATOM     15  C   UNL     1       4.698  -3.560  -6.795  1.00  0.00     0.000 C 
BRANCH  15  16
ATOM     16  C   UNL     1       3.369  -4.339  -6.840  1.00  0.00     0.000 C 
BRANCH  16  17
ATOM     17  C   UNL     1       2.320  -3.742  -5.886  1.00  0.00    -0.000 C 
BRANCH  17  18
ATOM     18  C   UNL     1       2.943  -2.967  -4.712  1.00  0.00    -0.000 C 
BRANCH  18  19
ATOM     19  C   UNL     1       1.930  -2.574  -3.617  1.00  0.00    -0.003 C 
ATOM     20  C   UNL     1       2.436  -2.871  -2.206  1.00  0.00     0.004 C 
ENDBRANCH  18  19
ENDBRANCH  17  18
ENDBRANCH  16  17
ENDBRANCH  15  16
ENDBRANCH  14  15
ENDBRANCH  13  14
ENDBRANCH   2  13
TORSDOF 15
ENDMDL
MODEL 3
REMARK VINA RESULT:    -3.843      1.933      3.602
REMARK INTER + INTRA:          -9.478
REMARK INTER:                  -6.568
REMARK INTRA:                  -2.910
REMARK UNBOUND:                -2.265
REMARK SMILES CCCCCCCCC=CCCCCCCCC(=O)[O-]
REMARK SMILES IDX 10 1 9 2 11 3 12 4 13 5 14 6 15 7 16 8 17 9 18 10 19 11
REMARK SMILES IDX 20 12 8 13 7 14 6 15 5 16 4 17 3 18 2 19 1 20
REMARK H PARENT
REMARK Flexibility Score: inf
ROOT
ATOM      1  C   UNL     1       8.725  -2.379  -9.074  1.00  0.00    -0.031 C 
ATOM      2  C   UNL     1       7.944  -2.967  -9.998  1.00  0.00    -0.031 C 
ENDROOT
BRANCH   1   3
ATOM      3  C   UNL     1       8.388  -2.252  -7.610  1.00  0.00     0.027 C 
BRANCH   3   4
ATOM      4  C   UNL     1       8.703  -3.533  -6.816  1.00  0.00     0.004 C 
BRANCH   4   5
ATOM      5  C   UNL     1      10.014  -4.231  -7.221  1.00  0.00     0.000 C 
BRANCH   5   6
ATOM      6  C   UNL     1       9.874  -5.757  -7.333  1.00  0.00     0.000 C 
BRANCH   6   7
ATOM      7  C   UNL     1       8.900  -6.139  -8.459  1.00  0.00     0.000 C 
BRANCH   7   8
ATOM      8  C   UNL     1       7.572  -6.709  -7.929  1.00  0.00     0.006 C 
BRANCH   8   9
ATOM      9  C   UNL     1       7.641  -7.214  -6.478  1.00  0.00     0.053 C 
BRANCH   9  10
ATOM     10  C   UNL     1       6.438  -6.807  -5.683  1.00  0.00     0.041 C 
ATOM     11  O   UNL     1       6.389  -5.669  -5.146  1.00  0.00    -0.550 OA
ATOM     12  O   UNL     1       5.378  -7.692  -5.518  1.00  0.00    -0.550 OA
ENDBRANCH   9  10
ENDBRANCH   8   9
ENDBRANCH   7   8
ENDBRANCH   6   7
ENDBRANCH   5   6
ENDBRANCH   4   5
ENDBRANCH   3   4
ENDBRANCH   1   3
BRANCH   2  13
ATOM     13  C   UNL     1       6.566  -3.519  -9.739  1.00  0.00     0.027 C 
BRANCH  13  14
ATOM     14  C   UNL     1       5.507  -2.415  -9.865  1.00  0.00     0.004 C 
BRANCH  14  15
ATOM     15  C   UNL     1       4.614  -2.328  -8.614  1.00  0.00     0.000 C 
BRANCH  15  16
ATOM     16  C   UNL     1       5.051  -3.300  -7.502  1.00  0.00     0.000 C 
BRANCH  16  17
ATOM     17  C   UNL     1       3.850  -3.849  -6.713  1.00  0.00    -0.000 C 
BRANCH  17  18
ATOM     18  C   UNL     1       3.055  -4.914  -7.488  1.00  0.00    -0.000 C 
BRANCH  18  19
ATOM     19  C   UNL     1       3.940  -5.933  -8.234  1.00  0.00    -0.003 C 
ATOM     20  C   UNL     1       3.689  -5.946  -9.742  1.00  0.00     0.004 C 
ENDBRANCH  18  19
ENDBRANCH  17  18
ENDBRANCH  16  17
ENDBRANCH  15  16
ENDBRANCH  14  15
ENDBRANCH  13  14
ENDBRANCH   2  13
TORSDOF 15
ENDMDL
MODEL 4
REMARK VINA RESULT:    -3.736      2.566      4.840
REMARK INTER + INTRA:          -9.277
REMARK INTER:                  -6.518
REMARK INTRA:                  -2.759
REMARK UNBOUND:                -2.265
REMARK SMILES CCCCCCCCC=CCCCCCCCC(=O)[O-]
REMARK SMILES IDX 10 1 9 2 11 3 12 4 13 5 14 6 15 7 16 8 17 9 18 10 19 11
REMARK SMILES IDX 20 12 8 13 7 14 6 15 5 16 4 17 3 18 2 19 1 20
REMARK H PARENT
REMARK Flexibility Score: inf
ROOT
ATOM      1  C   UNL     1       7.962  -2.612  -7.580  1.00  0.00    -0.031 C 
ATOM      2  C   UNL     1       8.897  -3.493  -7.181  1.00  0.00    -0.031 C 
ENDROOT
BRANCH   1   3
ATOM      3  C   UNL     1       7.854  -2.033  -8.968  1.00  0.00     0.027 C 
BRANCH   3   4
ATOM      4  C   UNL     1       6.775  -2.727  -9.818  1.00  0.00     0.004 C 
BRANCH   4   5
ATOM      5  C   UNL     1       5.535  -1.862 -10.111  1.00  0.00     0.000 C 
BRANCH   5   6
ATOM      6  C   UNL     1       4.215  -2.561  -9.755  1.00  0.00     0.000 C 
BRANCH   6   7
ATOM      7  C   UNL     1       4.351  -3.363  -8.451  1.00  0.00     0.000 C 
BRANCH   7   8
ATOM      8  C   UNL     1       3.586  -4.700  -8.493  1.00  0.00     0.006 C 
BRANCH   8   9
ATOM      9  C   UNL     1       4.444  -5.900  -8.926  1.00  0.00     0.053 C 
BRANCH   9  10
ATOM     10  C   UNL     1       4.014  -7.169  -8.255  1.00  0.00     0.041 C 
ATOM     11  O   UNL     1       3.267  -7.128  -7.242  1.00  0.00    -0.550 OA
ATOM     12  O   UNL     1       4.455  -8.397  -8.737  1.00  0.00    -0.550 OA
ENDBRANCH   9  10
ENDBRANCH   8   9
ENDBRANCH   7   8
ENDBRANCH   6   7
ENDBRANCH   5   6
ENDBRANCH   4   5
ENDBRANCH   3   4
ENDBRANCH   1   3
BRANCH   2  13
ATOM     13  C   UNL     1      10.044  -3.979  -8.030  1.00  0.00     0.027 C 
BRANCH  13  14
ATOM     14  C   UNL     1       9.877  -5.468  -8.364  1.00  0.00     0.004 C 
BRANCH  14  15
ATOM     15  C   UNL     1       8.422  -5.817  -8.728  1.00  0.00     0.000 C 
BRANCH  15  16
ATOM     16  C   UNL     1       7.932  -7.110  -8.049  1.00  0.00     0.000 C 
BRANCH  16  17
ATOM     17  C   UNL     1       8.684  -7.391  -6.737  1.00  0.00    -0.000 C 
BRANCH  17  18
ATOM     18  C   UNL     1       8.014  -6.753  -5.508  1.00  0.00    -0.000 C 
BRANCH  18  19
ATOM     19  C   UNL     1       6.484  -6.613  -5.634  1.00  0.00    -0.003 C 
ATOM     20  C   UNL     1       6.012  -5.160  -5.575  1.00  0.00     0.004 C 
ENDBRANCH  18  19
ENDBRANCH  17  18
ENDBRANCH  16  17
ENDBRANCH  15  16
ENDBRANCH  14  15
ENDBRANCH  13  14
ENDBRANCH   2  13
TORSDOF 15
ENDMDL
MODEL 5
REMARK VINA RESULT:    -3.720      2.711      5.387
REMARK INTER + INTRA:          -9.247
REMARK INTER:                  -6.575
REMARK INTRA:                  -2.672
REMARK UNBOUND:                -2.265
REMARK SMILES CCCCCCCCC=CCCCCCCCC(=O)[O-]
REMARK SMILES IDX 10 1 9 2 11 3 12 4 13 5 14 6 15 7 16 8 17 9 18 10 19 11
REMARK SMILES IDX 20 12 8 13 7 14 6 15 5 16 4 17 3 18 2 19 1 20
REMARK H PARENT
REMARK Flexibility Score: inf
ROOT
ATOM      1  C   UNL     1       6.649  -5.259  -5.782  1.00  0.00    -0.031 C 
ATOM      2  C   UNL     1       7.444  -4.297  -6.286  1.00  0.00    -0.031 C 
ENDROOT
BRANCH   1   3
ATOM      3  C   UNL     1       7.094  -6.657  -5.439  1.00  0.00     0.027 C 
BRANCH   3   4
ATOM      4  C   UNL     1       6.733  -7.680  -6.531  1.00  0.00     0.004 C 
BRANCH   4   5
ATOM      5  C   UNL     1       7.831  -7.908  -7.585  1.00  0.00     0.000 C 
BRANCH   5   6
ATOM      6  C   UNL     1       7.332  -7.724  -9.026  1.00  0.00     0.000 C 
BRANCH   6   7
ATOM      7  C   UNL     1       6.374  -6.526  -9.127  1.00  0.00     0.000 C 
BRANCH   7   8
ATOM      8  C   UNL     1       5.010  -6.906  -9.734  1.00  0.00     0.006 C 
BRANCH   8   9
ATOM      9  C   UNL     1       3.852  -5.994  -9.295  1.00  0.00     0.053 C 
BRANCH   9  10
ATOM     10  C   UNL     1       3.444  -6.247  -7.876  1.00  0.00     0.041 C 
ATOM     11  O   UNL     1       3.316  -7.427  -7.454  1.00  0.00    -0.550 OA
ATOM     12  O   UNL     1       3.185  -5.179  -7.024  1.00  0.00    -0.550 OA
ENDBRANCH   9  10
ENDBRANCH   8   9
ENDBRANCH   7   8
ENDBRANCH   6   7
ENDBRANCH   5   6
ENDBRANCH   4   5
ENDBRANCH   3   4
ENDBRANCH   1   3
BRANCH   2  13
ATOM     13  C   UNL     1       8.889  -4.485  -6.671  1.00  0.00     0.027 C 
BRANCH  13  14
ATOM     14  C   UNL     1       9.424  -3.238  -7.389  1.00  0.00     0.004 C 
BRANCH  14  15
ATOM     15  C   UNL     1       8.303  -2.231  -7.706  1.00  0.00     0.000 C 
BRANCH  15  16
ATOM     16  C   UNL     1       8.594  -1.392  -8.965  1.00  0.00     0.000 C 
BRANCH  16  17
ATOM     17  C   UNL     1       7.521  -1.592 -10.049  1.00  0.00    -0.000 C 
BRANCH  17  18
ATOM     18  C   UNL     1       6.677  -2.861  -9.838  1.00  0.00    -0.000 C 
BRANCH  18  19
ATOM     19  C   UNL     1       5.171  -2.584  -9.653  1.00  0.00    -0.003 C 
ATOM     20  C   UNL     1       4.740  -2.595  -8.186  1.00  0.00     0.004 C 
ENDBRANCH  18  19
ENDBRANCH  17  18
ENDBRANCH  16  17
ENDBRANCH  15  16
ENDBRANCH  14  15
ENDBRANCH  13  14
ENDBRANCH   2  13
TORSDOF 15
ENDMDL
MODEL 6
REMARK VINA RESULT:    -3.714      2.678      5.667
REMARK INTER + INTRA:          -9.235
REMARK INTER:                  -6.133
REMARK INTRA:                  -3.103
REMARK UNBOUND:                -2.265
REMARK SMILES CCCCCCCCC=CCCCCCCCC(=O)[O-]
REMARK SMILES IDX 10 1 9 2 11 3 12 4 13 5 14 6 15 7 16 8 17 9 18 10 19 11
REMARK SMILES IDX 20 12 8 13 7 14 6 15 5 16 4 17 3 18 2 19 1 20
REMARK H PARENT
REMARK Flexibility Score: inf
ROOT
ATOM      1  C   UNL     1       6.823  -4.860  -5.991  1.00  0.00    -0.031 C 
ATOM      2  C   UNL     1       7.035  -6.157  -5.704  1.00  0.00    -0.031 C 
ENDROOT
BRANCH   1   3
ATOM      3  C   UNL     1       7.896  -3.869  -6.363  1.00  0.00     0.027 C 
BRANCH   3   4
ATOM      4  C   UNL     1       7.331  -2.613  -7.049  1.00  0.00     0.004 C 
BRANCH   4   5
ATOM      5  C   UNL     1       7.618  -2.523  -8.559  1.00  0.00     0.000 C 
BRANCH   5   6
ATOM      6  C   UNL     1       6.341  -2.486  -9.413  1.00  0.00     0.000 C 
BRANCH   6   7
ATOM      7  C   UNL     1       5.091  -2.691  -8.543  1.00  0.00     0.000 C 
BRANCH   7   8
ATOM      8  C   UNL     1       4.106  -3.708  -9.151  1.00  0.00     0.006 C 
BRANCH   8   9
ATOM      9  C   UNL     1       4.453  -5.175  -8.850  1.00  0.00     0.053 C 
BRANCH   9  10
ATOM     10  C   UNL     1       3.660  -5.717  -7.701  1.00  0.00     0.041 C 
ATOM     11  O   UNL     1       2.936  -4.949  -7.013  1.00  0.00    -0.550 OA
ATOM     12  O   UNL     1       3.734  -7.067  -7.377  1.00  0.00    -0.550 OA
ENDBRANCH   9  10
ENDBRANCH   8   9
ENDBRANCH   7   8
ENDBRANCH   6   7
ENDBRANCH   5   6
ENDBRANCH   4   5
ENDBRANCH   3   4
ENDBRANCH   1   3
BRANCH   2  13
ATOM     13  C   UNL     1       8.389  -6.813  -5.622  1.00  0.00     0.027 C 
BRANCH  13  14
ATOM     14  C   UNL     1       8.251  -8.342  -5.620  1.00  0.00     0.004 C 
BRANCH  14  15
ATOM     15  C   UNL     1       7.062  -8.814  -6.477  1.00  0.00     0.000 C 
BRANCH  15  16
ATOM     16  C   UNL     1       7.457  -9.097  -7.940  1.00  0.00     0.000 C 
BRANCH  16  17
ATOM     17  C   UNL     1       6.688  -8.202  -8.927  1.00  0.00    -0.000 C 
BRANCH  17  18
ATOM     18  C   UNL     1       7.609  -7.439  -9.894  1.00  0.00    -0.000 C 
BRANCH  18  19
ATOM     19  C   UNL     1       8.057  -6.060  -9.370  1.00  0.00    -0.003 C 
ATOM     20  C   UNL     1       9.546  -6.009  -9.029  1.00  0.00     0.004 C 
ENDBRANCH  18  19
ENDBRANCH  17  18
ENDBRANCH  16  17
ENDBRANCH  15  16
ENDBRANCH  14  15
ENDBRANCH  13  14
ENDBRANCH   2  13
TORSDOF 15
ENDMDL
MODEL 7
REMARK VINA RESULT:    -3.706      2.210      5.177
REMARK INTER + INTRA:          -9.221
REMARK INTER:                  -6.385
REMARK INTRA:                  -2.836
REMARK UNBOUND:                -2.265
REMARK SMILES CCCCCCCCC=CCCCCCCCC(=O)[O-]
REMARK SMILES IDX 10 1 9 2 11 3 12 4 13 5 14 6 15 7 16 8 17 9 18 10 19 11
REMARK SMILES IDX 20 12 8 13 7 14 6 15 5 16 4 17 3 18 2 19 1 20
REMARK H PARENT
REMARK Flexibility Score: inf
ROOT
ATOM      1  C   UNL     1       4.751  -4.115  -5.888  1.00  0.00    -0.031 C 
ATOM      2  C   UNL     1       3.991  -3.667  -6.904  1.00  0.00    -0.031 C 
ENDROOT
BRANCH   1   3
ATOM      3  C   UNL     1       6.150  -4.658  -6.027  1.00  0.00     0.027 C 
BRANCH   3   4
ATOM      4  C   UNL     1       6.365  -5.956  -5.229  1.00  0.00     0.004 C 
BRANCH   4   5
ATOM      5  C   UNL     1       6.758  -7.175  -6.083  1.00  0.00     0.000 C 
BRANCH   5   6
ATOM      6  C   UNL     1       6.983  -6.828  -7.562  1.00  0.00     0.000 C 
BRANCH   6   7
ATOM      7  C   UNL     1       6.636  -8.021  -8.467  1.00  0.00     0.000 C 
BRANCH   7   8
ATOM      8  C   UNL     1       5.831  -7.608  -9.713  1.00  0.00     0.006 C 
BRANCH   8   9
ATOM      9  C   UNL     1       4.519  -6.870  -9.397  1.00  0.00     0.053 C 
BRANCH   9  10
ATOM     10  C   UNL     1       3.629  -7.669  -8.494  1.00  0.00     0.041 C 
ATOM     11  O   UNL     1       3.153  -8.768  -8.885  1.00  0.00    -0.550 OA
ATOM     12  O   UNL     1       3.309  -7.192  -7.228  1.00  0.00    -0.550 OA
ENDBRANCH   9  10
ENDBRANCH   8   9
ENDBRANCH   7   8
ENDBRANCH   6   7
ENDBRANCH   5   6
ENDBRANCH   4   5
ENDBRANCH   3   4
ENDBRANCH   1   3
BRANCH   2  13
ATOM     13  C   UNL     1       4.381  -3.714  -8.359  1.00  0.00     0.027 C 
BRANCH  13  14
ATOM     14  C   UNL     1       4.889  -2.344  -8.829  1.00  0.00     0.004 C 
BRANCH  14  15
ATOM     15  C   UNL     1       6.130  -2.468  -9.731  1.00  0.00     0.000 C 
BRANCH  15  16
ATOM     16  C   UNL     1       6.795  -3.855  -9.642  1.00  0.00     0.000 C 
BRANCH  16  17
ATOM     17  C   UNL     1       8.324  -3.770  -9.785  1.00  0.00    -0.000 C 
BRANCH  17  18
ATOM     18  C   UNL     1       8.951  -2.661  -8.922  1.00  0.00    -0.000 C 
BRANCH  18  19
ATOM     19  C   UNL     1       9.021  -3.004  -7.421  1.00  0.00    -0.003 C 
ATOM     20  C   UNL     1       9.760  -4.314  -7.144  1.00  0.00     0.004 C 
ENDBRANCH  18  19
ENDBRANCH  17  18
ENDBRANCH  16  17
ENDBRANCH  15  16
ENDBRANCH  14  15
ENDBRANCH  13  14
ENDBRANCH   2  13
TORSDOF 15
ENDMDL
MODEL 8
REMARK VINA RESULT:    -3.693      2.421      5.525
REMARK INTER + INTRA:          -9.196
REMARK INTER:                  -6.310
REMARK INTRA:                  -2.886
REMARK UNBOUND:                -2.265
REMARK SMILES CCCCCCCCC=CCCCCCCCC(=O)[O-]
REMARK SMILES IDX 10 1 9 2 11 3 12 4 13 5 14 6 15 7 16 8 17 9 18 10 19 11
REMARK SMILES IDX 20 12 8 13 7 14 6 15 5 16 4 17 3 18 2 19 1 20
REMARK H PARENT
REMARK Flexibility Score: inf
ROOT
ATOM      1  C   UNL     1       7.863  -2.623  -7.044  1.00  0.00    -0.031 C 
ATOM      2  C   UNL     1       8.048  -3.779  -6.381  1.00  0.00    -0.031 C 
ENDROOT
BRANCH   1   3
ATOM      3  C   UNL     1       8.572  -2.230  -8.314  1.00  0.00     0.027 C 
BRANCH   3   4
ATOM      4  C   UNL     1       7.920  -2.836  -9.570  1.00  0.00     0.004 C 
BRANCH   4   5
ATOM      5  C   UNL     1       6.401  -2.606  -9.677  1.00  0.00     0.000 C 
BRANCH   5   6
ATOM      6  C   UNL     1       5.603  -3.912  -9.811  1.00  0.00     0.000 C 
BRANCH   6   7
ATOM      7  C   UNL     1       4.289  -3.838  -9.016  1.00  0.00     0.000 C 
BRANCH   7   8
ATOM      8  C   UNL     1       4.408  -2.967  -7.751  1.00  0.00     0.006 C 
BRANCH   8   9
ATOM      9  C   UNL     1       4.294  -3.754  -6.435  1.00  0.00     0.053 C 
BRANCH   9  10
ATOM     10  C   UNL     1       2.920  -3.664  -5.844  1.00  0.00     0.041 C 
ATOM     11  O   UNL     1       2.703  -2.913  -4.857  1.00  0.00    -0.550 OA
ATOM     12  O   UNL     1       1.883  -4.426  -6.371  1.00  0.00    -0.550 OA
ENDBRANCH   9  10
ENDBRANCH   8   9
ENDBRANCH   7   8
ENDBRANCH   6   7
ENDBRANCH   5   6
ENDBRANCH   4   5
ENDBRANCH   3   4
ENDBRANCH   1   3
BRANCH   2  13
ATOM     13  C   UNL     1       9.058  -4.835  -6.752  1.00  0.00     0.027 C 
BRANCH  13  14
ATOM     14  C   UNL     1       8.601  -6.217  -6.264  1.00  0.00     0.004 C 
BRANCH  14  15
ATOM     15  C   UNL     1       7.177  -6.179  -5.680  1.00  0.00     0.000 C 
BRANCH  15  16
ATOM     16  C   UNL     1       6.288  -7.322  -6.204  1.00  0.00     0.000 C 
BRANCH  16  17
ATOM     17  C   UNL     1       5.645  -6.976  -7.558  1.00  0.00    -0.000 C 
BRANCH  17  18
ATOM     18  C   UNL     1       5.860  -8.063  -8.625  1.00  0.00    -0.000 C 
BRANCH  18  19
ATOM     19  C   UNL     1       7.297  -8.115  -9.181  1.00  0.00    -0.003 C 
ATOM     20  C   UNL     1       7.761  -6.777  -9.755  1.00  0.00     0.004 C 
ENDBRANCH  18  19
ENDBRANCH  17  18
ENDBRANCH  16  17
ENDBRANCH  15  16
ENDBRANCH  14  15
ENDBRANCH  13  14
ENDBRANCH   2  13
TORSDOF 15
ENDMDL
MODEL 9
REMARK VINA RESULT:    -3.672      2.100      4.881
REMARK INTER + INTRA:          -9.158
REMARK INTER:                  -6.235
REMARK INTRA:                  -2.923
REMARK UNBOUND:                -2.265
REMARK SMILES CCCCCCCCC=CCCCCCCCC(=O)[O-]
REMARK SMILES IDX 10 1 9 2 11 3 12 4 13 5 14 6 15 7 16 8 17 9 18 10 19 11
REMARK SMILES IDX 20 12 8 13 7 14 6 15 5 16 4 17 3 18 2 19 1 20
REMARK H PARENT
REMARK Flexibility Score: inf
ROOT
ATOM      1  C   UNL     1       4.530  -3.952  -7.073  1.00  0.00    -0.031 C 
ATOM      2  C   UNL     1       5.131  -2.972  -7.770  1.00  0.00    -0.031 C 
ENDROOT
BRANCH   1   3
ATOM      3  C   UNL     1       3.254  -4.646  -7.478  1.00  0.00     0.027 C 
BRANCH   3   4
ATOM      4  C   UNL     1       3.506  -6.023  -8.117  1.00  0.00     0.004 C 
BRANCH   4   5
ATOM      5  C   UNL     1       3.732  -5.991  -9.640  1.00  0.00     0.000 C 
BRANCH   5   6
ATOM      6  C   UNL     1       5.217  -6.037 -10.030  1.00  0.00     0.000 C 
BRANCH   6   7
ATOM      7  C   UNL     1       5.976  -7.072  -9.185  1.00  0.00     0.000 C 
BRANCH   7   8
ATOM      8  C   UNL     1       7.053  -6.432  -8.288  1.00  0.00     0.006 C 
BRANCH   8   9
ATOM      9  C   UNL     1       7.634  -7.382  -7.229  1.00  0.00     0.053 C 
BRANCH   9  10
ATOM     10  C   UNL     1       6.646  -7.686  -6.145  1.00  0.00     0.041 C 
ATOM     11  O   UNL     1       6.437  -8.878  -5.794  1.00  0.00    -0.550 OA
ATOM     12  O   UNL     1       5.941  -6.656  -5.534  1.00  0.00    -0.550 OA
ENDBRANCH   9  10
ENDBRANCH   8   9
ENDBRANCH   7   8
ENDBRANCH   6   7
ENDBRANCH   5   6
ENDBRANCH   4   5
ENDBRANCH   3   4
ENDBRANCH   1   3
BRANCH   2  13
ATOM     13  C   UNL     1       4.584  -2.346  -9.027  1.00  0.00     0.027 C 
BRANCH  13  14
ATOM     14  C   UNL     1       5.657  -2.308 -10.125  1.00  0.00     0.004 C 
BRANCH  14  15
ATOM     15  C   UNL     1       7.036  -2.745  -9.597  1.00  0.00     0.000 C 
BRANCH  15  16
ATOM     16  C   UNL     1       8.017  -1.567  -9.447  1.00  0.00     0.000 C 
BRANCH  16  17
ATOM     17  C   UNL     1       9.252  -1.950  -8.614  1.00  0.00    -0.000 C 
BRANCH  17  18
ATOM     18  C   UNL     1       9.490  -3.469  -8.549  1.00  0.00    -0.000 C 
BRANCH  18  19
ATOM     19  C   UNL     1       9.571  -4.027  -7.114  1.00  0.00    -0.003 C 
ATOM     20  C   UNL     1       8.301  -3.769  -6.303  1.00  0.00     0.004 C 
ENDBRANCH  18  19
ENDBRANCH  17  18
ENDBRANCH  16  17
ENDBRANCH  15  16
ENDBRANCH  14  15
ENDBRANCH  13  14
ENDBRANCH   2  13
TORSDOF 15
ENDMDL
