MODEL 1
REMARK VINA RESULT:     8.908      0.000      0.000
REMARK INTER + INTRA:          15.016
REMARK INTER:                  15.678
REMARK INTRA:                  -0.662
REMARK UNBOUND:                -0.662
REMARK SMILES CCCCCCCCCCCCCCC(=O)[O-]
REMARK SMILES IDX 9 1 10 2 11 3 12 4 13 5 14 6 15 7 16 8 17 9 8 10 7 11 6 12
REMARK SMILES IDX 5 13 4 14 3 15 2 16 1 17
REMARK H PARENT
REMARK Flexibility Score: inf
ROOT
ATOM      1  C   UNL     1      19.122 -59.925  -2.967  1.00  0.00     0.000 C 
ENDROOT
BRANCH   1   2
ATOM      2  C   UNL     1      19.078 -58.392  -3.095  1.00  0.00     0.000 C 
BRANCH   2   3
ATOM      3  C   UNL     1      19.106 -57.681  -1.731  1.00  0.00     0.000 C 
BRANCH   3   4
ATOM      4  C   UNL     1      17.773 -57.026  -1.312  1.00  0.00     0.000 C 
BRANCH   4   5
ATOM      5  C   UNL     1      16.976 -56.369  -2.457  1.00  0.00     0.006 C 
BRANCH   5   6
ATOM      6  C   UNL     1      17.418 -54.937  -2.797  1.00  0.00     0.053 C 
BRANCH   6   7
ATOM      7  C   UNL     1      17.611 -54.745  -4.269  1.00  0.00     0.041 C 
ATOM      8  O   UNL     1      17.735 -55.742  -5.027  1.00  0.00    -0.550 OA
ATOM      9  O   UNL     1      17.689 -53.463  -4.800  1.00  0.00    -0.550 OA
ENDBRANCH   6   7
ENDBRANCH   5   6
ENDBRANCH   4   5
ENDBRANCH   3   4
ENDBRANCH   2   3
ENDBRANCH   1   2
BRANCH   1  10
ATOM     10  C   UNL     1      17.758 -60.581  -3.235  1.00  0.00     0.000 C 
BRANCH  10  11
ATOM     11  C   UNL     1      16.589 -59.775  -2.643  1.00  0.00    -0.000 C 
BRANCH  11  12
ATOM     12  C   UNL     1      15.387 -59.691  -3.597  1.00  0.00    -0.000 C 
BRANCH  12  13
ATOM     13  C   UNL     1      15.005 -58.240  -3.944  1.00  0.00    -0.000 C 
BRANCH  13  14
ATOM     14  C   UNL     1      13.507 -58.081  -4.244  1.00  0.00    -0.000 C 
BRANCH  14  15
ATOM     15  C   UNL     1      12.851 -56.973  -3.405  1.00  0.00    -0.000 C 
BRANCH  15  16
ATOM     16  C   UNL     1      11.376 -57.292  -3.133  1.00  0.00    -0.003 C 
ATOM     17  C   UNL     1      11.223 -58.646  -2.444  1.00  0.00     0.004 C 
ENDBRANCH  15  16
ENDBRANCH  14  15
ENDBRANCH  13  14
ENDBRANCH  12  13
ENDBRANCH  11  12
ENDBRANCH  10  11
ENDBRANCH   1  10
TORSDOF 13
ENDMDL
MODEL 2
REMARK VINA RESULT:     9.048      0.664      1.373
REMARK INTER + INTRA:          15.263
REMARK INTER:                  15.216
REMARK INTRA:                   0.047
REMARK UNBOUND:                -0.662
REMARK SMILES CCCCCCCCCCCCCCC(=O)[O-]
REMARK SMILES IDX 9 1 10 2 11 3 12 4 13 5 14 6 15 7 16 8 17 9 8 10 7 11 6 12
REMARK SMILES IDX 5 13 4 14 3 15 2 16 1 17
REMARK H PARENT
REMARK Flexibility Score: inf
ROOT
ATOM      1  C   UNL     1      18.893 -58.068  -2.466  1.00  0.00     0.000 C 
ENDROOT
BRANCH   1   2
ATOM      2  C   UNL     1      19.114 -57.904  -0.952  1.00  0.00     0.000 C 
BRANCH   2   3
ATOM      3  C   UNL     1      17.845 -57.443  -0.213  1.00  0.00     0.000 C 
BRANCH   3   4
ATOM      4  C   UNL     1      17.064 -56.310  -0.909  1.00  0.00     0.000 C 
BRANCH   4   5
ATOM      5  C   UNL     1      17.768 -55.679  -2.127  1.00  0.00     0.006 C 
BRANCH   5   6
ATOM      6  C   UNL     1      16.857 -55.465  -3.346  1.00  0.00     0.053 C 
BRANCH   6   7
ATOM      7  C   UNL     1      17.566 -54.757  -4.458  1.00  0.00     0.041 C 
ATOM      8  O   UNL     1      17.886 -55.380  -5.504  1.00  0.00    -0.550 OA
ATOM      9  O   UNL     1      17.905 -53.416  -4.326  1.00  0.00    -0.550 OA
ENDBRANCH   6   7
ENDBRANCH   5   6
ENDBRANCH   4   5
ENDBRANCH   3   4
ENDBRANCH   2   3
ENDBRANCH   1   2
BRANCH   1  10
ATOM     10  C   UNL     1      19.120 -59.511  -2.944  1.00  0.00     0.000 C 
BRANCH  10  11
ATOM     11  C   UNL     1      17.802 -60.282  -3.134  1.00  0.00    -0.000 C 
BRANCH  11  12
ATOM     12  C   UNL     1      16.576 -59.480  -2.669  1.00  0.00    -0.000 C 
BRANCH  12  13
ATOM     13  C   UNL     1      15.474 -59.406  -3.741  1.00  0.00    -0.000 C 
BRANCH  13  14
ATOM     14  C   UNL     1      14.813 -58.021  -3.813  1.00  0.00    -0.000 C 
BRANCH  14  15
ATOM     15  C   UNL     1      13.341 -58.090  -4.247  1.00  0.00    -0.000 C 
BRANCH  15  16
ATOM     16  C   UNL     1      12.495 -57.067  -3.480  1.00  0.00    -0.003 C 
ATOM     17  C   UNL     1      11.273 -57.728  -2.846  1.00  0.00     0.004 C 
ENDBRANCH  15  16
ENDBRANCH  14  15
ENDBRANCH  13  14
ENDBRANCH  12  13
ENDBRANCH  11  12
ENDBRANCH  10  11
ENDBRANCH   1  10
TORSDOF 13
ENDMDL
MODEL 3
REMARK VINA RESULT:    10.400      1.717      2.551
REMARK INTER + INTRA:          17.642
REMARK INTER:                  18.913
REMARK INTRA:                  -1.271
REMARK UNBOUND:                -0.662
REMARK SMILES CCCCCCCCCCCCCCC(=O)[O-]
REMARK SMILES IDX 9 1 10 2 11 3 12 4 13 5 14 6 15 7 16 8 17 9 8 10 7 11 6 12
REMARK SMILES IDX 5 13 4 14 3 15 2 16 1 17
REMARK H PARENT
REMARK Flexibility Score: inf
ROOT
ATOM      1  C   UNL     1      19.001 -59.816  -2.818  1.00  0.00     0.000 C 
ENDROOT
BRANCH   1   2
ATOM      2  C   UNL     1      19.125 -58.284  -2.871  1.00  0.00     0.000 C 
BRANCH   2   3
ATOM      3  C   UNL     1      18.986 -57.629  -1.485  1.00  0.00     0.000 C 
BRANCH   3   4
ATOM      4  C   UNL     1      17.626 -56.951  -1.220  1.00  0.00     0.000 C 
BRANCH   4   5
ATOM      5  C   UNL     1      16.936 -56.355  -2.464  1.00  0.00     0.006 C 
BRANCH   5   6
ATOM      6  C   UNL     1      17.377 -54.924  -2.810  1.00  0.00     0.053 C 
BRANCH   6   7
ATOM      7  C   UNL     1      17.587 -54.742  -4.281  1.00  0.00     0.041 C 
ATOM      8  O   UNL     1      17.764 -53.591  -4.757  1.00  0.00    -0.550 OA
ATOM      9  O   UNL     1      17.554 -55.841  -5.131  1.00  0.00    -0.550 OA
ENDBRANCH   6   7
ENDBRANCH   5   6
ENDBRANCH   4   5
ENDBRANCH   3   4
ENDBRANCH   2   3
ENDBRANCH   1   2
BRANCH   1  10
ATOM     10  C   UNL     1      17.673 -60.323  -3.402  1.00  0.00     0.000 C 
BRANCH  10  11
ATOM     11  C   UNL     1      16.470 -60.000  -2.499  1.00  0.00    -0.000 C 
BRANCH  11  12
ATOM     12  C   UNL     1      15.144 -59.960  -3.274  1.00  0.00    -0.000 C 
BRANCH  12  13
ATOM     13  C   UNL     1      14.956 -58.651  -4.063  1.00  0.00    -0.000 C 
BRANCH  13  14
ATOM     14  C   UNL     1      14.577 -58.896  -5.531  1.00  0.00    -0.000 C 
BRANCH  14  15
ATOM     15  C   UNL     1      14.716 -60.371  -5.940  1.00  0.00    -0.000 C 
BRANCH  15  16
ATOM     16  C   UNL     1      14.125 -60.612  -7.334  1.00  0.00    -0.003 C 
ATOM     17  C   UNL     1      13.217 -61.839  -7.343  1.00  0.00     0.004 C 
ENDBRANCH  15  16
ENDBRANCH  14  15
ENDBRANCH  13  14
ENDBRANCH  12  13
ENDBRANCH  11  12
ENDBRANCH  10  11
ENDBRANCH   1  10
TORSDOF 13
ENDMDL
MODEL 4
REMARK VINA RESULT:    10.546      3.490      6.003
REMARK INTER + INTRA:          17.899
REMARK INTER:                  18.939
REMARK INTRA:                  -1.040
REMARK UNBOUND:                -0.662
REMARK SMILES CCCCCCCCCCCCCCC(=O)[O-]
REMARK SMILES IDX 9 1 10 2 11 3 12 4 13 5 14 6 15 7 16 8 17 9 8 10 7 11 6 12
REMARK SMILES IDX 5 13 4 14 3 15 2 16 1 17
REMARK H PARENT
REMARK Flexibility Score: inf
ROOT
ATOM      1  C   UNL     1      16.587 -59.777  -2.500  1.00  0.00     0.000 C 
ENDROOT
BRANCH   1   2
ATOM      2  C   UNL     1      15.299 -59.950  -3.323  1.00  0.00     0.000 C 
BRANCH   2   3
ATOM      3  C   UNL     1      14.807 -58.629  -3.941  1.00  0.00     0.000 C 
BRANCH   3   4
ATOM      4  C   UNL     1      14.492 -58.694  -5.449  1.00  0.00     0.000 C 
BRANCH   4   5
ATOM      5  C   UNL     1      14.933 -59.992  -6.156  1.00  0.00     0.006 C 
BRANCH   5   6
ATOM      6  C   UNL     1      14.096 -60.356  -7.393  1.00  0.00     0.053 C 
BRANCH   6   7
ATOM      7  C   UNL     1      13.554 -61.750  -7.312  1.00  0.00     0.041 C 
ATOM      8  O   UNL     1      14.334 -62.723  -7.144  1.00  0.00    -0.550 OA
ATOM      9  O   UNL     1      12.192 -61.977  -7.457  1.00  0.00    -0.550 OA
ENDBRANCH   6   7
ENDBRANCH   5   6
ENDBRANCH   4   5
ENDBRANCH   3   4
ENDBRANCH   2   3
ENDBRANCH   1   2
BRANCH   1  10
ATOM     10  C   UNL     1      17.829 -60.327  -3.220  1.00  0.00     0.000 C 
BRANCH  10  11
ATOM     11  C   UNL     1      19.123 -59.613  -2.792  1.00  0.00    -0.000 C 
BRANCH  11  12
ATOM     12  C   UNL     1      19.088 -58.104  -3.082  1.00  0.00    -0.000 C 
BRANCH  12  13
ATOM     13  C   UNL     1      19.056 -57.254  -1.798  1.00  0.00    -0.000 C 
BRANCH  13  14
ATOM     14  C   UNL     1      17.643 -56.760  -1.453  1.00  0.00    -0.000 C 
BRANCH  14  15
ATOM     15  C   UNL     1      16.891 -56.216  -2.678  1.00  0.00    -0.000 C 
BRANCH  15  16
ATOM     16  C   UNL     1      17.576 -54.959  -3.227  1.00  0.00    -0.003 C 
ATOM     17  C   UNL     1      17.587 -54.960  -4.754  1.00  0.00     0.004 C 
ENDBRANCH  15  16
ENDBRANCH  14  15
ENDBRANCH  13  14
ENDBRANCH  12  13
ENDBRANCH  11  12
ENDBRANCH  10  11
ENDBRANCH   1  10
TORSDOF 13
ENDMDL
MODEL 5
REMARK VINA RESULT:    10.682      0.854      1.572
REMARK INTER + INTRA:          18.139
REMARK INTER:                  18.612
REMARK INTRA:                  -0.474
REMARK UNBOUND:                -0.662
REMARK SMILES CCCCCCCCCCCCCCC(=O)[O-]
REMARK SMILES IDX 9 1 10 2 11 3 12 4 13 5 14 6 15 7 16 8 17 9 8 10 7 11 6 12
REMARK SMILES IDX 5 13 4 14 3 15 2 16 1 17
REMARK H PARENT
REMARK Flexibility Score: inf
ROOT
ATOM      1  C   UNL     1      17.841 -59.985  -3.044  1.00  0.00     0.000 C 
ENDROOT
BRANCH   1   2
ATOM      2  C   UNL     1      18.832 -58.814  -3.166  1.00  0.00     0.000 C 
BRANCH   2   3
ATOM      3  C   UNL     1      19.058 -58.085  -1.830  1.00  0.00     0.000 C 
BRANCH   3   4
ATOM      4  C   UNL     1      18.126 -56.881  -1.581  1.00  0.00     0.000 C 
BRANCH   4   5
ATOM      5  C   UNL     1      17.132 -56.574  -2.720  1.00  0.00     0.006 C 
BRANCH   5   6
ATOM      6  C   UNL     1      16.899 -55.076  -2.972  1.00  0.00     0.053 C 
BRANCH   6   7
ATOM      7  C   UNL     1      17.634 -54.591  -4.183  1.00  0.00     0.041 C 
ATOM      8  O   UNL     1      18.031 -53.397  -4.246  1.00  0.00    -0.550 OA
ATOM      9  O   UNL     1      17.852 -55.446  -5.255  1.00  0.00    -0.550 OA
ENDBRANCH   6   7
ENDBRANCH   5   6
ENDBRANCH   4   5
ENDBRANCH   3   4
ENDBRANCH   2   3
ENDBRANCH   1   2
BRANCH   1  10
ATOM     10  C   UNL     1      16.500 -59.563  -2.423  1.00  0.00     0.000 C 
BRANCH  10  11
ATOM     11  C   UNL     1      15.297 -59.951  -3.299  1.00  0.00    -0.000 C 
BRANCH  11  12
ATOM     12  C   UNL     1      14.975 -58.889  -4.363  1.00  0.00    -0.000 C 
BRANCH  12  13
ATOM     13  C   UNL     1      13.972 -57.833  -3.863  1.00  0.00    -0.000 C 
BRANCH  13  14
ATOM     14  C   UNL     1      12.703 -58.461  -3.266  1.00  0.00    -0.000 C 
BRANCH  14  15
ATOM     15  C   UNL     1      11.524 -57.478  -3.217  1.00  0.00    -0.000 C 
BRANCH  15  16
ATOM     16  C   UNL     1      12.013 -56.029  -3.336  1.00  0.00    -0.003 C 
ATOM     17  C   UNL     1      11.059 -55.194  -4.186  1.00  0.00     0.004 C 
ENDBRANCH  15  16
ENDBRANCH  14  15
ENDBRANCH  13  14
ENDBRANCH  12  13
ENDBRANCH  11  12
ENDBRANCH  10  11
ENDBRANCH   1  10
TORSDOF 13
ENDMDL
