MODEL 1
REMARK VINA RESULT:     1.374      0.000      0.000
REMARK INTER + INTRA:           4.071
REMARK INTER:                   3.463
REMARK INTRA:                   0.609
REMARK UNBOUND:                 0.609
REMARK SMILES CCCCCCCCCCCCCCCCCCCCCCCCCCCC(=O)[O-]
REMARK SMILES IDX 15 1 16 2 17 3 18 4 19 5 20 6 21 7 22 8 23 9 24 10 25 11
REMARK SMILES IDX 26 12 27 13 28 14 29 15 30 16 14 17 13 18 12 19 11 20 10 21
REMARK SMILES IDX 9 22 8 23 7 24 6 25 5 26 4 27 3 28 2 29 1 30
REMARK H PARENT
REMARK Flexibility Score: inf
ROOT
ATOM      1  C   UNL     1      -6.072  35.078  24.964  1.00  0.00     0.000 C 
ENDROOT
BRANCH   1   2
ATOM      2  C   UNL     1      -6.125  34.868  23.438  1.00  0.00     0.000 C 
BRANCH   2   3
ATOM      3  C   UNL     1      -4.732  34.681  22.813  1.00  0.00     0.000 C 
BRANCH   3   4
ATOM      4  C   UNL     1      -4.701  34.994  21.306  1.00  0.00     0.000 C 
BRANCH   4   5
ATOM      5  C   UNL     1      -6.065  34.926  20.588  1.00  0.00     0.000 C 
BRANCH   5   6
ATOM      6  C   UNL     1      -6.090  34.064  19.313  1.00  0.00     0.000 C 
BRANCH   6   7
ATOM      7  C   UNL     1      -5.761  34.869  18.044  1.00  0.00     0.000 C 
BRANCH   7   8
ATOM      8  C   UNL     1      -4.392  34.492  17.440  1.00  0.00     0.000 C 
BRANCH   8   9
ATOM      9  C   UNL     1      -3.906  35.453  16.338  1.00  0.00     0.000 C 
BRANCH   9  10
ATOM     10  C   UNL     1      -2.511  36.069  16.564  1.00  0.00     0.000 C 
BRANCH  10  11
ATOM     11  C   UNL     1      -1.589  36.066  15.330  1.00  0.00     0.000 C 
BRANCH  11  12
ATOM     12  C   UNL     1      -2.335  36.399  14.028  1.00  0.00     0.006 C 
BRANCH  12  13
ATOM     13  C   UNL     1      -3.797  36.794  14.280  1.00  0.00     0.053 C 
BRANCH  13  14
ATOM     14  C   UNL     1      -3.932  38.228  14.705  1.00  0.00     0.041 C 
ATOM     15  O   UNL     1      -4.302  39.104  13.877  1.00  0.00    -0.550 OA
ATOM     16  O   UNL     1      -3.659  38.592  16.017  1.00  0.00    -0.550 OA
ENDBRANCH  13  14
ENDBRANCH  12  13
ENDBRANCH  11  12
ENDBRANCH  10  11
ENDBRANCH   9  10
ENDBRANCH   8   9
ENDBRANCH   7   8
ENDBRANCH   6   7
ENDBRANCH   5   6
ENDBRANCH   4   5
ENDBRANCH   3   4
ENDBRANCH   2   3
ENDBRANCH   1   2
BRANCH   1  17
ATOM     17  C   UNL     1      -6.024  36.548  25.422  1.00  0.00     0.000 C 
BRANCH  17  18
ATOM     18  C   UNL     1      -4.593  37.094  25.533  1.00  0.00     0.000 C 
BRANCH  18  19
ATOM     19  C   UNL     1      -4.430  38.385  24.717  1.00  0.00     0.000 C 
BRANCH  19  20
ATOM     20  C   UNL     1      -5.221  38.355  23.397  1.00  0.00     0.000 C 
BRANCH  20  21
ATOM     21  C   UNL     1      -5.932  39.675  23.038  1.00  0.00     0.000 C 
BRANCH  21  22
ATOM     22  C   UNL     1      -5.400  40.381  21.773  1.00  0.00    -0.000 C 
BRANCH  22  23
ATOM     23  C   UNL     1      -5.935  39.817  20.442  1.00  0.00    -0.000 C 
BRANCH  23  24
ATOM     24  C   UNL     1      -5.868  38.281  20.313  1.00  0.00    -0.000 C 
BRANCH  24  25
ATOM     25  C   UNL     1      -4.792  37.761  19.343  1.00  0.00    -0.000 C 
BRANCH  25  26
ATOM     26  C   UNL     1      -3.484  37.381  20.058  1.00  0.00    -0.000 C 
BRANCH  26  27
ATOM     27  C   UNL     1      -2.294  38.248  19.614  1.00  0.00    -0.000 C 
BRANCH  27  28
ATOM     28  C   UNL     1      -1.083  37.409  19.180  1.00  0.00    -0.000 C 
BRANCH  28  29
ATOM     29  C   UNL     1      -0.373  38.053  17.984  1.00  0.00    -0.003 C 
ATOM     30  C   UNL     1       1.100  37.658  17.937  1.00  0.00     0.004 C 
ENDBRANCH  28  29
ENDBRANCH  27  28
ENDBRANCH  26  27
ENDBRANCH  25  26
ENDBRANCH  24  25
ENDBRANCH  23  24
ENDBRANCH  22  23
ENDBRANCH  21  22
ENDBRANCH  20  21
ENDBRANCH  19  20
ENDBRANCH  18  19
ENDBRANCH  17  18
ENDBRANCH   1  17
TORSDOF 26
ENDMDL
MODEL 2
REMARK VINA RESULT:     2.479      4.267      8.718
REMARK INTER + INTRA:           6.857
REMARK INTER:                   9.141
REMARK INTRA:                  -2.284
REMARK UNBOUND:                 0.609
REMARK SMILES CCCCCCCCCCCCCCCCCCCCCCCCCCCC(=O)[O-]
REMARK SMILES IDX 15 1 16 2 17 3 18 4 19 5 20 6 21 7 22 8 23 9 24 10 25 11
REMARK SMILES IDX 26 12 27 13 28 14 29 15 30 16 14 17 13 18 12 19 11 20 10 21
REMARK SMILES IDX 9 22 8 23 7 24 6 25 5 26 4 27 3 28 2 29 1 30
REMARK H PARENT
REMARK Flexibility Score: inf
ROOT
ATOM      1  C   UNL     1      -4.545  35.721  21.450  1.00  0.00     0.000 C 
ENDROOT
BRANCH   1   2
ATOM      2  C   UNL     1      -5.735  36.654  21.153  1.00  0.00     0.000 C 
BRANCH   2   3
ATOM      3  C   UNL     1      -5.307  37.979  20.500  1.00  0.00     0.000 C 
BRANCH   3   4
ATOM      4  C   UNL     1      -4.441  38.855  21.424  1.00  0.00     0.000 C 
BRANCH   4   5
ATOM      5  C   UNL     1      -5.215  39.649  22.497  1.00  0.00     0.000 C 
BRANCH   5   6
ATOM      6  C   UNL     1      -5.027  39.151  23.941  1.00  0.00     0.000 C 
BRANCH   6   7
ATOM      7  C   UNL     1      -5.690  37.786  24.191  1.00  0.00     0.000 C 
BRANCH   7   8
ATOM      8  C   UNL     1      -4.728  36.768  24.837  1.00  0.00     0.000 C 
BRANCH   8   9
ATOM      9  C   UNL     1      -4.315  37.122  26.279  1.00  0.00     0.000 C 
BRANCH   9  10
ATOM     10  C   UNL     1      -3.037  37.974  26.412  1.00  0.00     0.000 C 
BRANCH  10  11
ATOM     11  C   UNL     1      -2.100  37.570  27.565  1.00  0.00     0.000 C 
BRANCH  11  12
ATOM     12  C   UNL     1      -1.648  36.102  27.480  1.00  0.00     0.006 C 
BRANCH  12  13
ATOM     13  C   UNL     1      -2.491  35.183  28.377  1.00  0.00     0.053 C 
BRANCH  13  14
ATOM     14  C   UNL     1      -1.654  34.455  29.389  1.00  0.00     0.041 C 
ATOM     15  O   UNL     1      -2.088  34.271  30.559  1.00  0.00    -0.550 OA
ATOM     16  O   UNL     1      -0.401  33.973  29.036  1.00  0.00    -0.550 OA
ENDBRANCH  13  14
ENDBRANCH  12  13
ENDBRANCH  11  12
ENDBRANCH  10  11
ENDBRANCH   9  10
ENDBRANCH   8   9
ENDBRANCH   7   8
ENDBRANCH   6   7
ENDBRANCH   5   6
ENDBRANCH   4   5
ENDBRANCH   3   4
ENDBRANCH   2   3
ENDBRANCH   1   2
BRANCH   1  17
ATOM     17  C   UNL     1      -4.409  34.513  20.505  1.00  0.00     0.000 C 
BRANCH  17  18
ATOM     18  C   UNL     1      -5.658  34.282  19.642  1.00  0.00     0.000 C 
BRANCH  18  19
ATOM     19  C   UNL     1      -5.320  34.368  18.146  1.00  0.00     0.000 C 
BRANCH  19  20
ATOM     20  C   UNL     1      -4.788  35.753  17.738  1.00  0.00     0.000 C 
BRANCH  20  21
ATOM     21  C   UNL     1      -3.320  36.023  18.125  1.00  0.00     0.000 C 
BRANCH  21  22
ATOM     22  C   UNL     1      -2.874  37.496  18.009  1.00  0.00    -0.000 C 
BRANCH  22  23
ATOM     23  C   UNL     1      -1.690  37.740  17.052  1.00  0.00    -0.000 C 
BRANCH  23  24
ATOM     24  C   UNL     1      -1.337  36.550  16.137  1.00  0.00    -0.000 C 
BRANCH  24  25
ATOM     25  C   UNL     1      -1.751  36.723  14.664  1.00  0.00    -0.000 C 
BRANCH  25  26
ATOM     26  C   UNL     1      -2.972  35.865  14.287  1.00  0.00    -0.000 C 
BRANCH  26  27
ATOM     27  C   UNL     1      -4.260  36.694  14.164  1.00  0.00    -0.000 C 
BRANCH  27  28
ATOM     28  C   UNL     1      -3.981  38.177  13.877  1.00  0.00    -0.000 C 
BRANCH  28  29
ATOM     29  C   UNL     1      -5.161  39.051  14.321  1.00  0.00    -0.003 C 
ATOM     30  C   UNL     1      -4.957  40.506  13.908  1.00  0.00     0.004 C 
ENDBRANCH  28  29
ENDBRANCH  27  28
ENDBRANCH  26  27
ENDBRANCH  25  26
ENDBRANCH  24  25
ENDBRANCH  23  24
ENDBRANCH  22  23
ENDBRANCH  21  22
ENDBRANCH  20  21
ENDBRANCH  19  20
ENDBRANCH  18  19
ENDBRANCH  17  18
ENDBRANCH   1  17
TORSDOF 26
ENDMDL
MODEL 3
REMARK VINA RESULT:     2.623      2.910      6.798
REMARK INTER + INTRA:           7.218
REMARK INTER:                   8.064
REMARK INTRA:                  -0.846
REMARK UNBOUND:                 0.609
REMARK SMILES CCCCCCCCCCCCCCCCCCCCCCCCCCCC(=O)[O-]
REMARK SMILES IDX 15 1 16 2 17 3 18 4 19 5 20 6 21 7 22 8 23 9 24 10 25 11
REMARK SMILES IDX 26 12 27 13 28 14 29 15 30 16 14 17 13 18 12 19 11 20 10 21
REMARK SMILES IDX 9 22 8 23 7 24 6 25 5 26 4 27 3 28 2 29 1 30
REMARK H PARENT
REMARK Flexibility Score: inf
ROOT
ATOM      1  C   UNL     1      -3.102  37.484  19.567  1.00  0.00     0.000 C 
ENDROOT
BRANCH   1   2
ATOM      2  C   UNL     1      -1.611  37.868  19.628  1.00  0.00     0.000 C 
BRANCH   2   3
ATOM      3  C   UNL     1      -0.777  37.201  18.522  1.00  0.00     0.000 C 
BRANCH   3   4
ATOM      4  C   UNL     1      -1.419  37.320  17.128  1.00  0.00     0.000 C 
BRANCH   4   5
ATOM      5  C   UNL     1      -1.297  36.067  16.235  1.00  0.00     0.000 C 
BRANCH   5   6
ATOM      6  C   UNL     1      -2.264  36.020  15.039  1.00  0.00     0.000 C 
BRANCH   6   7
ATOM      7  C   UNL     1      -3.594  36.741  15.321  1.00  0.00     0.000 C 
BRANCH   7   8
ATOM      8  C   UNL     1      -4.277  36.243  16.612  1.00  0.00     0.000 C 
BRANCH   8   9
ATOM      9  C   UNL     1      -3.850  34.826  17.042  1.00  0.00     0.000 C 
BRANCH   9  10
ATOM     10  C   UNL     1      -4.675  34.204  18.186  1.00  0.00     0.000 C 
BRANCH  10  11
ATOM     11  C   UNL     1      -5.945  34.985  18.573  1.00  0.00     0.000 C 
BRANCH  11  12
ATOM     12  C   UNL     1      -5.868  35.586  19.986  1.00  0.00     0.006 C 
BRANCH  12  13
ATOM     13  C   UNL     1      -6.115  34.536  21.078  1.00  0.00     0.053 C 
BRANCH  13  14
ATOM     14  C   UNL     1      -5.188  34.703  22.247  1.00  0.00     0.041 C 
ATOM     15  O   UNL     1      -4.134  35.386  22.131  1.00  0.00    -0.550 OA
ATOM     16  O   UNL     1      -5.495  34.112  23.466  1.00  0.00    -0.550 OA
ENDBRANCH  13  14
ENDBRANCH  12  13
ENDBRANCH  11  12
ENDBRANCH  10  11
ENDBRANCH   9  10
ENDBRANCH   8   9
ENDBRANCH   7   8
ENDBRANCH   6   7
ENDBRANCH   5   6
ENDBRANCH   4   5
ENDBRANCH   3   4
ENDBRANCH   2   3
ENDBRANCH   1   2
BRANCH   1  17
ATOM     17  C   UNL     1      -4.079  38.667  19.443  1.00  0.00     0.000 C 
BRANCH  17  18
ATOM     18  C   UNL     1      -5.504  38.319  19.898  1.00  0.00     0.000 C 
BRANCH  18  19
ATOM     19  C   UNL     1      -6.015  39.330  20.935  1.00  0.00     0.000 C 
BRANCH  19  20
ATOM     20  C   UNL     1      -4.953  39.683  21.991  1.00  0.00     0.000 C 
BRANCH  20  21
ATOM     21  C   UNL     1      -5.272  39.194  23.418  1.00  0.00     0.000 C 
BRANCH  21  22
ATOM     22  C   UNL     1      -5.935  37.803  23.499  1.00  0.00    -0.000 C 
BRANCH  22  23
ATOM     23  C   UNL     1      -5.554  36.975  24.743  1.00  0.00    -0.000 C 
BRANCH  23  24
ATOM     24  C   UNL     1      -4.675  37.715  25.772  1.00  0.00    -0.000 C 
BRANCH  24  25
ATOM     25  C   UNL     1      -3.718  36.812  26.571  1.00  0.00    -0.000 C 
BRANCH  25  26
ATOM     26  C   UNL     1      -2.410  37.526  26.955  1.00  0.00    -0.000 C 
BRANCH  26  27
ATOM     27  C   UNL     1      -1.555  36.706  27.934  1.00  0.00    -0.000 C 
BRANCH  27  28
ATOM     28  C   UNL     1      -2.133  35.308  28.193  1.00  0.00    -0.000 C 
BRANCH  28  29
ATOM     29  C   UNL     1      -1.236  34.513  29.150  1.00  0.00    -0.003 C 
ATOM     30  C   UNL     1      -1.997  34.100  30.407  1.00  0.00     0.004 C 
ENDBRANCH  28  29
ENDBRANCH  27  28
ENDBRANCH  26  27
ENDBRANCH  25  26
ENDBRANCH  24  25
ENDBRANCH  23  24
ENDBRANCH  22  23
ENDBRANCH  21  22
ENDBRANCH  20  21
ENDBRANCH  19  20
ENDBRANCH  18  19
ENDBRANCH  17  18
ENDBRANCH   1  17
TORSDOF 26
ENDMDL
MODEL 4
REMARK VINA RESULT:     2.841      2.329      5.155
REMARK INTER + INTRA:           7.767
REMARK INTER:                   5.830
REMARK INTRA:                   1.938
REMARK UNBOUND:                 0.609
REMARK SMILES CCCCCCCCCCCCCCCCCCCCCCCCCCCC(=O)[O-]
REMARK SMILES IDX 15 1 16 2 17 3 18 4 19 5 20 6 21 7 22 8 23 9 24 10 25 11
REMARK SMILES IDX 26 12 27 13 28 14 29 15 30 16 14 17 13 18 12 19 11 20 10 21
REMARK SMILES IDX 9 22 8 23 7 24 6 25 5 26 4 27 3 28 2 29 1 30
REMARK H PARENT
REMARK Flexibility Score: inf
ROOT
ATOM      1  C   UNL     1      -6.115  36.039  22.124  1.00  0.00     0.000 C 
ENDROOT
BRANCH   1   2
ATOM      2  C   UNL     1      -5.314  34.905  22.793  1.00  0.00     0.000 C 
BRANCH   2   3
ATOM      3  C   UNL     1      -3.973  34.627  22.091  1.00  0.00     0.000 C 
BRANCH   3   4
ATOM      4  C   UNL     1      -4.009  34.928  20.581  1.00  0.00     0.000 C 
BRANCH   4   5
ATOM      5  C   UNL     1      -5.265  34.426  19.837  1.00  0.00     0.000 C 
BRANCH   5   6
ATOM      6  C   UNL     1      -5.081  34.199  18.326  1.00  0.00     0.000 C 
BRANCH   6   7
ATOM      7  C   UNL     1      -4.196  35.271  17.667  1.00  0.00     0.000 C 
BRANCH   7   8
ATOM      8  C   UNL     1      -4.458  36.685  18.228  1.00  0.00     0.000 C 
BRANCH   8   9
ATOM      9  C   UNL     1      -3.246  37.632  18.131  1.00  0.00     0.000 C 
BRANCH   9  10
ATOM     10  C   UNL     1      -1.879  36.995  18.450  1.00  0.00     0.000 C 
BRANCH  10  11
ATOM     11  C   UNL     1      -0.928  36.857  17.247  1.00  0.00     0.000 C 
BRANCH  11  12
ATOM     12  C   UNL     1      -1.651  36.426  15.960  1.00  0.00     0.006 C 
BRANCH  12  13
ATOM     13  C   UNL     1      -2.411  37.588  15.305  1.00  0.00     0.053 C 
BRANCH  13  14
ATOM     14  C   UNL     1      -3.540  37.112  14.438  1.00  0.00     0.041 C 
ATOM     15  O   UNL     1      -4.444  37.912  14.075  1.00  0.00    -0.550 OA
ATOM     16  O   UNL     1      -3.587  35.786  14.026  1.00  0.00    -0.550 OA
ENDBRANCH  13  14
ENDBRANCH  12  13
ENDBRANCH  11  12
ENDBRANCH  10  11
ENDBRANCH   9  10
ENDBRANCH   8   9
ENDBRANCH   7   8
ENDBRANCH   6   7
ENDBRANCH   5   6
ENDBRANCH   4   5
ENDBRANCH   3   4
ENDBRANCH   2   3
ENDBRANCH   1   2
BRANCH   1  17
ATOM     17  C   UNL     1      -5.307  37.309  21.800  1.00  0.00     0.000 C 
BRANCH  17  18
ATOM     18  C   UNL     1      -5.767  37.998  20.506  1.00  0.00     0.000 C 
BRANCH  18  19
ATOM     19  C   UNL     1      -5.767  39.525  20.664  1.00  0.00     0.000 C 
BRANCH  19  20
ATOM     20  C   UNL     1      -5.774  39.968  22.138  1.00  0.00     0.000 C 
BRANCH  20  21
ATOM     21  C   UNL     1      -4.625  39.396  22.992  1.00  0.00     0.000 C 
BRANCH  21  22
ATOM     22  C   UNL     1      -4.953  39.213  24.489  1.00  0.00    -0.000 C 
BRANCH  22  23
ATOM     23  C   UNL     1      -5.210  37.756  24.923  1.00  0.00    -0.000 C 
BRANCH  23  24
ATOM     24  C   UNL     1      -4.217  37.202  25.965  1.00  0.00    -0.000 C 
BRANCH  24  25
ATOM     25  C   UNL     1      -3.006  38.109  26.249  1.00  0.00    -0.000 C 
BRANCH  25  26
ATOM     26  C   UNL     1      -2.067  37.527  27.320  1.00  0.00    -0.000 C 
BRANCH  26  27
ATOM     27  C   UNL     1      -2.356  36.047  27.617  1.00  0.00    -0.000 C 
BRANCH  27  28
ATOM     28  C   UNL     1      -1.422  35.469  28.690  1.00  0.00    -0.000 C 
BRANCH  28  29
ATOM     29  C   UNL     1      -1.893  34.078  29.133  1.00  0.00    -0.003 C 
ATOM     30  C   UNL     1      -1.875  33.946  30.653  1.00  0.00     0.004 C 
ENDBRANCH  28  29
ENDBRANCH  27  28
ENDBRANCH  26  27
ENDBRANCH  25  26
ENDBRANCH  24  25
ENDBRANCH  23  24
ENDBRANCH  22  23
ENDBRANCH  21  22
ENDBRANCH  20  21
ENDBRANCH  19  20
ENDBRANCH  18  19
ENDBRANCH  17  18
ENDBRANCH   1  17
TORSDOF 26
ENDMDL
MODEL 5
REMARK VINA RESULT:     2.865      4.340      8.721
REMARK INTER + INTRA:           7.828
REMARK INTER:                   8.785
REMARK INTRA:                  -0.957
REMARK UNBOUND:                 0.609
REMARK SMILES CCCCCCCCCCCCCCCCCCCCCCCCCCCC(=O)[O-]
REMARK SMILES IDX 15 1 16 2 17 3 18 4 19 5 20 6 21 7 22 8 23 9 24 10 25 11
REMARK SMILES IDX 26 12 27 13 28 14 29 15 30 16 14 17 13 18 12 19 11 20 10 21
REMARK SMILES IDX 9 22 8 23 7 24 6 25 5 26 4 27 3 28 2 29 1 30
REMARK H PARENT
REMARK Flexibility Score: inf
ROOT
ATOM      1  C   UNL     1      -4.421  35.809  21.415  1.00  0.00     0.000 C 
ENDROOT
BRANCH   1   2
ATOM      2  C   UNL     1      -5.739  36.606  21.358  1.00  0.00     0.000 C 
BRANCH   2   3
ATOM      3  C   UNL     1      -5.596  37.944  20.614  1.00  0.00     0.000 C 
BRANCH   3   4
ATOM      4  C   UNL     1      -4.623  38.917  21.304  1.00  0.00     0.000 C 
BRANCH   4   5
ATOM      5  C   UNL     1      -5.234  39.774  22.432  1.00  0.00     0.000 C 
BRANCH   5   6
ATOM      6  C   UNL     1      -4.963  39.264  23.859  1.00  0.00     0.000 C 
BRANCH   6   7
ATOM      7  C   UNL     1      -5.685  37.940  24.164  1.00  0.00     0.000 C 
BRANCH   7   8
ATOM      8  C   UNL     1      -4.787  36.934  24.916  1.00  0.00     0.000 C 
BRANCH   8   9
ATOM      9  C   UNL     1      -4.302  37.432  26.292  1.00  0.00     0.000 C 
BRANCH   9  10
ATOM     10  C   UNL     1      -2.798  37.755  26.387  1.00  0.00     0.000 C 
BRANCH  10  11
ATOM     11  C   UNL     1      -2.145  37.425  27.742  1.00  0.00     0.000 C 
BRANCH  11  12
ATOM     12  C   UNL     1      -1.495  36.032  27.768  1.00  0.00     0.006 C 
BRANCH  12  13
ATOM     13  C   UNL     1      -2.340  35.011  28.543  1.00  0.00     0.053 C 
BRANCH  13  14
ATOM     14  C   UNL     1      -1.547  34.304  29.603  1.00  0.00     0.041 C 
ATOM     15  O   UNL     1      -0.373  33.910  29.363  1.00  0.00    -0.550 OA
ATOM     16  O   UNL     1      -2.102  34.089  30.858  1.00  0.00    -0.550 OA
ENDBRANCH  13  14
ENDBRANCH  12  13
ENDBRANCH  11  12
ENDBRANCH  10  11
ENDBRANCH   9  10
ENDBRANCH   8   9
ENDBRANCH   7   8
ENDBRANCH   6   7
ENDBRANCH   5   6
ENDBRANCH   4   5
ENDBRANCH   3   4
ENDBRANCH   2   3
ENDBRANCH   1   2
BRANCH   1  17
ATOM     17  C   UNL     1      -4.300  34.669  20.388  1.00  0.00     0.000 C 
BRANCH  17  18
ATOM     18  C   UNL     1      -5.468  34.634  19.390  1.00  0.00     0.000 C 
BRANCH  18  19
ATOM     19  C   UNL     1      -4.979  34.262  17.982  1.00  0.00     0.000 C 
BRANCH  19  20
ATOM     20  C   UNL     1      -3.835  35.167  17.494  1.00  0.00     0.000 C 
BRANCH  20  21
ATOM     21  C   UNL     1      -3.155  34.704  16.189  1.00  0.00     0.000 C 
BRANCH  21  22
ATOM     22  C   UNL     1      -1.781  35.347  15.905  1.00  0.00    -0.000 C 
BRANCH  22  23
ATOM     23  C   UNL     1      -1.730  36.233  14.644  1.00  0.00    -0.000 C 
BRANCH  23  24
ATOM     24  C   UNL     1      -3.106  36.606  14.055  1.00  0.00    -0.000 C 
BRANCH  24  25
ATOM     25  C   UNL     1      -3.602  38.018  14.416  1.00  0.00    -0.000 C 
BRANCH  25  26
ATOM     26  C   UNL     1      -4.011  38.143  15.894  1.00  0.00    -0.000 C 
BRANCH  26  27
ATOM     27  C   UNL     1      -2.801  38.185  16.841  1.00  0.00    -0.000 C 
BRANCH  27  28
ATOM     28  C   UNL     1      -3.139  37.682  18.251  1.00  0.00    -0.000 C 
BRANCH  28  29
ATOM     29  C   UNL     1      -1.927  37.807  19.182  1.00  0.00    -0.003 C 
ATOM     30  C   UNL     1      -0.621  37.585  18.423  1.00  0.00     0.004 C 
ENDBRANCH  28  29
ENDBRANCH  27  28
ENDBRANCH  26  27
ENDBRANCH  25  26
ENDBRANCH  24  25
ENDBRANCH  23  24
ENDBRANCH  22  23
ENDBRANCH  21  22
ENDBRANCH  20  21
ENDBRANCH  19  20
ENDBRANCH  18  19
ENDBRANCH  17  18
ENDBRANCH   1  17
TORSDOF 26
ENDMDL
MODEL 6
REMARK VINA RESULT:     3.073      2.208      5.064
REMARK INTER + INTRA:           8.351
REMARK INTER:                   8.538
REMARK INTRA:                  -0.187
REMARK UNBOUND:                 0.609
REMARK SMILES CCCCCCCCCCCCCCCCCCCCCCCCCCCC(=O)[O-]
REMARK SMILES IDX 15 1 16 2 17 3 18 4 19 5 20 6 21 7 22 8 23 9 24 10 25 11
REMARK SMILES IDX 26 12 27 13 28 14 29 15 30 16 14 17 13 18 12 19 11 20 10 21
REMARK SMILES IDX 9 22 8 23 7 24 6 25 5 26 4 27 3 28 2 29 1 30
REMARK H PARENT
REMARK Flexibility Score: inf
ROOT
ATOM      1  C   UNL     1      -5.968  36.596  22.213  1.00  0.00     0.000 C 
ENDROOT
BRANCH   1   2
ATOM      2  C   UNL     1      -6.048  35.298  23.039  1.00  0.00     0.000 C 
BRANCH   2   3
ATOM      3  C   UNL     1      -4.667  34.677  23.311  1.00  0.00     0.000 C 
BRANCH   3   4
ATOM      4  C   UNL     1      -4.266  33.619  22.268  1.00  0.00     0.000 C 
BRANCH   4   5
ATOM      5  C   UNL     1      -3.164  34.051  21.278  1.00  0.00     0.000 C 
BRANCH   5   6
ATOM      6  C   UNL     1      -3.645  34.923  20.105  1.00  0.00     0.000 C 
BRANCH   6   7
ATOM      7  C   UNL     1      -4.938  34.395  19.461  1.00  0.00     0.000 C 
BRANCH   7   8
ATOM      8  C   UNL     1      -5.192  34.993  18.061  1.00  0.00     0.000 C 
BRANCH   8   9
ATOM      9  C   UNL     1      -3.913  35.196  17.225  1.00  0.00     0.000 C 
BRANCH   9  10
ATOM     10  C   UNL     1      -3.971  36.341  16.194  1.00  0.00     0.000 C 
BRANCH  10  11
ATOM     11  C   UNL     1      -2.613  36.744  15.590  1.00  0.00     0.000 C 
BRANCH  11  12
ATOM     12  C   UNL     1      -1.419  36.191  16.386  1.00  0.00     0.006 C 
BRANCH  12  13
ATOM     13  C   UNL     1      -0.637  37.301  17.104  1.00  0.00     0.053 C 
BRANCH  13  14
ATOM     14  C   UNL     1      -1.150  37.549  18.493  1.00  0.00     0.041 C 
ATOM     15  O   UNL     1      -0.386  37.415  19.487  1.00  0.00    -0.550 OA
ATOM     16  O   UNL     1      -2.469  37.939  18.686  1.00  0.00    -0.550 OA
ENDBRANCH  13  14
ENDBRANCH  12  13
ENDBRANCH  11  12
ENDBRANCH  10  11
ENDBRANCH   9  10
ENDBRANCH   8   9
ENDBRANCH   7   8
ENDBRANCH   6   7
ENDBRANCH   5   6
ENDBRANCH   4   5
ENDBRANCH   3   4
ENDBRANCH   2   3
ENDBRANCH   1   2
BRANCH   1  17
ATOM     17  C   UNL     1      -4.550  37.013  21.783  1.00  0.00     0.000 C 
BRANCH  17  18
ATOM     18  C   UNL     1      -4.545  37.993  20.600  1.00  0.00     0.000 C 
BRANCH  18  19
ATOM     19  C   UNL     1      -5.923  38.647  20.420  1.00  0.00     0.000 C 
BRANCH  19  20
ATOM     20  C   UNL     1      -5.999  40.050  21.048  1.00  0.00     0.000 C 
BRANCH  20  21
ATOM     21  C   UNL     1      -5.935  40.075  22.588  1.00  0.00     0.000 C 
BRANCH  21  22
ATOM     22  C   UNL     1      -4.583  39.641  23.193  1.00  0.00    -0.000 C 
BRANCH  22  23
ATOM     23  C   UNL     1      -4.624  39.305  24.697  1.00  0.00    -0.000 C 
BRANCH  23  24
ATOM     24  C   UNL     1      -5.017  37.850  25.028  1.00  0.00    -0.000 C 
BRANCH  24  25
ATOM     25  C   UNL     1      -4.101  37.151  26.049  1.00  0.00    -0.000 C 
BRANCH  25  26
ATOM     26  C   UNL     1      -2.925  38.037  26.495  1.00  0.00    -0.000 C 
BRANCH  26  27
ATOM     27  C   UNL     1      -1.998  37.328  27.496  1.00  0.00    -0.000 C 
BRANCH  27  28
ATOM     28  C   UNL     1      -2.366  35.851  27.696  1.00  0.00    -0.000 C 
BRANCH  28  29
ATOM     29  C   UNL     1      -1.302  35.131  28.533  1.00  0.00    -0.003 C 
ATOM     30  C   UNL     1      -1.933  34.379  29.701  1.00  0.00     0.004 C 
ENDBRANCH  28  29
ENDBRANCH  27  28
ENDBRANCH  26  27
ENDBRANCH  25  26
ENDBRANCH  24  25
ENDBRANCH  23  24
ENDBRANCH  22  23
ENDBRANCH  21  22
ENDBRANCH  20  21
ENDBRANCH  19  20
ENDBRANCH  18  19
ENDBRANCH  17  18
ENDBRANCH   1  17
TORSDOF 26
ENDMDL
MODEL 7
REMARK VINA RESULT:     3.546      4.309      8.944
REMARK INTER + INTRA:           9.545
REMARK INTER:                   9.107
REMARK INTRA:                   0.439
REMARK UNBOUND:                 0.609
REMARK SMILES CCCCCCCCCCCCCCCCCCCCCCCCCCCC(=O)[O-]
REMARK SMILES IDX 15 1 16 2 17 3 18 4 19 5 20 6 21 7 22 8 23 9 24 10 25 11
REMARK SMILES IDX 26 12 27 13 28 14 29 15 30 16 14 17 13 18 12 19 11 20 10 21
REMARK SMILES IDX 9 22 8 23 7 24 6 25 5 26 4 27 3 28 2 29 1 30
REMARK H PARENT
REMARK Flexibility Score: inf
ROOT
ATOM      1  C   UNL     1      -3.835  38.368  20.535  1.00  0.00     0.000 C 
ENDROOT
BRANCH   1   2
ATOM      2  C   UNL     1      -5.335  38.552  20.239  1.00  0.00     0.000 C 
BRANCH   2   3
ATOM      3  C   UNL     1      -6.065  39.358  21.328  1.00  0.00     0.000 C 
BRANCH   3   4
ATOM      4  C   UNL     1      -5.158  39.721  22.519  1.00  0.00     0.000 C 
BRANCH   4   5
ATOM      5  C   UNL     1      -5.221  38.750  23.716  1.00  0.00     0.000 C 
BRANCH   5   6
ATOM      6  C   UNL     1      -5.645  37.312  23.370  1.00  0.00     0.000 C 
BRANCH   6   7
ATOM      7  C   UNL     1      -5.052  36.268  24.331  1.00  0.00     0.000 C 
BRANCH   7   8
ATOM      8  C   UNL     1      -5.117  36.716  25.807  1.00  0.00     0.000 C 
BRANCH   8   9
ATOM      9  C   UNL     1      -4.449  38.077  26.080  1.00  0.00     0.000 C 
BRANCH   9  10
ATOM     10  C   UNL     1      -3.146  38.023  26.901  1.00  0.00     0.000 C 
BRANCH  10  11
ATOM     11  C   UNL     1      -2.358  36.705  26.787  1.00  0.00     0.000 C 
BRANCH  11  12
ATOM     12  C   UNL     1      -1.750  36.255  28.126  1.00  0.00     0.006 C 
BRANCH  12  13
ATOM     13  C   UNL     1      -2.409  34.976  28.661  1.00  0.00     0.053 C 
BRANCH  13  14
ATOM     14  C   UNL     1      -1.541  34.264  29.658  1.00  0.00     0.041 C 
ATOM     15  O   UNL     1      -2.001  33.940  30.786  1.00  0.00    -0.550 OA
ATOM     16  O   UNL     1      -0.227  33.951  29.335  1.00  0.00    -0.550 OA
ENDBRANCH  13  14
ENDBRANCH  12  13
ENDBRANCH  11  12
ENDBRANCH  10  11
ENDBRANCH   9  10
ENDBRANCH   8   9
ENDBRANCH   7   8
ENDBRANCH   6   7
ENDBRANCH   5   6
ENDBRANCH   4   5
ENDBRANCH   3   4
ENDBRANCH   2   3
ENDBRANCH   1   2
BRANCH   1  17
ATOM     17  C   UNL     1      -3.024  37.690  19.416  1.00  0.00     0.000 C 
BRANCH  17  18
ATOM     18  C   UNL     1      -1.546  38.107  19.409  1.00  0.00     0.000 C 
BRANCH  18  19
ATOM     19  C   UNL     1      -0.931  37.936  18.011  1.00  0.00     0.000 C 
BRANCH  19  20
ATOM     20  C   UNL     1      -1.281  36.580  17.372  1.00  0.00     0.000 C 
BRANCH  20  21
ATOM     21  C   UNL     1      -1.182  36.545  15.834  1.00  0.00     0.000 C 
BRANCH  21  22
ATOM     22  C   UNL     1      -2.416  37.092  15.087  1.00  0.00    -0.000 C 
BRANCH  22  23
ATOM     23  C   UNL     1      -3.708  36.274  15.284  1.00  0.00    -0.000 C 
BRANCH  23  24
ATOM     24  C   UNL     1      -3.653  35.236  16.424  1.00  0.00    -0.000 C 
BRANCH  24  25
ATOM     25  C   UNL     1      -4.597  35.525  17.606  1.00  0.00    -0.000 C 
BRANCH  25  26
ATOM     26  C   UNL     1      -5.175  34.244  18.231  1.00  0.00    -0.000 C 
BRANCH  26  27
ATOM     27  C   UNL     1      -5.891  34.508  19.565  1.00  0.00    -0.000 C 
BRANCH  27  28
ATOM     28  C   UNL     1      -5.075  35.409  20.503  1.00  0.00    -0.000 C 
BRANCH  28  29
ATOM     29  C   UNL     1      -4.665  34.651  21.771  1.00  0.00    -0.003 C 
ATOM     30  C   UNL     1      -3.207  34.206  21.703  1.00  0.00     0.004 C 
ENDBRANCH  28  29
ENDBRANCH  27  28
ENDBRANCH  26  27
ENDBRANCH  25  26
ENDBRANCH  24  25
ENDBRANCH  23  24
ENDBRANCH  22  23
ENDBRANCH  21  22
ENDBRANCH  20  21
ENDBRANCH  19  20
ENDBRANCH  18  19
ENDBRANCH  17  18
ENDBRANCH   1  17
TORSDOF 26
ENDMDL
MODEL 8
REMARK VINA RESULT:     3.554      4.372      8.248
REMARK INTER + INTRA:           9.565
REMARK INTER:                  10.907
REMARK INTRA:                  -1.342
REMARK UNBOUND:                 0.609
REMARK SMILES CCCCCCCCCCCCCCCCCCCCCCCCCCCC(=O)[O-]
REMARK SMILES IDX 15 1 16 2 17 3 18 4 19 5 20 6 21 7 22 8 23 9 24 10 25 11
REMARK SMILES IDX 26 12 27 13 28 14 29 15 30 16 14 17 13 18 12 19 11 20 10 21
REMARK SMILES IDX 9 22 8 23 7 24 6 25 5 26 4 27 3 28 2 29 1 30
REMARK H PARENT
REMARK Flexibility Score: inf
ROOT
ATOM      1  C   UNL     1      -3.340  34.148  22.041  1.00  0.00     0.000 C 
ENDROOT
BRANCH   1   2
ATOM      2  C   UNL     1      -4.634  33.521  22.593  1.00  0.00     0.000 C 
BRANCH   2   3
ATOM      3  C   UNL     1      -5.784  34.535  22.716  1.00  0.00     0.000 C 
BRANCH   3   4
ATOM      4  C   UNL     1      -6.075  34.943  24.172  1.00  0.00     0.000 C 
BRANCH   4   5
ATOM      5  C   UNL     1      -6.125  36.463  24.435  1.00  0.00     0.000 C 
BRANCH   5   6
ATOM      6  C   UNL     1      -5.395  37.330  23.394  1.00  0.00     0.000 C 
BRANCH   6   7
ATOM      7  C   UNL     1      -5.136  38.763  23.890  1.00  0.00     0.000 C 
BRANCH   7   8
ATOM      8  C   UNL     1      -3.787  38.903  24.626  1.00  0.00     0.000 C 
BRANCH   8   9
ATOM      9  C   UNL     1      -3.786  38.316  26.051  1.00  0.00     0.000 C 
BRANCH   9  10
ATOM     10  C   UNL     1      -2.397  37.978  26.626  1.00  0.00     0.000 C 
BRANCH  10  11
ATOM     11  C   UNL     1      -2.410  37.074  27.873  1.00  0.00     0.000 C 
BRANCH  11  12
ATOM     12  C   UNL     1      -1.600  35.781  27.682  1.00  0.00     0.006 C 
BRANCH  12  13
ATOM     13  C   UNL     1      -2.218  34.593  28.434  1.00  0.00     0.053 C 
BRANCH  13  14
ATOM     14  C   UNL     1      -1.469  34.267  29.694  1.00  0.00     0.041 C 
ATOM     15  O   UNL     1      -2.049  34.328  30.812  1.00  0.00    -0.550 OA
ATOM     16  O   UNL     1      -0.135  33.887  29.630  1.00  0.00    -0.550 OA
ENDBRANCH  13  14
ENDBRANCH  12  13
ENDBRANCH  11  12
ENDBRANCH  10  11
ENDBRANCH   9  10
ENDBRANCH   8   9
ENDBRANCH   7   8
ENDBRANCH   6   7
ENDBRANCH   5   6
ENDBRANCH   4   5
ENDBRANCH   3   4
ENDBRANCH   2   3
ENDBRANCH   1   2
BRANCH   1  17
ATOM     17  C   UNL     1      -3.538  35.164  20.900  1.00  0.00     0.000 C 
BRANCH  17  18
ATOM     18  C   UNL     1      -4.216  34.553  19.664  1.00  0.00     0.000 C 
BRANCH  18  19
ATOM     19  C   UNL     1      -5.444  35.374  19.246  1.00  0.00     0.000 C 
BRANCH  19  20
ATOM     20  C   UNL     1      -5.799  36.471  20.266  1.00  0.00     0.000 C 
BRANCH  20  21
ATOM     21  C   UNL     1      -5.381  37.897  19.856  1.00  0.00     0.000 C 
BRANCH  21  22
ATOM     22  C   UNL     1      -4.154  37.975  18.923  1.00  0.00    -0.000 C 
BRANCH  22  23
ATOM     23  C   UNL     1      -2.819  38.279  19.634  1.00  0.00    -0.000 C 
BRANCH  23  24
ATOM     24  C   UNL     1      -1.730  37.200  19.462  1.00  0.00    -0.000 C 
BRANCH  24  25
ATOM     25  C   UNL     1      -0.601  37.574  18.485  1.00  0.00    -0.000 C 
BRANCH  25  26
ATOM     26  C   UNL     1      -1.003  37.383  17.012  1.00  0.00    -0.000 C 
BRANCH  26  27
ATOM     27  C   UNL     1      -2.190  36.421  16.843  1.00  0.00    -0.000 C 
BRANCH  27  28
ATOM     28  C   UNL     1      -2.170  35.694  15.491  1.00  0.00    -0.000 C 
BRANCH  28  29
ATOM     29  C   UNL     1      -2.920  36.502  14.425  1.00  0.00    -0.003 C 
ATOM     30  C   UNL     1      -3.693  37.660  15.050  1.00  0.00     0.004 C 
ENDBRANCH  28  29
ENDBRANCH  27  28
ENDBRANCH  26  27
ENDBRANCH  25  26
ENDBRANCH  24  25
ENDBRANCH  23  24
ENDBRANCH  22  23
ENDBRANCH  21  22
ENDBRANCH  20  21
ENDBRANCH  19  20
ENDBRANCH  18  19
ENDBRANCH  17  18
ENDBRANCH   1  17
TORSDOF 26
ENDMDL
MODEL 9
REMARK VINA RESULT:     3.586      4.236      8.484
REMARK INTER + INTRA:           9.644
REMARK INTER:                  10.188
REMARK INTRA:                  -0.544
REMARK UNBOUND:                 0.609
REMARK SMILES CCCCCCCCCCCCCCCCCCCCCCCCCCCC(=O)[O-]
REMARK SMILES IDX 15 1 16 2 17 3 18 4 19 5 20 6 21 7 22 8 23 9 24 10 25 11
REMARK SMILES IDX 26 12 27 13 28 14 29 15 30 16 14 17 13 18 12 19 11 20 10 21
REMARK SMILES IDX 9 22 8 23 7 24 6 25 5 26 4 27 3 28 2 29 1 30
REMARK H PARENT
REMARK Flexibility Score: inf
ROOT
ATOM      1  C   UNL     1      -6.024  37.124  21.181  1.00  0.00     0.000 C 
ENDROOT
BRANCH   1   2
ATOM      2  C   UNL     1      -5.787  38.005  19.940  1.00  0.00     0.000 C 
BRANCH   2   3
ATOM      3  C   UNL     1      -5.951  39.506  20.232  1.00  0.00     0.000 C 
BRANCH   3   4
ATOM      4  C   UNL     1      -5.990  39.826  21.738  1.00  0.00     0.000 C 
BRANCH   4   5
ATOM      5  C   UNL     1      -4.636  39.724  22.471  1.00  0.00     0.000 C 
BRANCH   5   6
ATOM      6  C   UNL     1      -4.700  39.101  23.877  1.00  0.00     0.000 C 
BRANCH   6   7
ATOM      7  C   UNL     1      -5.641  37.887  23.948  1.00  0.00     0.000 C 
BRANCH   7   8
ATOM      8  C   UNL     1      -5.423  37.040  25.220  1.00  0.00     0.000 C 
BRANCH   8   9
ATOM      9  C   UNL     1      -3.944  36.892  25.629  1.00  0.00     0.000 C 
BRANCH   9  10
ATOM     10  C   UNL     1      -3.544  37.605  26.936  1.00  0.00     0.000 C 
BRANCH  10  11
ATOM     11  C   UNL     1      -2.051  37.507  27.301  1.00  0.00     0.000 C 
BRANCH  11  12
ATOM     12  C   UNL     1      -1.600  36.065  27.586  1.00  0.00     0.006 C 
BRANCH  12  13
ATOM     13  C   UNL     1      -2.421  35.411  28.707  1.00  0.00     0.053 C 
BRANCH  13  14
ATOM     14  C   UNL     1      -1.619  34.414  29.491  1.00  0.00     0.041 C 
ATOM     15  O   UNL     1      -0.448  34.115  29.132  1.00  0.00    -0.550 OA
ATOM     16  O   UNL     1      -2.163  33.824  30.625  1.00  0.00    -0.550 OA
ENDBRANCH  13  14
ENDBRANCH  12  13
ENDBRANCH  11  12
ENDBRANCH  10  11
ENDBRANCH   9  10
ENDBRANCH   8   9
ENDBRANCH   7   8
ENDBRANCH   6   7
ENDBRANCH   5   6
ENDBRANCH   4   5
ENDBRANCH   3   4
ENDBRANCH   2   3
ENDBRANCH   1   2
BRANCH   1  17
ATOM     17  C   UNL     1      -5.800  35.616  20.967  1.00  0.00     0.000 C 
BRANCH  17  18
ATOM     18  C   UNL     1      -4.577  35.078  21.725  1.00  0.00     0.000 C 
BRANCH  18  19
ATOM     19  C   UNL     1      -3.284  35.332  20.937  1.00  0.00     0.000 C 
BRANCH  19  20
ATOM     20  C   UNL     1      -2.951  36.830  20.812  1.00  0.00     0.000 C 
BRANCH  20  21
ATOM     21  C   UNL     1      -2.662  37.312  19.376  1.00  0.00     0.000 C 
BRANCH  21  22
ATOM     22  C   UNL     1      -1.295  38.002  19.182  1.00  0.00    -0.000 C 
BRANCH  22  23
ATOM     23  C   UNL     1      -0.527  37.573  17.916  1.00  0.00    -0.000 C 
BRANCH  23  24
ATOM     24  C   UNL     1      -1.168  36.413  17.128  1.00  0.00    -0.000 C 
BRANCH  24  25
ATOM     25  C   UNL     1      -1.511  36.739  15.663  1.00  0.00    -0.000 C 
BRANCH  25  26
ATOM     26  C   UNL     1      -2.730  35.953  15.150  1.00  0.00    -0.000 C 
BRANCH  26  27
ATOM     27  C   UNL     1      -4.043  36.403  15.810  1.00  0.00    -0.000 C 
BRANCH  27  28
ATOM     28  C   UNL     1      -4.062  36.139  17.323  1.00  0.00    -0.000 C 
BRANCH  28  29
ATOM     29  C   UNL     1      -4.141  34.636  17.615  1.00  0.00    -0.003 C 
ATOM     30  C   UNL     1      -5.549  34.227  18.038  1.00  0.00     0.004 C 
ENDBRANCH  28  29
ENDBRANCH  27  28
ENDBRANCH  26  27
ENDBRANCH  25  26
ENDBRANCH  24  25
ENDBRANCH  23  24
ENDBRANCH  22  23
ENDBRANCH  21  22
ENDBRANCH  20  21
ENDBRANCH  19  20
ENDBRANCH  18  19
ENDBRANCH  17  18
ENDBRANCH   1  17
TORSDOF 26
ENDMDL
