MODEL 1
REMARK VINA RESULT:    -5.283      0.000      0.000
REMARK INTER + INTRA:          -5.438
REMARK INTER:                  -5.438
REMARK INTRA:                   0.000
REMARK UNBOUND:                 0.000
REMARK SMILES Nc1ncnc2nc[nH]c12
REMARK SMILES IDX 8 1 7 2 6 3 5 4 4 5 3 6 2 7 10 8 9 9 1 11
REMARK H PARENT 9 10 1 12 1 13
REMARK Flexibility Score: inf
ROOT
ATOM      1  C   UNL     1     -14.446   7.141   7.854  1.00  0.00     0.199 A 
ATOM      2  N   UNL     1     -13.302   7.876   7.815  1.00  0.00    -0.217 NA
ATOM      3  C   UNL     1     -12.870   7.802   9.085  1.00  0.00     0.182 A 
ATOM      4  N   UNL     1     -11.751   8.370   9.592  1.00  0.00    -0.215 NA
ATOM      5  C   UNL     1     -11.475   8.181  10.919  1.00  0.00     0.226 A 
ATOM      6  N   UNL     1     -12.315   7.435  11.705  1.00  0.00    -0.217 NA
ATOM      7  C   UNL     1     -13.445   6.860  11.194  1.00  0.00     0.152 A 
ATOM      8  C   UNL     1     -13.711   7.061   9.842  1.00  0.00     0.127 A 
ATOM      9  N   UNL     1     -14.724   6.629   9.081  1.00  0.00    -0.340 N 
ATOM     10  H   UNL     1     -15.539   6.038   9.353  1.00  0.00     0.168 HD
ENDROOT
BRANCH   7  11
ATOM     11  N   UNL     1     -14.305   6.086  12.032  1.00  0.00    -0.382 N 
ATOM     12  H   UNL     1     -13.964   5.670  12.926  1.00  0.00     0.158 HD
ATOM     13  H   UNL     1     -15.299   5.927  11.753  1.00  0.00     0.158 HD
ENDBRANCH   7  11
TORSDOF 1
ENDMDL
MODEL 2
REMARK VINA RESULT:    -4.937      1.244      3.783
REMARK INTER + INTRA:          -5.081
REMARK INTER:                  -5.081
REMARK INTRA:                   0.000
REMARK UNBOUND:                 0.000
REMARK SMILES Nc1ncnc2nc[nH]c12
REMARK SMILES IDX 8 1 7 2 6 3 5 4 4 5 3 6 2 7 10 8 9 9 1 11
REMARK H PARENT 9 10 1 12 1 13
REMARK Flexibility Score: inf
ROOT
ATOM      1  C   UNL     1     -11.908   7.134  12.156  1.00  0.00     0.199 A 
ATOM      2  N   UNL     1     -13.266   7.045  12.134  1.00  0.00    -0.217 NA
ATOM      3  C   UNL     1     -13.535   7.094  10.819  1.00  0.00     0.182 A 
ATOM      4  N   UNL     1     -14.759   7.041  10.242  1.00  0.00    -0.215 NA
ATOM      5  C   UNL     1     -14.833   7.105   8.877  1.00  0.00     0.226 A 
ATOM      6  N   UNL     1     -13.693   7.219   8.123  1.00  0.00    -0.217 NA
ATOM      7  C   UNL     1     -12.457   7.272   8.704  1.00  0.00     0.152 A 
ATOM      8  C   UNL     1     -12.399   7.205  10.094  1.00  0.00     0.127 A 
ATOM      9  N   UNL     1     -11.349   7.233  10.923  1.00  0.00    -0.340 N 
ATOM     10  H   UNL     1     -10.334   7.312  10.690  1.00  0.00     0.168 HD
ENDROOT
BRANCH   7  11
ATOM     11  N   UNL     1     -11.283   7.390   7.898  1.00  0.00    -0.382 N 
ATOM     12  H   UNL     1     -10.917   8.321   7.605  1.00  0.00     0.158 HD
ATOM     13  H   UNL     1     -10.773   6.532   7.591  1.00  0.00     0.158 HD
ENDBRANCH   7  11
TORSDOF 1
ENDMDL
MODEL 3
REMARK VINA RESULT:    -4.888      0.917      2.999
REMARK INTER + INTRA:          -5.031
REMARK INTER:                  -5.031
REMARK INTRA:                   0.000
REMARK UNBOUND:                 0.000
REMARK SMILES Nc1ncnc2nc[nH]c12
REMARK SMILES IDX 8 1 7 2 6 3 5 4 4 5 3 6 2 7 10 8 9 9 1 11
REMARK H PARENT 9 10 1 12 1 13
REMARK Flexibility Score: inf
ROOT
ATOM      1  C   UNL     1     -12.966   6.846  12.299  1.00  0.00     0.199 A 
ATOM      2  N   UNL     1     -11.829   7.216  11.650  1.00  0.00    -0.217 NA
ATOM      3  C   UNL     1     -12.254   7.357  10.384  1.00  0.00     0.182 A 
ATOM      4  N   UNL     1     -11.506   7.720   9.315  1.00  0.00    -0.215 NA
ATOM      5  C   UNL     1     -12.120   7.811   8.096  1.00  0.00     0.226 A 
ATOM      6  N   UNL     1     -13.459   7.539   7.971  1.00  0.00    -0.217 NA
ATOM      7  C   UNL     1     -14.216   7.173   9.048  1.00  0.00     0.152 A 
ATOM      8  C   UNL     1     -13.575   7.086  10.281  1.00  0.00     0.127 A 
ATOM      9  N   UNL     1     -14.051   6.758  11.489  1.00  0.00    -0.340 N 
ATOM     10  H   UNL     1     -15.025   6.494  11.757  1.00  0.00     0.168 HD
ENDROOT
BRANCH   7  11
ATOM     11  N   UNL     1     -15.609   6.896   8.893  1.00  0.00    -0.382 N 
ATOM     12  H   UNL     1     -15.959   6.282   8.126  1.00  0.00     0.158 HD
ATOM     13  H   UNL     1     -16.300   7.310   9.558  1.00  0.00     0.158 HD
ENDBRANCH   7  11
TORSDOF 1
ENDMDL
MODEL 4
REMARK VINA RESULT:    -4.659     13.341     14.563
REMARK INTER + INTRA:          -4.795
REMARK INTER:                  -4.795
REMARK INTRA:                   0.000
REMARK UNBOUND:                 0.000
REMARK SMILES Nc1ncnc2nc[nH]c12
REMARK SMILES IDX 8 1 7 2 6 3 5 4 4 5 3 6 2 7 10 8 9 9 1 11
REMARK H PARENT 9 10 1 12 1 13
REMARK Flexibility Score: inf
ROOT
ATOM      1  C   UNL     1     -24.905   2.020  12.364  1.00  0.00     0.199 A 
ATOM      2  N   UNL     1     -24.770   0.721  11.979  1.00  0.00    -0.217 NA
ATOM      3  C   UNL     1     -25.495   0.680  10.849  1.00  0.00     0.182 A 
ATOM      4  N   UNL     1     -25.692  -0.397  10.053  1.00  0.00    -0.215 NA
ATOM      5  C   UNL     1     -26.466  -0.243   8.936  1.00  0.00     0.226 A 
ATOM      6  N   UNL     1     -27.022   0.975   8.638  1.00  0.00    -0.217 NA
ATOM      7  C   UNL     1     -26.824   2.064   9.439  1.00  0.00     0.152 A 
ATOM      8  C   UNL     1     -26.033   1.890  10.572  1.00  0.00     0.127 A 
ATOM      9  N   UNL     1     -25.672   2.760  11.524  1.00  0.00    -0.340 N 
ATOM     10  H   UNL     1     -25.915   3.771  11.610  1.00  0.00     0.168 HD
ENDROOT
BRANCH   7  11
ATOM     11  N   UNL     1     -27.413   3.323   9.109  1.00  0.00    -0.382 N 
ATOM     12  H   UNL     1     -27.136   4.199   9.603  1.00  0.00     0.158 HD
ATOM     13  H   UNL     1     -28.137   3.379   8.358  1.00  0.00     0.158 HD
ENDBRANCH   7  11
TORSDOF 1
ENDMDL
MODEL 5
REMARK VINA RESULT:    -4.279     12.351     13.229
REMARK INTER + INTRA:          -4.404
REMARK INTER:                  -4.404
REMARK INTRA:                   0.000
REMARK UNBOUND:                 0.000
REMARK SMILES Nc1ncnc2nc[nH]c12
REMARK SMILES IDX 8 1 7 2 6 3 5 4 4 5 3 6 2 7 10 8 9 9 1 11
REMARK H PARENT 9 10 1 12 1 13
REMARK Flexibility Score: inf
ROOT
ATOM      1  C   UNL     1     -21.125  -1.261  13.269  1.00  0.00     0.199 A 
ATOM      2  N   UNL     1     -21.939  -0.434  13.980  1.00  0.00    -0.217 NA
ATOM      3  C   UNL     1     -22.923  -0.177  13.102  1.00  0.00     0.182 A 
ATOM      4  N   UNL     1     -24.007   0.608  13.310  1.00  0.00    -0.215 NA
ATOM      5  C   UNL     1     -24.907   0.750  12.289  1.00  0.00     0.226 A 
ATOM      6  N   UNL     1     -24.707   0.111  11.092  1.00  0.00    -0.217 NA
ATOM      7  C   UNL     1     -23.614  -0.682  10.880  1.00  0.00     0.152 A 
ATOM      8  C   UNL     1     -22.708  -0.816  11.930  1.00  0.00     0.127 A 
ATOM      9  N   UNL     1     -21.568  -1.513  12.011  1.00  0.00    -0.340 N 
ATOM     10  H   UNL     1     -21.117  -2.114  11.287  1.00  0.00     0.168 HD
ENDROOT
BRANCH   7  11
ATOM     11  N   UNL     1     -23.427  -1.338   9.625  1.00  0.00    -0.382 N 
ATOM     12  H   UNL     1     -22.474  -1.519   9.243  1.00  0.00     0.158 HD
ATOM     13  H   UNL     1     -24.256  -1.647   9.070  1.00  0.00     0.158 HD
ENDBRANCH   7  11
TORSDOF 1
ENDMDL
MODEL 6
REMARK VINA RESULT:    -4.261     12.996     13.413
REMARK INTER + INTRA:          -4.385
REMARK INTER:                  -4.385
REMARK INTRA:                   0.000
REMARK UNBOUND:                 0.000
REMARK SMILES Nc1ncnc2nc[nH]c12
REMARK SMILES IDX 8 1 7 2 6 3 5 4 4 5 3 6 2 7 10 8 9 9 1 11
REMARK H PARENT 9 10 1 12 1 13
REMARK Flexibility Score: inf
ROOT
ATOM      1  C   UNL     1     -25.922   1.775  11.343  1.00  0.00     0.199 A 
ATOM      2  N   UNL     1     -25.442   1.799  12.616  1.00  0.00    -0.217 NA
ATOM      3  C   UNL     1     -24.495   0.848  12.583  1.00  0.00     0.182 A 
ATOM      4  N   UNL     1     -23.699   0.463  13.609  1.00  0.00    -0.215 NA
ATOM      5  C   UNL     1     -22.786  -0.531  13.381  1.00  0.00     0.226 A 
ATOM      6  N   UNL     1     -22.688  -1.114  12.143  1.00  0.00    -0.217 NA
ATOM      7  C   UNL     1     -23.489  -0.727  11.107  1.00  0.00     0.152 A 
ATOM      8  C   UNL     1     -24.413   0.286  11.355  1.00  0.00     0.127 A 
ATOM      9  N   UNL     1     -25.313   0.860  10.548  1.00  0.00    -0.340 N 
ATOM     10  H   UNL     1     -25.509   0.661   9.542  1.00  0.00     0.168 HD
ENDROOT
BRANCH   7  11
ATOM     11  N   UNL     1     -23.369  -1.349   9.827  1.00  0.00    -0.382 N 
ATOM     12  H   UNL     1     -23.326  -2.386   9.728  1.00  0.00     0.158 HD
ATOM     13  H   UNL     1     -23.322  -0.762   8.964  1.00  0.00     0.158 HD
ENDBRANCH   7  11
TORSDOF 1
ENDMDL
MODEL 7
REMARK VINA RESULT:    -4.197     13.348     14.035
REMARK INTER + INTRA:          -4.320
REMARK INTER:                  -4.320
REMARK INTRA:                   0.000
REMARK UNBOUND:                 0.000
REMARK SMILES Nc1ncnc2nc[nH]c12
REMARK SMILES IDX 8 1 7 2 6 3 5 4 4 5 3 6 2 7 10 8 9 9 1 11
REMARK H PARENT 9 10 1 12 1 13
REMARK Flexibility Score: inf
ROOT
ATOM      1  C   UNL     1     -25.319  -1.131   9.524  1.00  0.00     0.199 A 
ATOM      2  N   UNL     1     -24.648  -1.192  10.707  1.00  0.00    -0.217 NA
ATOM      3  C   UNL     1     -24.873   0.026  11.227  1.00  0.00     0.182 A 
ATOM      4  N   UNL     1     -24.421   0.494  12.414  1.00  0.00    -0.215 NA
ATOM      5  C   UNL     1     -24.756   1.770  12.776  1.00  0.00     0.226 A 
ATOM      6  N   UNL     1     -25.530   2.546  11.951  1.00  0.00    -0.217 NA
ATOM      7  C   UNL     1     -25.988   2.076  10.752  1.00  0.00     0.152 A 
ATOM      8  C   UNL     1     -25.638   0.775  10.399  1.00  0.00     0.127 A 
ATOM      9  N   UNL     1     -25.934   0.059   9.307  1.00  0.00    -0.340 N 
ATOM     10  H   UNL     1     -26.504   0.339   8.478  1.00  0.00     0.168 HD
ENDROOT
BRANCH   7  11
ATOM     11  N   UNL     1     -26.792   2.902   9.910  1.00  0.00    -0.382 N 
ATOM     12  H   UNL     1     -27.319   3.717  10.291  1.00  0.00     0.158 HD
ATOM     13  H   UNL     1     -26.862   2.694   8.888  1.00  0.00     0.158 HD
ENDBRANCH   7  11
TORSDOF 1
ENDMDL
MODEL 8
REMARK VINA RESULT:    -4.136     13.100     13.935
REMARK INTER + INTRA:          -4.257
REMARK INTER:                  -4.257
REMARK INTRA:                   0.000
REMARK UNBOUND:                 0.000
REMARK SMILES Nc1ncnc2nc[nH]c12
REMARK SMILES IDX 8 1 7 2 6 3 5 4 4 5 3 6 2 7 10 8 9 9 1 11
REMARK H PARENT 9 10 1 12 1 13
REMARK Flexibility Score: inf
ROOT
ATOM      1  C   UNL     1     -24.963   2.197  12.684  1.00  0.00     0.199 A 
ATOM      2  N   UNL     1     -25.850   2.137  11.653  1.00  0.00    -0.217 NA
ATOM      3  C   UNL     1     -25.497   0.996  11.039  1.00  0.00     0.182 A 
ATOM      4  N   UNL     1     -26.072   0.460   9.936  1.00  0.00    -0.215 NA
ATOM      5  C   UNL     1     -25.571  -0.718   9.453  1.00  0.00     0.226 A 
ATOM      6  N   UNL     1     -24.516  -1.332  10.077  1.00  0.00    -0.217 NA
ATOM      7  C   UNL     1     -23.934  -0.794  11.191  1.00  0.00     0.152 A 
ATOM      8  C   UNL     1     -24.456   0.405  11.669  1.00  0.00     0.127 A 
ATOM      9  N   UNL     1     -24.098   1.153  12.720  1.00  0.00    -0.340 N 
ATOM     10  H   UNL     1     -23.335   0.983  13.413  1.00  0.00     0.168 HD
ENDROOT
BRANCH   7  11
ATOM     11  N   UNL     1     -22.836  -1.452  11.824  1.00  0.00    -0.382 N 
ATOM     12  H   UNL     1     -22.917  -2.432  12.173  1.00  0.00     0.158 HD
ATOM     13  H   UNL     1     -21.928  -0.951  11.945  1.00  0.00     0.158 HD
ENDBRANCH   7  11
TORSDOF 1
ENDMDL
MODEL 9
REMARK VINA RESULT:    -4.086     13.244     14.080
REMARK INTER + INTRA:          -4.206
REMARK INTER:                  -4.206
REMARK INTRA:                   0.000
REMARK UNBOUND:                 0.000
REMARK SMILES Nc1ncnc2nc[nH]c12
REMARK SMILES IDX 8 1 7 2 6 3 5 4 4 5 3 6 2 7 10 8 9 9 1 11
REMARK H PARENT 9 10 1 12 1 13
REMARK Flexibility Score: inf
ROOT
ATOM      1  C   UNL     1     -26.779   2.268   9.595  1.00  0.00     0.199 A 
ATOM      2  N   UNL     1     -26.656   0.947   9.291  1.00  0.00    -0.217 NA
ATOM      3  C   UNL     1     -25.921   0.485  10.317  1.00  0.00     0.182 A 
ATOM      4  N   UNL     1     -25.508  -0.791  10.505  1.00  0.00    -0.215 NA
ATOM      5  C   UNL     1     -24.762  -1.071  11.617  1.00  0.00     0.226 A 
ATOM      6  N   UNL     1     -24.447  -0.079  12.511  1.00  0.00    -0.217 NA
ATOM      7  C   UNL     1     -24.863   1.209  12.323  1.00  0.00     0.152 A 
ATOM      8  C   UNL     1     -25.622   1.477  11.186  1.00  0.00     0.127 A 
ATOM      9  N   UNL     1     -26.157   2.623  10.747  1.00  0.00    -0.340 N 
ATOM     10  H   UNL     1     -26.115   3.572  11.181  1.00  0.00     0.168 HD
ENDROOT
BRANCH   7  11
ATOM     11  N   UNL     1     -24.523   2.225  13.267  1.00  0.00    -0.382 N 
ATOM     12  H   UNL     1     -25.237   2.634  13.907  1.00  0.00     0.158 HD
ATOM     13  H   UNL     1     -23.540   2.574  13.326  1.00  0.00     0.158 HD
ENDBRANCH   7  11
TORSDOF 1
ENDMDL
