MODEL 1
REMARK VINA RESULT:    92.746      0.000      0.000
REMARK INTER + INTRA:         153.760
REMARK INTER:                 146.965
REMARK INTRA:                   6.794
REMARK UNBOUND:                 6.794
REMARK SMILES C[C@H]1O[C@@H](O[C@H]2[C@H](Oc3cc(O)c4c(c3)O[C@H](c3ccc(O)cc3)CC4=O)O[C@@H](CO)[C@H](O)[C@H]2O)[C@@H](O)[C@@H](O)[C@H]1O
REMARK SMILES IDX 6 1 34 2 32 3 29 4 28 5 7 6 5 7 4 8 1 9 2 10 40 11 3 12
REMARK SMILES IDX 38 13 36 14 41 15 39 17 37 19 35 21 8 23 9 24 10 25 15 26
REMARK SMILES IDX 11 27 14 28 13 29 16 30 26 31 17 32 27 33 25 34 12 35 18 37
REMARK SMILES IDX 19 38 24 39 20 40 23 41 21 42 22 43 33 45 30 47 31 48
REMARK H PARENT 41 16 39 18 37 20 35 22 12 36 22 44 33 46 31 49
REMARK Flexibility Score: inf
ROOT
ATOM      1  C   UNL     1     -32.542  28.834 -18.610  1.00  0.00     0.221 C 
ATOM      2  C   UNL     1     -31.657  29.993 -19.155  1.00  0.00     0.181 C 
ATOM      3  C   UNL     1     -31.693  31.245 -18.250  1.00  0.00     0.177 C 
ATOM      4  C   UNL     1     -31.901  30.867 -16.765  1.00  0.00     0.179 C 
ATOM      5  O   UNL     1     -33.055  30.100 -16.487  1.00  0.00    -0.332 OA
ATOM      6  C   UNL     1     -33.568  29.329 -17.577  1.00  0.00     0.339 C 
ENDROOT
BRANCH   1   7
ATOM      7  O   UNL     1     -31.766  27.818 -18.004  1.00  0.00    -0.337 OA
BRANCH   7   8
ATOM      8  C   UNL     1     -31.023  28.257 -16.877  1.00  0.00     0.282 C 
ATOM      9  C   UNL     1     -29.761  25.465 -17.163  1.00  0.00     0.041 C 
ATOM     10  C   UNL     1     -29.294  26.651 -16.313  1.00  0.00     0.150 C 
ATOM     11  C   UNL     1     -29.679  26.621 -14.797  1.00  0.00     0.174 C 
ATOM     12  O   UNL     1     -29.639  27.889 -16.943  1.00  0.00    -0.344 OA
ATOM     13  C   UNL     1     -30.764  27.641 -14.423  1.00  0.00     0.179 C 
ATOM     14  C   UNL     1     -31.767  27.819 -15.584  1.00  0.00     0.202 C 
BRANCH  11  15
ATOM     15  O   UNL     1     -30.013  25.330 -14.359  1.00  0.00    -0.388 OA
ATOM     16  H   UNL     1     -30.878  25.392 -13.890  1.00  0.00     0.211 HD
ENDBRANCH  11  15
BRANCH  13  17
ATOM     17  O   UNL     1     -31.440  27.235 -13.245  1.00  0.00    -0.387 OA
ATOM     18  H   UNL     1     -32.211  27.835 -13.145  1.00  0.00     0.211 HD
ENDBRANCH  13  17
BRANCH  14  19
ATOM     19  O   UNL     1     -32.481  26.625 -15.803  1.00  0.00    -0.385 OA
ATOM     20  H   UNL     1     -32.686  26.577 -16.783  1.00  0.00     0.211 HD
ENDBRANCH  14  19
ENDBRANCH   7   8
ENDBRANCH   1   7
BRANCH   2  21
ATOM     21  O   UNL     1     -30.332  29.557 -19.307  1.00  0.00    -0.387 OA
ATOM     22  H   UNL     1     -30.361  28.634 -19.654  1.00  0.00     0.211 HD
ENDBRANCH   2  21
BRANCH   6  23
ATOM     23  O   UNL     1     -34.621  30.042 -18.264  1.00  0.00    -0.462 OA
BRANCH  23  24
ATOM     24  C   UNL     1     -35.518  29.435 -19.163  1.00  0.00     0.130 A 
ATOM     25  C   UNL     1     -35.192  28.163 -19.700  1.00  0.00     0.093 A 
ATOM     26  C   UNL     1     -36.748  30.029 -19.506  1.00  0.00     0.094 A 
ATOM     27  C   UNL     1     -36.104  27.467 -20.496  1.00  0.00     0.133 A 
ATOM     28  C   UNL     1     -37.632  29.365 -20.354  1.00  0.00     0.138 A 
ATOM     29  C   UNL     1     -37.337  28.068 -20.839  1.00  0.00     0.102 A 
ATOM     30  O   UNL     1     -38.824  29.982 -20.717  1.00  0.00    -0.484 OA
ATOM     31  C   UNL     1     -38.388  27.385 -21.624  1.00  0.00     0.174 C 
ATOM     32  C   UNL     1     -39.676  29.463 -21.744  1.00  0.00     0.211 C 
ATOM     33  O   UNL     1     -38.144  26.333 -22.270  1.00  0.00    -0.294 OA
ATOM     34  C   UNL     1     -39.766  27.937 -21.610  1.00  0.00     0.131 C 
BRANCH  27  35
ATOM     35  O   UNL     1     -35.793  26.169 -20.906  1.00  0.00    -0.507 OA
ATOM     36  H   UNL     1     -35.010  25.983 -21.539  1.00  0.00     0.293 HD
ENDBRANCH  27  35
BRANCH  32  37
ATOM     37  C   UNL     1     -41.038  30.132 -21.692  1.00  0.00    -0.007 A 
ATOM     38  C   UNL     1     -41.869  30.045 -22.828  1.00  0.00     0.011 A 
ATOM     39  C   UNL     1     -41.443  30.933 -20.606  1.00  0.00     0.011 A 
ATOM     40  C   UNL     1     -43.102  30.698 -22.871  1.00  0.00     0.046 A 
ATOM     41  C   UNL     1     -42.647  31.619 -20.675  1.00  0.00     0.046 A 
ATOM     42  C   UNL     1     -43.498  31.492 -21.780  1.00  0.00     0.115 A 
BRANCH  42  43
ATOM     43  O   UNL     1     -44.692  32.208 -21.850  1.00  0.00    -0.508 OA
ATOM     44  H   UNL     1     -44.694  33.187 -21.598  1.00  0.00     0.293 HD
ENDBRANCH  42  43
ENDBRANCH  32  37
ENDBRANCH  23  24
ENDBRANCH   6  23
BRANCH   3  45
ATOM     45  O   UNL     1     -32.652  32.167 -18.733  1.00  0.00    -0.387 OA
ATOM     46  H   UNL     1     -33.377  31.682 -19.193  1.00  0.00     0.211 HD
ENDBRANCH   3  45
BRANCH   4  47
ATOM     47  C   UNL     1     -30.688  30.183 -16.142  1.00  0.00     0.191 C 
BRANCH  47  48
ATOM     48  O   UNL     1     -29.939  31.078 -15.366  1.00  0.00    -0.394 OA
ATOM     49  H   UNL     1     -28.983  30.915 -15.578  1.00  0.00     0.210 HD
ENDBRANCH  47  48
ENDBRANCH   4  47
TORSDOF 14
ENDMDL
MODEL 2
REMARK VINA RESULT:    93.700      2.257      3.606
REMARK INTER + INTRA:         155.271
REMARK INTER:                 149.496
REMARK INTRA:                   5.775
REMARK UNBOUND:                 6.794
REMARK SMILES C[C@H]1O[C@@H](O[C@H]2[C@H](Oc3cc(O)c4c(c3)O[C@H](c3ccc(O)cc3)CC4=O)O[C@@H](CO)[C@H](O)[C@H]2O)[C@@H](O)[C@@H](O)[C@H]1O
REMARK SMILES IDX 6 1 34 2 32 3 29 4 28 5 7 6 5 7 4 8 1 9 2 10 40 11 3 12
REMARK SMILES IDX 38 13 36 14 41 15 39 17 37 19 35 21 8 23 9 24 10 25 15 26
REMARK SMILES IDX 11 27 14 28 13 29 16 30 26 31 17 32 27 33 25 34 12 35 18 37
REMARK SMILES IDX 19 38 24 39 20 40 23 41 21 42 22 43 33 45 30 47 31 48
REMARK H PARENT 41 16 39 18 37 20 35 22 12 36 22 44 33 46 31 49
REMARK Flexibility Score: inf
ROOT
ATOM      1  C   UNL     1     -30.792  28.840 -17.694  1.00  0.00     0.221 C 
ATOM      2  C   UNL     1     -29.944  29.896 -16.927  1.00  0.00     0.181 C 
ATOM      3  C   UNL     1     -30.745  30.605 -15.812  1.00  0.00     0.177 C 
ATOM      4  C   UNL     1     -31.823  29.676 -15.207  1.00  0.00     0.179 C 
ATOM      5  O   UNL     1     -32.750  29.137 -16.128  1.00  0.00    -0.332 OA
ATOM      6  C   UNL     1     -32.301  29.048 -17.484  1.00  0.00     0.339 C 
ENDROOT
BRANCH   1   7
ATOM      7  O   UNL     1     -30.473  27.519 -17.299  1.00  0.00    -0.337 OA
BRANCH   7   8
ATOM      8  C   UNL     1     -29.870  27.433 -16.017  1.00  0.00     0.282 C 
ATOM      9  C   UNL     1     -28.455  25.031 -17.321  1.00  0.00     0.041 C 
ATOM     10  C   UNL     1     -28.133  25.739 -16.001  1.00  0.00     0.150 C 
ATOM     11  C   UNL     1     -28.668  25.063 -14.695  1.00  0.00     0.174 C 
ATOM     12  O   UNL     1     -28.471  27.128 -16.078  1.00  0.00    -0.344 OA
ATOM     13  C   UNL     1     -29.832  25.825 -14.047  1.00  0.00     0.179 C 
ATOM     14  C   UNL     1     -30.720  26.484 -15.126  1.00  0.00     0.202 C 
BRANCH  11  15
ATOM     15  O   UNL     1     -28.983  23.708 -14.888  1.00  0.00    -0.388 OA
ATOM     16  H   UNL     1     -28.942  23.533 -15.858  1.00  0.00     0.211 HD
ENDBRANCH  11  15
BRANCH  13  17
ATOM     17  O   UNL     1     -30.604  24.954 -13.237  1.00  0.00    -0.387 OA
ATOM     18  H   UNL     1     -30.774  25.433 -12.397  1.00  0.00     0.211 HD
ENDBRANCH  13  17
BRANCH  14  19
ATOM     19  O   UNL     1     -31.351  25.499 -15.910  1.00  0.00    -0.385 OA
ATOM     20  H   UNL     1     -32.121  25.144 -15.377  1.00  0.00     0.211 HD
ENDBRANCH  14  19
ENDBRANCH   7   8
ENDBRANCH   1   7
BRANCH   2  21
ATOM     21  O   UNL     1     -28.803  29.291 -16.378  1.00  0.00    -0.387 OA
ATOM     22  H   UNL     1     -28.154  30.007 -16.179  1.00  0.00     0.211 HD
ENDBRANCH   2  21
BRANCH   6  23
ATOM     23  O   UNL     1     -32.727  30.200 -18.246  1.00  0.00    -0.462 OA
BRANCH  23  24
ATOM     24  C   UNL     1     -34.071  30.467 -18.571  1.00  0.00     0.130 A 
ATOM     25  C   UNL     1     -34.603  31.749 -18.278  1.00  0.00     0.093 A 
ATOM     26  C   UNL     1     -34.885  29.519 -19.220  1.00  0.00     0.094 A 
ATOM     27  C   UNL     1     -35.888  32.102 -18.693  1.00  0.00     0.133 A 
ATOM     28  C   UNL     1     -36.192  29.847 -19.577  1.00  0.00     0.138 A 
ATOM     29  C   UNL     1     -36.703  31.146 -19.344  1.00  0.00     0.102 A 
ATOM     30  O   UNL     1     -36.997  28.887 -20.180  1.00  0.00    -0.484 OA
ATOM     31  C   UNL     1     -38.051  31.447 -19.872  1.00  0.00     0.174 C 
ATOM     32  C   UNL     1     -38.402  29.077 -20.376  1.00  0.00     0.211 C 
ATOM     33  O   UNL     1     -38.670  32.489 -19.535  1.00  0.00    -0.294 OA
ATOM     34  C   UNL     1     -38.662  30.512 -20.852  1.00  0.00     0.131 C 
BRANCH  27  35
ATOM     35  O   UNL     1     -36.330  33.411 -18.491  1.00  0.00    -0.507 OA
ATOM     36  H   UNL     1     -36.916  33.658 -17.689  1.00  0.00     0.293 HD
ENDBRANCH  27  35
BRANCH  32  37
ATOM     37  C   UNL     1     -38.947  28.038 -21.341  1.00  0.00    -0.007 A 
ATOM     38  C   UNL     1     -40.311  28.106 -21.693  1.00  0.00     0.011 A 
ATOM     39  C   UNL     1     -38.175  26.950 -21.791  1.00  0.00     0.011 A 
ATOM     40  C   UNL     1     -40.891  27.140 -22.518  1.00  0.00     0.046 A 
ATOM     41  C   UNL     1     -38.770  25.967 -22.569  1.00  0.00     0.046 A 
ATOM     42  C   UNL     1     -40.110  26.058 -22.965  1.00  0.00     0.115 A 
BRANCH  42  43
ATOM     43  O   UNL     1     -40.704  25.052 -23.723  1.00  0.00    -0.508 OA
ATOM     44  H   UNL     1     -41.711  24.961 -23.719  1.00  0.00     0.293 HD
ENDBRANCH  42  43
ENDBRANCH  32  37
ENDBRANCH  23  24
ENDBRANCH   6  23
BRANCH   3  45
ATOM     45  O   UNL     1     -31.267  31.830 -16.291  1.00  0.00    -0.387 OA
ATOM     46  H   UNL     1     -32.195  31.699 -16.597  1.00  0.00     0.211 HD
ENDBRANCH   3  45
BRANCH   4  47
ATOM     47  C   UNL     1     -31.240  28.543 -14.369  1.00  0.00     0.191 C 
BRANCH  47  48
ATOM     48  O   UNL     1     -31.715  28.584 -13.051  1.00  0.00    -0.394 OA
ATOM     49  H   UNL     1     -32.508  27.989 -13.010  1.00  0.00     0.210 HD
ENDBRANCH  47  48
ENDBRANCH   4  47
TORSDOF 14
ENDMDL
