MODEL 1
REMARK VINA RESULT:    -4.832      0.000      0.000
REMARK INTER + INTRA:         -10.281
REMARK INTER:                  -9.070
REMARK INTRA:                  -1.211
REMARK UNBOUND:                -1.211
REMARK SMILES CCCCCCCCC=CCCCCCCCC(=O)[O-]
REMARK SMILES IDX 10 1 9 2 11 3 12 4 13 5 14 6 15 7 16 8 17 9 18 10 19 11
REMARK SMILES IDX 20 12 8 13 7 14 6 15 5 16 4 17 3 18 2 19 1 20
REMARK H PARENT
REMARK Flexibility Score: inf
ROOT
ATOM      1  C   UNL     1      -2.154  13.427 -15.761  1.00  0.00    -0.031 C 
ATOM      2  C   UNL     1      -2.843  13.487 -16.909  1.00  0.00    -0.031 C 
ENDROOT
BRANCH   1   3
ATOM      3  C   UNL     1      -2.833  13.148 -14.447  1.00  0.00     0.027 C 
BRANCH   3   4
ATOM      4  C   UNL     1      -4.235  12.560 -14.649  1.00  0.00     0.004 C 
BRANCH   4   5
ATOM      5  C   UNL     1      -4.198  11.044 -14.909  1.00  0.00     0.000 C 
BRANCH   5   6
ATOM      6  C   UNL     1      -3.107  10.330 -14.095  1.00  0.00     0.000 C 
BRANCH   6   7
ATOM      7  C   UNL     1      -3.660   9.164 -13.263  1.00  0.00     0.000 C 
BRANCH   7   8
ATOM      8  C   UNL     1      -5.032   8.717 -13.791  1.00  0.00     0.006 C 
BRANCH   8   9
ATOM      9  C   UNL     1      -5.285   7.222 -13.559  1.00  0.00     0.053 C 
BRANCH   9  10
ATOM     10  C   UNL     1      -6.651   6.810 -14.017  1.00  0.00     0.041 C 
ATOM     11  O   UNL     1      -6.893   5.602 -14.280  1.00  0.00    -0.550 OA
ATOM     12  O   UNL     1      -7.646   7.764 -14.184  1.00  0.00    -0.550 OA
ENDBRANCH   9  10
ENDBRANCH   8   9
ENDBRANCH   7   8
ENDBRANCH   6   7
ENDBRANCH   5   6
ENDBRANCH   4   5
ENDBRANCH   3   4
ENDBRANCH   1   3
BRANCH   2  13
ATOM     13  C   UNL     1      -2.170  13.810 -18.217  1.00  0.00     0.027 C 
BRANCH  13  14
ATOM     14  C   UNL     1      -2.444  12.751 -19.300  1.00  0.00     0.004 C 
BRANCH  14  15
ATOM     15  C   UNL     1      -2.542  11.312 -18.762  1.00  0.00     0.000 C 
BRANCH  15  16
ATOM     16  C   UNL     1      -3.610  10.478 -19.490  1.00  0.00     0.000 C 
BRANCH  16  17
ATOM     17  C   UNL     1      -4.895  11.275 -19.765  1.00  0.00    -0.000 C 
BRANCH  17  18
ATOM     18  C   UNL     1      -5.755  10.647 -20.871  1.00  0.00    -0.000 C 
BRANCH  18  19
ATOM     19  C   UNL     1      -7.247  10.859 -20.592  1.00  0.00    -0.003 C 
ATOM     20  C   UNL     1      -8.059   9.624 -20.968  1.00  0.00     0.004 C 
ENDBRANCH  18  19
ENDBRANCH  17  18
ENDBRANCH  16  17
ENDBRANCH  15  16
ENDBRANCH  14  15
ENDBRANCH  13  14
ENDBRANCH   2  13
TORSDOF 15
ENDMDL
MODEL 2
REMARK VINA RESULT:    -4.801      2.349      6.128
REMARK INTER + INTRA:         -10.223
REMARK INTER:                  -9.032
REMARK INTRA:                  -1.191
REMARK UNBOUND:                -1.211
REMARK SMILES CCCCCCCCC=CCCCCCCCC(=O)[O-]
REMARK SMILES IDX 10 1 9 2 11 3 12 4 13 5 14 6 15 7 16 8 17 9 18 10 19 11
REMARK SMILES IDX 20 12 8 13 7 14 6 15 5 16 4 17 3 18 2 19 1 20
REMARK H PARENT
REMARK Flexibility Score: inf
ROOT
ATOM      1  C   UNL     1      -3.044  13.099 -16.767  1.00  0.00    -0.031 C 
ATOM      2  C   UNL     1      -2.465  13.173 -15.560  1.00  0.00    -0.031 C 
ENDROOT
BRANCH   1   3
ATOM      3  C   UNL     1      -2.375  13.649 -17.998  1.00  0.00     0.027 C 
BRANCH   3   4
ATOM      4  C   UNL     1      -2.455  12.665 -19.172  1.00  0.00     0.004 C 
BRANCH   4   5
ATOM      5  C   UNL     1      -2.691  11.219 -18.702  1.00  0.00     0.000 C 
BRANCH   5   6
ATOM      6  C   UNL     1      -3.802  10.513 -19.496  1.00  0.00     0.000 C 
BRANCH   6   7
ATOM      7  C   UNL     1      -4.884  11.485 -19.990  1.00  0.00     0.000 C 
BRANCH   7   8
ATOM      8  C   UNL     1      -5.921  10.755 -20.858  1.00  0.00     0.006 C 
BRANCH   8   9
ATOM      9  C   UNL     1      -7.316  10.752 -20.218  1.00  0.00     0.053 C 
BRANCH   9  10
ATOM     10  C   UNL     1      -8.222   9.748 -20.862  1.00  0.00     0.041 C 
ATOM     11  O   UNL     1      -8.667   9.950 -22.024  1.00  0.00    -0.550 OA
ATOM     12  O   UNL     1      -8.601   8.606 -20.168  1.00  0.00    -0.550 OA
ENDBRANCH   9  10
ENDBRANCH   8   9
ENDBRANCH   7   8
ENDBRANCH   6   7
ENDBRANCH   5   6
ENDBRANCH   4   5
ENDBRANCH   3   4
ENDBRANCH   1   3
BRANCH   2  13
ATOM     13  C   UNL     1      -3.154  12.663 -14.322  1.00  0.00     0.027 C 
BRANCH  13  14
ATOM     14  C   UNL     1      -4.442  11.882 -14.641  1.00  0.00     0.004 C 
BRANCH  14  15
ATOM     15  C   UNL     1      -4.216  10.385 -14.921  1.00  0.00     0.000 C 
BRANCH  15  16
ATOM     16  C   UNL     1      -3.798   9.602 -13.665  1.00  0.00     0.000 C 
BRANCH  16  17
ATOM     17  C   UNL     1      -4.529   8.256 -13.539  1.00  0.00    -0.000 C 
BRANCH  17  18
ATOM     18  C   UNL     1      -5.935   8.286 -14.157  1.00  0.00    -0.000 C 
BRANCH  18  19
ATOM     19  C   UNL     1      -6.819   7.185 -13.561  1.00  0.00    -0.003 C 
ATOM     20  C   UNL     1      -6.685   5.885 -14.347  1.00  0.00     0.004 C 
ENDBRANCH  18  19
ENDBRANCH  17  18
ENDBRANCH  16  17
ENDBRANCH  15  16
ENDBRANCH  14  15
ENDBRANCH  13  14
ENDBRANCH   2  13
TORSDOF 15
ENDMDL
MODEL 3
REMARK VINA RESULT:    -4.570      5.571      8.668
REMARK INTER + INTRA:          -9.790
REMARK INTER:                  -8.368
REMARK INTRA:                  -1.421
REMARK UNBOUND:                -1.211
REMARK SMILES CCCCCCCCC=CCCCCCCCC(=O)[O-]
REMARK SMILES IDX 10 1 9 2 11 3 12 4 13 5 14 6 15 7 16 8 17 9 18 10 19 11
REMARK SMILES IDX 20 12 8 13 7 14 6 15 5 16 4 17 3 18 2 19 1 20
REMARK H PARENT
REMARK Flexibility Score: inf
ROOT
ATOM      1  C   UNL     1      -1.622  14.144 -17.138  1.00  0.00    -0.031 C 
ATOM      2  C   UNL     1      -2.804  13.746 -16.645  1.00  0.00    -0.031 C 
ENDROOT
BRANCH   1   3
ATOM      3  C   UNL     1      -1.512  14.806 -18.485  1.00  0.00     0.027 C 
BRANCH   3   4
ATOM      4  C   UNL     1      -0.587  16.028 -18.440  1.00  0.00     0.004 C 
BRANCH   4   5
ATOM      5  C   UNL     1       0.889  15.648 -18.655  1.00  0.00     0.000 C 
BRANCH   5   6
ATOM      6  C   UNL     1       1.751  16.844 -19.091  1.00  0.00     0.000 C 
BRANCH   6   7
ATOM      7  C   UNL     1       1.125  17.631 -20.252  1.00  0.00     0.000 C 
BRANCH   7   8
ATOM      8  C   UNL     1       1.242  19.145 -20.013  1.00  0.00     0.006 C 
BRANCH   8   9
ATOM      9  C   UNL     1      -0.124  19.803 -19.779  1.00  0.00     0.053 C 
BRANCH   9  10
ATOM     10  C   UNL     1      -0.528  19.750 -18.338  1.00  0.00     0.041 C 
ATOM     11  O   UNL     1       0.319  19.977 -17.433  1.00  0.00    -0.550 OA
ATOM     12  O   UNL     1      -1.832  19.416 -17.992  1.00  0.00    -0.550 OA
ENDBRANCH   9  10
ENDBRANCH   8   9
ENDBRANCH   7   8
ENDBRANCH   6   7
ENDBRANCH   5   6
ENDBRANCH   4   5
ENDBRANCH   3   4
ENDBRANCH   1   3
BRANCH   2  13
ATOM     13  C   UNL     1      -2.909  13.044 -15.317  1.00  0.00     0.027 C 
BRANCH  13  14
ATOM     14  C   UNL     1      -3.691  11.722 -15.407  1.00  0.00     0.004 C 
BRANCH  14  15
ATOM     15  C   UNL     1      -4.104  11.332 -16.838  1.00  0.00     0.000 C 
BRANCH  15  16
ATOM     16  C   UNL     1      -3.142  10.318 -17.479  1.00  0.00     0.000 C 
BRANCH  16  17
ATOM     17  C   UNL     1      -3.114  10.419 -19.013  1.00  0.00    -0.000 C 
BRANCH  17  18
ATOM     18  C   UNL     1      -4.148  11.414 -19.558  1.00  0.00    -0.000 C 
BRANCH  18  19
ATOM     19  C   UNL     1      -4.930  10.806 -20.728  1.00  0.00    -0.003 C 
ATOM     20  C   UNL     1      -6.435  10.935 -20.513  1.00  0.00     0.004 C 
ENDBRANCH  18  19
ENDBRANCH  17  18
ENDBRANCH  16  17
ENDBRANCH  15  16
ENDBRANCH  14  15
ENDBRANCH  13  14
ENDBRANCH   2  13
TORSDOF 15
ENDMDL
MODEL 4
REMARK VINA RESULT:    -4.385      3.599      6.115
REMARK INTER + INTRA:          -9.442
REMARK INTER:                  -8.231
REMARK INTRA:                  -1.210
REMARK UNBOUND:                -1.211
REMARK SMILES CCCCCCCCC=CCCCCCCCC(=O)[O-]
REMARK SMILES IDX 10 1 9 2 11 3 12 4 13 5 14 6 15 7 16 8 17 9 18 10 19 11
REMARK SMILES IDX 20 12 8 13 7 14 6 15 5 16 4 17 3 18 2 19 1 20
REMARK H PARENT
REMARK Flexibility Score: inf
ROOT
ATOM      1  C   UNL     1      -2.014  13.887 -17.944  1.00  0.00    -0.031 C 
ATOM      2  C   UNL     1      -1.295  14.633 -18.794  1.00  0.00    -0.031 C 
ENDROOT
BRANCH   1   3
ATOM      3  C   UNL     1      -2.838  12.721 -18.421  1.00  0.00     0.027 C 
BRANCH   3   4
ATOM      4  C   UNL     1      -3.552  12.021 -17.258  1.00  0.00     0.004 C 
BRANCH   4   5
ATOM      5  C   UNL     1      -3.598  12.897 -15.994  1.00  0.00     0.000 C 
BRANCH   5   6
ATOM      6  C   UNL     1      -3.680  12.067 -14.702  1.00  0.00     0.000 C 
BRANCH   6   7
ATOM      7  C   UNL     1      -3.781  10.559 -14.974  1.00  0.00     0.000 C 
BRANCH   7   8
ATOM      8  C   UNL     1      -4.325   9.816 -13.744  1.00  0.00     0.006 C 
BRANCH   8   9
ATOM      9  C   UNL     1      -5.520   8.917 -14.090  1.00  0.00     0.053 C 
BRANCH   9  10
ATOM     10  C   UNL     1      -5.293   7.500 -13.664  1.00  0.00     0.041 C 
ATOM     11  O   UNL     1      -6.243   6.673 -13.683  1.00  0.00    -0.550 OA
ATOM     12  O   UNL     1      -4.041   7.100 -13.215  1.00  0.00    -0.550 OA
ENDBRANCH   9  10
ENDBRANCH   8   9
ENDBRANCH   7   8
ENDBRANCH   6   7
ENDBRANCH   5   6
ENDBRANCH   4   5
ENDBRANCH   3   4
ENDBRANCH   1   3
BRANCH   2  13
ATOM     13  C   UNL     1      -0.506  15.827 -18.324  1.00  0.00     0.027 C 
BRANCH  13  14
ATOM     14  C   UNL     1       0.986  15.731 -18.690  1.00  0.00     0.004 C 
BRANCH  14  15
ATOM     15  C   UNL     1       1.659  17.091 -18.949  1.00  0.00     0.000 C 
BRANCH  15  16
ATOM     16  C   UNL     1       1.035  17.844 -20.136  1.00  0.00     0.000 C 
BRANCH  16  17
ATOM     17  C   UNL     1       0.544  19.249 -19.751  1.00  0.00    -0.000 C 
BRANCH  17  18
ATOM     18  C   UNL     1       1.048  19.693 -18.370  1.00  0.00    -0.000 C 
BRANCH  18  19
ATOM     19  C   UNL     1      -0.119  19.869 -17.391  1.00  0.00    -0.003 C 
ATOM     20  C   UNL     1      -1.447  19.504 -18.045  1.00  0.00     0.004 C 
ENDBRANCH  18  19
ENDBRANCH  17  18
ENDBRANCH  16  17
ENDBRANCH  15  16
ENDBRANCH  14  15
ENDBRANCH  13  14
ENDBRANCH   2  13
TORSDOF 15
ENDMDL
MODEL 5
REMARK VINA RESULT:    -4.135      5.418      9.141
REMARK INTER + INTRA:          -8.972
REMARK INTER:                  -8.083
REMARK INTRA:                  -0.889
REMARK UNBOUND:                -1.211
REMARK SMILES CCCCCCCCC=CCCCCCCCC(=O)[O-]
REMARK SMILES IDX 10 1 9 2 11 3 12 4 13 5 14 6 15 7 16 8 17 9 18 10 19 11
REMARK SMILES IDX 20 12 8 13 7 14 6 15 5 16 4 17 3 18 2 19 1 20
REMARK H PARENT
REMARK Flexibility Score: inf
ROOT
ATOM      1  C   UNL     1      -2.373  13.723 -17.742  1.00  0.00    -0.031 C 
ATOM      2  C   UNL     1      -3.021  12.569 -17.949  1.00  0.00    -0.031 C 
ENDROOT
BRANCH   1   3
ATOM      3  C   UNL     1      -1.523  14.354 -18.812  1.00  0.00     0.027 C 
BRANCH   3   4
ATOM      4  C   UNL     1      -0.515  15.347 -18.221  1.00  0.00     0.004 C 
BRANCH   4   5
ATOM      5  C   UNL     1       0.780  15.422 -19.049  1.00  0.00     0.000 C 
BRANCH   5   6
ATOM      6  C   UNL     1       1.905  16.178 -18.322  1.00  0.00     0.000 C 
BRANCH   6   7
ATOM      7  C   UNL     1       2.088  17.610 -18.846  1.00  0.00     0.000 C 
BRANCH   7   8
ATOM      8  C   UNL     1       1.109  17.902 -19.994  1.00  0.00     0.006 C 
BRANCH   8   9
ATOM      9  C   UNL     1       0.418  19.263 -19.836  1.00  0.00     0.053 C 
BRANCH   9  10
ATOM     10  C   UNL     1      -0.371  19.343 -18.565  1.00  0.00     0.041 C 
ATOM     11  O   UNL     1      -1.548  18.898 -18.521  1.00  0.00    -0.550 OA
ATOM     12  O   UNL     1       0.183  19.938 -17.439  1.00  0.00    -0.550 OA
ENDBRANCH   9  10
ENDBRANCH   8   9
ENDBRANCH   7   8
ENDBRANCH   6   7
ENDBRANCH   5   6
ENDBRANCH   4   5
ENDBRANCH   3   4
ENDBRANCH   1   3
BRANCH   2  13
ATOM     13  C   UNL     1      -3.836  11.916 -16.864  1.00  0.00     0.027 C 
BRANCH  13  14
ATOM     14  C   UNL     1      -3.845  12.732 -15.559  1.00  0.00     0.004 C 
BRANCH  14  15
ATOM     15  C   UNL     1      -4.030  11.883 -14.288  1.00  0.00     0.000 C 
BRANCH  15  16
ATOM     16  C   UNL     1      -4.032  10.373 -14.578  1.00  0.00     0.000 C 
BRANCH  16  17
ATOM     17  C   UNL     1      -3.662   9.535 -13.343  1.00  0.00    -0.000 C 
BRANCH  17  18
ATOM     18  C   UNL     1      -4.274   8.127 -13.379  1.00  0.00    -0.000 C 
BRANCH  18  19
ATOM     19  C   UNL     1      -5.636   8.140 -14.082  1.00  0.00    -0.003 C 
ATOM     20  C   UNL     1      -6.472   6.926 -13.686  1.00  0.00     0.004 C 
ENDBRANCH  18  19
ENDBRANCH  17  18
ENDBRANCH  16  17
ENDBRANCH  15  16
ENDBRANCH  14  15
ENDBRANCH  13  14
ENDBRANCH   2  13
TORSDOF 15
ENDMDL
MODEL 6
REMARK VINA RESULT:    -4.134      4.958      8.284
REMARK INTER + INTRA:          -8.970
REMARK INTER:                  -7.842
REMARK INTRA:                  -1.127
REMARK UNBOUND:                -1.211
REMARK SMILES CCCCCCCCC=CCCCCCCCC(=O)[O-]
REMARK SMILES IDX 10 1 9 2 11 3 12 4 13 5 14 6 15 7 16 8 17 9 18 10 19 11
REMARK SMILES IDX 20 12 8 13 7 14 6 15 5 16 4 17 3 18 2 19 1 20
REMARK H PARENT
REMARK Flexibility Score: inf
ROOT
ATOM      1  C   UNL     1      -4.252  11.766 -16.910  1.00  0.00    -0.031 C 
ATOM      2  C   UNL     1      -4.347  12.732 -15.986  1.00  0.00    -0.031 C 
ENDROOT
BRANCH   1   3
ATOM      3  C   UNL     1      -4.913  11.894 -18.256  1.00  0.00     0.027 C 
BRANCH   3   4
ATOM      4  C   UNL     1      -3.892  11.807 -19.397  1.00  0.00     0.004 C 
BRANCH   4   5
ATOM      5  C   UNL     1      -2.480  12.220 -18.946  1.00  0.00     0.000 C 
BRANCH   5   6
ATOM      6  C   UNL     1      -2.183  13.704 -19.216  1.00  0.00     0.000 C 
BRANCH   6   7
ATOM      7  C   UNL     1      -1.685  14.444 -17.966  1.00  0.00     0.000 C 
BRANCH   7   8
ATOM      8  C   UNL     1      -0.442  15.288 -18.287  1.00  0.00     0.006 C 
BRANCH   8   9
ATOM      9  C   UNL     1      -0.799  16.736 -18.646  1.00  0.00     0.053 C 
BRANCH   9  10
ATOM     10  C   UNL     1       0.410  17.528 -19.036  1.00  0.00     0.041 C 
ATOM     11  O   UNL     1       0.659  18.625 -18.469  1.00  0.00    -0.550 OA
ATOM     12  O   UNL     1       1.245  17.072 -20.049  1.00  0.00    -0.550 OA
ENDBRANCH   9  10
ENDBRANCH   8   9
ENDBRANCH   7   8
ENDBRANCH   6   7
ENDBRANCH   5   6
ENDBRANCH   4   5
ENDBRANCH   3   4
ENDBRANCH   1   3
BRANCH   2  13
ATOM     13  C   UNL     1      -3.723  12.585 -14.623  1.00  0.00     0.027 C 
BRANCH  13  14
ATOM     14  C   UNL     1      -3.147  11.178 -14.386  1.00  0.00     0.004 C 
BRANCH  14  15
ATOM     15  C   UNL     1      -4.018  10.285 -13.483  1.00  0.00     0.000 C 
BRANCH  15  16
ATOM     16  C   UNL     1      -3.325   8.964 -13.108  1.00  0.00     0.000 C 
BRANCH  16  17
ATOM     17  C   UNL     1      -4.216   7.737 -13.362  1.00  0.00    -0.000 C 
BRANCH  17  18
ATOM     18  C   UNL     1      -5.527   8.097 -14.076  1.00  0.00    -0.000 C 
BRANCH  18  19
ATOM     19  C   UNL     1      -6.695   7.270 -13.527  1.00  0.00    -0.003 C 
ATOM     20  C   UNL     1      -6.807   5.929 -14.244  1.00  0.00     0.004 C 
ENDBRANCH  18  19
ENDBRANCH  17  18
ENDBRANCH  16  17
ENDBRANCH  15  16
ENDBRANCH  14  15
ENDBRANCH  13  14
ENDBRANCH   2  13
TORSDOF 15
ENDMDL
MODEL 7
REMARK VINA RESULT:    -4.049      5.629      9.244
REMARK INTER + INTRA:          -8.810
REMARK INTER:                  -7.823
REMARK INTRA:                  -0.987
REMARK UNBOUND:                -1.211
REMARK SMILES CCCCCCCCC=CCCCCCCCC(=O)[O-]
REMARK SMILES IDX 10 1 9 2 11 3 12 4 13 5 14 6 15 7 16 8 17 9 18 10 19 11
REMARK SMILES IDX 20 12 8 13 7 14 6 15 5 16 4 17 3 18 2 19 1 20
REMARK H PARENT
REMARK Flexibility Score: inf
ROOT
ATOM      1  C   UNL     1      -1.314  14.665 -18.096  1.00  0.00    -0.031 C 
ATOM      2  C   UNL     1      -1.784  13.893 -19.086  1.00  0.00    -0.031 C 
ENDROOT
BRANCH   1   3
ATOM      3  C   UNL     1      -0.388  15.820 -18.368  1.00  0.00     0.027 C 
BRANCH   3   4
ATOM      4  C   UNL     1       0.997  15.340 -18.817  1.00  0.00     0.004 C 
BRANCH   4   5
ATOM      5  C   UNL     1       1.931  16.511 -19.172  1.00  0.00     0.000 C 
BRANCH   5   6
ATOM      6  C   UNL     1       1.301  17.484 -20.182  1.00  0.00     0.000 C 
BRANCH   6   7
ATOM      7  C   UNL     1       1.631  18.952 -19.871  1.00  0.00     0.000 C 
BRANCH   7   8
ATOM      8  C   UNL     1       0.998  19.385 -18.539  1.00  0.00     0.006 C 
BRANCH   8   9
ATOM      9  C   UNL     1      -0.526  19.524 -18.638  1.00  0.00     0.053 C 
BRANCH   9  10
ATOM     10  C   UNL     1      -1.145  19.838 -17.311  1.00  0.00     0.041 C 
ATOM     11  O   UNL     1      -0.414  20.092 -16.316  1.00  0.00    -0.550 OA
ATOM     12  O   UNL     1      -2.526  19.817 -17.163  1.00  0.00    -0.550 OA
ENDBRANCH   9  10
ENDBRANCH   8   9
ENDBRANCH   7   8
ENDBRANCH   6   7
ENDBRANCH   5   6
ENDBRANCH   4   5
ENDBRANCH   3   4
ENDBRANCH   1   3
BRANCH   2  13
ATOM     13  C   UNL     1      -2.675  12.711 -18.810  1.00  0.00     0.027 C 
BRANCH  13  14
ATOM     14  C   UNL     1      -3.132  12.646 -17.341  1.00  0.00     0.004 C 
BRANCH  14  15
ATOM     15  C   UNL     1      -3.577  11.245 -16.883  1.00  0.00     0.000 C 
BRANCH  15  16
ATOM     16  C   UNL     1      -4.276  11.263 -15.513  1.00  0.00     0.000 C 
BRANCH  16  17
ATOM     17  C   UNL     1      -3.624  10.303 -14.505  1.00  0.00    -0.000 C 
BRANCH  17  18
ATOM     18  C   UNL     1      -4.632   9.726 -13.501  1.00  0.00    -0.000 C 
BRANCH  18  19
ATOM     19  C   UNL     1      -4.675   8.196 -13.584  1.00  0.00    -0.003 C 
ATOM     20  C   UNL     1      -6.070   7.703 -13.955  1.00  0.00     0.004 C 
ENDBRANCH  18  19
ENDBRANCH  17  18
ENDBRANCH  16  17
ENDBRANCH  15  16
ENDBRANCH  14  15
ENDBRANCH  13  14
ENDBRANCH   2  13
TORSDOF 15
ENDMDL
MODEL 8
REMARK VINA RESULT:    -3.966      4.115      6.742
REMARK INTER + INTRA:          -8.656
REMARK INTER:                  -7.513
REMARK INTRA:                  -1.142
REMARK UNBOUND:                -1.211
REMARK SMILES CCCCCCCCC=CCCCCCCCC(=O)[O-]
REMARK SMILES IDX 10 1 9 2 11 3 12 4 13 5 14 6 15 7 16 8 17 9 18 10 19 11
REMARK SMILES IDX 20 12 8 13 7 14 6 15 5 16 4 17 3 18 2 19 1 20
REMARK H PARENT
REMARK Flexibility Score: inf
ROOT
ATOM      1  C   UNL     1      -1.376  15.151 -18.323  1.00  0.00    -0.031 C 
ATOM      2  C   UNL     1      -0.037  15.191 -18.361  1.00  0.00    -0.031 C 
ENDROOT
BRANCH   1   3
ATOM      3  C   UNL     1      -2.118  13.894 -17.959  1.00  0.00     0.027 C 
BRANCH   3   4
ATOM      4  C   UNL     1      -2.423  13.039 -19.195  1.00  0.00     0.004 C 
BRANCH   4   5
ATOM      5  C   UNL     1      -3.252  11.790 -18.848  1.00  0.00     0.000 C 
BRANCH   5   6
ATOM      6  C   UNL     1      -3.266  11.489 -17.340  1.00  0.00     0.000 C 
BRANCH   6   7
ATOM      7  C   UNL     1      -4.545  11.987 -16.651  1.00  0.00     0.000 C 
BRANCH   7   8
ATOM      8  C   UNL     1      -4.354  12.055 -15.127  1.00  0.00     0.006 C 
BRANCH   8   9
ATOM      9  C   UNL     1      -3.351  11.012 -14.620  1.00  0.00     0.053 C 
BRANCH   9  10
ATOM     10  C   UNL     1      -4.035   9.864 -13.943  1.00  0.00     0.041 C 
ATOM     11  O   UNL     1      -5.263   9.657 -14.133  1.00  0.00    -0.550 OA
ATOM     12  O   UNL     1      -3.325   9.043 -13.076  1.00  0.00    -0.550 OA
ENDBRANCH   9  10
ENDBRANCH   8   9
ENDBRANCH   7   8
ENDBRANCH   6   7
ENDBRANCH   5   6
ENDBRANCH   4   5
ENDBRANCH   3   4
ENDBRANCH   1   3
BRANCH   2  13
ATOM     13  C   UNL     1       0.705  16.437 -18.768  1.00  0.00     0.027 C 
BRANCH  13  14
ATOM     14  C   UNL     1       1.770  16.166 -19.846  1.00  0.00     0.004 C 
BRANCH  14  15
ATOM     15  C   UNL     1       2.079  17.378 -20.744  1.00  0.00     0.000 C 
BRANCH  15  16
ATOM     16  C   UNL     1       1.861  18.720 -20.024  1.00  0.00     0.000 C 
BRANCH  16  17
ATOM     17  C   UNL     1       1.026  19.706 -20.857  1.00  0.00    -0.000 C 
BRANCH  17  18
ATOM     18  C   UNL     1      -0.273  20.122 -20.153  1.00  0.00    -0.000 C 
BRANCH  18  19
ATOM     19  C   UNL     1      -0.197  19.838 -18.649  1.00  0.00    -0.003 C 
ATOM     20  C   UNL     1      -1.482  19.189 -18.144  1.00  0.00     0.004 C 
ENDBRANCH  18  19
ENDBRANCH  17  18
ENDBRANCH  16  17
ENDBRANCH  15  16
ENDBRANCH  14  15
ENDBRANCH  13  14
ENDBRANCH   2  13
TORSDOF 15
ENDMDL
MODEL 9
REMARK VINA RESULT:    -3.911      5.743      9.359
REMARK INTER + INTRA:          -8.551
REMARK INTER:                  -7.378
REMARK INTRA:                  -1.173
REMARK UNBOUND:                -1.211
REMARK SMILES CCCCCCCCC=CCCCCCCCC(=O)[O-]
REMARK SMILES IDX 10 1 9 2 11 3 12 4 13 5 14 6 15 7 16 8 17 9 18 10 19 11
REMARK SMILES IDX 20 12 8 13 7 14 6 15 5 16 4 17 3 18 2 19 1 20
REMARK H PARENT
REMARK Flexibility Score: inf
ROOT
ATOM      1  C   UNL     1      -1.314  14.627 -19.007  1.00  0.00    -0.031 C 
ATOM      2  C   UNL     1      -2.028  13.687 -18.372  1.00  0.00    -0.031 C 
ENDROOT
BRANCH   1   3
ATOM      3  C   UNL     1      -0.463  15.614 -18.254  1.00  0.00     0.027 C 
BRANCH   3   4
ATOM      4  C   UNL     1       0.987  15.605 -18.752  1.00  0.00     0.004 C 
BRANCH   4   5
ATOM      5  C   UNL     1       1.550  17.026 -18.929  1.00  0.00     0.000 C 
BRANCH   5   6
ATOM      6  C   UNL     1       1.442  17.530 -20.377  1.00  0.00     0.000 C 
BRANCH   6   7
ATOM      7  C   UNL     1       1.336  19.060 -20.463  1.00  0.00     0.000 C 
BRANCH   7   8
ATOM      8  C   UNL     1       0.969  19.661 -19.097  1.00  0.00     0.006 C 
BRANCH   8   9
ATOM      9  C   UNL     1      -0.512  20.052 -19.014  1.00  0.00     0.053 C 
BRANCH   9  10
ATOM     10  C   UNL     1      -1.036  19.955 -17.614  1.00  0.00     0.041 C 
ATOM     11  O   UNL     1      -2.262  19.749 -17.409  1.00  0.00    -0.550 OA
ATOM     12  O   UNL     1      -0.177  20.124 -16.535  1.00  0.00    -0.550 OA
ENDBRANCH   9  10
ENDBRANCH   8   9
ENDBRANCH   7   8
ENDBRANCH   6   7
ENDBRANCH   5   6
ENDBRANCH   4   5
ENDBRANCH   3   4
ENDBRANCH   1   3
BRANCH   2  13
ATOM     13  C   UNL     1      -2.914  12.728 -19.122  1.00  0.00     0.027 C 
BRANCH  13  14
ATOM     14  C   UNL     1      -2.707  11.267 -18.686  1.00  0.00     0.004 C 
BRANCH  14  15
ATOM     15  C   UNL     1      -3.608  10.825 -17.518  1.00  0.00     0.000 C 
BRANCH  15  16
ATOM     16  C   UNL     1      -4.649  11.891 -17.135  1.00  0.00     0.000 C 
BRANCH  16  17
ATOM     17  C   UNL     1      -4.631  12.220 -15.634  1.00  0.00    -0.000 C 
BRANCH  17  18
ATOM     18  C   UNL     1      -3.902  11.154 -14.804  1.00  0.00    -0.000 C 
BRANCH  18  19
ATOM     19  C   UNL     1      -2.580  11.699 -14.252  1.00  0.00    -0.003 C 
ATOM     20  C   UNL     1      -2.287  13.093 -14.798  1.00  0.00     0.004 C 
ENDBRANCH  18  19
ENDBRANCH  17  18
ENDBRANCH  16  17
ENDBRANCH  15  16
ENDBRANCH  14  15
ENDBRANCH  13  14
ENDBRANCH   2  13
TORSDOF 15
ENDMDL
