MODEL 1
REMARK VINA RESULT:    -3.482      0.000      0.000
REMARK INTER + INTRA:          -9.757
REMARK INTER:                  -7.553
REMARK INTRA:                  -2.204
REMARK UNBOUND:                -2.204
REMARK SMILES CCCCCCCCCCCCCCCCCCCCCC(=O)[O-]
REMARK SMILES IDX 12 1 11 2 10 3 9 4 8 5 7 6 6 7 5 8 4 9 3 10 2 11 1 12 13 13
REMARK SMILES IDX 14 14 15 15 16 16 17 17 18 18 19 19 20 20 21 21 22 22 23 23
REMARK SMILES IDX 24 24
REMARK H PARENT
REMARK Flexibility Score: inf
ROOT
ATOM      1  C   UNL     1      45.114  60.447  48.836  1.00  0.00     0.000 C 
ENDROOT
BRANCH   1   2
ATOM      2  C   UNL     1      45.030  61.970  49.075  1.00  0.00     0.000 C 
BRANCH   2   3
ATOM      3  C   UNL     1      43.779  62.411  49.862  1.00  0.00     0.000 C 
BRANCH   3   4
ATOM      4  C   UNL     1      42.688  61.337  49.999  1.00  0.00    -0.000 C 
BRANCH   4   5
ATOM      5  C   UNL     1      41.792  61.235  48.752  1.00  0.00    -0.000 C 
BRANCH   5   6
ATOM      6  C   UNL     1      41.646  59.790  48.249  1.00  0.00    -0.000 C 
BRANCH   6   7
ATOM      7  C   UNL     1      41.705  58.758  49.389  1.00  0.00    -0.000 C 
BRANCH   7   8
ATOM      8  C   UNL     1      40.433  57.898  49.486  1.00  0.00    -0.000 C 
BRANCH   8   9
ATOM      9  C   UNL     1      39.813  57.559  48.114  1.00  0.00    -0.000 C 
BRANCH   9  10
ATOM     10  C   UNL     1      40.507  56.360  47.446  1.00  0.00    -0.000 C 
BRANCH  10  11
ATOM     11  C   UNL     1      39.511  55.350  46.859  1.00  0.00    -0.003 C 
ATOM     12  C   UNL     1      39.737  53.929  47.370  1.00  0.00     0.004 C 
ENDBRANCH  10  11
ENDBRANCH   9  10
ENDBRANCH   8   9
ENDBRANCH   7   8
ENDBRANCH   6   7
ENDBRANCH   5   6
ENDBRANCH   4   5
ENDBRANCH   3   4
ENDBRANCH   2   3
ENDBRANCH   1   2
BRANCH   1  13
ATOM     13  C   UNL     1      45.509  59.676  50.105  1.00  0.00     0.000 C 
BRANCH  13  14
ATOM     14  C   UNL     1      45.319  58.166  49.918  1.00  0.00     0.000 C 
BRANCH  14  15
ATOM     15  C   UNL     1      46.060  57.671  48.667  1.00  0.00     0.000 C 
BRANCH  15  16
ATOM     16  C   UNL     1      45.320  56.522  47.961  1.00  0.00     0.000 C 
BRANCH  16  17
ATOM     17  C   UNL     1      44.003  56.985  47.313  1.00  0.00     0.000 C 
BRANCH  17  18
ATOM     18  C   UNL     1      44.202  58.185  46.362  1.00  0.00     0.000 C 
BRANCH  18  19
ATOM     19  C   UNL     1      43.942  57.860  44.877  1.00  0.00     0.000 C 
BRANCH  19  20
ATOM     20  C   UNL     1      42.764  56.901  44.612  1.00  0.00     0.006 C 
BRANCH  20  21
ATOM     21  C   UNL     1      41.797  57.374  43.514  1.00  0.00     0.053 C 
BRANCH  21  22
ATOM     22  C   UNL     1      40.711  58.247  44.062  1.00  0.00     0.041 C 
ATOM     23  O   UNL     1      40.646  58.477  45.298  1.00  0.00    -0.550 OA
ATOM     24  O   UNL     1      39.746  58.776  43.213  1.00  0.00    -0.550 OA
ENDBRANCH  21  22
ENDBRANCH  20  21
ENDBRANCH  19  20
ENDBRANCH  18  19
ENDBRANCH  17  18
ENDBRANCH  16  17
ENDBRANCH  15  16
ENDBRANCH  14  15
ENDBRANCH  13  14
ENDBRANCH   1  13
TORSDOF 20
ENDMDL
MODEL 2
REMARK VINA RESULT:    -3.442      2.677      5.694
REMARK INTER + INTRA:          -9.670
REMARK INTER:                  -6.765
REMARK INTRA:                  -2.906
REMARK UNBOUND:                -2.204
REMARK SMILES CCCCCCCCCCCCCCCCCCCCCC(=O)[O-]
REMARK SMILES IDX 12 1 11 2 10 3 9 4 8 5 7 6 6 7 5 8 4 9 3 10 2 11 1 12 13 13
REMARK SMILES IDX 14 14 15 15 16 16 17 17 18 18 19 19 20 20 21 21 22 22 23 23
REMARK SMILES IDX 24 24
REMARK H PARENT
REMARK Flexibility Score: inf
ROOT
ATOM      1  C   UNL     1      42.718  57.786  49.463  1.00  0.00     0.000 C 
ENDROOT
BRANCH   1   2
ATOM      2  C   UNL     1      43.067  56.524  48.644  1.00  0.00     0.000 C 
BRANCH   2   3
ATOM      3  C   UNL     1      44.163  56.750  47.584  1.00  0.00     0.000 C 
BRANCH   3   4
ATOM      4  C   UNL     1      44.384  58.218  47.183  1.00  0.00    -0.000 C 
BRANCH   4   5
ATOM      5  C   UNL     1      43.959  58.510  45.733  1.00  0.00    -0.000 C 
BRANCH   5   6
ATOM      6  C   UNL     1      43.781  57.230  44.902  1.00  0.00    -0.000 C 
BRANCH   6   7
ATOM      7  C   UNL     1      42.375  57.115  44.288  1.00  0.00    -0.000 C 
BRANCH   7   8
ATOM      8  C   UNL     1      41.349  58.045  44.960  1.00  0.00    -0.000 C 
BRANCH   8   9
ATOM      9  C   UNL     1      40.165  57.293  45.604  1.00  0.00    -0.000 C 
BRANCH   9  10
ATOM     10  C   UNL     1      40.635  56.169  46.543  1.00  0.00    -0.000 C 
BRANCH  10  11
ATOM     11  C   UNL     1      39.468  55.408  47.188  1.00  0.00    -0.003 C 
ATOM     12  C   UNL     1      39.738  53.912  47.324  1.00  0.00     0.004 C 
ENDBRANCH  10  11
ENDBRANCH   9  10
ENDBRANCH   8   9
ENDBRANCH   7   8
ENDBRANCH   6   7
ENDBRANCH   5   6
ENDBRANCH   4   5
ENDBRANCH   3   4
ENDBRANCH   2   3
ENDBRANCH   1   2
BRANCH   1  13
ATOM     13  C   UNL     1      41.201  57.991  49.605  1.00  0.00     0.000 C 
BRANCH  13  14
ATOM     14  C   UNL     1      40.687  59.037  48.610  1.00  0.00     0.000 C 
BRANCH  14  15
ATOM     15  C   UNL     1      41.817  59.982  48.175  1.00  0.00     0.000 C 
BRANCH  15  16
ATOM     16  C   UNL     1      41.733  61.355  48.863  1.00  0.00     0.000 C 
BRANCH  16  17
ATOM     17  C   UNL     1      42.756  61.503  50.003  1.00  0.00     0.000 C 
BRANCH  17  18
ATOM     18  C   UNL     1      43.979  62.351  49.594  1.00  0.00     0.000 C 
BRANCH  18  19
ATOM     19  C   UNL     1      45.172  61.524  49.074  1.00  0.00     0.000 C 
BRANCH  19  20
ATOM     20  C   UNL     1      45.177  60.042  49.496  1.00  0.00     0.006 C 
BRANCH  20  21
ATOM     21  C   UNL     1      45.593  59.801  50.957  1.00  0.00     0.053 C 
BRANCH  21  22
ATOM     22  C   UNL     1      45.975  58.374  51.203  1.00  0.00     0.041 C 
ATOM     23  O   UNL     1      46.348  57.645  50.246  1.00  0.00    -0.550 OA
ATOM     24  O   UNL     1      45.882  57.838  52.481  1.00  0.00    -0.550 OA
ENDBRANCH  21  22
ENDBRANCH  20  21
ENDBRANCH  19  20
ENDBRANCH  18  19
ENDBRANCH  17  18
ENDBRANCH  16  17
ENDBRANCH  15  16
ENDBRANCH  14  15
ENDBRANCH  13  14
ENDBRANCH   1  13
TORSDOF 20
ENDMDL
MODEL 3
REMARK VINA RESULT:    -3.375      2.574      6.585
REMARK INTER + INTRA:          -9.526
REMARK INTER:                  -6.739
REMARK INTRA:                  -2.787
REMARK UNBOUND:                -2.204
REMARK SMILES CCCCCCCCCCCCCCCCCCCCCC(=O)[O-]
REMARK SMILES IDX 12 1 11 2 10 3 9 4 8 5 7 6 6 7 5 8 4 9 3 10 2 11 1 12 13 13
REMARK SMILES IDX 14 14 15 15 16 16 17 17 18 18 19 19 20 20 21 21 22 22 23 23
REMARK SMILES IDX 24 24
REMARK H PARENT
REMARK Flexibility Score: inf
ROOT
ATOM      1  C   UNL     1      40.054  57.559  45.536  1.00  0.00     0.000 C 
ENDROOT
BRANCH   1   2
ATOM      2  C   UNL     1      41.020  58.008  44.418  1.00  0.00     0.000 C 
BRANCH   2   3
ATOM      3  C   UNL     1      42.118  56.977  44.089  1.00  0.00     0.000 C 
BRANCH   3   4
ATOM      4  C   UNL     1      43.490  57.269  44.719  1.00  0.00    -0.000 C 
BRANCH   4   5
ATOM      5  C   UNL     1      43.504  58.571  45.540  1.00  0.00    -0.000 C 
BRANCH   5   6
ATOM      6  C   UNL     1      44.366  58.459  46.807  1.00  0.00    -0.000 C 
BRANCH   6   7
ATOM      7  C   UNL     1      44.244  57.083  47.485  1.00  0.00    -0.000 C 
BRANCH   7   8
ATOM      8  C   UNL     1      45.589  56.556  48.018  1.00  0.00    -0.000 C 
BRANCH   8   9
ATOM      9  C   UNL     1      46.310  57.547  48.956  1.00  0.00    -0.000 C 
BRANCH   9  10
ATOM     10  C   UNL     1      45.339  58.224  49.938  1.00  0.00    -0.000 C 
BRANCH  10  11
ATOM     11  C   UNL     1      46.035  58.720  51.214  1.00  0.00    -0.003 C 
ATOM     12  C   UNL     1      45.685  57.887  52.444  1.00  0.00     0.004 C 
ENDBRANCH  10  11
ENDBRANCH   9  10
ENDBRANCH   8   9
ENDBRANCH   7   8
ENDBRANCH   6   7
ENDBRANCH   5   6
ENDBRANCH   4   5
ENDBRANCH   3   4
ENDBRANCH   2   3
ENDBRANCH   1   2
BRANCH   1  13
ATOM     13  C   UNL     1      40.477  56.227  46.175  1.00  0.00     0.000 C 
BRANCH  13  14
ATOM     14  C   UNL     1      40.634  56.367  47.694  1.00  0.00     0.000 C 
BRANCH  14  15
ATOM     15  C   UNL     1      39.678  57.434  48.248  1.00  0.00     0.000 C 
BRANCH  15  16
ATOM     16  C   UNL     1      40.255  58.161  49.474  1.00  0.00     0.000 C 
BRANCH  16  17
ATOM     17  C   UNL     1      41.659  58.732  49.210  1.00  0.00     0.000 C 
BRANCH  17  18
ATOM     18  C   UNL     1      41.620  60.051  48.408  1.00  0.00     0.000 C 
BRANCH  18  19
ATOM     19  C   UNL     1      41.971  61.302  49.238  1.00  0.00     0.000 C 
BRANCH  19  20
ATOM     20  C   UNL     1      43.439  61.392  49.701  1.00  0.00     0.006 C 
BRANCH  20  21
ATOM     21  C   UNL     1      44.470  61.294  48.563  1.00  0.00     0.053 C 
BRANCH  21  22
ATOM     22  C   UNL     1      45.736  62.023  48.889  1.00  0.00     0.041 C 
ATOM     23  O   UNL     1      46.156  62.935  48.129  1.00  0.00    -0.550 OA
ATOM     24  O   UNL     1      46.474  61.669  50.012  1.00  0.00    -0.550 OA
ENDBRANCH  21  22
ENDBRANCH  20  21
ENDBRANCH  19  20
ENDBRANCH  18  19
ENDBRANCH  17  18
ENDBRANCH  16  17
ENDBRANCH  15  16
ENDBRANCH  14  15
ENDBRANCH  13  14
ENDBRANCH   1  13
TORSDOF 20
ENDMDL
MODEL 4
REMARK VINA RESULT:    -3.368      2.895      6.366
REMARK INTER + INTRA:          -9.510
REMARK INTER:                  -6.820
REMARK INTRA:                  -2.690
REMARK UNBOUND:                -2.204
REMARK SMILES CCCCCCCCCCCCCCCCCCCCCC(=O)[O-]
REMARK SMILES IDX 12 1 11 2 10 3 9 4 8 5 7 6 6 7 5 8 4 9 3 10 2 11 1 12 13 13
REMARK SMILES IDX 14 14 15 15 16 16 17 17 18 18 19 19 20 20 21 21 22 22 23 23
REMARK SMILES IDX 24 24
REMARK H PARENT
REMARK Flexibility Score: inf
ROOT
ATOM      1  C   UNL     1      40.212  57.328  45.629  1.00  0.00     0.000 C 
ENDROOT
BRANCH   1   2
ATOM      2  C   UNL     1      40.584  56.240  46.661  1.00  0.00     0.000 C 
BRANCH   2   3
ATOM      3  C   UNL     1      39.723  56.271  47.940  1.00  0.00     0.000 C 
BRANCH   3   4
ATOM      4  C   UNL     1      39.448  57.675  48.501  1.00  0.00    -0.000 C 
BRANCH   4   5
ATOM      5  C   UNL     1      40.314  58.007  49.729  1.00  0.00    -0.000 C 
BRANCH   5   6
ATOM      6  C   UNL     1      41.615  58.733  49.352  1.00  0.00    -0.000 C 
BRANCH   6   7
ATOM      7  C   UNL     1      41.452  59.636  48.116  1.00  0.00    -0.000 C 
BRANCH   7   8
ATOM      8  C   UNL     1      41.952  61.072  48.353  1.00  0.00    -0.000 C 
BRANCH   8   9
ATOM      9  C   UNL     1      42.369  61.346  49.813  1.00  0.00    -0.000 C 
BRANCH   9  10
ATOM     10  C   UNL     1      43.739  62.040  49.902  1.00  0.00    -0.000 C 
BRANCH  10  11
ATOM     11  C   UNL     1      44.768  61.446  48.930  1.00  0.00    -0.003 C 
ATOM     12  C   UNL     1      46.026  62.302  48.800  1.00  0.00     0.004 C 
ENDBRANCH  10  11
ENDBRANCH   9  10
ENDBRANCH   8   9
ENDBRANCH   7   8
ENDBRANCH   6   7
ENDBRANCH   5   6
ENDBRANCH   4   5
ENDBRANCH   3   4
ENDBRANCH   2   3
ENDBRANCH   1   2
BRANCH   1  13
ATOM     13  C   UNL     1      41.449  57.970  44.984  1.00  0.00     0.000 C 
BRANCH  13  14
ATOM     14  C   UNL     1      42.397  56.906  44.421  1.00  0.00     0.000 C 
BRANCH  14  15
ATOM     15  C   UNL     1      43.853  57.208  44.807  1.00  0.00     0.000 C 
BRANCH  15  16
ATOM     16  C   UNL     1      44.001  58.557  45.531  1.00  0.00     0.000 C 
BRANCH  16  17
ATOM     17  C   UNL     1      44.103  58.394  47.058  1.00  0.00     0.000 C 
BRANCH  17  18
ATOM     18  C   UNL     1      44.374  56.934  47.480  1.00  0.00     0.000 C 
BRANCH  18  19
ATOM     19  C   UNL     1      45.806  56.684  47.992  1.00  0.00     0.000 C 
BRANCH  19  20
ATOM     20  C   UNL     1      46.298  57.666  49.074  1.00  0.00     0.006 C 
BRANCH  20  21
ATOM     21  C   UNL     1      45.226  58.062  50.104  1.00  0.00     0.053 C 
BRANCH  21  22
ATOM     22  C   UNL     1      45.830  58.618  51.356  1.00  0.00     0.041 C 
ATOM     23  O   UNL     1      46.426  59.727  51.334  1.00  0.00    -0.550 OA
ATOM     24  O   UNL     1      45.770  57.893  52.540  1.00  0.00    -0.550 OA
ENDBRANCH  21  22
ENDBRANCH  20  21
ENDBRANCH  19  20
ENDBRANCH  18  19
ENDBRANCH  17  18
ENDBRANCH  16  17
ENDBRANCH  15  16
ENDBRANCH  14  15
ENDBRANCH  13  14
ENDBRANCH   1  13
TORSDOF 20
ENDMDL
MODEL 5
REMARK VINA RESULT:    -3.254      1.431      4.584
REMARK INTER + INTRA:          -9.263
REMARK INTER:                  -6.850
REMARK INTRA:                  -2.413
REMARK UNBOUND:                -2.204
REMARK SMILES CCCCCCCCCCCCCCCCCCCCCC(=O)[O-]
REMARK SMILES IDX 12 1 11 2 10 3 9 4 8 5 7 6 6 7 5 8 4 9 3 10 2 11 1 12 13 13
REMARK SMILES IDX 14 14 15 15 16 16 17 17 18 18 19 19 20 20 21 21 22 22 23 23
REMARK SMILES IDX 24 24
REMARK H PARENT
REMARK Flexibility Score: inf
ROOT
ATOM      1  C   UNL     1      45.196  60.591  49.089  1.00  0.00     0.000 C 
ENDROOT
BRANCH   1   2
ATOM      2  C   UNL     1      45.292  59.670  50.324  1.00  0.00     0.000 C 
BRANCH   2   3
ATOM      3  C   UNL     1      45.384  58.169  49.979  1.00  0.00     0.000 C 
BRANCH   3   4
ATOM      4  C   UNL     1      46.142  57.849  48.682  1.00  0.00    -0.000 C 
BRANCH   4   5
ATOM      5  C   UNL     1      45.552  56.644  47.928  1.00  0.00    -0.000 C 
BRANCH   5   6
ATOM      6  C   UNL     1      44.078  56.853  47.546  1.00  0.00    -0.000 C 
BRANCH   6   7
ATOM      7  C   UNL     1      43.845  58.174  46.791  1.00  0.00    -0.000 C 
BRANCH   7   8
ATOM      8  C   UNL     1      43.952  58.017  45.264  1.00  0.00    -0.000 C 
BRANCH   8   9
ATOM      9  C   UNL     1      43.067  56.887  44.696  1.00  0.00    -0.000 C 
BRANCH   9  10
ATOM     10  C   UNL     1      41.985  57.425  43.744  1.00  0.00    -0.000 C 
BRANCH  10  11
ATOM     11  C   UNL     1      40.843  58.135  44.484  1.00  0.00    -0.003 C 
ATOM     12  C   UNL     1      39.845  58.799  43.538  1.00  0.00     0.004 C 
ENDBRANCH  10  11
ENDBRANCH   9  10
ENDBRANCH   8   9
ENDBRANCH   7   8
ENDBRANCH   6   7
ENDBRANCH   5   6
ENDBRANCH   4   5
ENDBRANCH   3   4
ENDBRANCH   2   3
ENDBRANCH   1   2
BRANCH   1  13
ATOM     13  C   UNL     1      44.330  61.833  49.352  1.00  0.00     0.000 C 
BRANCH  13  14
ATOM     14  C   UNL     1      42.991  61.450  49.992  1.00  0.00     0.000 C 
BRANCH  14  15
ATOM     15  C   UNL     1      41.876  61.388  48.937  1.00  0.00     0.000 C 
BRANCH  15  16
ATOM     16  C   UNL     1      41.621  59.958  48.434  1.00  0.00     0.000 C 
BRANCH  16  17
ATOM     17  C   UNL     1      41.951  58.895  49.497  1.00  0.00     0.000 C 
BRANCH  17  18
ATOM     18  C   UNL     1      40.753  57.969  49.799  1.00  0.00     0.000 C 
BRANCH  18  19
ATOM     19  C   UNL     1      39.643  58.009  48.730  1.00  0.00     0.000 C 
BRANCH  19  20
ATOM     20  C   UNL     1      40.006  57.354  47.382  1.00  0.00     0.006 C 
BRANCH  20  21
ATOM     21  C   UNL     1      40.661  55.968  47.507  1.00  0.00     0.053 C 
BRANCH  21  22
ATOM     22  C   UNL     1      39.784  54.883  46.961  1.00  0.00     0.041 C 
ATOM     23  O   UNL     1      39.081  55.092  45.938  1.00  0.00    -0.550 OA
ATOM     24  O   UNL     1      39.715  53.654  47.605  1.00  0.00    -0.550 OA
ENDBRANCH  21  22
ENDBRANCH  20  21
ENDBRANCH  19  20
ENDBRANCH  18  19
ENDBRANCH  17  18
ENDBRANCH  16  17
ENDBRANCH  15  16
ENDBRANCH  14  15
ENDBRANCH  13  14
ENDBRANCH   1  13
TORSDOF 20
ENDMDL
MODEL 6
REMARK VINA RESULT:    -3.144      1.115      5.276
REMARK INTER + INTRA:          -9.025
REMARK INTER:                  -5.907
REMARK INTRA:                  -3.117
REMARK UNBOUND:                -2.204
REMARK SMILES CCCCCCCCCCCCCCCCCCCCCC(=O)[O-]
REMARK SMILES IDX 12 1 11 2 10 3 9 4 8 5 7 6 6 7 5 8 4 9 3 10 2 11 1 12 13 13
REMARK SMILES IDX 14 14 15 15 16 16 17 17 18 18 19 19 20 20 21 21 22 22 23 23
REMARK SMILES IDX 24 24
REMARK H PARENT
REMARK Flexibility Score: inf
ROOT
ATOM      1  C   UNL     1      43.576  59.788  46.818  1.00  0.00     0.000 C 
ENDROOT
BRANCH   1   2
ATOM      2  C   UNL     1      44.139  58.599  46.009  1.00  0.00     0.000 C 
BRANCH   2   3
ATOM      3  C   UNL     1      43.648  57.222  46.498  1.00  0.00     0.000 C 
BRANCH   3   4
ATOM      4  C   UNL     1      44.141  56.818  47.897  1.00  0.00    -0.000 C 
BRANCH   4   5
ATOM      5  C   UNL     1      45.645  56.494  47.929  1.00  0.00    -0.000 C 
BRANCH   5   6
ATOM      6  C   UNL     1      46.461  57.561  48.676  1.00  0.00    -0.000 C 
BRANCH   6   7
ATOM      7  C   UNL     1      46.102  57.641  50.170  1.00  0.00    -0.000 C 
BRANCH   7   8
ATOM      8  C   UNL     1      45.693  59.057  50.613  1.00  0.00    -0.000 C 
BRANCH   8   9
ATOM      9  C   UNL     1      45.214  59.952  49.449  1.00  0.00    -0.000 C 
BRANCH   9  10
ATOM     10  C   UNL     1      45.984  61.282  49.387  1.00  0.00    -0.000 C 
BRANCH  10  11
ATOM     11  C   UNL     1      45.082  62.474  49.039  1.00  0.00    -0.003 C 
ATOM     12  C   UNL     1      43.761  62.463  49.805  1.00  0.00     0.004 C 
ENDBRANCH  10  11
ENDBRANCH   9  10
ENDBRANCH   8   9
ENDBRANCH   7   8
ENDBRANCH   6   7
ENDBRANCH   5   6
ENDBRANCH   4   5
ENDBRANCH   3   4
ENDBRANCH   2   3
ENDBRANCH   1   2
BRANCH   1  13
ATOM     13  C   UNL     1      42.043  59.758  46.912  1.00  0.00     0.000 C 
BRANCH  13  14
ATOM     14  C   UNL     1      41.563  60.235  48.287  1.00  0.00     0.000 C 
BRANCH  14  15
ATOM     15  C   UNL     1      42.112  59.334  49.403  1.00  0.00     0.000 C 
BRANCH  15  16
ATOM     16  C   UNL     1      41.425  57.958  49.441  1.00  0.00     0.000 C 
BRANCH  16  17
ATOM     17  C   UNL     1      39.890  58.069  49.393  1.00  0.00     0.000 C 
BRANCH  17  18
ATOM     18  C   UNL     1      39.289  57.405  48.135  1.00  0.00     0.000 C 
BRANCH  18  19
ATOM     19  C   UNL     1      40.183  56.315  47.511  1.00  0.00     0.000 C 
BRANCH  19  20
ATOM     20  C   UNL     1      40.477  56.489  46.008  1.00  0.00     0.006 C 
BRANCH  20  21
ATOM     21  C   UNL     1      39.714  57.647  45.342  1.00  0.00     0.053 C 
BRANCH  21  22
ATOM     22  C   UNL     1      40.385  58.112  44.087  1.00  0.00     0.041 C 
ATOM     23  O   UNL     1      39.813  58.944  43.335  1.00  0.00    -0.550 OA
ATOM     24  O   UNL     1      41.625  57.598  43.729  1.00  0.00    -0.550 OA
ENDBRANCH  21  22
ENDBRANCH  20  21
ENDBRANCH  19  20
ENDBRANCH  18  19
ENDBRANCH  17  18
ENDBRANCH  16  17
ENDBRANCH  15  16
ENDBRANCH  14  15
ENDBRANCH  13  14
ENDBRANCH   1  13
TORSDOF 20
ENDMDL
MODEL 7
REMARK VINA RESULT:    -3.035      1.816      4.510
REMARK INTER + INTRA:          -8.788
REMARK INTER:                  -6.528
REMARK INTRA:                  -2.260
REMARK UNBOUND:                -2.204
REMARK SMILES CCCCCCCCCCCCCCCCCCCCCC(=O)[O-]
REMARK SMILES IDX 12 1 11 2 10 3 9 4 8 5 7 6 6 7 5 8 4 9 3 10 2 11 1 12 13 13
REMARK SMILES IDX 14 14 15 15 16 16 17 17 18 18 19 19 20 20 21 21 22 22 23 23
REMARK SMILES IDX 24 24
REMARK H PARENT
REMARK Flexibility Score: inf
ROOT
ATOM      1  C   UNL     1      46.375  57.624  48.514  1.00  0.00     0.000 C 
ENDROOT
BRANCH   1   2
ATOM      2  C   UNL     1      45.551  56.426  47.994  1.00  0.00     0.000 C 
BRANCH   2   3
ATOM      3  C   UNL     1      44.221  56.826  47.324  1.00  0.00     0.000 C 
BRANCH   3   4
ATOM      4  C   UNL     1      44.141  58.291  46.867  1.00  0.00    -0.000 C 
BRANCH   4   5
ATOM      5  C   UNL     1      43.863  58.432  45.360  1.00  0.00    -0.000 C 
BRANCH   5   6
ATOM      6  C   UNL     1      43.598  57.079  44.682  1.00  0.00    -0.000 C 
BRANCH   6   7
ATOM      7  C   UNL     1      42.234  57.030  43.972  1.00  0.00    -0.000 C 
BRANCH   7   8
ATOM      8  C   UNL     1      41.221  58.033  44.551  1.00  0.00    -0.000 C 
BRANCH   8   9
ATOM      9  C   UNL     1      40.144  57.376  45.441  1.00  0.00    -0.000 C 
BRANCH   9  10
ATOM     10  C   UNL     1      40.703  56.189  46.244  1.00  0.00    -0.000 C 
BRANCH  10  11
ATOM     11  C   UNL     1      39.668  55.578  47.199  1.00  0.00    -0.003 C 
ATOM     12  C   UNL     1      39.690  54.052  47.203  1.00  0.00     0.004 C 
ENDBRANCH  10  11
ENDBRANCH   9  10
ENDBRANCH   8   9
ENDBRANCH   7   8
ENDBRANCH   6   7
ENDBRANCH   5   6
ENDBRANCH   4   5
ENDBRANCH   3   4
ENDBRANCH   2   3
ENDBRANCH   1   2
BRANCH   1  13
ATOM     13  C   UNL     1      46.576  57.579  50.037  1.00  0.00     0.000 C 
BRANCH  13  14
ATOM     14  C   UNL     1      45.878  58.757  50.724  1.00  0.00     0.000 C 
BRANCH  14  15
ATOM     15  C   UNL     1      45.032  59.555  49.719  1.00  0.00     0.000 C 
BRANCH  15  16
ATOM     16  C   UNL     1      45.523  61.003  49.557  1.00  0.00     0.000 C 
BRANCH  16  17
ATOM     17  C   UNL     1      44.378  61.975  49.220  1.00  0.00     0.000 C 
BRANCH  17  18
ATOM     18  C   UNL     1      43.102  61.694  50.042  1.00  0.00     0.000 C 
BRANCH  18  19
ATOM     19  C   UNL     1      41.858  61.385  49.185  1.00  0.00     0.000 C 
BRANCH  19  20
ATOM     20  C   UNL     1      42.061  60.312  48.097  1.00  0.00     0.006 C 
BRANCH  20  21
ATOM     21  C   UNL     1      40.955  59.244  48.046  1.00  0.00     0.053 C 
BRANCH  21  22
ATOM     22  C   UNL     1      40.986  58.348  49.245  1.00  0.00     0.041 C 
ATOM     23  O   UNL     1      39.911  57.992  49.796  1.00  0.00    -0.550 OA
ATOM     24  O   UNL     1      42.202  57.937  49.777  1.00  0.00    -0.550 OA
ENDBRANCH  21  22
ENDBRANCH  20  21
ENDBRANCH  19  20
ENDBRANCH  18  19
ENDBRANCH  17  18
ENDBRANCH  16  17
ENDBRANCH  15  16
ENDBRANCH  14  15
ENDBRANCH  13  14
ENDBRANCH   1  13
TORSDOF 20
ENDMDL
MODEL 8
REMARK VINA RESULT:    -2.904      2.472      5.767
REMARK INTER + INTRA:          -8.504
REMARK INTER:                  -5.968
REMARK INTRA:                  -2.536
REMARK UNBOUND:                -2.204
REMARK SMILES CCCCCCCCCCCCCCCCCCCCCC(=O)[O-]
REMARK SMILES IDX 12 1 11 2 10 3 9 4 8 5 7 6 6 7 5 8 4 9 3 10 2 11 1 12 13 13
REMARK SMILES IDX 14 14 15 15 16 16 17 17 18 18 19 19 20 20 21 21 22 22 23 23
REMARK SMILES IDX 24 24
REMARK H PARENT
REMARK Flexibility Score: inf
ROOT
ATOM      1  C   UNL     1      42.106  57.233  43.761  1.00  0.00     0.000 C 
ENDROOT
BRANCH   1   2
ATOM      2  C   UNL     1      41.101  58.082  44.570  1.00  0.00     0.000 C 
BRANCH   2   3
ATOM      3  C   UNL     1      40.074  57.249  45.364  1.00  0.00     0.000 C 
BRANCH   3   4
ATOM      4  C   UNL     1      40.655  56.468  46.553  1.00  0.00    -0.000 C 
BRANCH   4   5
ATOM      5  C   UNL     1      39.599  55.618  47.282  1.00  0.00    -0.000 C 
BRANCH   5   6
ATOM      6  C   UNL     1      38.881  56.398  48.394  1.00  0.00    -0.000 C 
BRANCH   6   7
ATOM      7  C   UNL     1      39.373  57.852  48.509  1.00  0.00    -0.000 C 
BRANCH   7   8
ATOM      8  C   UNL     1      40.342  58.065  49.686  1.00  0.00    -0.000 C 
BRANCH   8   9
ATOM      9  C   UNL     1      41.730  58.583  49.254  1.00  0.00    -0.000 C 
BRANCH   9  10
ATOM     10  C   UNL     1      41.649  59.489  48.013  1.00  0.00    -0.000 C 
BRANCH  10  11
ATOM     11  C   UNL     1      41.847  60.974  48.349  1.00  0.00    -0.003 C 
ATOM     12  C   UNL     1      41.832  61.250  49.851  1.00  0.00     0.004 C 
ENDBRANCH  10  11
ENDBRANCH   9  10
ENDBRANCH   8   9
ENDBRANCH   7   8
ENDBRANCH   6   7
ENDBRANCH   5   6
ENDBRANCH   4   5
ENDBRANCH   3   4
ENDBRANCH   2   3
ENDBRANCH   1   2
BRANCH   1  13
ATOM     13  C   UNL     1      43.363  56.884  44.572  1.00  0.00     0.000 C 
BRANCH  13  14
ATOM     14  C   UNL     1      44.131  58.147  44.976  1.00  0.00     0.000 C 
BRANCH  14  15
ATOM     15  C   UNL     1      44.238  58.260  46.504  1.00  0.00     0.000 C 
BRANCH  15  16
ATOM     16  C   UNL     1      44.124  56.894  47.204  1.00  0.00     0.000 C 
BRANCH  16  17
ATOM     17  C   UNL     1      45.363  56.567  48.055  1.00  0.00     0.000 C 
BRANCH  17  18
ATOM     18  C   UNL     1      45.997  57.826  48.685  1.00  0.00     0.000 C 
BRANCH  18  19
ATOM     19  C   UNL     1      45.220  58.382  49.895  1.00  0.00     0.000 C 
BRANCH  19  20
ATOM     20  C   UNL     1      45.254  59.916  50.047  1.00  0.00     0.006 C 
BRANCH  20  21
ATOM     21  C   UNL     1      45.295  60.685  48.715  1.00  0.00     0.053 C 
BRANCH  21  22
ATOM     22  C   UNL     1      45.400  62.163  48.925  1.00  0.00     0.041 C 
ATOM     23  O   UNL     1      46.315  62.820  48.362  1.00  0.00    -0.550 OA
ATOM     24  O   UNL     1      44.510  62.811  49.772  1.00  0.00    -0.550 OA
ENDBRANCH  21  22
ENDBRANCH  20  21
ENDBRANCH  19  20
ENDBRANCH  18  19
ENDBRANCH  17  18
ENDBRANCH  16  17
ENDBRANCH  15  16
ENDBRANCH  14  15
ENDBRANCH  13  14
ENDBRANCH   1  13
TORSDOF 20
ENDMDL
MODEL 9
REMARK VINA RESULT:    -2.806      2.806      6.320
REMARK INTER + INTRA:          -8.291
REMARK INTER:                  -5.852
REMARK INTRA:                  -2.439
REMARK UNBOUND:                -2.204
REMARK SMILES CCCCCCCCCCCCCCCCCCCCCC(=O)[O-]
REMARK SMILES IDX 12 1 11 2 10 3 9 4 8 5 7 6 6 7 5 8 4 9 3 10 2 11 1 12 13 13
REMARK SMILES IDX 14 14 15 15 16 16 17 17 18 18 19 19 20 20 21 21 22 22 23 23
REMARK SMILES IDX 24 24
REMARK H PARENT
REMARK Flexibility Score: inf
ROOT
ATOM      1  C   UNL     1      40.197  57.968  49.774  1.00  0.00     0.000 C 
ENDROOT
BRANCH   1   2
ATOM      2  C   UNL     1      39.294  57.866  48.526  1.00  0.00     0.000 C 
BRANCH   2   3
ATOM      3  C   UNL     1      38.815  56.433  48.215  1.00  0.00     0.000 C 
BRANCH   3   4
ATOM      4  C   UNL     1      39.711  55.649  47.243  1.00  0.00    -0.000 C 
BRANCH   4   5
ATOM      5  C   UNL     1      40.839  56.508  46.646  1.00  0.00    -0.000 C 
BRANCH   5   6
ATOM      6  C   UNL     1      40.382  57.309  45.417  1.00  0.00    -0.000 C 
BRANCH   6   7
ATOM      7  C   UNL     1      41.553  57.984  44.681  1.00  0.00    -0.000 C 
BRANCH   7   8
ATOM      8  C   UNL     1      42.754  57.045  44.478  1.00  0.00    -0.000 C 
BRANCH   8   9
ATOM      9  C   UNL     1      44.089  57.635  44.981  1.00  0.00    -0.000 C 
BRANCH   9  10
ATOM     10  C   UNL     1      44.004  58.091  46.447  1.00  0.00    -0.000 C 
BRANCH  10  11
ATOM     11  C   UNL     1      44.032  56.916  47.436  1.00  0.00    -0.003 C 
ATOM     12  C   UNL     1      45.445  56.417  47.726  1.00  0.00     0.004 C 
ENDBRANCH  10  11
ENDBRANCH   9  10
ENDBRANCH   8   9
ENDBRANCH   7   8
ENDBRANCH   6   7
ENDBRANCH   5   6
ENDBRANCH   4   5
ENDBRANCH   3   4
ENDBRANCH   2   3
ENDBRANCH   1   2
BRANCH   1  13
ATOM     13  C   UNL     1      41.515  58.702  49.484  1.00  0.00     0.000 C 
BRANCH  13  14
ATOM     14  C   UNL     1      41.505  59.330  48.086  1.00  0.00     0.000 C 
BRANCH  14  15
ATOM     15  C   UNL     1      42.141  60.728  48.108  1.00  0.00     0.000 C 
BRANCH  15  16
ATOM     16  C   UNL     1      41.845  61.489  49.412  1.00  0.00     0.000 C 
BRANCH  16  17
ATOM     17  C   UNL     1      43.128  61.925  50.140  1.00  0.00     0.000 C 
BRANCH  17  18
ATOM     18  C   UNL     1      44.322  62.109  49.178  1.00  0.00     0.000 C 
BRANCH  18  19
ATOM     19  C   UNL     1      45.545  61.235  49.520  1.00  0.00     0.000 C 
BRANCH  19  20
ATOM     20  C   UNL     1      45.364  59.725  49.266  1.00  0.00     0.006 C 
BRANCH  20  21
ATOM     21  C   UNL     1      44.864  58.932  50.486  1.00  0.00     0.053 C 
BRANCH  21  22
ATOM     22  C   UNL     1      45.979  58.218  51.185  1.00  0.00     0.041 C 
ATOM     23  O   UNL     1      46.908  57.688  50.519  1.00  0.00    -0.550 OA
ATOM     24  O   UNL     1      45.972  58.102  52.569  1.00  0.00    -0.550 OA
ENDBRANCH  21  22
ENDBRANCH  20  21
ENDBRANCH  19  20
ENDBRANCH  18  19
ENDBRANCH  17  18
ENDBRANCH  16  17
ENDBRANCH  15  16
ENDBRANCH  14  15
ENDBRANCH  13  14
ENDBRANCH   1  13
TORSDOF 20
ENDMDL
