MODEL 1
REMARK VINA RESULT:    -3.743      0.000      0.000
REMARK INTER + INTRA:          -4.190
REMARK INTER:                  -4.181
REMARK INTRA:                  -0.009
REMARK UNBOUND:                -0.009
REMARK SMILES CCCC(=O)[O-]
REMARK SMILES IDX 3 1 4 2 5 3 6 4 2 5 1 6
REMARK H PARENT
REMARK Flexibility Score: inf
ROOT
ATOM      1  C   UNL     1    -142.519 103.476  34.529  1.00  0.00     0.052 C 
ENDROOT
BRANCH   1   2
ATOM      2  C   UNL     1    -143.268 102.632  33.543  1.00  0.00     0.041 C 
ATOM      3  O   UNL     1    -143.250 102.924  32.318  1.00  0.00    -0.550 OA
ATOM      4  O   UNL     1    -143.957 101.504  33.972  1.00  0.00    -0.550 OA
ENDBRANCH   1   2
BRANCH   1   5
ATOM      5  C   UNL     1    -142.467 104.947  34.096  1.00  0.00     0.003 C 
ATOM      6  C   UNL     1    -141.841 105.846  35.161  1.00  0.00     0.004 C 
ENDBRANCH   1   5
TORSDOF 2
ENDMDL
MODEL 2
REMARK VINA RESULT:    -3.680      0.107      1.325
REMARK INTER + INTRA:          -4.119
REMARK INTER:                  -4.112
REMARK INTRA:                  -0.007
REMARK UNBOUND:                -0.009
REMARK SMILES CCCC(=O)[O-]
REMARK SMILES IDX 3 1 4 2 5 3 6 4 2 5 1 6
REMARK H PARENT
REMARK Flexibility Score: inf
ROOT
ATOM      1  C   UNL     1    -142.507 103.470  34.622  1.00  0.00     0.052 C 
ENDROOT
BRANCH   1   2
ATOM      2  C   UNL     1    -143.246 102.578  33.670  1.00  0.00     0.041 C 
ATOM      3  O   UNL     1    -143.862 101.567  34.099  1.00  0.00    -0.550 OA
ATOM      4  O   UNL     1    -143.283 102.884  32.315  1.00  0.00    -0.550 OA
ENDBRANCH   1   2
BRANCH   1   5
ATOM      5  C   UNL     1    -142.519 104.932  34.157  1.00  0.00     0.003 C 
ATOM      6  C   UNL     1    -141.870 105.871  35.174  1.00  0.00     0.004 C 
ENDBRANCH   1   5
TORSDOF 2
ENDMDL
MODEL 3
REMARK VINA RESULT:    -3.509      2.138      3.390
REMARK INTER + INTRA:          -3.928
REMARK INTER:                  -3.917
REMARK INTRA:                  -0.011
REMARK UNBOUND:                -0.009
REMARK SMILES CCCC(=O)[O-]
REMARK SMILES IDX 3 1 4 2 5 3 6 4 2 5 1 6
REMARK H PARENT
REMARK Flexibility Score: inf
ROOT
ATOM      1  C   UNL     1    -142.871 103.435  34.947  1.00  0.00     0.052 C 
ENDROOT
BRANCH   1   2
ATOM      2  C   UNL     1    -142.393 104.737  34.377  1.00  0.00     0.041 C 
ATOM      3  O   UNL     1    -142.561 104.992  33.155  1.00  0.00    -0.550 OA
ATOM      4  O   UNL     1    -141.794 105.680  35.202  1.00  0.00    -0.550 OA
ENDBRANCH   1   2
BRANCH   1   5
ATOM      5  C   UNL     1    -142.955 102.342  33.875  1.00  0.00     0.003 C 
ATOM      6  C   UNL     1    -143.697 101.099  34.368  1.00  0.00     0.004 C 
ENDBRANCH   1   5
TORSDOF 2
ENDMDL
MODEL 4
REMARK VINA RESULT:    -3.389     20.067     20.915
REMARK INTER + INTRA:          -3.794
REMARK INTER:                  -3.778
REMARK INTRA:                  -0.017
REMARK UNBOUND:                -0.009
REMARK SMILES CCCC(=O)[O-]
REMARK SMILES IDX 3 1 4 2 5 3 6 4 2 5 1 6
REMARK H PARENT
REMARK Flexibility Score: inf
ROOT
ATOM      1  C   UNL     1    -129.701 115.934  45.041  1.00  0.00     0.052 C 
ENDROOT
BRANCH   1   2
ATOM      2  C   UNL     1    -129.766 115.535  43.597  1.00  0.00     0.041 C 
ATOM      3  O   UNL     1    -130.157 116.361  42.731  1.00  0.00    -0.550 OA
ATOM      4  O   UNL     1    -129.362 114.265  43.207  1.00  0.00    -0.550 OA
ENDBRANCH   1   2
BRANCH   1   5
ATOM      5  C   UNL     1    -130.100 117.401  45.245  1.00  0.00     0.003 C 
ATOM      6  C   UNL     1    -130.816 117.630  46.576  1.00  0.00     0.004 C 
ENDBRANCH   1   5
TORSDOF 2
ENDMDL
MODEL 5
REMARK VINA RESULT:    -3.369     19.992     21.121
REMARK INTER + INTRA:          -3.771
REMARK INTER:                  -3.757
REMARK INTRA:                  -0.014
REMARK UNBOUND:                -0.009
REMARK SMILES CCCC(=O)[O-]
REMARK SMILES IDX 3 1 4 2 5 3 6 4 2 5 1 6
REMARK H PARENT
REMARK Flexibility Score: inf
ROOT
ATOM      1  C   UNL     1    -129.783 116.522  43.479  1.00  0.00     0.052 C 
ENDROOT
BRANCH   1   2
ATOM      2  C   UNL     1    -129.744 115.186  44.159  1.00  0.00     0.041 C 
ATOM      3  O   UNL     1    -130.073 114.146  43.529  1.00  0.00    -0.550 OA
ATOM      4  O   UNL     1    -129.312 115.087  45.475  1.00  0.00    -0.550 OA
ENDBRANCH   1   2
BRANCH   1   5
ATOM      5  C   UNL     1    -129.378 117.656  44.429  1.00  0.00     0.003 C 
ATOM      6  C   UNL     1    -128.631 118.779  43.709  1.00  0.00     0.004 C 
ENDBRANCH   1   5
TORSDOF 2
ENDMDL
MODEL 6
REMARK VINA RESULT:    -3.357     20.924     21.976
REMARK INTER + INTRA:          -3.758
REMARK INTER:                  -3.743
REMARK INTRA:                  -0.015
REMARK UNBOUND:                -0.009
REMARK SMILES CCCC(=O)[O-]
REMARK SMILES IDX 3 1 4 2 5 3 6 4 2 5 1 6
REMARK H PARENT
REMARK Flexibility Score: inf
ROOT
ATOM      1  C   UNL     1    -130.063 117.507  45.173  1.00  0.00     0.052 C 
ENDROOT
BRANCH   1   2
ATOM      2  C   UNL     1    -130.707 117.478  46.527  1.00  0.00     0.041 C 
ATOM      3  O   UNL     1    -130.961 118.554  47.130  1.00  0.00    -0.550 OA
ATOM      4  O   UNL     1    -131.057 116.264  47.105  1.00  0.00    -0.550 OA
ENDBRANCH   1   2
BRANCH   1   5
ATOM      5  C   UNL     1    -129.649 116.105  44.709  1.00  0.00     0.003 C 
ATOM      6  C   UNL     1    -129.747 115.941  43.193  1.00  0.00     0.004 C 
ENDBRANCH   1   5
TORSDOF 2
ENDMDL
MODEL 7
REMARK VINA RESULT:    -3.304     21.545     21.967
REMARK INTER + INTRA:          -3.698
REMARK INTER:                  -3.685
REMARK INTRA:                  -0.013
REMARK UNBOUND:                -0.009
REMARK SMILES CCCC(=O)[O-]
REMARK SMILES IDX 3 1 4 2 5 3 6 4 2 5 1 6
REMARK H PARENT
REMARK Flexibility Score: inf
ROOT
ATOM      1  C   UNL     1    -130.102 117.616  45.340  1.00  0.00     0.052 C 
ENDROOT
BRANCH   1   2
ATOM      2  C   UNL     1    -130.206 116.282  46.016  1.00  0.00     0.041 C 
ATOM      3  O   UNL     1    -130.946 116.141  47.025  1.00  0.00    -0.550 OA
ATOM      4  O   UNL     1    -129.515 115.189  45.510  1.00  0.00    -0.550 OA
ENDBRANCH   1   2
BRANCH   1   5
ATOM      5  C   UNL     1    -129.383 117.514  43.989  1.00  0.00     0.003 C 
ATOM      6  C   UNL     1    -128.650 118.805  43.621  1.00  0.00     0.004 C 
ENDBRANCH   1   5
TORSDOF 2
ENDMDL
MODEL 8
REMARK VINA RESULT:    -3.233     18.830     19.984
REMARK INTER + INTRA:          -3.620
REMARK INTER:                  -3.613
REMARK INTRA:                  -0.006
REMARK UNBOUND:                -0.009
REMARK SMILES CCCC(=O)[O-]
REMARK SMILES IDX 3 1 4 2 5 3 6 4 2 5 1 6
REMARK H PARENT
REMARK Flexibility Score: inf
ROOT
ATOM      1  C   UNL     1    -129.716 115.491  43.319  1.00  0.00     0.052 C 
ENDROOT
BRANCH   1   2
ATOM      2  C   UNL     1    -129.689 114.010  43.088  1.00  0.00     0.041 C 
ATOM      3  O   UNL     1    -130.373 113.502  42.162  1.00  0.00    -0.550 OA
ATOM      4  O   UNL     1    -128.881 113.198  43.874  1.00  0.00    -0.550 OA
ENDBRANCH   1   2
BRANCH   1   5
ATOM      5  C   UNL     1    -129.627 115.836  44.811  1.00  0.00     0.003 C 
ATOM      6  C   UNL     1    -129.966 117.300  45.091  1.00  0.00     0.004 C 
ENDBRANCH   1   5
TORSDOF 2
ENDMDL
MODEL 9
REMARK VINA RESULT:    -3.184     20.177     21.225
REMARK INTER + INTRA:          -3.565
REMARK INTER:                  -3.558
REMARK INTRA:                  -0.008
REMARK UNBOUND:                -0.009
REMARK SMILES CCCC(=O)[O-]
REMARK SMILES IDX 3 1 4 2 5 3 6 4 2 5 1 6
REMARK H PARENT
REMARK Flexibility Score: inf
ROOT
ATOM      1  C   UNL     1    -129.680 115.774  44.442  1.00  0.00     0.052 C 
ENDROOT
BRANCH   1   2
ATOM      2  C   UNL     1    -129.732 117.230  44.794  1.00  0.00     0.041 C 
ATOM      3  O   UNL     1    -129.165 118.079  44.057  1.00  0.00    -0.550 OA
ATOM      4  O   UNL     1    -130.435 117.650  45.916  1.00  0.00    -0.550 OA
ENDBRANCH   1   2
BRANCH   1   5
ATOM      5  C   UNL     1    -129.755 115.552  42.926  1.00  0.00     0.003 C 
ATOM      6  C   UNL     1    -130.067 114.100  42.564  1.00  0.00     0.004 C 
ENDBRANCH   1   5
TORSDOF 2
ENDMDL
