MODEL 1
REMARK VINA RESULT:    -5.464      0.000      0.000
REMARK INTER + INTRA:          -6.321
REMARK INTER:                  -6.102
REMARK INTRA:                  -0.218
REMARK UNBOUND:                -0.218
REMARK SMILES CC(C)c1ccc(C(=O)[O-])cc1
REMARK SMILES IDX 7 1 6 2 11 3 5 4 12 5 4 6 8 7 9 8 10 9 2 10 1 11 3 12
REMARK H PARENT
REMARK Flexibility Score: inf
ROOT
ATOM      1  C   UNL     1       3.015  -9.451   5.670  1.00  0.00    -0.003 A 
ATOM      2  C   UNL     1       2.777  -8.309   4.886  1.00  0.00     0.010 A 
ATOM      3  C   UNL     1       3.559 -10.594   5.061  1.00  0.00     0.010 A 
ATOM      4  C   UNL     1       3.079  -8.312   3.521  1.00  0.00     0.004 A 
ATOM      5  C   UNL     1       3.861 -10.595   3.696  1.00  0.00     0.004 A 
ATOM      6  C   UNL     1       3.624  -9.453   2.910  1.00  0.00    -0.045 A 
ENDROOT
BRANCH   1   7
ATOM      7  C   UNL     1       2.697  -9.455   7.115  1.00  0.00     0.071 C 
ATOM      8  O   UNL     1       2.412 -10.532   7.704  1.00  0.00    -0.545 OA
ATOM      9  O   UNL     1       2.708  -8.272   7.843  1.00  0.00    -0.545 OA
ENDBRANCH   1   7
BRANCH   6  10
ATOM     10  C   UNL     1       3.945  -9.440   1.427  1.00  0.00     0.013 C 
ATOM     11  C   UNL     1       4.225 -10.857   0.911  1.00  0.00     0.012 C 
ATOM     12  C   UNL     1       2.824  -8.772   0.623  1.00  0.00     0.012 C 
ENDBRANCH   6  10
TORSDOF 2
ENDMDL
MODEL 2
REMARK VINA RESULT:    -5.440      2.976      5.286
REMARK INTER + INTRA:          -6.295
REMARK INTER:                  -6.080
REMARK INTRA:                  -0.215
REMARK UNBOUND:                -0.218
REMARK SMILES CC(C)c1ccc(C(=O)[O-])cc1
REMARK SMILES IDX 7 1 6 2 11 3 5 4 12 5 4 6 8 7 9 8 10 9 2 10 1 11 3 12
REMARK H PARENT
REMARK Flexibility Score: inf
ROOT
ATOM      1  C   UNL     1       3.685  -9.683   2.963  1.00  0.00    -0.003 A 
ATOM      2  C   UNL     1       3.889 -10.841   3.733  1.00  0.00     0.010 A 
ATOM      3  C   UNL     1       3.177  -8.531   3.588  1.00  0.00     0.010 A 
ATOM      4  C   UNL     1       3.592 -10.846   5.099  1.00  0.00     0.004 A 
ATOM      5  C   UNL     1       2.880  -8.537   4.954  1.00  0.00     0.004 A 
ATOM      6  C   UNL     1       3.085  -9.696   5.725  1.00  0.00    -0.045 A 
ENDROOT
BRANCH   1   7
ATOM      7  C   UNL     1       3.996  -9.672   1.517  1.00  0.00     0.071 C 
ATOM      8  O   UNL     1       4.009  -8.589   0.874  1.00  0.00    -0.545 OA
ATOM      9  O   UNL     1       4.279 -10.856   0.848  1.00  0.00    -0.545 OA
ENDBRANCH   1   7
BRANCH   6  10
ATOM     10  C   UNL     1       2.767  -9.716   7.209  1.00  0.00     0.013 C 
ATOM     11  C   UNL     1       2.451  -8.307   7.725  1.00  0.00     0.012 C 
ATOM     12  C   UNL     1       1.620 -10.686   7.516  1.00  0.00     0.012 C 
ENDBRANCH   6  10
TORSDOF 2
ENDMDL
MODEL 3
REMARK VINA RESULT:    -5.429      0.097      1.401
REMARK INTER + INTRA:          -6.282
REMARK INTER:                  -6.063
REMARK INTRA:                  -0.219
REMARK UNBOUND:                -0.218
REMARK SMILES CC(C)c1ccc(C(=O)[O-])cc1
REMARK SMILES IDX 7 1 6 2 11 3 5 4 12 5 4 6 8 7 9 8 10 9 2 10 1 11 3 12
REMARK H PARENT
REMARK Flexibility Score: inf
ROOT
ATOM      1  C   UNL     1       3.029  -9.437   5.632  1.00  0.00    -0.003 A 
ATOM      2  C   UNL     1       3.559 -10.601   5.048  1.00  0.00     0.010 A 
ATOM      3  C   UNL     1       2.827  -8.303   4.827  1.00  0.00     0.010 A 
ATOM      4  C   UNL     1       3.880 -10.629   3.688  1.00  0.00     0.004 A 
ATOM      5  C   UNL     1       3.148  -8.333   3.466  1.00  0.00     0.004 A 
ATOM      6  C   UNL     1       3.677  -9.497   2.881  1.00  0.00    -0.045 A 
ENDROOT
BRANCH   1   7
ATOM      7  C   UNL     1       2.690  -9.400   7.071  1.00  0.00     0.071 C 
ATOM      8  O   UNL     1       2.369 -10.456   7.680  1.00  0.00    -0.545 OA
ATOM      9  O   UNL     1       2.717  -8.201   7.772  1.00  0.00    -0.545 OA
ENDBRANCH   1   7
BRANCH   6  10
ATOM     10  C   UNL     1       4.030  -9.543   1.406  1.00  0.00     0.013 C 
ATOM     11  C   UNL     1       4.280 -10.983   0.943  1.00  0.00     0.012 C 
ATOM     12  C   UNL     1       2.946  -8.870   0.556  1.00  0.00     0.012 C 
ENDBRANCH   6  10
TORSDOF 2
ENDMDL
MODEL 4
REMARK VINA RESULT:    -5.086      0.909      1.864
REMARK INTER + INTRA:          -5.899
REMARK INTER:                  -5.697
REMARK INTRA:                  -0.202
REMARK UNBOUND:                -0.218
REMARK SMILES CC(C)c1ccc(C(=O)[O-])cc1
REMARK SMILES IDX 7 1 6 2 11 3 5 4 12 5 4 6 8 7 9 8 10 9 2 10 1 11 3 12
REMARK H PARENT
REMARK Flexibility Score: inf
ROOT
ATOM      1  C   UNL     1       2.683  -9.887   6.013  1.00  0.00    -0.003 A 
ATOM      2  C   UNL     1       3.193 -11.045   5.400  1.00  0.00     0.010 A 
ATOM      3  C   UNL     1       2.731  -8.669   5.315  1.00  0.00     0.010 A 
ATOM      4  C   UNL     1       3.740 -10.984   4.115  1.00  0.00     0.004 A 
ATOM      5  C   UNL     1       3.278  -8.609   4.029  1.00  0.00     0.004 A 
ATOM      6  C   UNL     1       3.788  -9.767   3.415  1.00  0.00    -0.045 A 
ENDROOT
BRANCH   1   7
ATOM      7  C   UNL     1       2.103  -9.945   7.373  1.00  0.00     0.071 C 
ATOM      8  O   UNL     1       1.251 -10.825   7.669  1.00  0.00    -0.545 OA
ATOM      9  O   UNL     1       2.490  -9.029   8.344  1.00  0.00    -0.545 OA
ENDBRANCH   1   7
BRANCH   6  10
ATOM     10  C   UNL     1       4.385  -9.717   2.021  1.00  0.00     0.013 C 
ATOM     11  C   UNL     1       3.328  -9.327   0.981  1.00  0.00     0.012 C 
ATOM     12  C   UNL     1       5.587  -8.766   1.967  1.00  0.00     0.012 C 
ENDBRANCH   6  10
TORSDOF 2
ENDMDL
MODEL 5
REMARK VINA RESULT:    -4.473      2.781      5.056
REMARK INTER + INTRA:          -5.215
REMARK INTER:                  -4.997
REMARK INTRA:                  -0.217
REMARK UNBOUND:                -0.218
REMARK SMILES CC(C)c1ccc(C(=O)[O-])cc1
REMARK SMILES IDX 7 1 6 2 11 3 5 4 12 5 4 6 8 7 9 8 10 9 2 10 1 11 3 12
REMARK H PARENT
REMARK Flexibility Score: inf
ROOT
ATOM      1  C   UNL     1       3.642  -9.563   4.113  1.00  0.00    -0.003 A 
ATOM      2  C   UNL     1       3.440  -8.350   4.794  1.00  0.00     0.010 A 
ATOM      3  C   UNL     1       3.177 -10.755   4.692  1.00  0.00     0.010 A 
ATOM      4  C   UNL     1       2.786  -8.332   6.030  1.00  0.00     0.004 A 
ATOM      5  C   UNL     1       2.522 -10.736   5.928  1.00  0.00     0.004 A 
ATOM      6  C   UNL     1       2.319  -9.522   6.610  1.00  0.00    -0.045 A 
ENDROOT
BRANCH   1   7
ATOM      7  C   UNL     1       4.334  -9.589   2.806  1.00  0.00     0.071 C 
ATOM      8  O   UNL     1       3.920 -10.333   1.877  1.00  0.00    -0.545 OA
ATOM      9  O   UNL     1       5.452  -8.794   2.584  1.00  0.00    -0.545 OA
ENDBRANCH   1   7
BRANCH   6  10
ATOM     10  C   UNL     1       1.611  -9.487   7.952  1.00  0.00     0.013 C 
ATOM     11  C   UNL     1       2.055 -10.654   8.842  1.00  0.00     0.012 C 
ATOM     12  C   UNL     1       1.828  -8.143   8.657  1.00  0.00     0.012 C 
ENDBRANCH   6  10
TORSDOF 2
ENDMDL
MODEL 6
REMARK VINA RESULT:    -4.363     17.657     19.316
REMARK INTER + INTRA:          -5.091
REMARK INTER:                  -4.875
REMARK INTRA:                  -0.216
REMARK UNBOUND:                -0.218
REMARK SMILES CC(C)c1ccc(C(=O)[O-])cc1
REMARK SMILES IDX 7 1 6 2 11 3 5 4 12 5 4 6 8 7 9 8 10 9 2 10 1 11 3 12
REMARK H PARENT
REMARK Flexibility Score: inf
ROOT
ATOM      1  C   UNL     1      13.210 -21.321  -8.132  1.00  0.00    -0.003 A 
ATOM      2  C   UNL     1      12.521 -21.799  -7.003  1.00  0.00     0.010 A 
ATOM      3  C   UNL     1      12.576 -20.389  -8.971  1.00  0.00     0.010 A 
ATOM      4  C   UNL     1      11.226 -21.353  -6.721  1.00  0.00     0.004 A 
ATOM      5  C   UNL     1      11.282 -19.944  -8.689  1.00  0.00     0.004 A 
ATOM      6  C   UNL     1      10.592 -20.421  -7.559  1.00  0.00    -0.045 A 
ENDROOT
BRANCH   1   7
ATOM      7  C   UNL     1      14.579 -21.790  -8.436  1.00  0.00     0.071 C 
ATOM      8  O   UNL     1      14.895 -22.125  -9.609  1.00  0.00    -0.545 OA
ATOM      9  O   UNL     1      15.537 -21.869  -7.432  1.00  0.00    -0.545 OA
ENDBRANCH   1   7
BRANCH   6  10
ATOM     10  C   UNL     1       9.187 -19.946  -7.240  1.00  0.00     0.013 C 
ATOM     11  C   UNL     1       8.448 -19.515  -8.513  1.00  0.00     0.012 C 
ATOM     12  C   UNL     1       8.398 -21.020  -6.482  1.00  0.00     0.012 C 
ENDBRANCH   6  10
TORSDOF 2
ENDMDL
MODEL 7
REMARK VINA RESULT:    -4.262      1.573      2.335
REMARK INTER + INTRA:          -4.978
REMARK INTER:                  -4.765
REMARK INTRA:                  -0.213
REMARK UNBOUND:                -0.218
REMARK SMILES CC(C)c1ccc(C(=O)[O-])cc1
REMARK SMILES IDX 7 1 6 2 11 3 5 4 12 5 4 6 8 7 9 8 10 9 2 10 1 11 3 12
REMARK H PARENT
REMARK Flexibility Score: inf
ROOT
ATOM      1  C   UNL     1       1.954  -9.852   6.854  1.00  0.00    -0.003 A 
ATOM      2  C   UNL     1       2.817  -8.742   6.852  1.00  0.00     0.010 A 
ATOM      3  C   UNL     1       1.732 -10.544   5.652  1.00  0.00     0.010 A 
ATOM      4  C   UNL     1       3.445  -8.335   5.671  1.00  0.00     0.004 A 
ATOM      5  C   UNL     1       2.361 -10.136   4.472  1.00  0.00     0.004 A 
ATOM      6  C   UNL     1       3.225  -9.026   4.469  1.00  0.00    -0.045 A 
ENDROOT
BRANCH   1   7
ATOM      7  C   UNL     1       1.286 -10.287   8.100  1.00  0.00     0.071 C 
ATOM      8  O   UNL     1       0.045 -10.127   8.251  1.00  0.00    -0.545 OA
ATOM      9  O   UNL     1       2.017 -10.878   9.124  1.00  0.00    -0.545 OA
ENDBRANCH   1   7
BRANCH   6  10
ATOM     10  C   UNL     1       3.914  -8.572   3.195  1.00  0.00     0.013 C 
ATOM     11  C   UNL     1       5.240  -7.869   3.505  1.00  0.00     0.012 C 
ATOM     12  C   UNL     1       4.124  -9.745   2.231  1.00  0.00     0.012 C 
ENDBRANCH   6  10
TORSDOF 2
ENDMDL
MODEL 8
REMARK VINA RESULT:    -3.935     16.554     19.049
REMARK INTER + INTRA:          -4.613
REMARK INTER:                  -4.408
REMARK INTRA:                  -0.205
REMARK UNBOUND:                -0.218
REMARK SMILES CC(C)c1ccc(C(=O)[O-])cc1
REMARK SMILES IDX 7 1 6 2 11 3 5 4 12 5 4 6 8 7 9 8 10 9 2 10 1 11 3 12
REMARK H PARENT
REMARK Flexibility Score: inf
ROOT
ATOM      1  C   UNL     1      10.721 -20.172  -7.657  1.00  0.00    -0.003 A 
ATOM      2  C   UNL     1      11.283 -21.066  -6.730  1.00  0.00     0.010 A 
ATOM      3  C   UNL     1      11.405 -19.917  -8.857  1.00  0.00     0.010 A 
ATOM      4  C   UNL     1      12.504 -21.692  -6.998  1.00  0.00     0.004 A 
ATOM      5  C   UNL     1      12.626 -20.543  -9.125  1.00  0.00     0.004 A 
ATOM      6  C   UNL     1      13.189 -21.438  -8.198  1.00  0.00    -0.045 A 
ENDROOT
BRANCH   1   7
ATOM      7  C   UNL     1       9.430 -19.506  -7.378  1.00  0.00     0.071 C 
ATOM      8  O   UNL     1       9.334 -18.659  -6.450  1.00  0.00    -0.545 OA
ATOM      9  O   UNL     1       8.303 -19.806  -8.134  1.00  0.00    -0.545 OA
ENDBRANCH   1   7
BRANCH   6  10
ATOM     10  C   UNL     1      14.514 -22.125  -8.475  1.00  0.00     0.013 C 
ATOM     11  C   UNL     1      14.861 -22.072  -9.968  1.00  0.00     0.012 C 
ATOM     12  C   UNL     1      15.638 -21.521  -7.626  1.00  0.00     0.012 C 
ENDBRANCH   6  10
TORSDOF 2
ENDMDL
MODEL 9
REMARK VINA RESULT:    -3.207     16.954     18.664
REMARK INTER + INTRA:          -3.800
REMARK INTER:                  -3.591
REMARK INTRA:                  -0.209
REMARK UNBOUND:                -0.218
REMARK SMILES CC(C)c1ccc(C(=O)[O-])cc1
REMARK SMILES IDX 7 1 6 2 11 3 5 4 12 5 4 6 8 7 9 8 10 9 2 10 1 11 3 12
REMARK H PARENT
REMARK Flexibility Score: inf
ROOT
ATOM      1  C   UNL     1      15.636  -6.438  -9.501  1.00  0.00    -0.003 A 
ATOM      2  C   UNL     1      15.756  -7.229  -8.345  1.00  0.00     0.010 A 
ATOM      3  C   UNL     1      14.957  -6.960 -10.615  1.00  0.00     0.010 A 
ATOM      4  C   UNL     1      15.208  -8.514  -8.305  1.00  0.00     0.004 A 
ATOM      5  C   UNL     1      14.409  -8.246 -10.574  1.00  0.00     0.004 A 
ATOM      6  C   UNL     1      14.528  -9.037  -9.417  1.00  0.00    -0.045 A 
ENDROOT
BRANCH   1   7
ATOM      7  C   UNL     1      16.215  -5.078  -9.550  1.00  0.00     0.071 C 
ATOM      8  O   UNL     1      16.992  -4.746 -10.485  1.00  0.00    -0.545 OA
ATOM      9  O   UNL     1      15.912  -4.147  -8.564  1.00  0.00    -0.545 OA
ENDBRANCH   1   7
BRANCH   6  10
ATOM     10  C   UNL     1      13.939 -10.434  -9.359  1.00  0.00     0.013 C 
ATOM     11  C   UNL     1      14.719 -11.400 -10.259  1.00  0.00     0.012 C 
ATOM     12  C   UNL     1      13.878 -10.950  -7.917  1.00  0.00     0.012 C 
ENDBRANCH   6  10
TORSDOF 2
ENDMDL
