MODEL 1
REMARK VINA RESULT:    -5.343      0.000      0.000
REMARK INTER + INTRA:          -6.173
REMARK INTER:                  -5.968
REMARK INTRA:                  -0.206
REMARK UNBOUND:                -0.206
REMARK SMILES CC(C)c1ccc(C(=O)[O-])cc1
REMARK SMILES IDX 7 1 6 2 11 3 5 4 12 5 4 6 8 7 9 8 10 9 2 10 1 11 3 12
REMARK H PARENT
REMARK Flexibility Score: inf
ROOT
ATOM      1  C   UNL     1       3.875 -13.256  17.960  1.00  0.00    -0.003 A 
ATOM      2  C   UNL     1       4.778 -12.583  18.799  1.00  0.00     0.010 A 
ATOM      3  C   UNL     1       4.279 -13.598  16.659  1.00  0.00     0.010 A 
ATOM      4  C   UNL     1       6.060 -12.259  18.347  1.00  0.00     0.004 A 
ATOM      5  C   UNL     1       5.562 -13.273  16.206  1.00  0.00     0.004 A 
ATOM      6  C   UNL     1       6.467 -12.601  17.044  1.00  0.00    -0.045 A 
ENDROOT
BRANCH   1   7
ATOM      7  C   UNL     1       2.519 -13.598  18.443  1.00  0.00     0.071 C 
ATOM      8  O   UNL     1       2.251 -14.767  18.828  1.00  0.00    -0.545 OA
ATOM      9  O   UNL     1       1.519 -12.631  18.479  1.00  0.00    -0.545 OA
ENDBRANCH   1   7
BRANCH   6  10
ATOM     10  C   UNL     1       7.855 -12.254  16.540  1.00  0.00     0.013 C 
ATOM     11  C   UNL     1       7.973 -10.756  16.234  1.00  0.00     0.012 C 
ATOM     12  C   UNL     1       8.227 -13.098  15.315  1.00  0.00     0.012 C 
ENDBRANCH   6  10
TORSDOF 2
ENDMDL
MODEL 2
REMARK VINA RESULT:    -5.333      0.133      1.404
REMARK INTER + INTRA:          -6.162
REMARK INTER:                  -5.958
REMARK INTRA:                  -0.204
REMARK UNBOUND:                -0.206
REMARK SMILES CC(C)c1ccc(C(=O)[O-])cc1
REMARK SMILES IDX 7 1 6 2 11 3 5 4 12 5 4 6 8 7 9 8 10 9 2 10 1 11 3 12
REMARK H PARENT
REMARK Flexibility Score: inf
ROOT
ATOM      1  C   UNL     1       3.905 -13.263  17.971  1.00  0.00    -0.003 A 
ATOM      2  C   UNL     1       4.305 -13.607  16.670  1.00  0.00     0.010 A 
ATOM      3  C   UNL     1       4.806 -12.576  18.802  1.00  0.00     0.010 A 
ATOM      4  C   UNL     1       5.580 -13.270  16.208  1.00  0.00     0.004 A 
ATOM      5  C   UNL     1       6.082 -12.240  18.340  1.00  0.00     0.004 A 
ATOM      6  C   UNL     1       6.484 -12.582  17.038  1.00  0.00    -0.045 A 
ENDROOT
BRANCH   1   7
ATOM      7  C   UNL     1       2.553 -13.620  18.457  1.00  0.00     0.071 C 
ATOM      8  O   UNL     1       2.365 -14.685  19.103  1.00  0.00    -0.545 OA
ATOM      9  O   UNL     1       1.470 -12.784  18.205  1.00  0.00    -0.545 OA
ENDBRANCH   1   7
BRANCH   6  10
ATOM     10  C   UNL     1       7.871 -12.213  16.549  1.00  0.00     0.013 C 
ATOM     11  C   UNL     1       7.975 -10.709  16.269  1.00  0.00     0.012 C 
ATOM     12  C   UNL     1       8.261 -13.033  15.314  1.00  0.00     0.012 C 
ENDBRANCH   6  10
TORSDOF 2
ENDMDL
MODEL 3
REMARK VINA RESULT:    -5.170      3.205      5.306
REMARK INTER + INTRA:          -5.980
REMARK INTER:                  -5.774
REMARK INTRA:                  -0.206
REMARK UNBOUND:                -0.206
REMARK SMILES CC(C)c1ccc(C(=O)[O-])cc1
REMARK SMILES IDX 7 1 6 2 11 3 5 4 12 5 4 6 8 7 9 8 10 9 2 10 1 11 3 12
REMARK H PARENT
REMARK Flexibility Score: inf
ROOT
ATOM      1  C   UNL     1       6.818 -12.646  16.638  1.00  0.00    -0.003 A 
ATOM      2  C   UNL     1       5.881 -13.622  16.262  1.00  0.00     0.010 A 
ATOM      3  C   UNL     1       6.680 -12.013  17.886  1.00  0.00     0.010 A 
ATOM      4  C   UNL     1       4.827 -13.960  17.116  1.00  0.00     0.004 A 
ATOM      5  C   UNL     1       5.625 -12.352  18.740  1.00  0.00     0.004 A 
ATOM      6  C   UNL     1       4.688 -13.329  18.365  1.00  0.00    -0.045 A 
ENDROOT
BRANCH   1   7
ATOM      7  C   UNL     1       7.933 -12.291  15.732  1.00  0.00     0.071 C 
ATOM      8  O   UNL     1       8.227 -11.085  15.520  1.00  0.00    -0.545 OA
ATOM      9  O   UNL     1       8.671 -13.286  15.100  1.00  0.00    -0.545 OA
ENDBRANCH   1   7
BRANCH   6  10
ATOM     10  C   UNL     1       3.548 -13.685  19.300  1.00  0.00     0.013 C 
ATOM     11  C   UNL     1       3.120 -15.146  19.117  1.00  0.00     0.012 C 
ATOM     12  C   UNL     1       2.360 -12.734  19.115  1.00  0.00     0.012 C 
ENDBRANCH   6  10
TORSDOF 2
ENDMDL
MODEL 4
REMARK VINA RESULT:    -5.169      3.171      5.126
REMARK INTER + INTRA:          -5.979
REMARK INTER:                  -5.771
REMARK INTRA:                  -0.208
REMARK UNBOUND:                -0.206
REMARK SMILES CC(C)c1ccc(C(=O)[O-])cc1
REMARK SMILES IDX 7 1 6 2 11 3 5 4 12 5 4 6 8 7 9 8 10 9 2 10 1 11 3 12
REMARK H PARENT
REMARK Flexibility Score: inf
ROOT
ATOM      1  C   UNL     1       6.765 -12.681  16.666  1.00  0.00    -0.003 A 
ATOM      2  C   UNL     1       6.625 -12.044  17.910  1.00  0.00     0.010 A 
ATOM      3  C   UNL     1       5.814 -13.641  16.281  1.00  0.00     0.010 A 
ATOM      4  C   UNL     1       5.554 -12.359  18.751  1.00  0.00     0.004 A 
ATOM      5  C   UNL     1       4.742 -13.956  17.122  1.00  0.00     0.004 A 
ATOM      6  C   UNL     1       4.600 -13.319  18.367  1.00  0.00    -0.045 A 
ENDROOT
BRANCH   1   7
ATOM      7  C   UNL     1       7.900 -12.345  15.778  1.00  0.00     0.071 C 
ATOM      8  O   UNL     1       8.215 -11.144  15.568  1.00  0.00    -0.545 OA
ATOM      9  O   UNL     1       8.635 -13.352  15.161  1.00  0.00    -0.545 OA
ENDBRANCH   1   7
BRANCH   6  10
ATOM     10  C   UNL     1       3.434 -13.671  19.271  1.00  0.00     0.013 C 
ATOM     11  C   UNL     1       2.962 -15.110  19.027  1.00  0.00     0.012 C 
ATOM     12  C   UNL     1       2.281 -12.676  19.101  1.00  0.00     0.012 C 
ENDBRANCH   6  10
TORSDOF 2
ENDMDL
MODEL 5
REMARK VINA RESULT:    -5.159      2.821      3.631
REMARK INTER + INTRA:          -5.968
REMARK INTER:                  -5.764
REMARK INTRA:                  -0.204
REMARK UNBOUND:                -0.206
REMARK SMILES CC(C)c1ccc(C(=O)[O-])cc1
REMARK SMILES IDX 7 1 6 2 11 3 5 4 12 5 4 6 8 7 9 8 10 9 2 10 1 11 3 12
REMARK H PARENT
REMARK Flexibility Score: inf
ROOT
ATOM      1  C   UNL     1       2.957 -14.859  14.883  1.00  0.00    -0.003 A 
ATOM      2  C   UNL     1       2.734 -13.723  15.678  1.00  0.00     0.010 A 
ATOM      3  C   UNL     1       4.235 -15.442  14.870  1.00  0.00     0.010 A 
ATOM      4  C   UNL     1       3.768 -13.181  16.447  1.00  0.00     0.004 A 
ATOM      5  C   UNL     1       5.270 -14.900  15.639  1.00  0.00     0.004 A 
ATOM      6  C   UNL     1       5.048 -13.764  16.436  1.00  0.00    -0.045 A 
ENDROOT
BRANCH   1   7
ATOM      7  C   UNL     1       1.859 -15.430  14.071  1.00  0.00     0.071 C 
ATOM      8  O   UNL     1       1.951 -15.483  12.816  1.00  0.00    -0.545 OA
ATOM      9  O   UNL     1       0.709 -15.917  14.684  1.00  0.00    -0.545 OA
ENDBRANCH   1   7
BRANCH   6  10
ATOM     10  C   UNL     1       6.179 -13.185  17.265  1.00  0.00     0.013 C 
ATOM     11  C   UNL     1       5.645 -12.511  18.533  1.00  0.00     0.012 C 
ATOM     12  C   UNL     1       7.030 -12.213  16.439  1.00  0.00     0.012 C 
ENDBRANCH   6  10
TORSDOF 2
ENDMDL
MODEL 6
REMARK VINA RESULT:    -5.145      2.820      3.733
REMARK INTER + INTRA:          -5.952
REMARK INTER:                  -5.746
REMARK INTRA:                  -0.206
REMARK UNBOUND:                -0.206
REMARK SMILES CC(C)c1ccc(C(=O)[O-])cc1
REMARK SMILES IDX 7 1 6 2 11 3 5 4 12 5 4 6 8 7 9 8 10 9 2 10 1 11 3 12
REMARK H PARENT
REMARK Flexibility Score: inf
ROOT
ATOM      1  C   UNL     1       2.917 -14.881  14.959  1.00  0.00    -0.003 A 
ATOM      2  C   UNL     1       4.200 -15.451  14.915  1.00  0.00     0.010 A 
ATOM      3  C   UNL     1       2.697 -13.761  15.778  1.00  0.00     0.010 A 
ATOM      4  C   UNL     1       5.242 -14.912  15.675  1.00  0.00     0.004 A 
ATOM      5  C   UNL     1       3.740 -13.221  16.538  1.00  0.00     0.004 A 
ATOM      6  C   UNL     1       5.024 -13.790  16.495  1.00  0.00    -0.045 A 
ENDROOT
BRANCH   1   7
ATOM      7  C   UNL     1       1.816 -15.454  14.153  1.00  0.00     0.071 C 
ATOM      8  O   UNL     1       0.778 -15.897  14.711  1.00  0.00    -0.545 OA
ATOM      9  O   UNL     1       1.915 -15.513  12.767  1.00  0.00    -0.545 OA
ENDBRANCH   1   7
BRANCH   6  10
ATOM     10  C   UNL     1       6.146 -13.196  17.325  1.00  0.00     0.013 C 
ATOM     11  C   UNL     1       5.594 -12.460  18.552  1.00  0.00     0.012 C 
ATOM     12  C   UNL     1       7.032 -12.273  16.480  1.00  0.00     0.012 C 
ENDBRANCH   6  10
TORSDOF 2
ENDMDL
MODEL 7
REMARK VINA RESULT:    -4.865      3.329      5.092
REMARK INTER + INTRA:          -5.639
REMARK INTER:                  -5.430
REMARK INTRA:                  -0.210
REMARK UNBOUND:                -0.206
REMARK SMILES CC(C)c1ccc(C(=O)[O-])cc1
REMARK SMILES IDX 7 1 6 2 11 3 5 4 12 5 4 6 8 7 9 8 10 9 2 10 1 11 3 12
REMARK H PARENT
REMARK Flexibility Score: inf
ROOT
ATOM      1  C   UNL     1       4.976 -13.788  16.460  1.00  0.00    -0.003 A 
ATOM      2  C   UNL     1       3.706 -13.198  16.351  1.00  0.00     0.010 A 
ATOM      3  C   UNL     1       5.273 -14.915  15.674  1.00  0.00     0.010 A 
ATOM      4  C   UNL     1       2.753 -13.722  15.473  1.00  0.00     0.004 A 
ATOM      5  C   UNL     1       4.319 -15.440  14.796  1.00  0.00     0.004 A 
ATOM      6  C   UNL     1       3.049 -14.849  14.686  1.00  0.00    -0.045 A 
ENDROOT
BRANCH   1   7
ATOM      7  C   UNL     1       5.983 -13.230  17.390  1.00  0.00     0.071 C 
ATOM      8  O   UNL     1       7.099 -12.834  16.962  1.00  0.00    -0.545 OA
ATOM      9  O   UNL     1       5.709 -13.135  18.750  1.00  0.00    -0.545 OA
ENDBRANCH   1   7
BRANCH   6  10
ATOM     10  C   UNL     1       2.024 -15.429  13.730  1.00  0.00     0.013 C 
ATOM     11  C   UNL     1       0.798 -15.953  14.488  1.00  0.00     0.012 C 
ATOM     12  C   UNL     1       2.641 -16.525  12.853  1.00  0.00     0.012 C 
ENDBRANCH   6  10
TORSDOF 2
ENDMDL
MODEL 8
REMARK VINA RESULT:    -4.844      3.362      5.210
REMARK INTER + INTRA:          -5.616
REMARK INTER:                  -5.408
REMARK INTRA:                  -0.208
REMARK UNBOUND:                -0.206
REMARK SMILES CC(C)c1ccc(C(=O)[O-])cc1
REMARK SMILES IDX 7 1 6 2 11 3 5 4 12 5 4 6 8 7 9 8 10 9 2 10 1 11 3 12
REMARK H PARENT
REMARK Flexibility Score: inf
ROOT
ATOM      1  C   UNL     1       4.954 -13.829  16.410  1.00  0.00    -0.003 A 
ATOM      2  C   UNL     1       5.254 -14.950  15.619  1.00  0.00     0.010 A 
ATOM      3  C   UNL     1       3.680 -13.245  16.308  1.00  0.00     0.010 A 
ATOM      4  C   UNL     1       4.300 -15.477  14.744  1.00  0.00     0.004 A 
ATOM      5  C   UNL     1       2.726 -13.772  15.433  1.00  0.00     0.004 A 
ATOM      6  C   UNL     1       3.025 -14.894  14.641  1.00  0.00    -0.045 A 
ENDROOT
BRANCH   1   7
ATOM      7  C   UNL     1       5.967 -13.275  17.336  1.00  0.00     0.071 C 
ATOM      8  O   UNL     1       7.081 -12.876  16.903  1.00  0.00    -0.545 OA
ATOM      9  O   UNL     1       5.703 -13.187  18.698  1.00  0.00    -0.545 OA
ENDBRANCH   1   7
BRANCH   6  10
ATOM     10  C   UNL     1       1.980 -15.455  13.695  1.00  0.00     0.013 C 
ATOM     11  C   UNL     1       0.774 -16.002  14.466  1.00  0.00     0.012 C 
ATOM     12  C   UNL     1       2.581 -16.526  12.777  1.00  0.00     0.012 C 
ENDBRANCH   6  10
TORSDOF 2
ENDMDL
MODEL 9
REMARK VINA RESULT:    -4.598      3.630      4.881
REMARK INTER + INTRA:          -5.341
REMARK INTER:                  -5.135
REMARK INTRA:                  -0.206
REMARK UNBOUND:                -0.206
REMARK SMILES CC(C)c1ccc(C(=O)[O-])cc1
REMARK SMILES IDX 7 1 6 2 11 3 5 4 12 5 4 6 8 7 9 8 10 9 2 10 1 11 3 12
REMARK H PARENT
REMARK Flexibility Score: inf
ROOT
ATOM      1  C   UNL     1       2.974 -15.684  14.078  1.00  0.00    -0.003 A 
ATOM      2  C   UNL     1       4.208 -15.932  14.700  1.00  0.00     0.010 A 
ATOM      3  C   UNL     1       2.254 -14.528  14.427  1.00  0.00     0.010 A 
ATOM      4  C   UNL     1       4.714 -15.043  15.653  1.00  0.00     0.004 A 
ATOM      5  C   UNL     1       2.760 -13.639  15.380  1.00  0.00     0.004 A 
ATOM      6  C   UNL     1       3.995 -13.885  16.003  1.00  0.00    -0.045 A 
ENDROOT
BRANCH   1   7
ATOM      7  C   UNL     1       2.442 -16.628  13.069  1.00  0.00     0.071 C 
ATOM      8  O   UNL     1       1.522 -17.434  13.369  1.00  0.00    -0.545 OA
ATOM      9  O   UNL     1       2.952 -16.637  11.775  1.00  0.00    -0.545 OA
ENDBRANCH   1   7
BRANCH   6  10
ATOM     10  C   UNL     1       4.532 -12.912  17.036  1.00  0.00     0.013 C 
ATOM     11  C   UNL     1       5.988 -13.233  17.392  1.00  0.00     0.012 C 
ATOM     12  C   UNL     1       3.649 -12.891  18.289  1.00  0.00     0.012 C 
ENDBRANCH   6  10
TORSDOF 2
ENDMDL
