MODEL 1
REMARK VINA RESULT:    -4.486      0.000      0.000
REMARK INTER + INTRA:          -5.978
REMARK INTER:                  -5.797
REMARK INTRA:                  -0.181
REMARK UNBOUND:                -0.181
REMARK SMILES C=CC(=O)CCCCC
REMARK SMILES IDX 6 1 7 2 8 3 9 4 5 5 3 6 4 7 2 8 1 9
REMARK H PARENT
REMARK Flexibility Score: inf
ROOT
ATOM      1  C   UNL     1       8.280 -25.621 -24.885  1.00  0.00     0.008 C 
ENDROOT
BRANCH   1   2
ATOM      2  C   UNL     1       9.661 -25.679 -25.554  1.00  0.00     0.000 C 
BRANCH   2   3
ATOM      3  C   UNL     1      10.229 -24.284 -25.855  1.00  0.00    -0.003 C 
ATOM      4  C   UNL     1      11.711 -24.360 -26.215  1.00  0.00     0.004 C 
ENDBRANCH   2   3
ENDBRANCH   1   2
BRANCH   1   5
ATOM      5  C   UNL     1       7.921 -24.214 -24.390  1.00  0.00     0.080 C 
BRANCH   5   6
ATOM      6  C   UNL     1       6.672 -24.253 -23.559  1.00  0.00     0.155 C 
ATOM      7  O   UNL     1       5.551 -24.120 -24.120  1.00  0.00    -0.295 OA
BRANCH   6   8
ATOM      8  C   UNL     1       6.760 -24.489 -22.105  1.00  0.00     0.039 C 
ATOM      9  C   UNL     1       5.728 -24.929 -21.387  1.00  0.00     0.012 C 
ENDBRANCH   6   8
ENDBRANCH   5   6
ENDBRANCH   1   5
TORSDOF 5
ENDMDL
MODEL 2
REMARK VINA RESULT:    -4.451      1.583      5.148
REMARK INTER + INTRA:          -5.933
REMARK INTER:                  -5.817
REMARK INTRA:                  -0.116
REMARK UNBOUND:                -0.181
REMARK SMILES C=CC(=O)CCCCC
REMARK SMILES IDX 6 1 7 2 8 3 9 4 5 5 3 6 4 7 2 8 1 9
REMARK H PARENT
REMARK Flexibility Score: inf
ROOT
ATOM      1  C   UNL     1       7.432 -24.717 -24.484  1.00  0.00     0.008 C 
ENDROOT
BRANCH   1   2
ATOM      2  C   UNL     1       7.195 -24.150 -23.076  1.00  0.00     0.000 C 
BRANCH   2   3
ATOM      3  C   UNL     1       5.773 -24.422 -22.562  1.00  0.00    -0.003 C 
ATOM      4  C   UNL     1       5.803 -25.078 -21.184  1.00  0.00     0.004 C 
ENDBRANCH   2   3
ENDBRANCH   1   2
BRANCH   1   5
ATOM      5  C   UNL     1       8.829 -25.331 -24.646  1.00  0.00     0.080 C 
BRANCH   5   6
ATOM      6  C   UNL     1       9.702 -24.435 -25.474  1.00  0.00     0.155 C 
ATOM      7  O   UNL     1       9.373 -23.229 -25.637  1.00  0.00    -0.295 OA
BRANCH   6   8
ATOM      8  C   UNL     1      10.957 -24.956 -26.051  1.00  0.00     0.039 C 
ATOM      9  C   UNL     1      11.965 -24.161 -26.407  1.00  0.00     0.012 C 
ENDBRANCH   6   8
ENDBRANCH   5   6
ENDBRANCH   1   5
TORSDOF 5
ENDMDL
MODEL 3
REMARK VINA RESULT:    -3.964      9.450     10.164
REMARK INTER + INTRA:          -5.304
REMARK INTER:                  -4.848
REMARK INTRA:                  -0.456
REMARK UNBOUND:                -0.181
REMARK SMILES C=CC(=O)CCCCC
REMARK SMILES IDX 6 1 7 2 8 3 9 4 5 5 3 6 4 7 2 8 1 9
REMARK H PARENT
REMARK Flexibility Score: inf
ROOT
ATOM      1  C   UNL     1      14.480 -17.541 -19.499  1.00  0.00     0.008 C 
ENDROOT
BRANCH   1   2
ATOM      2  C   UNL     1      15.177 -17.543 -18.129  1.00  0.00     0.000 C 
BRANCH   2   3
ATOM      3  C   UNL     1      15.283 -18.950 -17.524  1.00  0.00    -0.003 C 
ATOM      4  C   UNL     1      14.405 -19.081 -16.282  1.00  0.00     0.004 C 
ENDBRANCH   2   3
ENDBRANCH   1   2
BRANCH   1   5
ATOM      5  C   UNL     1      12.952 -17.475 -19.384  1.00  0.00     0.080 C 
BRANCH   5   6
ATOM      6  C   UNL     1      12.320 -18.612 -20.131  1.00  0.00     0.155 C 
ATOM      7  O   UNL     1      11.062 -18.694 -20.185  1.00  0.00    -0.295 OA
BRANCH   6   8
ATOM      8  C   UNL     1      13.167 -19.597 -20.831  1.00  0.00     0.039 C 
ATOM      9  C   UNL     1      13.300 -20.854 -20.411  1.00  0.00     0.012 C 
ENDBRANCH   6   8
ENDBRANCH   5   6
ENDBRANCH   1   5
TORSDOF 5
ENDMDL
MODEL 4
REMARK VINA RESULT:    -3.877      8.264      8.674
REMARK INTER + INTRA:          -5.192
REMARK INTER:                  -5.106
REMARK INTRA:                  -0.086
REMARK UNBOUND:                -0.181
REMARK SMILES C=CC(=O)CCCCC
REMARK SMILES IDX 6 1 7 2 8 3 9 4 5 5 3 6 4 7 2 8 1 9
REMARK H PARENT
REMARK Flexibility Score: inf
ROOT
ATOM      1  C   UNL     1      11.941 -18.059 -20.417  1.00  0.00     0.008 C 
ENDROOT
BRANCH   1   2
ATOM      2  C   UNL     1      12.826 -17.520 -19.284  1.00  0.00     0.000 C 
BRANCH   2   3
ATOM      3  C   UNL     1      14.322 -17.759 -19.538  1.00  0.00    -0.003 C 
ATOM      4  C   UNL     1      15.129 -17.604 -18.252  1.00  0.00     0.004 C 
ENDBRANCH   2   3
ENDBRANCH   1   2
BRANCH   1   5
ATOM      5  C   UNL     1      10.494 -18.307 -19.971  1.00  0.00     0.080 C 
BRANCH   5   6
ATOM      6  C   UNL     1       9.563 -18.235 -21.145  1.00  0.00     0.155 C 
ATOM      7  O   UNL     1       9.854 -17.492 -22.122  1.00  0.00    -0.295 OA
BRANCH   6   8
ATOM      8  C   UNL     1       8.342 -19.063 -21.171  1.00  0.00     0.039 C 
ATOM      9  C   UNL     1       7.348 -18.846 -22.031  1.00  0.00     0.012 C 
ENDBRANCH   6   8
ENDBRANCH   5   6
ENDBRANCH   1   5
TORSDOF 5
ENDMDL
MODEL 5
REMARK VINA RESULT:    -3.835      8.950      9.624
REMARK INTER + INTRA:          -5.137
REMARK INTER:                  -4.679
REMARK INTRA:                  -0.458
REMARK UNBOUND:                -0.181
REMARK SMILES C=CC(=O)CCCCC
REMARK SMILES IDX 6 1 7 2 8 3 9 4 5 5 3 6 4 7 2 8 1 9
REMARK H PARENT
REMARK Flexibility Score: inf
ROOT
ATOM      1  C   UNL     1      13.105 -19.329 -21.119  1.00  0.00     0.008 C 
ENDROOT
BRANCH   1   2
ATOM      2  C   UNL     1      13.473 -20.721 -20.583  1.00  0.00     0.000 C 
BRANCH   2   3
ATOM      3  C   UNL     1      14.982 -20.999 -20.650  1.00  0.00    -0.003 C 
ATOM      4  C   UNL     1      15.311 -21.972 -21.779  1.00  0.00     0.004 C 
ENDBRANCH   2   3
ENDBRANCH   1   2
BRANCH   1   5
ATOM      5  C   UNL     1      14.166 -18.270 -20.792  1.00  0.00     0.080 C 
BRANCH   5   6
ATOM      6  C   UNL     1      13.894 -17.650 -19.454  1.00  0.00     0.155 C 
ATOM      7  O   UNL     1      12.749 -17.178 -19.212  1.00  0.00    -0.295 OA
BRANCH   6   8
ATOM      8  C   UNL     1      14.945 -17.634 -18.419  1.00  0.00     0.039 C 
ATOM      9  C   UNL     1      15.097 -18.621 -17.538  1.00  0.00     0.012 C 
ENDBRANCH   6   8
ENDBRANCH   5   6
ENDBRANCH   1   5
TORSDOF 5
ENDMDL
MODEL 6
REMARK VINA RESULT:    -3.770      9.276     10.185
REMARK INTER + INTRA:          -5.054
REMARK INTER:                  -4.686
REMARK INTRA:                  -0.368
REMARK UNBOUND:                -0.181
REMARK SMILES C=CC(=O)CCCCC
REMARK SMILES IDX 6 1 7 2 8 3 9 4 5 5 3 6 4 7 2 8 1 9
REMARK H PARENT
REMARK Flexibility Score: inf
ROOT
ATOM      1  C   UNL     1      13.017 -17.500 -19.266  1.00  0.00     0.008 C 
ENDROOT
BRANCH   1   2
ATOM      2  C   UNL     1      12.287 -17.844 -20.573  1.00  0.00     0.000 C 
BRANCH   2   3
ATOM      3  C   UNL     1      11.037 -18.706 -20.342  1.00  0.00    -0.003 C 
ATOM      4  C   UNL     1       9.847 -18.170 -21.134  1.00  0.00     0.004 C 
ENDBRANCH   2   3
ENDBRANCH   1   2
BRANCH   1   5
ATOM      5  C   UNL     1      14.523 -17.787 -19.336  1.00  0.00     0.080 C 
BRANCH   5   6
ATOM      6  C   UNL     1      14.865 -18.998 -18.519  1.00  0.00     0.155 C 
ATOM      7  O   UNL     1      15.325 -18.848 -17.354  1.00  0.00    -0.295 OA
BRANCH   6   8
ATOM      8  C   UNL     1      14.622 -20.348 -19.062  1.00  0.00     0.039 C 
ATOM      9  C   UNL     1      14.874 -20.666 -20.331  1.00  0.00     0.012 C 
ENDBRANCH   6   8
ENDBRANCH   5   6
ENDBRANCH   1   5
TORSDOF 5
ENDMDL
MODEL 7
REMARK VINA RESULT:    -3.769      8.650      9.943
REMARK INTER + INTRA:          -5.052
REMARK INTER:                  -4.639
REMARK INTRA:                  -0.413
REMARK UNBOUND:                -0.181
REMARK SMILES C=CC(=O)CCCCC
REMARK SMILES IDX 6 1 7 2 8 3 9 4 5 5 3 6 4 7 2 8 1 9
REMARK H PARENT
REMARK Flexibility Score: inf
ROOT
ATOM      1  C   UNL     1      16.336 -22.684 -24.347  1.00  0.00     0.008 C 
ENDROOT
BRANCH   1   2
ATOM      2  C   UNL     1      15.239 -22.060 -23.471  1.00  0.00     0.000 C 
BRANCH   2   3
ATOM      3  C   UNL     1      15.423 -22.378 -21.980  1.00  0.00    -0.003 C 
ATOM      4  C   UNL     1      15.018 -21.190 -21.111  1.00  0.00     0.004 C 
ENDBRANCH   2   3
ENDBRANCH   1   2
BRANCH   1   5
ATOM      5  C   UNL     1      17.656 -22.884 -23.589  1.00  0.00     0.080 C 
BRANCH   5   6
ATOM      6  C   UNL     1      18.197 -24.261 -23.834  1.00  0.00     0.155 C 
ATOM      7  O   UNL     1      19.086 -24.429 -24.713  1.00  0.00    -0.295 OA
BRANCH   6   8
ATOM      8  C   UNL     1      17.722 -25.397 -23.021  1.00  0.00     0.039 C 
ATOM      9  C   UNL     1      17.518 -25.302 -21.708  1.00  0.00     0.012 C 
ENDBRANCH   6   8
ENDBRANCH   5   6
ENDBRANCH   1   5
TORSDOF 5
ENDMDL
MODEL 8
REMARK VINA RESULT:    -3.760      9.162      9.615
REMARK INTER + INTRA:          -5.040
REMARK INTER:                  -4.863
REMARK INTRA:                  -0.178
REMARK UNBOUND:                -0.181
REMARK SMILES C=CC(=O)CCCCC
REMARK SMILES IDX 6 1 7 2 8 3 9 4 5 5 3 6 4 7 2 8 1 9
REMARK H PARENT
REMARK Flexibility Score: inf
ROOT
ATOM      1  C   UNL     1      13.164 -17.604 -19.549  1.00  0.00     0.008 C 
ENDROOT
BRANCH   1   2
ATOM      2  C   UNL     1      14.050 -18.333 -18.528  1.00  0.00     0.000 C 
BRANCH   2   3
ATOM      3  C   UNL     1      15.289 -17.515 -18.132  1.00  0.00    -0.003 C 
ATOM      4  C   UNL     1      16.390 -17.643 -19.181  1.00  0.00     0.004 C 
ENDBRANCH   2   3
ENDBRANCH   1   2
BRANCH   1   5
ATOM      5  C   UNL     1      12.176 -18.544 -20.252  1.00  0.00     0.080 C 
BRANCH   5   6
ATOM      6  C   UNL     1      10.764 -18.177 -19.903  1.00  0.00     0.155 C 
ATOM      7  O   UNL     1      10.508 -17.724 -18.754  1.00  0.00    -0.295 OA
BRANCH   6   8
ATOM      8  C   UNL     1       9.696 -18.305 -20.914  1.00  0.00     0.039 C 
ATOM      9  C   UNL     1       9.792 -17.765 -22.128  1.00  0.00     0.012 C 
ENDBRANCH   6   8
ENDBRANCH   5   6
ENDBRANCH   1   5
TORSDOF 5
ENDMDL
MODEL 9
REMARK VINA RESULT:    -3.706      9.774     10.645
REMARK INTER + INTRA:          -4.971
REMARK INTER:                  -4.508
REMARK INTRA:                  -0.462
REMARK UNBOUND:                -0.181
REMARK SMILES C=CC(=O)CCCCC
REMARK SMILES IDX 6 1 7 2 8 3 9 4 5 5 3 6 4 7 2 8 1 9
REMARK H PARENT
REMARK Flexibility Score: inf
ROOT
ATOM      1  C   UNL     1      14.141 -19.646 -20.269  1.00  0.00     0.008 C 
ENDROOT
BRANCH   1   2
ATOM      2  C   UNL     1      12.608 -19.574 -20.324  1.00  0.00     0.000 C 
BRANCH   2   3
ATOM      3  C   UNL     1      12.088 -18.131 -20.411  1.00  0.00    -0.003 C 
ATOM      4  C   UNL     1      11.335 -17.742 -19.142  1.00  0.00     0.004 C 
ENDBRANCH   2   3
ENDBRANCH   1   2
BRANCH   1   5
ATOM      5  C   UNL     1      14.662 -20.141 -18.914  1.00  0.00     0.080 C 
BRANCH   5   6
ATOM      6  C   UNL     1      14.783 -18.999 -17.949  1.00  0.00     0.155 C 
ATOM      7  O   UNL     1      14.438 -19.164 -16.747  1.00  0.00    -0.295 OA
BRANCH   6   8
ATOM      8  C   UNL     1      15.343 -17.709 -18.398  1.00  0.00     0.039 C 
ATOM      9  C   UNL     1      16.649 -17.517 -18.569  1.00  0.00     0.012 C 
ENDBRANCH   6   8
ENDBRANCH   5   6
ENDBRANCH   1   5
TORSDOF 5
ENDMDL
