MODEL 1
REMARK VINA RESULT:    -4.648      0.000      0.000
REMARK INTER + INTRA:         -10.747
REMARK INTER:                  -8.995
REMARK INTRA:                  -1.752
REMARK UNBOUND:                -1.752
REMARK SMILES CCCCCCCCCCCCCCCCCC(=O)[O-]
REMARK SMILES IDX 10 1 11 2 12 3 13 4 14 5 15 6 16 7 17 8 18 9 19 10 20 11
REMARK SMILES IDX 9 12 8 13 7 14 6 15 5 16 4 17 3 18 2 19 1 20
REMARK H PARENT
REMARK Flexibility Score: inf
ROOT
ATOM      1  C   UNL     1     191.972   2.649  98.707  1.00  0.00     0.000 C 
ENDROOT
BRANCH   1   2
ATOM      2  C   UNL     1     192.721   2.210  99.971  1.00  0.00     0.000 C 
BRANCH   2   3
ATOM      3  C   UNL     1     191.819   1.358 100.877  1.00  0.00     0.000 C 
BRANCH   3   4
ATOM      4  C   UNL     1     192.477   0.034 101.296  1.00  0.00     0.000 C 
BRANCH   4   5
ATOM      5  C   UNL     1     193.501   0.218 102.429  1.00  0.00     0.000 C 
BRANCH   5   6
ATOM      6  C   UNL     1     193.137   1.366 103.386  1.00  0.00     0.000 C 
BRANCH   6   7
ATOM      7  C   UNL     1     192.239   0.976 104.576  1.00  0.00     0.006 C 
BRANCH   7   8
ATOM      8  C   UNL     1     191.131   1.999 104.890  1.00  0.00     0.053 C 
BRANCH   8   9
ATOM      9  C   UNL     1     190.361   1.646 106.128  1.00  0.00     0.041 C 
ATOM     10  O   UNL     1     189.388   2.357 106.493  1.00  0.00    -0.550 OA
ATOM     11  O   UNL     1     190.741   0.557 106.901  1.00  0.00    -0.550 OA
ENDBRANCH   8   9
ENDBRANCH   7   8
ENDBRANCH   6   7
ENDBRANCH   5   6
ENDBRANCH   4   5
ENDBRANCH   3   4
ENDBRANCH   2   3
ENDBRANCH   1   2
BRANCH   1  12
ATOM     12  C   UNL     1     191.885   4.180  98.621  1.00  0.00     0.000 C 
BRANCH  12  13
ATOM     13  C   UNL     1     190.480   4.672  98.242  1.00  0.00    -0.000 C 
BRANCH  13  14
ATOM     14  C   UNL     1     189.446   3.532  98.196  1.00  0.00    -0.000 C 
BRANCH  14  15
ATOM     15  C   UNL     1     188.625   3.534  96.897  1.00  0.00    -0.000 C 
BRANCH  15  16
ATOM     16  C   UNL     1     189.151   4.550  95.868  1.00  0.00    -0.000 C 
BRANCH  16  17
ATOM     17  C   UNL     1     189.838   3.875  94.670  1.00  0.00    -0.000 C 
BRANCH  17  18
ATOM     18  C   UNL     1     191.249   4.424  94.411  1.00  0.00    -0.000 C 
BRANCH  18  19
ATOM     19  C   UNL     1     192.305   3.592  95.148  1.00  0.00    -0.003 C 
ATOM     20  C   UNL     1     192.001   2.100  95.046  1.00  0.00     0.004 C 
ENDBRANCH  18  19
ENDBRANCH  17  18
ENDBRANCH  16  17
ENDBRANCH  15  16
ENDBRANCH  14  15
ENDBRANCH  13  14
ENDBRANCH  12  13
ENDBRANCH   1  12
TORSDOF 16
ENDMDL
MODEL 2
REMARK VINA RESULT:    -4.631      3.989      8.649
REMARK INTER + INTRA:         -10.714
REMARK INTER:                  -9.215
REMARK INTRA:                  -1.499
REMARK UNBOUND:                -1.752
REMARK SMILES CCCCCCCCCCCCCCCCCC(=O)[O-]
REMARK SMILES IDX 10 1 11 2 12 3 13 4 14 5 15 6 16 7 17 8 18 9 19 10 20 11
REMARK SMILES IDX 9 12 8 13 7 14 6 15 5 16 4 17 3 18 2 19 1 20
REMARK H PARENT
REMARK Flexibility Score: inf
ROOT
ATOM      1  C   UNL     1     192.066   2.605  98.998  1.00  0.00     0.000 C 
ENDROOT
BRANCH   1   2
ATOM      2  C   UNL     1     191.618   3.876  98.266  1.00  0.00     0.000 C 
BRANCH   2   3
ATOM      3  C   UNL     1     190.092   4.042  98.336  1.00  0.00     0.000 C 
BRANCH   3   4
ATOM      4  C   UNL     1     189.591   5.275  97.567  1.00  0.00     0.000 C 
BRANCH   4   5
ATOM      5  C   UNL     1     188.751   4.900  96.335  1.00  0.00     0.000 C 
BRANCH   5   6
ATOM      6  C   UNL     1     189.418   3.826  95.459  1.00  0.00     0.000 C 
BRANCH   6   7
ATOM      7  C   UNL     1     190.580   4.319  94.577  1.00  0.00     0.006 C 
BRANCH   7   8
ATOM      8  C   UNL     1     191.941   3.681  94.915  1.00  0.00     0.053 C 
BRANCH   8   9
ATOM      9  C   UNL     1     191.960   2.204  94.659  1.00  0.00     0.041 C 
ATOM     10  O   UNL     1     191.507   1.742  93.579  1.00  0.00    -0.550 OA
ATOM     11  O   UNL     1     192.437   1.332  95.629  1.00  0.00    -0.550 OA
ENDBRANCH   8   9
ENDBRANCH   7   8
ENDBRANCH   6   7
ENDBRANCH   5   6
ENDBRANCH   4   5
ENDBRANCH   3   4
ENDBRANCH   2   3
ENDBRANCH   1   2
BRANCH   1  12
ATOM     12  C   UNL     1     193.052   2.939 100.127  1.00  0.00     0.000 C 
BRANCH  12  13
ATOM     13  C   UNL     1     193.209   1.789 101.134  1.00  0.00    -0.000 C 
BRANCH  13  14
ATOM     14  C   UNL     1     192.575   0.477 100.637  1.00  0.00    -0.000 C 
BRANCH  14  15
ATOM     15  C   UNL     1     192.565  -0.617 101.717  1.00  0.00    -0.000 C 
BRANCH  15  16
ATOM     16  C   UNL     1     191.492  -0.375 102.792  1.00  0.00    -0.000 C 
BRANCH  16  17
ATOM     17  C   UNL     1     192.096  -0.057 104.169  1.00  0.00    -0.000 C 
BRANCH  17  18
ATOM     18  C   UNL     1     191.481   1.195 104.810  1.00  0.00    -0.000 C 
BRANCH  18  19
ATOM     19  C   UNL     1     192.372   2.422 104.585  1.00  0.00    -0.003 C 
ATOM     20  C   UNL     1     193.849   2.064 104.731  1.00  0.00     0.004 C 
ENDBRANCH  18  19
ENDBRANCH  17  18
ENDBRANCH  16  17
ENDBRANCH  15  16
ENDBRANCH  14  15
ENDBRANCH  13  14
ENDBRANCH  12  13
ENDBRANCH   1  12
TORSDOF 16
ENDMDL
MODEL 3
REMARK VINA RESULT:    -4.615      4.106      8.763
REMARK INTER + INTRA:         -10.684
REMARK INTER:                  -8.939
REMARK INTRA:                  -1.746
REMARK UNBOUND:                -1.752
REMARK SMILES CCCCCCCCCCCCCCCCCC(=O)[O-]
REMARK SMILES IDX 10 1 11 2 12 3 13 4 14 5 15 6 16 7 17 8 18 9 19 10 20 11
REMARK SMILES IDX 9 12 8 13 7 14 6 15 5 16 4 17 3 18 2 19 1 20
REMARK H PARENT
REMARK Flexibility Score: inf
ROOT
ATOM      1  C   UNL     1     192.417   0.066 101.052  1.00  0.00     0.000 C 
ENDROOT
BRANCH   1   2
ATOM      2  C   UNL     1     191.725   1.369 100.634  1.00  0.00     0.000 C 
BRANCH   2   3
ATOM      3  C   UNL     1     192.391   1.970  99.387  1.00  0.00     0.000 C 
BRANCH   3   4
ATOM      4  C   UNL     1     192.615   3.487  99.504  1.00  0.00     0.000 C 
BRANCH   4   5
ATOM      5  C   UNL     1     192.132   4.251  98.260  1.00  0.00     0.000 C 
BRANCH   5   6
ATOM      6  C   UNL     1     190.602   4.395  98.202  1.00  0.00     0.000 C 
BRANCH   6   7
ATOM      7  C   UNL     1     190.014   4.649  96.800  1.00  0.00     0.006 C 
BRANCH   7   8
ATOM      8  C   UNL     1     190.072   3.428  95.863  1.00  0.00     0.053 C 
BRANCH   8   9
ATOM      9  C   UNL     1     191.224   3.496  94.905  1.00  0.00     0.041 C 
ATOM     10  O   UNL     1     191.663   4.611  94.521  1.00  0.00    -0.550 OA
ATOM     11  O   UNL     1     191.785   2.328  94.403  1.00  0.00    -0.550 OA
ENDBRANCH   8   9
ENDBRANCH   7   8
ENDBRANCH   6   7
ENDBRANCH   5   6
ENDBRANCH   4   5
ENDBRANCH   3   4
ENDBRANCH   2   3
ENDBRANCH   1   2
BRANCH   1  12
ATOM     12  C   UNL     1     191.434  -0.874 101.766  1.00  0.00     0.000 C 
BRANCH  12  13
ATOM     13  C   UNL     1     192.039  -1.515 103.025  1.00  0.00    -0.000 C 
BRANCH  13  14
ATOM     14  C   UNL     1     193.487  -1.062 103.282  1.00  0.00    -0.000 C 
BRANCH  14  15
ATOM     15  C   UNL     1     193.762  -0.785 104.769  1.00  0.00    -0.000 C 
BRANCH  15  16
ATOM     16  C   UNL     1     192.702   0.131 105.405  1.00  0.00    -0.000 C 
BRANCH  16  17
ATOM     17  C   UNL     1     193.060   1.620 105.286  1.00  0.00    -0.000 C 
BRANCH  17  18
ATOM     18  C   UNL     1     192.184   2.360 104.264  1.00  0.00    -0.000 C 
BRANCH  18  19
ATOM     19  C   UNL     1     190.772   1.765 104.219  1.00  0.00    -0.003 C 
ATOM     20  C   UNL     1     189.818   2.543 105.121  1.00  0.00     0.004 C 
ENDBRANCH  18  19
ENDBRANCH  17  18
ENDBRANCH  16  17
ENDBRANCH  15  16
ENDBRANCH  14  15
ENDBRANCH  13  14
ENDBRANCH  12  13
ENDBRANCH   1  12
TORSDOF 16
ENDMDL
MODEL 4
REMARK VINA RESULT:    -4.382      3.924      8.722
REMARK INTER + INTRA:         -10.233
REMARK INTER:                  -8.697
REMARK INTRA:                  -1.537
REMARK UNBOUND:                -1.752
REMARK SMILES CCCCCCCCCCCCCCCCCC(=O)[O-]
REMARK SMILES IDX 10 1 11 2 12 3 13 4 14 5 15 6 16 7 17 8 18 9 19 10 20 11
REMARK SMILES IDX 9 12 8 13 7 14 6 15 5 16 4 17 3 18 2 19 1 20
REMARK H PARENT
REMARK Flexibility Score: inf
ROOT
ATOM      1  C   UNL     1     193.121   2.098 101.023  1.00  0.00     0.000 C 
ENDROOT
BRANCH   1   2
ATOM      2  C   UNL     1     193.075   3.130  99.889  1.00  0.00     0.000 C 
BRANCH   2   3
ATOM      3  C   UNL     1     191.978   2.781  98.872  1.00  0.00     0.000 C 
BRANCH   3   4
ATOM      4  C   UNL     1     191.036   3.962  98.584  1.00  0.00     0.000 C 
BRANCH   4   5
ATOM      5  C   UNL     1     189.602   3.506  98.265  1.00  0.00     0.000 C 
BRANCH   5   6
ATOM      6  C   UNL     1     188.810   4.546  97.452  1.00  0.00     0.000 C 
BRANCH   6   7
ATOM      7  C   UNL     1     189.481   5.015  96.147  1.00  0.00     0.006 C 
BRANCH   7   8
ATOM      8  C   UNL     1     189.795   3.878  95.157  1.00  0.00     0.053 C 
BRANCH   8   9
ATOM      9  C   UNL     1     191.266   3.737  94.895  1.00  0.00     0.041 C 
ATOM     10  O   UNL     1     191.941   4.733  94.523  1.00  0.00    -0.550 OA
ATOM     11  O   UNL     1     191.882   2.499  95.018  1.00  0.00    -0.550 OA
ENDBRANCH   8   9
ENDBRANCH   7   8
ENDBRANCH   6   7
ENDBRANCH   5   6
ENDBRANCH   4   5
ENDBRANCH   3   4
ENDBRANCH   2   3
ENDBRANCH   1   2
BRANCH   1  12
ATOM     12  C   UNL     1     192.323   0.839 100.653  1.00  0.00     0.000 C 
BRANCH  12  13
ATOM     13  C   UNL     1     192.992  -0.452 101.151  1.00  0.00    -0.000 C 
BRANCH  13  14
ATOM     14  C   UNL     1     193.613  -0.295 102.550  1.00  0.00    -0.000 C 
BRANCH  14  15
ATOM     15  C   UNL     1     192.635  -0.673 103.674  1.00  0.00    -0.000 C 
BRANCH  15  16
ATOM     16  C   UNL     1     192.813   0.198 104.929  1.00  0.00    -0.000 C 
BRANCH  16  17
ATOM     17  C   UNL     1     192.300   1.633 104.730  1.00  0.00    -0.000 C 
BRANCH  17  18
ATOM     18  C   UNL     1     190.941   1.681 104.016  1.00  0.00    -0.000 C 
BRANCH  18  19
ATOM     19  C   UNL     1     189.899   2.413 104.869  1.00  0.00    -0.003 C 
ATOM     20  C   UNL     1     190.015   2.020 106.339  1.00  0.00     0.004 C 
ENDBRANCH  18  19
ENDBRANCH  17  18
ENDBRANCH  16  17
ENDBRANCH  15  16
ENDBRANCH  14  15
ENDBRANCH  13  14
ENDBRANCH  12  13
ENDBRANCH   1  12
TORSDOF 16
ENDMDL
MODEL 5
REMARK VINA RESULT:    -4.358      3.951      9.119
REMARK INTER + INTRA:         -10.186
REMARK INTER:                  -8.682
REMARK INTRA:                  -1.505
REMARK UNBOUND:                -1.752
REMARK SMILES CCCCCCCCCCCCCCCCCC(=O)[O-]
REMARK SMILES IDX 10 1 11 2 12 3 13 4 14 5 15 6 16 7 17 8 18 9 19 10 20 11
REMARK SMILES IDX 9 12 8 13 7 14 6 15 5 16 4 17 3 18 2 19 1 20
REMARK H PARENT
REMARK Flexibility Score: inf
ROOT
ATOM      1  C   UNL     1     193.742   2.229 102.313  1.00  0.00     0.000 C 
ENDROOT
BRANCH   1   2
ATOM      2  C   UNL     1     193.787   0.747 101.921  1.00  0.00     0.000 C 
BRANCH   2   3
ATOM      3  C   UNL     1     192.674   0.409 100.918  1.00  0.00     0.000 C 
BRANCH   3   4
ATOM      4  C   UNL     1     191.897   1.651 100.450  1.00  0.00     0.000 C 
BRANCH   4   5
ATOM      5  C   UNL     1     192.271   2.074  99.019  1.00  0.00     0.000 C 
BRANCH   5   6
ATOM      6  C   UNL     1     191.755   3.477  98.655  1.00  0.00     0.000 C 
BRANCH   6   7
ATOM      7  C   UNL     1     190.398   3.514  97.926  1.00  0.00     0.006 C 
BRANCH   7   8
ATOM      8  C   UNL     1     189.858   4.934  97.673  1.00  0.00     0.053 C 
BRANCH   8   9
ATOM      9  C   UNL     1     188.835   4.971  96.577  1.00  0.00     0.041 C 
ATOM     10  O   UNL     1     188.847   4.098  95.670  1.00  0.00    -0.550 OA
ATOM     11  O   UNL     1     187.895   5.993  96.533  1.00  0.00    -0.550 OA
ENDBRANCH   8   9
ENDBRANCH   7   8
ENDBRANCH   6   7
ENDBRANCH   5   6
ENDBRANCH   4   5
ENDBRANCH   3   4
ENDBRANCH   2   3
ENDBRANCH   1   2
BRANCH   1  12
ATOM     12  C   UNL     1     193.541   2.392 103.827  1.00  0.00     0.000 C 
BRANCH  12  13
ATOM     13  C   UNL     1     192.060   2.525 104.215  1.00  0.00    -0.000 C 
BRANCH  13  14
ATOM     14  C   UNL     1     191.464   1.204 104.733  1.00  0.00    -0.000 C 
BRANCH  14  15
ATOM     15  C   UNL     1     192.511   0.316 105.424  1.00  0.00    -0.000 C 
BRANCH  15  16
ATOM     16  C   UNL     1     191.943  -0.423 106.648  1.00  0.00    -0.000 C 
BRANCH  16  17
ATOM     17  C   UNL     1     190.870   0.393 107.385  1.00  0.00    -0.000 C 
BRANCH  17  18
ATOM     18  C   UNL     1     191.470   1.423 108.353  1.00  0.00    -0.000 C 
BRANCH  18  19
ATOM     19  C   UNL     1     190.495   2.579 108.600  1.00  0.00    -0.003 C 
ATOM     20  C   UNL     1     189.372   2.582 107.566  1.00  0.00     0.004 C 
ENDBRANCH  18  19
ENDBRANCH  17  18
ENDBRANCH  16  17
ENDBRANCH  15  16
ENDBRANCH  14  15
ENDBRANCH  13  14
ENDBRANCH  12  13
ENDBRANCH   1  12
TORSDOF 16
ENDMDL
MODEL 6
REMARK VINA RESULT:    -4.350      3.433      8.135
REMARK INTER + INTRA:         -10.171
REMARK INTER:                  -8.477
REMARK INTRA:                  -1.694
REMARK UNBOUND:                -1.752
REMARK SMILES CCCCCCCCCCCCCCCCCC(=O)[O-]
REMARK SMILES IDX 10 1 11 2 12 3 13 4 14 5 15 6 16 7 17 8 18 9 19 10 20 11
REMARK SMILES IDX 9 12 8 13 7 14 6 15 5 16 4 17 3 18 2 19 1 20
REMARK H PARENT
REMARK Flexibility Score: inf
ROOT
ATOM      1  C   UNL     1     192.363   1.774  99.589  1.00  0.00     0.000 C 
ENDROOT
BRANCH   1   2
ATOM      2  C   UNL     1     192.759   3.252  99.686  1.00  0.00     0.000 C 
BRANCH   2   3
ATOM      3  C   UNL     1     192.065   4.080  98.593  1.00  0.00     0.000 C 
BRANCH   3   4
ATOM      4  C   UNL     1     191.455   3.209  97.483  1.00  0.00     0.000 C 
BRANCH   4   5
ATOM      5  C   UNL     1     191.118   4.017  96.219  1.00  0.00     0.000 C 
BRANCH   5   6
ATOM      6  C   UNL     1     189.609   4.275  96.057  1.00  0.00     0.000 C 
BRANCH   6   7
ATOM      7  C   UNL     1     188.697   3.484  97.013  1.00  0.00     0.006 C 
BRANCH   7   8
ATOM      8  C   UNL     1     188.259   4.273  98.262  1.00  0.00     0.053 C 
BRANCH   8   9
ATOM      9  C   UNL     1     187.255   5.340  97.941  1.00  0.00     0.041 C 
ATOM     10  O   UNL     1     187.366   6.487  98.449  1.00  0.00    -0.550 OA
ATOM     11  O   UNL     1     186.174   5.057  97.117  1.00  0.00    -0.550 OA
ENDBRANCH   8   9
ENDBRANCH   7   8
ENDBRANCH   6   7
ENDBRANCH   5   6
ENDBRANCH   4   5
ENDBRANCH   3   4
ENDBRANCH   2   3
ENDBRANCH   1   2
BRANCH   1  12
ATOM     12  C   UNL     1     192.735   1.019 100.874  1.00  0.00     0.000 C 
BRANCH  12  13
ATOM     13  C   UNL     1     191.625   0.065 101.341  1.00  0.00    -0.000 C 
BRANCH  13  14
ATOM     14  C   UNL     1     192.133  -0.994 102.335  1.00  0.00    -0.000 C 
BRANCH  14  15
ATOM     15  C   UNL     1     193.664  -0.979 102.479  1.00  0.00    -0.000 C 
BRANCH  15  16
ATOM     16  C   UNL     1     194.117  -0.722 103.927  1.00  0.00    -0.000 C 
BRANCH  16  17
ATOM     17  C   UNL     1     193.191   0.252 104.672  1.00  0.00    -0.000 C 
BRANCH  17  18
ATOM     18  C   UNL     1     193.686   1.704 104.608  1.00  0.00    -0.000 C 
BRANCH  18  19
ATOM     19  C   UNL     1     192.531   2.664 104.302  1.00  0.00    -0.003 C 
ATOM     20  C   UNL     1     191.180   1.970 104.457  1.00  0.00     0.004 C 
ENDBRANCH  18  19
ENDBRANCH  17  18
ENDBRANCH  16  17
ENDBRANCH  15  16
ENDBRANCH  14  15
ENDBRANCH  13  14
ENDBRANCH  12  13
ENDBRANCH   1  12
TORSDOF 16
ENDMDL
MODEL 7
REMARK VINA RESULT:    -4.334      3.789      8.722
REMARK INTER + INTRA:         -10.141
REMARK INTER:                  -8.603
REMARK INTRA:                  -1.538
REMARK UNBOUND:                -1.752
REMARK SMILES CCCCCCCCCCCCCCCCCC(=O)[O-]
REMARK SMILES IDX 10 1 11 2 12 3 13 4 14 5 15 6 16 7 17 8 18 9 19 10 20 11
REMARK SMILES IDX 9 12 8 13 7 14 6 15 5 16 4 17 3 18 2 19 1 20
REMARK H PARENT
REMARK Flexibility Score: inf
ROOT
ATOM      1  C   UNL     1     191.846  -0.094 101.304  1.00  0.00     0.000 C 
ENDROOT
BRANCH   1   2
ATOM      2  C   UNL     1     191.538   1.268 100.668  1.00  0.00     0.000 C 
BRANCH   2   3
ATOM      3  C   UNL     1     192.818   2.104 100.515  1.00  0.00     0.000 C 
BRANCH   3   4
ATOM      4  C   UNL     1     192.715   3.149  99.392  1.00  0.00     0.000 C 
BRANCH   4   5
ATOM      5  C   UNL     1     191.393   3.048  98.613  1.00  0.00     0.000 C 
BRANCH   5   6
ATOM      6  C   UNL     1     191.592   3.080  97.087  1.00  0.00     0.000 C 
BRANCH   6   7
ATOM      7  C   UNL     1     190.574   3.932  96.306  1.00  0.00     0.006 C 
BRANCH   7   8
ATOM      8  C   UNL     1     189.104   3.638  96.659  1.00  0.00     0.053 C 
BRANCH   8   9
ATOM      9  C   UNL     1     188.153   4.576  95.977  1.00  0.00     0.041 C 
ATOM     10  O   UNL     1     187.725   4.316  94.822  1.00  0.00    -0.550 OA
ATOM     11  O   UNL     1     187.772   5.759  96.599  1.00  0.00    -0.550 OA
ENDBRANCH   8   9
ENDBRANCH   7   8
ENDBRANCH   6   7
ENDBRANCH   5   6
ENDBRANCH   4   5
ENDBRANCH   3   4
ENDBRANCH   2   3
ENDBRANCH   1   2
BRANCH   1  12
ATOM     12  C   UNL     1     193.361  -0.331 101.389  1.00  0.00     0.000 C 
BRANCH  12  13
ATOM     13  C   UNL     1     193.844  -0.547 102.832  1.00  0.00    -0.000 C 
BRANCH  13  14
ATOM     14  C   UNL     1     192.784  -0.153 103.876  1.00  0.00    -0.000 C 
BRANCH  14  15
ATOM     15  C   UNL     1     193.328   0.831 104.925  1.00  0.00    -0.000 C 
BRANCH  15  16
ATOM     16  C   UNL     1     192.500   2.125 105.004  1.00  0.00    -0.000 C 
BRANCH  16  17
ATOM     17  C   UNL     1     191.162   2.017 104.258  1.00  0.00    -0.000 C 
BRANCH  17  18
ATOM     18  C   UNL     1     189.959   2.373 105.145  1.00  0.00    -0.000 C 
BRANCH  18  19
ATOM     19  C   UNL     1     190.005   1.600 106.467  1.00  0.00    -0.003 C 
ATOM     20  C   UNL     1     189.577   2.483 107.637  1.00  0.00     0.004 C 
ENDBRANCH  18  19
ENDBRANCH  17  18
ENDBRANCH  16  17
ENDBRANCH  15  16
ENDBRANCH  14  15
ENDBRANCH  13  14
ENDBRANCH  12  13
ENDBRANCH   1  12
TORSDOF 16
ENDMDL
MODEL 8
REMARK VINA RESULT:    -4.315      3.522      8.571
REMARK INTER + INTRA:         -10.104
REMARK INTER:                  -8.318
REMARK INTRA:                  -1.786
REMARK UNBOUND:                -1.752
REMARK SMILES CCCCCCCCCCCCCCCCCC(=O)[O-]
REMARK SMILES IDX 10 1 11 2 12 3 13 4 14 5 15 6 16 7 17 8 18 9 19 10 20 11
REMARK SMILES IDX 9 12 8 13 7 14 6 15 5 16 4 17 3 18 2 19 1 20
REMARK H PARENT
REMARK Flexibility Score: inf
ROOT
ATOM      1  C   UNL     1     191.985   0.975 100.828  1.00  0.00     0.000 C 
ENDROOT
BRANCH   1   2
ATOM      2  C   UNL     1     192.248   1.808  99.568  1.00  0.00     0.000 C 
BRANCH   2   3
ATOM      3  C   UNL     1     192.969   3.120  99.916  1.00  0.00     0.000 C 
BRANCH   3   4
ATOM      4  C   UNL     1     192.529   4.295  99.028  1.00  0.00     0.000 C 
BRANCH   4   5
ATOM      5  C   UNL     1     191.237   3.994  98.250  1.00  0.00     0.000 C 
BRANCH   5   6
ATOM      6  C   UNL     1     191.390   4.196  96.732  1.00  0.00     0.000 C 
BRANCH   6   7
ATOM      7  C   UNL     1     190.509   3.289  95.852  1.00  0.00     0.006 C 
BRANCH   7   8
ATOM      8  C   UNL     1     189.330   4.018  95.180  1.00  0.00     0.053 C 
BRANCH   8   9
ATOM      9  C   UNL     1     188.147   4.156  96.092  1.00  0.00     0.041 C 
ATOM     10  O   UNL     1     187.444   5.200  96.064  1.00  0.00    -0.550 OA
ATOM     11  O   UNL     1     187.846   3.151  97.003  1.00  0.00    -0.550 OA
ENDBRANCH   8   9
ENDBRANCH   7   8
ENDBRANCH   6   7
ENDBRANCH   5   6
ENDBRANCH   4   5
ENDBRANCH   3   4
ENDBRANCH   2   3
ENDBRANCH   1   2
BRANCH   1  12
ATOM     12  C   UNL     1     193.230   0.168 101.224  1.00  0.00     0.000 C 
BRANCH  12  13
ATOM     13  C   UNL     1     192.887  -1.072 102.065  1.00  0.00    -0.000 C 
BRANCH  13  14
ATOM     14  C   UNL     1     194.111  -1.644 102.802  1.00  0.00    -0.000 C 
BRANCH  14  15
ATOM     15  C   UNL     1     194.129  -1.270 104.292  1.00  0.00    -0.000 C 
BRANCH  15  16
ATOM     16  C   UNL     1     192.729  -0.928 104.832  1.00  0.00    -0.000 C 
BRANCH  16  17
ATOM     17  C   UNL     1     192.673   0.460 105.488  1.00  0.00    -0.000 C 
BRANCH  17  18
ATOM     18  C   UNL     1     191.879   1.477 104.655  1.00  0.00    -0.000 C 
BRANCH  18  19
ATOM     19  C   UNL     1     192.805   2.548 104.068  1.00  0.00    -0.003 C 
ATOM     20  C   UNL     1     194.192   2.485 104.702  1.00  0.00     0.004 C 
ENDBRANCH  18  19
ENDBRANCH  17  18
ENDBRANCH  16  17
ENDBRANCH  15  16
ENDBRANCH  14  15
ENDBRANCH  13  14
ENDBRANCH  12  13
ENDBRANCH   1  12
TORSDOF 16
ENDMDL
MODEL 9
REMARK VINA RESULT:    -4.264      3.839      8.619
REMARK INTER + INTRA:         -10.005
REMARK INTER:                  -8.234
REMARK INTRA:                  -1.771
REMARK UNBOUND:                -1.752
REMARK SMILES CCCCCCCCCCCCCCCCCC(=O)[O-]
REMARK SMILES IDX 10 1 11 2 12 3 13 4 14 5 15 6 16 7 17 8 18 9 19 10 20 11
REMARK SMILES IDX 9 12 8 13 7 14 6 15 5 16 4 17 3 18 2 19 1 20
REMARK H PARENT
REMARK Flexibility Score: inf
ROOT
ATOM      1  C   UNL     1     192.637   0.451 101.358  1.00  0.00     0.000 C 
ENDROOT
BRANCH   1   2
ATOM      2  C   UNL     1     191.719   1.495 100.710  1.00  0.00     0.000 C 
BRANCH   2   3
ATOM      3  C   UNL     1     192.287   1.966  99.363  1.00  0.00     0.000 C 
BRANCH   3   4
ATOM      4  C   UNL     1     192.701   3.446  99.375  1.00  0.00     0.000 C 
BRANCH   4   5
ATOM      5  C   UNL     1     192.010   4.260  98.269  1.00  0.00     0.000 C 
BRANCH   5   6
ATOM      6  C   UNL     1     190.591   3.756  97.952  1.00  0.00     0.000 C 
BRANCH   6   7
ATOM      7  C   UNL     1     190.002   4.239  96.612  1.00  0.00     0.006 C 
BRANCH   7   8
ATOM      8  C   UNL     1     188.913   5.318  96.757  1.00  0.00     0.053 C 
BRANCH   8   9
ATOM      9  C   UNL     1     187.640   4.944  96.058  1.00  0.00     0.041 C 
ATOM     10  O   UNL     1     187.037   5.788  95.344  1.00  0.00    -0.550 OA
ATOM     11  O   UNL     1     187.095   3.677  96.229  1.00  0.00    -0.550 OA
ENDBRANCH   8   9
ENDBRANCH   7   8
ENDBRANCH   6   7
ENDBRANCH   5   6
ENDBRANCH   4   5
ENDBRANCH   3   4
ENDBRANCH   2   3
ENDBRANCH   1   2
BRANCH   1  12
ATOM     12  C   UNL     1     193.858   1.120 102.007  1.00  0.00     0.000 C 
BRANCH  12  13
ATOM     13  C   UNL     1     193.486   2.376 102.811  1.00  0.00    -0.000 C 
BRANCH  13  14
ATOM     14  C   UNL     1     193.959   2.303 104.274  1.00  0.00    -0.000 C 
BRANCH  14  15
ATOM     15  C   UNL     1     192.793   2.367 105.273  1.00  0.00    -0.000 C 
BRANCH  15  16
ATOM     16  C   UNL     1     191.788   1.218 105.081  1.00  0.00    -0.000 C 
BRANCH  16  17
ATOM     17  C   UNL     1     192.164  -0.036 105.886  1.00  0.00    -0.000 C 
BRANCH  17  18
ATOM     18  C   UNL     1     192.418  -1.259 104.992  1.00  0.00    -0.000 C 
BRANCH  18  19
ATOM     19  C   UNL     1     193.912  -1.415 104.687  1.00  0.00    -0.003 C 
ATOM     20  C   UNL     1     194.135  -2.307 103.469  1.00  0.00     0.004 C 
ENDBRANCH  18  19
ENDBRANCH  17  18
ENDBRANCH  16  17
ENDBRANCH  15  16
ENDBRANCH  14  15
ENDBRANCH  13  14
ENDBRANCH  12  13
ENDBRANCH   1  12
TORSDOF 16
ENDMDL
