MODEL 1
REMARK VINA RESULT:    21.513      0.000      0.000
REMARK INTER + INTRA:          48.156
REMARK INTER:                  49.182
REMARK INTRA:                  -1.026
REMARK UNBOUND:                -1.026
REMARK SMILES CCCCCCCCCCCCCCCCCCCCCCCC(=O)[O-]
REMARK SMILES IDX 13 1 14 2 15 3 16 4 17 5 18 6 19 7 20 8 21 9 22 10 23 11
REMARK SMILES IDX 24 12 25 13 26 14 12 15 11 16 10 17 9 18 8 19 7 20 6 21 5 22
REMARK SMILES IDX 4 23 3 24 2 25 1 26
REMARK H PARENT
REMARK Flexibility Score: inf
ROOT
ATOM      1  C   UNL     1     -12.458  36.640 -12.258  1.00  0.00     0.000 C 
ENDROOT
BRANCH   1   2
ATOM      2  C   UNL     1     -13.240  35.367 -12.637  1.00  0.00     0.000 C 
BRANCH   2   3
ATOM      3  C   UNL     1     -14.304  34.961 -11.592  1.00  0.00     0.000 C 
BRANCH   3   4
ATOM      4  C   UNL     1     -13.828  33.879 -10.600  1.00  0.00     0.000 C 
BRANCH   4   5
ATOM      5  C   UNL     1     -14.931  32.926 -10.098  1.00  0.00     0.000 C 
BRANCH   5   6
ATOM      6  C   UNL     1     -14.441  31.725  -9.264  1.00  0.00     0.000 C 
BRANCH   6   7
ATOM      7  C   UNL     1     -12.914  31.700  -9.036  1.00  0.00     0.000 C 
BRANCH   7   8
ATOM      8  C   UNL     1     -12.481  30.576  -8.077  1.00  0.00     0.000 C 
BRANCH   8   9
ATOM      9  C   UNL     1     -11.645  29.493  -8.777  1.00  0.00     0.000 C 
BRANCH   9  10
ATOM     10  C   UNL     1     -10.610  28.849  -7.839  1.00  0.00     0.006 C 
BRANCH  10  11
ATOM     11  C   UNL     1     -10.145  29.812  -6.738  1.00  0.00     0.053 C 
BRANCH  11  12
ATOM     12  C   UNL     1      -8.908  30.562  -7.131  1.00  0.00     0.041 C 
ATOM     13  O   UNL     1      -8.241  31.182  -6.261  1.00  0.00    -0.550 OA
ATOM     14  O   UNL     1      -8.505  30.598  -8.462  1.00  0.00    -0.550 OA
ENDBRANCH  11  12
ENDBRANCH  10  11
ENDBRANCH   9  10
ENDBRANCH   8   9
ENDBRANCH   7   8
ENDBRANCH   6   7
ENDBRANCH   5   6
ENDBRANCH   4   5
ENDBRANCH   3   4
ENDBRANCH   2   3
ENDBRANCH   1   2
BRANCH   1  15
ATOM     15  C   UNL     1     -12.432  37.727 -13.348  1.00  0.00     0.000 C 
BRANCH  15  16
ATOM     16  C   UNL     1     -11.037  38.303 -13.660  1.00  0.00     0.000 C 
BRANCH  16  17
ATOM     17  C   UNL     1     -10.598  39.439 -12.708  1.00  0.00     0.000 C 
BRANCH  17  18
ATOM     18  C   UNL     1     -11.796  40.232 -12.157  1.00  0.00    -0.000 C 
BRANCH  18  19
ATOM     19  C   UNL     1     -11.374  41.459 -11.328  1.00  0.00    -0.000 C 
BRANCH  19  20
ATOM     20  C   UNL     1     -11.052  41.164  -9.848  1.00  0.00    -0.000 C 
BRANCH  20  21
ATOM     21  C   UNL     1     -10.043  42.125  -9.188  1.00  0.00    -0.000 C 
BRANCH  21  22
ATOM     22  C   UNL     1      -9.204  41.516  -8.048  1.00  0.00    -0.000 C 
BRANCH  22  23
ATOM     23  C   UNL     1     -10.016  41.300  -6.760  1.00  0.00    -0.000 C 
BRANCH  23  24
ATOM     24  C   UNL     1     -11.212  42.260  -6.650  1.00  0.00    -0.000 C 
BRANCH  24  25
ATOM     25  C   UNL     1     -12.454  41.596  -6.037  1.00  0.00    -0.003 C 
ATOM     26  C   UNL     1     -13.595  41.531  -7.049  1.00  0.00     0.004 C 
ENDBRANCH  24  25
ENDBRANCH  23  24
ENDBRANCH  22  23
ENDBRANCH  21  22
ENDBRANCH  20  21
ENDBRANCH  19  20
ENDBRANCH  18  19
ENDBRANCH  17  18
ENDBRANCH  16  17
ENDBRANCH  15  16
ENDBRANCH   1  15
TORSDOF 22
ENDMDL
MODEL 2
REMARK VINA RESULT:    21.837      3.433     10.008
REMARK INTER + INTRA:          48.896
REMARK INTER:                  49.586
REMARK INTRA:                  -0.691
REMARK UNBOUND:                -1.026
REMARK SMILES CCCCCCCCCCCCCCCCCCCCCCCC(=O)[O-]
REMARK SMILES IDX 13 1 14 2 15 3 16 4 17 5 18 6 19 7 20 8 21 9 22 10 23 11
REMARK SMILES IDX 24 12 25 13 26 14 12 15 11 16 10 17 9 18 8 19 7 20 6 21 5 22
REMARK SMILES IDX 4 23 3 24 2 25 1 26
REMARK H PARENT
REMARK Flexibility Score: inf
ROOT
ATOM      1  C   UNL     1     -12.640  37.626 -13.140  1.00  0.00     0.000 C 
ENDROOT
BRANCH   1   2
ATOM      2  C   UNL     1     -11.183  38.045 -13.408  1.00  0.00     0.000 C 
BRANCH   2   3
ATOM      3  C   UNL     1     -10.814  39.421 -12.808  1.00  0.00     0.000 C 
BRANCH   3   4
ATOM      4  C   UNL     1     -12.033  40.282 -12.418  1.00  0.00     0.000 C 
BRANCH   4   5
ATOM      5  C   UNL     1     -11.691  41.636 -11.765  1.00  0.00     0.000 C 
BRANCH   5   6
ATOM      6  C   UNL     1     -11.362  41.583 -10.260  1.00  0.00     0.000 C 
BRANCH   6   7
ATOM      7  C   UNL     1     -10.055  40.829  -9.929  1.00  0.00     0.000 C 
BRANCH   7   8
ATOM      8  C   UNL     1      -9.635  40.999  -8.458  1.00  0.00     0.000 C 
BRANCH   8   9
ATOM      9  C   UNL     1      -9.810  42.441  -7.957  1.00  0.00     0.000 C 
BRANCH   9  10
ATOM     10  C   UNL     1     -10.982  42.584  -6.969  1.00  0.00     0.006 C 
BRANCH  10  11
ATOM     11  C   UNL     1     -11.766  41.275  -6.807  1.00  0.00     0.053 C 
BRANCH  11  12
ATOM     12  C   UNL     1     -13.204  41.519  -6.459  1.00  0.00     0.041 C 
ATOM     13  O   UNL     1     -13.587  41.443  -5.261  1.00  0.00    -0.550 OA
ATOM     14  O   UNL     1     -14.127  41.805  -7.459  1.00  0.00    -0.550 OA
ENDBRANCH  11  12
ENDBRANCH  10  11
ENDBRANCH   9  10
ENDBRANCH   8   9
ENDBRANCH   7   8
ENDBRANCH   6   7
ENDBRANCH   5   6
ENDBRANCH   4   5
ENDBRANCH   3   4
ENDBRANCH   2   3
ENDBRANCH   1   2
BRANCH   1  15
ATOM     15  C   UNL     1     -12.872  36.105 -13.076  1.00  0.00     0.000 C 
BRANCH  15  16
ATOM     16  C   UNL     1     -13.356  35.576 -11.711  1.00  0.00     0.000 C 
BRANCH  16  17
ATOM     17  C   UNL     1     -13.770  34.087 -11.725  1.00  0.00     0.000 C 
BRANCH  17  18
ATOM     18  C   UNL     1     -14.505  33.675 -10.437  1.00  0.00    -0.000 C 
BRANCH  18  19
ATOM     19  C   UNL     1     -14.309  32.190 -10.082  1.00  0.00    -0.000 C 
BRANCH  19  20
ATOM     20  C   UNL     1     -13.896  31.921  -8.620  1.00  0.00    -0.000 C 
BRANCH  20  21
ATOM     21  C   UNL     1     -12.788  30.866  -8.430  1.00  0.00    -0.000 C 
BRANCH  21  22
ATOM     22  C   UNL     1     -12.676  30.278  -7.010  1.00  0.00    -0.000 C 
BRANCH  22  23
ATOM     23  C   UNL     1     -11.352  29.532  -6.778  1.00  0.00    -0.000 C 
BRANCH  23  24
ATOM     24  C   UNL     1     -10.546  29.344  -8.074  1.00  0.00    -0.000 C 
BRANCH  24  25
ATOM     25  C   UNL     1      -9.419  30.377  -8.229  1.00  0.00    -0.003 C 
ATOM     26  C   UNL     1      -8.557  30.438  -6.971  1.00  0.00     0.004 C 
ENDBRANCH  24  25
ENDBRANCH  23  24
ENDBRANCH  22  23
ENDBRANCH  21  22
ENDBRANCH  20  21
ENDBRANCH  19  20
ENDBRANCH  18  19
ENDBRANCH  17  18
ENDBRANCH  16  17
ENDBRANCH  15  16
ENDBRANCH   1  15
TORSDOF 22
ENDMDL
MODEL 3
REMARK VINA RESULT:    22.028      3.457     10.084
REMARK INTER + INTRA:          49.331
REMARK INTER:                  49.224
REMARK INTRA:                   0.108
REMARK UNBOUND:                -1.026
REMARK SMILES CCCCCCCCCCCCCCCCCCCCCCCC(=O)[O-]
REMARK SMILES IDX 13 1 14 2 15 3 16 4 17 5 18 6 19 7 20 8 21 9 22 10 23 11
REMARK SMILES IDX 24 12 25 13 26 14 12 15 11 16 10 17 9 18 8 19 7 20 6 21 5 22
REMARK SMILES IDX 4 23 3 24 2 25 1 26
REMARK H PARENT
REMARK Flexibility Score: inf
ROOT
ATOM      1  C   UNL     1     -12.891  35.962 -12.934  1.00  0.00     0.000 C 
ENDROOT
BRANCH   1   2
ATOM      2  C   UNL     1     -13.040  37.492 -13.034  1.00  0.00     0.000 C 
BRANCH   2   3
ATOM      3  C   UNL     1     -12.094  38.140 -14.069  1.00  0.00     0.000 C 
BRANCH   3   4
ATOM      4  C   UNL     1     -10.739  38.591 -13.483  1.00  0.00     0.000 C 
BRANCH   4   5
ATOM      5  C   UNL     1     -10.834  39.607 -12.328  1.00  0.00     0.000 C 
BRANCH   5   6
ATOM      6  C   UNL     1     -11.131  41.061 -12.746  1.00  0.00     0.000 C 
BRANCH   6   7
ATOM      7  C   UNL     1     -11.802  41.907 -11.642  1.00  0.00     0.000 C 
BRANCH   7   8
ATOM      8  C   UNL     1     -11.841  41.179 -10.286  1.00  0.00     0.000 C 
BRANCH   8   9
ATOM      9  C   UNL     1     -10.536  41.344  -9.490  1.00  0.00     0.000 C 
BRANCH   9  10
ATOM     10  C   UNL     1     -10.780  41.842  -8.055  1.00  0.00     0.006 C 
BRANCH  10  11
ATOM     11  C   UNL     1     -12.147  41.404  -7.513  1.00  0.00     0.053 C 
BRANCH  11  12
ATOM     12  C   UNL     1     -12.372  41.874  -6.107  1.00  0.00     0.041 C 
ATOM     13  O   UNL     1     -11.495  42.564  -5.522  1.00  0.00    -0.550 OA
ATOM     14  O   UNL     1     -13.538  41.528  -5.432  1.00  0.00    -0.550 OA
ENDBRANCH  11  12
ENDBRANCH  10  11
ENDBRANCH   9  10
ENDBRANCH   8   9
ENDBRANCH   7   8
ENDBRANCH   6   7
ENDBRANCH   5   6
ENDBRANCH   4   5
ENDBRANCH   3   4
ENDBRANCH   2   3
ENDBRANCH   1   2
BRANCH   1  15
ATOM     15  C   UNL     1     -13.133  35.381 -11.529  1.00  0.00     0.000 C 
BRANCH  15  16
ATOM     16  C   UNL     1     -14.142  34.217 -11.469  1.00  0.00     0.000 C 
BRANCH  16  17
ATOM     17  C   UNL     1     -14.548  33.810 -10.035  1.00  0.00     0.000 C 
BRANCH  17  18
ATOM     18  C   UNL     1     -15.067  32.362  -9.965  1.00  0.00    -0.000 C 
BRANCH  18  19
ATOM     19  C   UNL     1     -14.249  31.476  -9.008  1.00  0.00    -0.000 C 
BRANCH  19  20
ATOM     20  C   UNL     1     -12.720  31.548  -9.203  1.00  0.00    -0.000 C 
BRANCH  20  21
ATOM     21  C   UNL     1     -11.910  30.460  -8.469  1.00  0.00    -0.000 C 
BRANCH  21  22
ATOM     22  C   UNL     1     -12.059  30.450  -6.936  1.00  0.00    -0.000 C 
BRANCH  22  23
ATOM     23  C   UNL     1     -11.346  29.259  -6.276  1.00  0.00    -0.000 C 
BRANCH  23  24
ATOM     24  C   UNL     1     -10.238  28.669  -7.165  1.00  0.00    -0.000 C 
BRANCH  24  25
ATOM     25  C   UNL     1      -9.456  29.745  -7.932  1.00  0.00    -0.003 C 
ATOM     26  C   UNL     1      -8.581  30.565  -6.987  1.00  0.00     0.004 C 
ENDBRANCH  24  25
ENDBRANCH  23  24
ENDBRANCH  22  23
ENDBRANCH  21  22
ENDBRANCH  20  21
ENDBRANCH  19  20
ENDBRANCH  18  19
ENDBRANCH  17  18
ENDBRANCH  16  17
ENDBRANCH  15  16
ENDBRANCH   1  15
TORSDOF 22
ENDMDL
MODEL 4
REMARK VINA RESULT:    22.266      0.922      1.372
REMARK INTER + INTRA:          49.878
REMARK INTER:                  50.495
REMARK INTRA:                  -0.618
REMARK UNBOUND:                -1.026
REMARK SMILES CCCCCCCCCCCCCCCCCCCCCCCC(=O)[O-]
REMARK SMILES IDX 13 1 14 2 15 3 16 4 17 5 18 6 19 7 20 8 21 9 22 10 23 11
REMARK SMILES IDX 24 12 25 13 26 14 12 15 11 16 10 17 9 18 8 19 7 20 6 21 5 22
REMARK SMILES IDX 4 23 3 24 2 25 1 26
REMARK H PARENT
REMARK Flexibility Score: inf
ROOT
ATOM      1  C   UNL     1     -12.462  36.825 -13.415  1.00  0.00     0.000 C 
ENDROOT
BRANCH   1   2
ATOM      2  C   UNL     1     -13.133  36.269 -12.145  1.00  0.00     0.000 C 
BRANCH   2   3
ATOM      3  C   UNL     1     -13.364  34.742 -12.185  1.00  0.00     0.000 C 
BRANCH   3   4
ATOM      4  C   UNL     1     -14.836  34.325 -11.985  1.00  0.00     0.000 C 
BRANCH   4   5
ATOM      5  C   UNL     1     -15.041  33.022 -11.186  1.00  0.00     0.000 C 
BRANCH   5   6
ATOM      6  C   UNL     1     -14.340  32.967  -9.814  1.00  0.00     0.000 C 
BRANCH   6   7
ATOM      7  C   UNL     1     -14.056  31.536  -9.311  1.00  0.00     0.000 C 
BRANCH   7   8
ATOM      8  C   UNL     1     -13.029  31.508  -8.164  1.00  0.00     0.000 C 
BRANCH   8   9
ATOM      9  C   UNL     1     -12.316  30.152  -8.043  1.00  0.00     0.000 C 
BRANCH   9  10
ATOM     10  C   UNL     1     -12.207  29.671  -6.586  1.00  0.00     0.006 C 
BRANCH  10  11
ATOM     11  C   UNL     1     -10.757  29.664  -6.083  1.00  0.00     0.053 C 
BRANCH  11  12
ATOM     12  C   UNL     1      -9.770  29.686  -7.212  1.00  0.00     0.041 C 
ATOM     13  O   UNL     1      -9.923  28.921  -8.201  1.00  0.00    -0.550 OA
ATOM     14  O   UNL     1      -8.667  30.532  -7.161  1.00  0.00    -0.550 OA
ENDBRANCH  11  12
ENDBRANCH  10  11
ENDBRANCH   9  10
ENDBRANCH   8   9
ENDBRANCH   7   8
ENDBRANCH   6   7
ENDBRANCH   5   6
ENDBRANCH   4   5
ENDBRANCH   3   4
ENDBRANCH   2   3
ENDBRANCH   1   2
BRANCH   1  15
ATOM     15  C   UNL     1     -12.363  38.361 -13.472  1.00  0.00     0.000 C 
BRANCH  15  16
ATOM     16  C   UNL     1     -10.940  38.930 -13.312  1.00  0.00     0.000 C 
BRANCH  16  17
ATOM     17  C   UNL     1     -10.900  40.414 -12.886  1.00  0.00     0.000 C 
BRANCH  17  18
ATOM     18  C   UNL     1     -11.896  40.722 -11.754  1.00  0.00    -0.000 C 
BRANCH  18  19
ATOM     19  C   UNL     1     -11.338  41.711 -10.715  1.00  0.00    -0.000 C 
BRANCH  19  20
ATOM     20  C   UNL     1     -10.686  41.057  -9.479  1.00  0.00    -0.000 C 
BRANCH  20  21
ATOM     21  C   UNL     1      -9.908  42.016  -8.557  1.00  0.00    -0.000 C 
BRANCH  21  22
ATOM     22  C   UNL     1     -10.053  41.740  -7.048  1.00  0.00    -0.000 C 
BRANCH  22  23
ATOM     23  C   UNL     1     -11.346  42.323  -6.456  1.00  0.00    -0.000 C 
BRANCH  23  24
ATOM     24  C   UNL     1     -12.425  41.252  -6.227  1.00  0.00    -0.000 C 
BRANCH  24  25
ATOM     25  C   UNL     1     -13.842  41.758  -6.536  1.00  0.00    -0.003 C 
ATOM     26  C   UNL     1     -14.092  41.799  -8.041  1.00  0.00     0.004 C 
ENDBRANCH  24  25
ENDBRANCH  23  24
ENDBRANCH  22  23
ENDBRANCH  21  22
ENDBRANCH  20  21
ENDBRANCH  19  20
ENDBRANCH  18  19
ENDBRANCH  17  18
ENDBRANCH  16  17
ENDBRANCH  15  16
ENDBRANCH   1  15
TORSDOF 22
ENDMDL
MODEL 5
REMARK VINA RESULT:    22.316      3.287     10.047
REMARK INTER + INTRA:          49.990
REMARK INTER:                  50.888
REMARK INTRA:                  -0.898
REMARK UNBOUND:                -1.026
REMARK SMILES CCCCCCCCCCCCCCCCCCCCCCCC(=O)[O-]
REMARK SMILES IDX 13 1 14 2 15 3 16 4 17 5 18 6 19 7 20 8 21 9 22 10 23 11
REMARK SMILES IDX 24 12 25 13 26 14 12 15 11 16 10 17 9 18 8 19 7 20 6 21 5 22
REMARK SMILES IDX 4 23 3 24 2 25 1 26
REMARK H PARENT
REMARK Flexibility Score: inf
ROOT
ATOM      1  C   UNL     1     -12.223  36.521 -13.038  1.00  0.00     0.000 C 
ENDROOT
BRANCH   1   2
ATOM      2  C   UNL     1     -12.316  38.030 -13.334  1.00  0.00     0.000 C 
BRANCH   2   3
ATOM      3  C   UNL     1     -10.959  38.675 -13.696  1.00  0.00     0.000 C 
BRANCH   3   4
ATOM      4  C   UNL     1     -10.641  39.957 -12.899  1.00  0.00     0.000 C 
BRANCH   4   5
ATOM      5  C   UNL     1     -11.859  40.629 -12.234  1.00  0.00     0.000 C 
BRANCH   5   6
ATOM      6  C   UNL     1     -11.532  41.643 -11.120  1.00  0.00     0.000 C 
BRANCH   6   7
ATOM      7  C   UNL     1     -11.247  40.996  -9.747  1.00  0.00     0.000 C 
BRANCH   7   8
ATOM      8  C   UNL     1      -9.777  41.152  -9.317  1.00  0.00     0.000 C 
BRANCH   8   9
ATOM      9  C   UNL     1      -9.635  41.565  -7.843  1.00  0.00     0.000 C 
BRANCH   9  10
ATOM     10  C   UNL     1     -10.569  42.727  -7.463  1.00  0.00     0.006 C 
BRANCH  10  11
ATOM     11  C   UNL     1     -11.333  42.455  -6.160  1.00  0.00     0.053 C 
BRANCH  11  12
ATOM     12  C   UNL     1     -12.645  41.774  -6.409  1.00  0.00     0.041 C 
ATOM     13  O   UNL     1     -13.165  41.801  -7.556  1.00  0.00    -0.550 OA
ATOM     14  O   UNL     1     -13.308  41.132  -5.368  1.00  0.00    -0.550 OA
ENDBRANCH  11  12
ENDBRANCH  10  11
ENDBRANCH   9  10
ENDBRANCH   8   9
ENDBRANCH   7   8
ENDBRANCH   6   7
ENDBRANCH   5   6
ENDBRANCH   4   5
ENDBRANCH   3   4
ENDBRANCH   2   3
ENDBRANCH   1   2
BRANCH   1  15
ATOM     15  C   UNL     1     -13.498  35.902 -12.438  1.00  0.00     0.000 C 
BRANCH  15  16
ATOM     16  C   UNL     1     -13.295  34.549 -11.729  1.00  0.00     0.000 C 
BRANCH  16  17
ATOM     17  C   UNL     1     -14.612  33.842 -11.334  1.00  0.00     0.000 C 
BRANCH  17  18
ATOM     18  C   UNL     1     -14.635  33.443  -9.848  1.00  0.00    -0.000 C 
BRANCH  18  19
ATOM     19  C   UNL     1     -14.471  31.928  -9.629  1.00  0.00    -0.000 C 
BRANCH  19  20
ATOM     20  C   UNL     1     -13.472  31.536  -8.521  1.00  0.00    -0.000 C 
BRANCH  20  21
ATOM     21  C   UNL     1     -12.185  30.841  -9.008  1.00  0.00    -0.000 C 
BRANCH  21  22
ATOM     22  C   UNL     1     -11.966  29.412  -8.473  1.00  0.00    -0.000 C 
BRANCH  22  23
ATOM     23  C   UNL     1     -10.498  29.128  -8.118  1.00  0.00    -0.000 C 
BRANCH  23  24
ATOM     24  C   UNL     1     -10.103  29.696  -6.744  1.00  0.00    -0.000 C 
BRANCH  24  25
ATOM     25  C   UNL     1      -9.265  30.979  -6.850  1.00  0.00    -0.003 C 
ATOM     26  C   UNL     1      -7.773  30.664  -6.783  1.00  0.00     0.004 C 
ENDBRANCH  24  25
ENDBRANCH  23  24
ENDBRANCH  22  23
ENDBRANCH  21  22
ENDBRANCH  20  21
ENDBRANCH  19  20
ENDBRANCH  18  19
ENDBRANCH  17  18
ENDBRANCH  16  17
ENDBRANCH  15  16
ENDBRANCH   1  15
TORSDOF 22
ENDMDL
MODEL 6
REMARK VINA RESULT:    23.395      3.589      9.962
REMARK INTER + INTRA:          52.457
REMARK INTER:                  53.065
REMARK INTRA:                  -0.608
REMARK UNBOUND:                -1.026
REMARK SMILES CCCCCCCCCCCCCCCCCCCCCCCC(=O)[O-]
REMARK SMILES IDX 13 1 14 2 15 3 16 4 17 5 18 6 19 7 20 8 21 9 22 10 23 11
REMARK SMILES IDX 24 12 25 13 26 14 12 15 11 16 10 17 9 18 8 19 7 20 6 21 5 22
REMARK SMILES IDX 4 23 3 24 2 25 1 26
REMARK H PARENT
REMARK Flexibility Score: inf
ROOT
ATOM      1  C   UNL     1     -14.200  34.142 -11.493  1.00  0.00     0.000 C 
ENDROOT
BRANCH   1   2
ATOM      2  C   UNL     1     -13.089  34.918 -12.226  1.00  0.00     0.000 C 
BRANCH   2   3
ATOM      3  C   UNL     1     -13.334  36.443 -12.284  1.00  0.00     0.000 C 
BRANCH   3   4
ATOM      4  C   UNL     1     -12.212  37.232 -12.991  1.00  0.00     0.000 C 
BRANCH   4   5
ATOM      5  C   UNL     1     -12.508  38.729 -13.210  1.00  0.00     0.000 C 
BRANCH   5   6
ATOM      6  C   UNL     1     -11.544  39.706 -12.508  1.00  0.00     0.000 C 
BRANCH   6   7
ATOM      7  C   UNL     1     -12.105  41.134 -12.346  1.00  0.00     0.000 C 
BRANCH   7   8
ATOM      8  C   UNL     1     -11.386  41.927 -11.239  1.00  0.00     0.000 C 
BRANCH   8   9
ATOM      9  C   UNL     1     -11.270  41.135  -9.926  1.00  0.00     0.000 C 
BRANCH   9  10
ATOM     10  C   UNL     1     -10.389  41.846  -8.884  1.00  0.00     0.006 C 
BRANCH  10  11
ATOM     11  C   UNL     1     -10.579  41.270  -7.474  1.00  0.00     0.053 C 
BRANCH  11  12
ATOM     12  C   UNL     1     -11.864  41.725  -6.849  1.00  0.00     0.041 C 
ATOM     13  O   UNL     1     -12.926  41.744  -7.527  1.00  0.00    -0.550 OA
ATOM     14  O   UNL     1     -11.885  42.153  -5.526  1.00  0.00    -0.550 OA
ENDBRANCH  11  12
ENDBRANCH  10  11
ENDBRANCH   9  10
ENDBRANCH   8   9
ENDBRANCH   7   8
ENDBRANCH   6   7
ENDBRANCH   5   6
ENDBRANCH   4   5
ENDBRANCH   3   4
ENDBRANCH   2   3
ENDBRANCH   1   2
BRANCH   1  15
ATOM     15  C   UNL     1     -13.737  33.393 -10.230  1.00  0.00     0.000 C 
BRANCH  15  16
ATOM     16  C   UNL     1     -14.754  32.384  -9.661  1.00  0.00     0.000 C 
BRANCH  16  17
ATOM     17  C   UNL     1     -14.147  31.378  -8.657  1.00  0.00     0.000 C 
BRANCH  17  18
ATOM     18  C   UNL     1     -12.634  31.188  -8.866  1.00  0.00    -0.000 C 
BRANCH  18  19
ATOM     19  C   UNL     1     -11.959  30.426  -7.711  1.00  0.00    -0.000 C 
BRANCH  19  20
ATOM     20  C   UNL     1     -10.800  29.500  -8.132  1.00  0.00    -0.000 C 
BRANCH  20  21
ATOM     21  C   UNL     1      -9.550  29.554  -7.232  1.00  0.00    -0.000 C 
BRANCH  21  22
ATOM     22  C   UNL     1      -8.853  30.926  -7.155  1.00  0.00    -0.000 C 
BRANCH  22  23
ATOM     23  C   UNL     1      -7.751  31.094  -8.214  1.00  0.00    -0.000 C 
BRANCH  23  24
ATOM     24  C   UNL     1      -7.717  32.512  -8.809  1.00  0.00    -0.000 C 
BRANCH  24  25
ATOM     25  C   UNL     1      -6.383  32.835  -9.499  1.00  0.00    -0.003 C 
ATOM     26  C   UNL     1      -6.605  33.252 -10.950  1.00  0.00     0.004 C 
ENDBRANCH  24  25
ENDBRANCH  23  24
ENDBRANCH  22  23
ENDBRANCH  21  22
ENDBRANCH  20  21
ENDBRANCH  19  20
ENDBRANCH  18  19
ENDBRANCH  17  18
ENDBRANCH  16  17
ENDBRANCH  15  16
ENDBRANCH   1  15
TORSDOF 22
ENDMDL
MODEL 7
REMARK VINA RESULT:    23.420      1.421      1.646
REMARK INTER + INTRA:          52.515
REMARK INTER:                  53.432
REMARK INTRA:                  -0.916
REMARK UNBOUND:                -1.026
REMARK SMILES CCCCCCCCCCCCCCCCCCCCCCCC(=O)[O-]
REMARK SMILES IDX 13 1 14 2 15 3 16 4 17 5 18 6 19 7 20 8 21 9 22 10 23 11
REMARK SMILES IDX 24 12 25 13 26 14 12 15 11 16 10 17 9 18 8 19 7 20 6 21 5 22
REMARK SMILES IDX 4 23 3 24 2 25 1 26
REMARK H PARENT
REMARK Flexibility Score: inf
ROOT
ATOM      1  C   UNL     1     -12.950  36.426 -12.306  1.00  0.00     0.000 C 
ENDROOT
BRANCH   1   2
ATOM      2  C   UNL     1     -13.243  34.914 -12.346  1.00  0.00     0.000 C 
BRANCH   2   3
ATOM      3  C   UNL     1     -14.330  34.467 -11.343  1.00  0.00     0.000 C 
BRANCH   3   4
ATOM      4  C   UNL     1     -13.804  33.559 -10.212  1.00  0.00     0.000 C 
BRANCH   4   5
ATOM      5  C   UNL     1     -14.737  32.393  -9.826  1.00  0.00     0.000 C 
BRANCH   5   6
ATOM      6  C   UNL     1     -14.161  31.394  -8.802  1.00  0.00     0.000 C 
BRANCH   6   7
ATOM      7  C   UNL     1     -12.619  31.318  -8.798  1.00  0.00     0.000 C 
BRANCH   7   8
ATOM      8  C   UNL     1     -12.102  29.868  -8.806  1.00  0.00     0.000 C 
BRANCH   8   9
ATOM      9  C   UNL     1     -10.570  29.788  -8.704  1.00  0.00     0.000 C 
BRANCH   9  10
ATOM     10  C   UNL     1     -10.096  29.314  -7.320  1.00  0.00     0.006 C 
BRANCH  10  11
ATOM     11  C   UNL     1     -10.088  30.450  -6.288  1.00  0.00     0.053 C 
BRANCH  11  12
ATOM     12  C   UNL     1     -11.334  30.463  -5.455  1.00  0.00     0.041 C 
ATOM     13  O   UNL     1     -11.538  31.399  -4.637  1.00  0.00    -0.550 OA
ATOM     14  O   UNL     1     -12.259  29.430  -5.563  1.00  0.00    -0.550 OA
ENDBRANCH  11  12
ENDBRANCH  10  11
ENDBRANCH   9  10
ENDBRANCH   8   9
ENDBRANCH   7   8
ENDBRANCH   6   7
ENDBRANCH   5   6
ENDBRANCH   4   5
ENDBRANCH   3   4
ENDBRANCH   2   3
ENDBRANCH   1   2
BRANCH   1  15
ATOM     15  C   UNL     1     -13.012  37.131 -13.673  1.00  0.00     0.000 C 
BRANCH  15  16
ATOM     16  C   UNL     1     -12.284  38.488 -13.741  1.00  0.00     0.000 C 
BRANCH  16  17
ATOM     17  C   UNL     1     -10.785  38.416 -13.375  1.00  0.00     0.000 C 
BRANCH  17  18
ATOM     18  C   UNL     1     -10.378  39.505 -12.367  1.00  0.00    -0.000 C 
BRANCH  18  19
ATOM     19  C   UNL     1     -11.554  40.405 -11.947  1.00  0.00    -0.000 C 
BRANCH  19  20
ATOM     20  C   UNL     1     -11.188  41.536 -10.965  1.00  0.00    -0.000 C 
BRANCH  20  21
ATOM     21  C   UNL     1     -11.535  41.266  -9.487  1.00  0.00    -0.000 C 
BRANCH  21  22
ATOM     22  C   UNL     1     -10.449  41.671  -8.472  1.00  0.00    -0.000 C 
BRANCH  22  23
ATOM     23  C   UNL     1     -10.995  42.547  -7.333  1.00  0.00    -0.000 C 
BRANCH  23  24
ATOM     24  C   UNL     1     -11.322  41.735  -6.069  1.00  0.00    -0.000 C 
BRANCH  24  25
ATOM     25  C   UNL     1     -12.658  40.984  -6.173  1.00  0.00    -0.003 C 
ATOM     26  C   UNL     1     -13.711  41.837  -6.876  1.00  0.00     0.004 C 
ENDBRANCH  24  25
ENDBRANCH  23  24
ENDBRANCH  22  23
ENDBRANCH  21  22
ENDBRANCH  20  21
ENDBRANCH  19  20
ENDBRANCH  18  19
ENDBRANCH  17  18
ENDBRANCH  16  17
ENDBRANCH  15  16
ENDBRANCH   1  15
TORSDOF 22
ENDMDL
MODEL 8
REMARK VINA RESULT:    23.818      0.997      2.282
REMARK INTER + INTRA:          53.425
REMARK INTER:                  53.766
REMARK INTRA:                  -0.341
REMARK UNBOUND:                -1.026
REMARK SMILES CCCCCCCCCCCCCCCCCCCCCCCC(=O)[O-]
REMARK SMILES IDX 13 1 14 2 15 3 16 4 17 5 18 6 19 7 20 8 21 9 22 10 23 11
REMARK SMILES IDX 24 12 25 13 26 14 12 15 11 16 10 17 9 18 8 19 7 20 6 21 5 22
REMARK SMILES IDX 4 23 3 24 2 25 1 26
REMARK H PARENT
REMARK Flexibility Score: inf
ROOT
ATOM      1  C   UNL     1     -12.451  37.664 -13.775  1.00  0.00     0.000 C 
ENDROOT
BRANCH   1   2
ATOM      2  C   UNL     1     -13.132  37.108 -12.510  1.00  0.00     0.000 C 
BRANCH   2   3
ATOM      3  C   UNL     1     -12.592  35.728 -12.072  1.00  0.00     0.000 C 
BRANCH   3   4
ATOM      4  C   UNL     1     -13.662  34.617 -12.040  1.00  0.00     0.000 C 
BRANCH   4   5
ATOM      5  C   UNL     1     -14.085  34.161 -10.629  1.00  0.00     0.000 C 
BRANCH   5   6
ATOM      6  C   UNL     1     -14.721  32.758 -10.548  1.00  0.00     0.000 C 
BRANCH   6   7
ATOM      7  C   UNL     1     -14.384  31.990  -9.252  1.00  0.00     0.000 C 
BRANCH   7   8
ATOM      8  C   UNL     1     -12.868  31.861  -9.022  1.00  0.00     0.000 C 
BRANCH   8   9
ATOM      9  C   UNL     1     -12.468  30.477  -8.486  1.00  0.00     0.000 C 
BRANCH   9  10
ATOM     10  C   UNL     1     -12.517  30.404  -6.950  1.00  0.00     0.006 C 
BRANCH  10  11
ATOM     11  C   UNL     1     -11.226  29.824  -6.355  1.00  0.00     0.053 C 
BRANCH  11  12
ATOM     12  C   UNL     1     -10.181  29.586  -7.403  1.00  0.00     0.041 C 
ATOM     13  O   UNL     1     -10.339  28.677  -8.261  1.00  0.00    -0.550 OA
ATOM     14  O   UNL     1      -9.019  30.350  -7.418  1.00  0.00    -0.550 OA
ENDBRANCH  11  12
ENDBRANCH  10  11
ENDBRANCH   9  10
ENDBRANCH   8   9
ENDBRANCH   7   8
ENDBRANCH   6   7
ENDBRANCH   5   6
ENDBRANCH   4   5
ENDBRANCH   3   4
ENDBRANCH   2   3
ENDBRANCH   1   2
BRANCH   1  15
ATOM     15  C   UNL     1     -11.095  38.349 -13.529  1.00  0.00     0.000 C 
BRANCH  15  16
ATOM     16  C   UNL     1     -11.063  39.319 -12.331  1.00  0.00     0.000 C 
BRANCH  16  17
ATOM     17  C   UNL     1     -11.666  40.709 -12.631  1.00  0.00     0.000 C 
BRANCH  17  18
ATOM     18  C   UNL     1     -11.507  41.681 -11.448  1.00  0.00    -0.000 C 
BRANCH  18  19
ATOM     19  C   UNL     1     -12.770  41.773 -10.573  1.00  0.00    -0.000 C 
BRANCH  19  20
ATOM     20  C   UNL     1     -12.576  41.346  -9.103  1.00  0.00    -0.000 C 
BRANCH  20  21
ATOM     21  C   UNL     1     -13.728  41.718  -8.149  1.00  0.00    -0.000 C 
BRANCH  21  22
ATOM     22  C   UNL     1     -13.364  41.729  -6.651  1.00  0.00    -0.000 C 
BRANCH  22  23
ATOM     23  C   UNL     1     -11.912  41.298  -6.388  1.00  0.00    -0.000 C 
BRANCH  23  24
ATOM     24  C   UNL     1     -10.936  42.486  -6.389  1.00  0.00    -0.000 C 
BRANCH  24  25
ATOM     25  C   UNL     1     -10.164  42.621  -7.711  1.00  0.00    -0.003 C 
ATOM     26  C   UNL     1      -9.143  41.497  -7.865  1.00  0.00     0.004 C 
ENDBRANCH  24  25
ENDBRANCH  23  24
ENDBRANCH  22  23
ENDBRANCH  21  22
ENDBRANCH  20  21
ENDBRANCH  19  20
ENDBRANCH  18  19
ENDBRANCH  17  18
ENDBRANCH  16  17
ENDBRANCH  15  16
ENDBRANCH   1  15
TORSDOF 22
ENDMDL
MODEL 9
REMARK VINA RESULT:    23.831      1.688      3.092
REMARK INTER + INTRA:          53.454
REMARK INTER:                  54.350
REMARK INTRA:                  -0.896
REMARK UNBOUND:                -1.026
REMARK SMILES CCCCCCCCCCCCCCCCCCCCCCCC(=O)[O-]
REMARK SMILES IDX 13 1 14 2 15 3 16 4 17 5 18 6 19 7 20 8 21 9 22 10 23 11
REMARK SMILES IDX 24 12 25 13 26 14 12 15 11 16 10 17 9 18 8 19 7 20 6 21 5 22
REMARK SMILES IDX 4 23 3 24 2 25 1 26
REMARK H PARENT
REMARK Flexibility Score: inf
ROOT
ATOM      1  C   UNL     1     -11.261  38.609 -13.430  1.00  0.00     0.000 C 
ENDROOT
BRANCH   1   2
ATOM      2  C   UNL     1     -12.734  38.177 -13.301  1.00  0.00     0.000 C 
BRANCH   2   3
ATOM      3  C   UNL     1     -12.932  36.644 -13.305  1.00  0.00     0.000 C 
BRANCH   3   4
ATOM      4  C   UNL     1     -13.229  36.046 -11.914  1.00  0.00     0.000 C 
BRANCH   4   5
ATOM      5  C   UNL     1     -14.238  34.881 -11.909  1.00  0.00     0.000 C 
BRANCH   5   6
ATOM      6  C   UNL     1     -13.768  33.599 -11.192  1.00  0.00     0.000 C 
BRANCH   6   7
ATOM      7  C   UNL     1     -14.917  32.746 -10.612  1.00  0.00     0.000 C 
BRANCH   7   8
ATOM      8  C   UNL     1     -14.538  32.079  -9.277  1.00  0.00     0.000 C 
BRANCH   8   9
ATOM      9  C   UNL     1     -13.027  31.831  -9.150  1.00  0.00     0.000 C 
BRANCH   9  10
ATOM     10  C   UNL     1     -12.692  30.754  -8.103  1.00  0.00     0.006 C 
BRANCH  10  11
ATOM     11  C   UNL     1     -11.436  29.954  -8.474  1.00  0.00     0.053 C 
BRANCH  11  12
ATOM     12  C   UNL     1     -10.753  29.386  -7.267  1.00  0.00     0.041 C 
ATOM     13  O   UNL     1     -11.328  29.409  -6.145  1.00  0.00    -0.550 OA
ATOM     14  O   UNL     1      -9.473  28.854  -7.373  1.00  0.00    -0.550 OA
ENDBRANCH  11  12
ENDBRANCH  10  11
ENDBRANCH   9  10
ENDBRANCH   8   9
ENDBRANCH   7   8
ENDBRANCH   6   7
ENDBRANCH   5   6
ENDBRANCH   4   5
ENDBRANCH   3   4
ENDBRANCH   2   3
ENDBRANCH   1   2
BRANCH   1  15
ATOM     15  C   UNL     1     -10.801  39.649 -12.393  1.00  0.00     0.000 C 
BRANCH  15  16
ATOM     16  C   UNL     1     -11.636  40.945 -12.355  1.00  0.00     0.000 C 
BRANCH  16  17
ATOM     17  C   UNL     1     -11.409  41.802 -11.089  1.00  0.00     0.000 C 
BRANCH  17  18
ATOM     18  C   UNL     1     -11.145  40.941  -9.842  1.00  0.00    -0.000 C 
BRANCH  18  19
ATOM     19  C   UNL     1     -11.206  41.746  -8.531  1.00  0.00    -0.000 C 
BRANCH  19  20
ATOM     20  C   UNL     1     -12.567  41.707  -7.807  1.00  0.00    -0.000 C 
BRANCH  20  21
ATOM     21  C   UNL     1     -12.542  41.107  -6.387  1.00  0.00    -0.000 C 
BRANCH  21  22
ATOM     22  C   UNL     1     -12.487  42.134  -5.239  1.00  0.00    -0.000 C 
BRANCH  22  23
ATOM     23  C   UNL     1     -11.256  43.052  -5.320  1.00  0.00    -0.000 C 
BRANCH  23  24
ATOM     24  C   UNL     1     -10.245  42.782  -4.193  1.00  0.00    -0.000 C 
BRANCH  24  25
ATOM     25  C   UNL     1     -10.626  43.473  -2.875  1.00  0.00    -0.003 C 
ATOM     26  C   UNL     1     -10.972  44.941  -3.107  1.00  0.00     0.004 C 
ENDBRANCH  24  25
ENDBRANCH  23  24
ENDBRANCH  22  23
ENDBRANCH  21  22
ENDBRANCH  20  21
ENDBRANCH  19  20
ENDBRANCH  18  19
ENDBRANCH  17  18
ENDBRANCH  16  17
ENDBRANCH  15  16
ENDBRANCH   1  15
TORSDOF 22
ENDMDL
