MODEL 1
REMARK VINA RESULT:    -3.503      0.000      0.000
REMARK INTER + INTRA:          -5.129
REMARK INTER:                  -5.039
REMARK INTRA:                  -0.089
REMARK UNBOUND:                -0.089
REMARK SMILES O=C(CO)[C@H](O)[C@@H](O)[C@H](O)CO
REMARK SMILES IDX 7 1 9 2 11 3 12 4 10 6 5 8 2 9 1 10 3 11 4 12 6 14 8 16
REMARK H PARENT 12 5 10 7 4 13 6 15 8 17
REMARK Flexibility Score: inf
ROOT
ATOM      1  C   UNL     1     -38.157  23.075   5.410  1.00  0.00     0.181 C 
ENDROOT
BRANCH   1   2
ATOM      2  C   UNL     1     -39.119  24.163   4.873  1.00  0.00     0.171 C 
BRANCH   2   3
ATOM      3  C   UNL     1     -39.125  25.418   5.763  1.00  0.00     0.190 C 
BRANCH   3   4
ATOM      4  O   UNL     1     -39.002  25.066   7.116  1.00  0.00    -0.394 OA
ATOM      5  H   UNL     1     -38.418  24.264   7.155  1.00  0.00     0.210 HD
ENDBRANCH   3   4
ENDBRANCH   2   3
BRANCH   2   6
ATOM      6  O   UNL     1     -38.746  24.526   3.568  1.00  0.00    -0.388 OA
ATOM      7  H   UNL     1     -38.420  25.464   3.610  1.00  0.00     0.211 HD
ENDBRANCH   2   6
ENDBRANCH   1   2
BRANCH   1   8
ATOM      8  C   UNL     1     -38.928  21.845   5.932  1.00  0.00     0.214 C 
BRANCH   8   9
ATOM      9  C   UNL     1     -38.445  21.469   7.319  1.00  0.00     0.189 C 
ATOM     10  O   UNL     1     -38.793  20.401   7.800  1.00  0.00    -0.294 OA
BRANCH   9  11
ATOM     11  C   UNL     1     -37.526  22.357   8.114  1.00  0.00     0.234 C 
BRANCH  11  12
ATOM     12  O   UNL     1     -36.191  22.046   7.823  1.00  0.00    -0.388 OA
ATOM     13  H   UNL     1     -36.031  21.122   8.151  1.00  0.00     0.211 HD
ENDBRANCH  11  12
ENDBRANCH   9  11
ENDBRANCH   8   9
BRANCH   8  14
ATOM     14  O   UNL     1     -38.780  20.766   5.043  1.00  0.00    -0.382 OA
ATOM     15  H   UNL     1     -38.528  21.153   4.164  1.00  0.00     0.211 HD
ENDBRANCH   8  14
ENDBRANCH   1   8
BRANCH   1  16
ATOM     16  O   UNL     1     -37.263  22.676   4.399  1.00  0.00    -0.387 OA
ATOM     17  H   UNL     1     -37.405  21.706   4.245  1.00  0.00     0.211 HD
ENDBRANCH   1  16
TORSDOF 10
ENDMDL
MODEL 2
REMARK VINA RESULT:    -3.092      1.209      4.309
REMARK INTER + INTRA:          -4.537
REMARK INTER:                  -4.300
REMARK INTRA:                  -0.237
REMARK UNBOUND:                -0.089
REMARK SMILES O=C(CO)[C@H](O)[C@@H](O)[C@H](O)CO
REMARK SMILES IDX 7 1 9 2 11 3 12 4 10 6 5 8 2 9 1 10 3 11 4 12 6 14 8 16
REMARK H PARENT 12 5 10 7 4 13 6 15 8 17
REMARK Flexibility Score: inf
ROOT
ATOM      1  C   UNL     1     -37.395  23.065   6.908  1.00  0.00     0.181 C 
ENDROOT
BRANCH   1   2
ATOM      2  C   UNL     1     -37.501  22.105   8.119  1.00  0.00     0.171 C 
BRANCH   2   3
ATOM      3  C   UNL     1     -38.825  21.322   8.120  1.00  0.00     0.190 C 
BRANCH   3   4
ATOM      4  O   UNL     1     -38.583  19.939   8.119  1.00  0.00    -0.394 OA
ATOM      5  H   UNL     1     -37.710  19.798   7.666  1.00  0.00     0.210 HD
ENDBRANCH   3   4
ENDBRANCH   2   3
BRANCH   2   6
ATOM      6  O   UNL     1     -36.429  21.196   8.100  1.00  0.00    -0.388 OA
ATOM      7  H   UNL     1     -36.632  20.496   8.775  1.00  0.00     0.211 HD
ENDBRANCH   2   6
ENDBRANCH   1   2
BRANCH   1   8
ATOM      8  C   UNL     1     -38.779  23.615   6.500  1.00  0.00     0.214 C 
BRANCH   8   9
ATOM      9  C   UNL     1     -39.003  23.426   5.012  1.00  0.00     0.189 C 
ATOM     10  O   UNL     1     -39.114  22.294   4.568  1.00  0.00    -0.294 OA
BRANCH   9  11
ATOM     11  C   UNL     1     -39.124  24.592   4.068  1.00  0.00     0.234 C 
BRANCH  11  12
ATOM     12  O   UNL     1     -38.234  24.434   2.998  1.00  0.00    -0.388 OA
ATOM     13  H   UNL     1     -38.086  23.458   2.886  1.00  0.00     0.211 HD
ENDBRANCH  11  12
ENDBRANCH   9  11
ENDBRANCH   8   9
BRANCH   8  14
ATOM     14  O   UNL     1     -38.885  24.971   6.853  1.00  0.00    -0.382 OA
ATOM     15  H   UNL     1     -37.981  25.262   7.146  1.00  0.00     0.211 HD
ENDBRANCH   8  14
ENDBRANCH   1   8
BRANCH   1  16
ATOM     16  O   UNL     1     -36.534  24.135   7.211  1.00  0.00    -0.387 OA
ATOM     17  H   UNL     1     -35.608  23.776   7.222  1.00  0.00     0.211 HD
ENDBRANCH   1  16
TORSDOF 10
ENDMDL
MODEL 3
REMARK VINA RESULT:    -2.679      1.260      2.035
REMARK INTER + INTRA:          -3.943
REMARK INTER:                  -4.138
REMARK INTRA:                   0.195
REMARK UNBOUND:                -0.089
REMARK SMILES O=C(CO)[C@H](O)[C@@H](O)[C@H](O)CO
REMARK SMILES IDX 7 1 9 2 11 3 12 4 10 6 5 8 2 9 1 10 3 11 4 12 6 14 8 16
REMARK H PARENT 12 5 10 7 4 13 6 15 8 17
REMARK Flexibility Score: inf
ROOT
ATOM      1  C   UNL     1     -38.153  22.727   4.892  1.00  0.00     0.181 C 
ENDROOT
BRANCH   1   2
ATOM      2  C   UNL     1     -38.823  23.771   3.964  1.00  0.00     0.171 C 
BRANCH   2   3
ATOM      3  C   UNL     1     -39.125  25.087   4.701  1.00  0.00     0.190 C 
BRANCH   3   4
ATOM      4  O   UNL     1     -39.072  26.174   3.814  1.00  0.00    -0.394 OA
ATOM      5  H   UNL     1     -39.989  26.300   3.454  1.00  0.00     0.210 HD
ENDBRANCH   3   4
ENDBRANCH   2   3
BRANCH   2   6
ATOM      6  O   UNL     1     -37.987  24.038   2.867  1.00  0.00    -0.388 OA
ATOM      7  H   UNL     1     -37.739  24.999   2.920  1.00  0.00     0.211 HD
ENDBRANCH   2   6
ENDBRANCH   1   2
BRANCH   1   8
ATOM      8  C   UNL     1     -38.684  22.832   6.338  1.00  0.00     0.214 C 
BRANCH   8   9
ATOM      9  C   UNL     1     -37.610  23.383   7.255  1.00  0.00     0.189 C 
ATOM     10  O   UNL     1     -37.611  24.576   7.519  1.00  0.00    -0.294 OA
BRANCH   9  11
ATOM     11  C   UNL     1     -36.558  22.503   7.874  1.00  0.00     0.234 C 
BRANCH  11  12
ATOM     12  O   UNL     1     -37.041  21.193   7.995  1.00  0.00    -0.388 OA
ATOM     13  H   UNL     1     -36.582  20.787   8.777  1.00  0.00     0.211 HD
ENDBRANCH  11  12
ENDBRANCH   9  11
ENDBRANCH   8   9
BRANCH   8  14
ATOM     14  O   UNL     1     -39.125  21.574   6.785  1.00  0.00    -0.382 OA
ATOM     15  H   UNL     1     -39.382  21.057   5.977  1.00  0.00     0.211 HD
ENDBRANCH   8  14
ENDBRANCH   1   8
BRANCH   1  16
ATOM     16  O   UNL     1     -38.377  21.427   4.401  1.00  0.00    -0.387 OA
ATOM     17  H   UNL     1     -37.587  20.878   4.646  1.00  0.00     0.211 HD
ENDBRANCH   1  16
TORSDOF 10
ENDMDL
MODEL 4
REMARK VINA RESULT:    -0.790     21.258     22.675
REMARK INTER + INTRA:          -1.226
REMARK INTER:                  -1.005
REMARK INTRA:                  -0.221
REMARK UNBOUND:                -0.089
REMARK SMILES O=C(CO)[C@H](O)[C@@H](O)[C@H](O)CO
REMARK SMILES IDX 7 1 9 2 11 3 12 4 10 6 5 8 2 9 1 10 3 11 4 12 6 14 8 16
REMARK H PARENT 12 5 10 7 4 13 6 15 8 17
REMARK Flexibility Score: inf
ROOT
ATOM      1  C   UNL     1     -18.954  24.158  -5.625  1.00  0.00     0.181 C 
ENDROOT
BRANCH   1   2
ATOM      2  C   UNL     1     -19.696  23.566  -6.850  1.00  0.00     0.171 C 
BRANCH   2   3
ATOM      3  C   UNL     1     -18.875  22.465  -7.544  1.00  0.00     0.190 C 
BRANCH   3   4
ATOM      4  O   UNL     1     -18.876  21.289  -6.777  1.00  0.00    -0.394 OA
ATOM      5  H   UNL     1     -18.965  20.530  -7.411  1.00  0.00     0.210 HD
ENDBRANCH   3   4
ENDBRANCH   2   3
BRANCH   2   6
ATOM      6  O   UNL     1     -20.932  23.034  -6.446  1.00  0.00    -0.388 OA
ATOM      7  H   UNL     1     -20.736  22.324  -5.779  1.00  0.00     0.211 HD
ENDBRANCH   2   6
ENDBRANCH   1   2
BRANCH   1   8
ATOM      8  C   UNL     1     -19.648  25.435  -5.106  1.00  0.00     0.214 C 
BRANCH   8   9
ATOM      9  C   UNL     1     -19.882  26.408  -6.246  1.00  0.00     0.189 C 
ATOM     10  O   UNL     1     -19.011  26.555  -7.089  1.00  0.00    -0.294 OA
BRANCH   9  11
ATOM     11  C   UNL     1     -21.167  27.177  -6.388  1.00  0.00     0.234 C 
BRANCH  11  12
ATOM     12  O   UNL     1     -21.969  26.983  -5.255  1.00  0.00    -0.388 OA
ATOM     13  H   UNL     1     -21.506  26.315  -4.684  1.00  0.00     0.211 HD
ENDBRANCH  11  12
ENDBRANCH   9  11
ENDBRANCH   8   9
BRANCH   8  14
ATOM     14  O   UNL     1     -18.875  26.030  -4.094  1.00  0.00    -0.382 OA
ATOM     15  H   UNL     1     -19.357  26.852  -3.813  1.00  0.00     0.211 HD
ENDBRANCH   8  14
ENDBRANCH   1   8
BRANCH   1  16
ATOM     16  O   UNL     1     -18.888  23.205  -4.592  1.00  0.00    -0.387 OA
ATOM     17  H   UNL     1     -18.100  23.430  -4.032  1.00  0.00     0.211 HD
ENDBRANCH   1  16
TORSDOF 10
ENDMDL
MODEL 5
REMARK VINA RESULT:    -0.537     21.271     22.611
REMARK INTER + INTRA:          -0.862
REMARK INTER:                  -1.155
REMARK INTRA:                   0.292
REMARK UNBOUND:                -0.089
REMARK SMILES O=C(CO)[C@H](O)[C@@H](O)[C@H](O)CO
REMARK SMILES IDX 7 1 9 2 11 3 12 4 10 6 5 8 2 9 1 10 3 11 4 12 6 14 8 16
REMARK H PARENT 12 5 10 7 4 13 6 15 8 17
REMARK Flexibility Score: inf
ROOT
ATOM      1  C   UNL     1     -19.402  24.217  -6.974  1.00  0.00     0.181 C 
ENDROOT
BRANCH   1   2
ATOM      2  C   UNL     1     -19.016  23.073  -6.003  1.00  0.00     0.171 C 
BRANCH   2   3
ATOM      3  C   UNL     1     -20.022  22.935  -4.847  1.00  0.00     0.190 C 
BRANCH   3   4
ATOM      4  O   UNL     1     -19.675  21.859  -4.015  1.00  0.00    -0.394 OA
ATOM      5  H   UNL     1     -18.689  21.891  -3.895  1.00  0.00     0.210 HD
ENDBRANCH   3   4
ENDBRANCH   2   3
BRANCH   2   6
ATOM      6  O   UNL     1     -18.950  21.857  -6.704  1.00  0.00    -0.388 OA
ATOM      7  H   UNL     1     -19.867  21.474  -6.705  1.00  0.00     0.211 HD
ENDBRANCH   2   6
ENDBRANCH   1   2
BRANCH   1   8
ATOM      8  C   UNL     1     -18.891  25.583  -6.470  1.00  0.00     0.214 C 
BRANCH   8   9
ATOM      9  C   UNL     1     -19.682  26.026  -5.255  1.00  0.00     0.189 C 
ATOM     10  O   UNL     1     -19.081  26.353  -4.243  1.00  0.00    -0.294 OA
BRANCH   9  11
ATOM     11  C   UNL     1     -21.185  26.104  -5.264  1.00  0.00     0.234 C 
BRANCH  11  12
ATOM     12  O   UNL     1     -21.605  27.313  -4.694  1.00  0.00    -0.388 OA
ATOM     13  H   UNL     1     -22.591  27.256  -4.588  1.00  0.00     0.211 HD
ENDBRANCH  11  12
ENDBRANCH   9  11
ENDBRANCH   8   9
BRANCH   8  14
ATOM     14  O   UNL     1     -18.975  26.540  -7.496  1.00  0.00    -0.382 OA
ATOM     15  H   UNL     1     -19.389  27.351  -7.098  1.00  0.00     0.211 HD
ENDBRANCH   8  14
ENDBRANCH   1   8
BRANCH   1  16
ATOM     16  O   UNL     1     -18.879  23.962  -8.256  1.00  0.00    -0.387 OA
ATOM     17  H   UNL     1     -19.277  24.628  -8.875  1.00  0.00     0.211 HD
ENDBRANCH   1  16
TORSDOF 10
ENDMDL
