MODEL 1
REMARK VINA RESULT:    -4.418      0.000      0.000
REMARK INTER + INTRA:          -6.253
REMARK INTER:                  -5.580
REMARK INTRA:                  -0.673
REMARK UNBOUND:                -0.673
REMARK SMILES O=C(C=Cc1ccc(O)cc1)c1ccc(O)cc1O
REMARK SMILES IDX 4 1 3 2 5 3 6 4 7 5 8 6 11 7 10 8 9 9 2 11 1 12 12 13 18 14
REMARK SMILES IDX 13 15 17 16 14 17 15 18 19 19 16 21
REMARK H PARENT 9 10 19 20 16 22
REMARK Flexibility Score: inf
ROOT
ATOM      1  C   UNL     1      72.115  40.398  21.237  1.00  0.00     0.012 C 
ATOM      2  C   UNL     1      73.130  41.250  21.055  1.00  0.00     0.053 C 
ENDROOT
BRANCH   1   3
ATOM      3  C   UNL     1      70.737  40.740  20.831  1.00  0.00    -0.025 A 
ATOM      4  C   UNL     1      69.660  40.291  21.607  1.00  0.00     0.012 A 
ATOM      5  C   UNL     1      68.347  40.619  21.253  1.00  0.00     0.047 A 
ATOM      6  C   UNL     1      68.098  41.358  20.090  1.00  0.00     0.115 A 
ATOM      7  C   UNL     1      70.482  41.487  19.669  1.00  0.00     0.012 A 
ATOM      8  C   UNL     1      69.168  41.789  19.300  1.00  0.00     0.047 A 
BRANCH   6   9
ATOM      9  O   UNL     1      66.786  41.663  19.734  1.00  0.00    -0.508 OA
ATOM     10  H   UNL     1      66.524  42.595  19.424  1.00  0.00     0.293 HD
ENDBRANCH   6   9
ENDBRANCH   1   3
BRANCH   2  11
ATOM     11  C   UNL     1      74.505  40.941  21.491  1.00  0.00     0.189 C 
ATOM     12  O   UNL     1      74.712  40.456  22.637  1.00  0.00    -0.289 OA
BRANCH  11  13
ATOM     13  C   UNL     1      75.644  41.215  20.594  1.00  0.00     0.064 A 
ATOM     14  C   UNL     1      76.855  41.774  21.062  1.00  0.00     0.130 A 
ATOM     15  C   UNL     1      75.502  40.947  19.223  1.00  0.00     0.020 A 
ATOM     16  C   UNL     1      77.875  42.086  20.153  1.00  0.00     0.093 A 
ATOM     17  C   UNL     1      76.527  41.251  18.326  1.00  0.00     0.047 A 
ATOM     18  C   UNL     1      77.714  41.824  18.787  1.00  0.00     0.119 A 
BRANCH  14  19
ATOM     19  O   UNL     1      77.087  42.014  22.415  1.00  0.00    -0.507 OA
ATOM     20  H   UNL     1      77.255  41.277  23.090  1.00  0.00     0.293 HD
ENDBRANCH  14  19
BRANCH  18  21
ATOM     21  O   UNL     1      78.730  42.125  17.880  1.00  0.00    -0.508 OA
ATOM     22  H   UNL     1      78.692  42.950  17.298  1.00  0.00     0.293 HD
ENDBRANCH  18  21
ENDBRANCH  11  13
ENDBRANCH   2  11
TORSDOF 6
ENDMDL
MODEL 2
REMARK VINA RESULT:    -3.875      1.579      2.628
REMARK INTER + INTRA:          -5.568
REMARK INTER:                  -5.072
REMARK INTRA:                  -0.495
REMARK UNBOUND:                -0.673
REMARK SMILES O=C(C=Cc1ccc(O)cc1)c1ccc(O)cc1O
REMARK SMILES IDX 4 1 3 2 5 3 6 4 7 5 8 6 11 7 10 8 9 9 2 11 1 12 12 13 18 14
REMARK SMILES IDX 13 15 17 16 14 17 15 18 19 19 16 21
REMARK H PARENT 9 10 19 20 16 22
REMARK Flexibility Score: inf
ROOT
ATOM      1  C   UNL     1      72.166  41.297  19.641  1.00  0.00     0.012 C 
ATOM      2  C   UNL     1      72.730  40.193  19.139  1.00  0.00     0.053 C 
ENDROOT
BRANCH   1   3
ATOM      3  C   UNL     1      70.701  41.482  19.643  1.00  0.00    -0.025 A 
ATOM      4  C   UNL     1      69.971  41.179  20.801  1.00  0.00     0.012 A 
ATOM      5  C   UNL     1      68.585  41.364  20.834  1.00  0.00     0.047 A 
ATOM      6  C   UNL     1      67.910  41.808  19.691  1.00  0.00     0.115 A 
ATOM      7  C   UNL     1      70.019  41.933  18.502  1.00  0.00     0.012 A 
ATOM      8  C   UNL     1      68.630  42.090  18.526  1.00  0.00     0.047 A 
BRANCH   6   9
ATOM      9  O   UNL     1      66.527  41.971  19.725  1.00  0.00    -0.508 OA
ATOM     10  H   UNL     1      66.102  42.825  20.075  1.00  0.00     0.293 HD
ENDBRANCH   6   9
ENDBRANCH   1   3
BRANCH   2  11
ATOM     11  C   UNL     1      74.193  40.010  19.092  1.00  0.00     0.189 C 
ATOM     12  O   UNL     1      74.717  39.322  18.173  1.00  0.00    -0.289 OA
BRANCH  11  13
ATOM     13  C   UNL     1      75.048  40.617  20.131  1.00  0.00     0.064 A 
ATOM     14  C   UNL     1      76.255  41.284  19.820  1.00  0.00     0.130 A 
ATOM     15  C   UNL     1      74.665  40.492  21.477  1.00  0.00     0.020 A 
ATOM     16  C   UNL     1      77.066  41.774  20.853  1.00  0.00     0.093 A 
ATOM     17  C   UNL     1      75.474  40.993  22.498  1.00  0.00     0.047 A 
ATOM     18  C   UNL     1      76.677  41.631  22.190  1.00  0.00     0.119 A 
BRANCH  14  19
ATOM     19  O   UNL     1      76.669  41.495  18.506  1.00  0.00    -0.507 OA
ATOM     20  H   UNL     1      76.047  41.426  17.709  1.00  0.00     0.293 HD
ENDBRANCH  14  19
BRANCH  18  21
ATOM     21  O   UNL     1      77.477  42.124  23.220  1.00  0.00    -0.508 OA
ATOM     22  H   UNL     1      77.406  43.084  23.532  1.00  0.00     0.293 HD
ENDBRANCH  18  21
ENDBRANCH  11  13
ENDBRANCH   2  11
TORSDOF 6
ENDMDL
MODEL 3
REMARK VINA RESULT:    -3.826      1.587      2.824
REMARK INTER + INTRA:          -5.505
REMARK INTER:                  -5.104
REMARK INTRA:                  -0.402
REMARK UNBOUND:                -0.673
REMARK SMILES O=C(C=Cc1ccc(O)cc1)c1ccc(O)cc1O
REMARK SMILES IDX 4 1 3 2 5 3 6 4 7 5 8 6 11 7 10 8 9 9 2 11 1 12 12 13 18 14
REMARK SMILES IDX 13 15 17 16 14 17 15 18 19 19 16 21
REMARK H PARENT 9 10 19 20 16 22
REMARK Flexibility Score: inf
ROOT
ATOM      1  C   UNL     1      72.164  41.242  19.663  1.00  0.00     0.012 C 
ATOM      2  C   UNL     1      72.747  40.221  19.024  1.00  0.00     0.053 C 
ENDROOT
BRANCH   1   3
ATOM      3  C   UNL     1      70.696  41.401  19.686  1.00  0.00    -0.025 A 
ATOM      4  C   UNL     1      70.036  41.857  18.537  1.00  0.00     0.012 A 
ATOM      5  C   UNL     1      68.644  41.996  18.529  1.00  0.00     0.047 A 
ATOM      6  C   UNL     1      67.905  41.727  19.687  1.00  0.00     0.115 A 
ATOM      7  C   UNL     1      69.949  41.126  20.843  1.00  0.00     0.012 A 
ATOM      8  C   UNL     1      68.562  41.293  20.843  1.00  0.00     0.047 A 
BRANCH   6   9
ATOM      9  O   UNL     1      66.522  41.889  19.677  1.00  0.00    -0.508 OA
ATOM     10  H   UNL     1      65.935  41.391  19.012  1.00  0.00     0.293 HD
ENDBRANCH   6   9
ENDBRANCH   1   3
BRANCH   2  11
ATOM     11  C   UNL     1      74.213  40.070  18.957  1.00  0.00     0.189 C 
ATOM     12  O   UNL     1      74.741  39.424  18.011  1.00  0.00    -0.289 OA
BRANCH  11  13
ATOM     13  C   UNL     1      75.066  40.661  20.007  1.00  0.00     0.064 A 
ATOM     14  C   UNL     1      76.280  41.322  19.710  1.00  0.00     0.130 A 
ATOM     15  C   UNL     1      74.674  40.526  21.349  1.00  0.00     0.020 A 
ATOM     16  C   UNL     1      77.088  41.795  20.752  1.00  0.00     0.093 A 
ATOM     17  C   UNL     1      75.480  41.010  22.380  1.00  0.00     0.047 A 
ATOM     18  C   UNL     1      76.690  41.642  22.086  1.00  0.00     0.119 A 
BRANCH  14  19
ATOM     19  O   UNL     1      76.703  41.542  18.400  1.00  0.00    -0.507 OA
ATOM     20  H   UNL     1      77.401  42.232  18.149  1.00  0.00     0.293 HD
ENDBRANCH  14  19
BRANCH  18  21
ATOM     21  O   UNL     1      77.487  42.120  23.125  1.00  0.00    -0.508 OA
ATOM     22  H   UNL     1      77.092  42.379  24.019  1.00  0.00     0.293 HD
ENDBRANCH  18  21
ENDBRANCH  11  13
ENDBRANCH   2  11
TORSDOF 6
ENDMDL
MODEL 4
REMARK VINA RESULT:    -3.818      1.050      1.265
REMARK INTER + INTRA:          -5.496
REMARK INTER:                  -4.969
REMARK INTRA:                  -0.527
REMARK UNBOUND:                -0.673
REMARK SMILES O=C(C=Cc1ccc(O)cc1)c1ccc(O)cc1O
REMARK SMILES IDX 4 1 3 2 5 3 6 4 7 5 8 6 11 7 10 8 9 9 2 11 1 12 12 13 18 14
REMARK SMILES IDX 13 15 17 16 14 17 15 18 19 19 16 21
REMARK H PARENT 9 10 19 20 16 22
REMARK Flexibility Score: inf
ROOT
ATOM      1  C   UNL     1      73.254  40.301  21.700  1.00  0.00     0.012 C 
ATOM      2  C   UNL     1      74.048  41.317  22.056  1.00  0.00     0.053 C 
ENDROOT
BRANCH   1   3
ATOM      3  C   UNL     1      71.812  40.499  21.453  1.00  0.00    -0.025 A 
ATOM      4  C   UNL     1      70.879  39.797  22.228  1.00  0.00     0.012 A 
ATOM      5  C   UNL     1      69.507  39.983  22.026  1.00  0.00     0.047 A 
ATOM      6  C   UNL     1      69.057  40.837  21.012  1.00  0.00     0.115 A 
ATOM      7  C   UNL     1      71.354  41.360  20.441  1.00  0.00     0.012 A 
ATOM      8  C   UNL     1      69.984  41.522  20.220  1.00  0.00     0.047 A 
BRANCH   6   9
ATOM      9  O   UNL     1      67.690  41.000  20.803  1.00  0.00    -0.508 OA
ATOM     10  H   UNL     1      67.050  40.211  20.836  1.00  0.00     0.293 HD
ENDBRANCH   6   9
ENDBRANCH   1   3
BRANCH   2  11
ATOM     11  C   UNL     1      75.482  41.130  22.346  1.00  0.00     0.189 C 
ATOM     12  O   UNL     1      75.858  40.810  23.507  1.00  0.00    -0.289 OA
BRANCH  11  13
ATOM     13  C   UNL     1      76.484  41.333  21.281  1.00  0.00     0.064 A 
ATOM     14  C   UNL     1      77.874  41.325  21.541  1.00  0.00     0.130 A 
ATOM     15  C   UNL     1      76.036  41.581  19.973  1.00  0.00     0.020 A 
ATOM     16  C   UNL     1      78.777  41.601  20.506  1.00  0.00     0.093 A 
ATOM     17  C   UNL     1      76.944  41.844  18.946  1.00  0.00     0.047 A 
ATOM     18  C   UNL     1      78.315  41.859  19.209  1.00  0.00     0.119 A 
BRANCH  14  19
ATOM     19  O   UNL     1      78.390  41.031  22.801  1.00  0.00    -0.507 OA
ATOM     20  H   UNL     1      79.206  40.447  22.946  1.00  0.00     0.293 HD
ENDBRANCH  14  19
BRANCH  18  21
ATOM     21  O   UNL     1      79.211  42.125  18.175  1.00  0.00    -0.508 OA
ATOM     22  H   UNL     1      80.019  41.539  18.011  1.00  0.00     0.293 HD
ENDBRANCH  18  21
ENDBRANCH  11  13
ENDBRANCH   2  11
TORSDOF 6
ENDMDL
MODEL 5
REMARK VINA RESULT:    -3.780      2.015      3.432
REMARK INTER + INTRA:          -5.448
REMARK INTER:                  -4.960
REMARK INTRA:                  -0.488
REMARK UNBOUND:                -0.673
REMARK SMILES O=C(C=Cc1ccc(O)cc1)c1ccc(O)cc1O
REMARK SMILES IDX 4 1 3 2 5 3 6 4 7 5 8 6 11 7 10 8 9 9 2 11 1 12 12 13 18 14
REMARK SMILES IDX 13 15 17 16 14 17 15 18 19 19 16 21
REMARK H PARENT 9 10 19 20 16 22
REMARK Flexibility Score: inf
ROOT
ATOM      1  C   UNL     1      71.647  41.425  19.776  1.00  0.00     0.012 C 
ATOM      2  C   UNL     1      72.344  40.580  19.008  1.00  0.00     0.053 C 
ENDROOT
BRANCH   1   3
ATOM      3  C   UNL     1      70.191  41.599  19.607  1.00  0.00    -0.025 A 
ATOM      4  C   UNL     1      69.683  41.972  18.355  1.00  0.00     0.012 A 
ATOM      5  C   UNL     1      68.305  42.123  18.167  1.00  0.00     0.047 A 
ATOM      6  C   UNL     1      67.427  41.951  19.243  1.00  0.00     0.115 A 
ATOM      7  C   UNL     1      69.304  41.420  20.682  1.00  0.00     0.012 A 
ATOM      8  C   UNL     1      67.930  41.601  20.499  1.00  0.00     0.047 A 
BRANCH   6   9
ATOM      9  O   UNL     1      66.058  42.124  19.051  1.00  0.00    -0.508 OA
ATOM     10  H   UNL     1      65.378  41.707  19.681  1.00  0.00     0.293 HD
ENDBRANCH   6   9
ENDBRANCH   1   3
BRANCH   2  11
ATOM     11  C   UNL     1      73.806  40.424  19.136  1.00  0.00     0.189 C 
ATOM     12  O   UNL     1      74.511  40.206  18.114  1.00  0.00    -0.289 OA
BRANCH  11  13
ATOM     13  C   UNL     1      74.444  40.507  20.464  1.00  0.00     0.064 A 
ATOM     14  C   UNL     1      74.179  39.569  21.489  1.00  0.00     0.130 A 
ATOM     15  C   UNL     1      75.315  41.577  20.728  1.00  0.00     0.020 A 
ATOM     16  C   UNL     1      74.754  39.741  22.755  1.00  0.00     0.093 A 
ATOM     17  C   UNL     1      75.891  41.734  21.990  1.00  0.00     0.047 A 
ATOM     18  C   UNL     1      75.610  40.820  23.007  1.00  0.00     0.119 A 
BRANCH  14  19
ATOM     19  O   UNL     1      73.371  38.453  21.280  1.00  0.00    -0.507 OA
ATOM     20  H   UNL     1      73.195  38.057  20.365  1.00  0.00     0.293 HD
ENDBRANCH  14  19
BRANCH  18  21
ATOM     21  O   UNL     1      76.191  40.988  24.263  1.00  0.00    -0.508 OA
ATOM     22  H   UNL     1      75.915  40.422  25.054  1.00  0.00     0.293 HD
ENDBRANCH  18  21
ENDBRANCH  11  13
ENDBRANCH   2  11
TORSDOF 6
ENDMDL
MODEL 6
REMARK VINA RESULT:    -3.536      1.057      1.628
REMARK INTER + INTRA:          -5.140
REMARK INTER:                  -5.250
REMARK INTRA:                   0.111
REMARK UNBOUND:                -0.673
REMARK SMILES O=C(C=Cc1ccc(O)cc1)c1ccc(O)cc1O
REMARK SMILES IDX 4 1 3 2 5 3 6 4 7 5 8 6 11 7 10 8 9 9 2 11 1 12 12 13 18 14
REMARK SMILES IDX 13 15 17 16 14 17 15 18 19 19 16 21
REMARK H PARENT 9 10 19 20 16 22
REMARK Flexibility Score: inf
ROOT
ATOM      1  C   UNL     1      72.234  40.792  21.415  1.00  0.00     0.012 C 
ATOM      2  C   UNL     1      73.284  41.260  20.732  1.00  0.00     0.053 C 
ENDROOT
BRANCH   1   3
ATOM      3  C   UNL     1      70.850  41.016  20.952  1.00  0.00    -0.025 A 
ATOM      4  C   UNL     1      69.783  40.485  21.691  1.00  0.00     0.012 A 
ATOM      5  C   UNL     1      68.462  40.701  21.283  1.00  0.00     0.047 A 
ATOM      6  C   UNL     1      68.199  41.408  20.104  1.00  0.00     0.115 A 
ATOM      7  C   UNL     1      70.579  41.730  19.774  1.00  0.00     0.012 A 
ATOM      8  C   UNL     1      69.261  41.920  19.351  1.00  0.00     0.047 A 
BRANCH   6   9
ATOM      9  O   UNL     1      66.883  41.600  19.694  1.00  0.00    -0.508 OA
ATOM     10  H   UNL     1      66.647  41.738  18.714  1.00  0.00     0.293 HD
ENDBRANCH   6   9
ENDBRANCH   1   3
BRANCH   2  11
ATOM     11  C   UNL     1      74.671  41.081  21.201  1.00  0.00     0.189 C 
ATOM     12  O   UNL     1      74.896  40.677  22.374  1.00  0.00    -0.289 OA
BRANCH  11  13
ATOM     13  C   UNL     1      75.801  41.390  20.303  1.00  0.00     0.064 A 
ATOM     14  C   UNL     1      75.716  41.231  18.901  1.00  0.00     0.130 A 
ATOM     15  C   UNL     1      77.013  41.820  20.869  1.00  0.00     0.020 A 
ATOM     16  C   UNL     1      76.845  41.466  18.104  1.00  0.00     0.093 A 
ATOM     17  C   UNL     1      78.129  42.062  20.066  1.00  0.00     0.047 A 
ATOM     18  C   UNL     1      78.050  41.882  18.684  1.00  0.00     0.119 A 
BRANCH  14  19
ATOM     19  O   UNL     1      74.531  40.862  18.267  1.00  0.00    -0.507 OA
ATOM     20  H   UNL     1      73.823  41.528  17.981  1.00  0.00     0.293 HD
ENDBRANCH  14  19
BRANCH  18  21
ATOM     21  O   UNL     1      79.172  42.125  17.893  1.00  0.00    -0.508 OA
ATOM     22  H   UNL     1      79.413  41.524  17.117  1.00  0.00     0.293 HD
ENDBRANCH  18  21
ENDBRANCH  11  13
ENDBRANCH   2  11
TORSDOF 6
ENDMDL
MODEL 7
REMARK VINA RESULT:    -2.749      1.732      3.067
REMARK INTER + INTRA:          -4.145
REMARK INTER:                  -4.330
REMARK INTRA:                   0.185
REMARK UNBOUND:                -0.673
REMARK SMILES O=C(C=Cc1ccc(O)cc1)c1ccc(O)cc1O
REMARK SMILES IDX 4 1 3 2 5 3 6 4 7 5 8 6 11 7 10 8 9 9 2 11 1 12 12 13 18 14
REMARK SMILES IDX 13 15 17 16 14 17 15 18 19 19 16 21
REMARK H PARENT 9 10 19 20 16 22
REMARK Flexibility Score: inf
ROOT
ATOM      1  C   UNL     1      72.204  41.255  19.521  1.00  0.00     0.012 C 
ATOM      2  C   UNL     1      73.090  42.125  20.019  1.00  0.00     0.053 C 
ENDROOT
BRANCH   1   3
ATOM      3  C   UNL     1      70.750  41.483  19.633  1.00  0.00    -0.025 A 
ATOM      4  C   UNL     1      70.111  41.257  20.860  1.00  0.00     0.012 A 
ATOM      5  C   UNL     1      68.738  41.485  20.996  1.00  0.00     0.047 A 
ATOM      6  C   UNL     1      67.982  41.895  19.892  1.00  0.00     0.115 A 
ATOM      7  C   UNL     1      69.988  41.900  18.530  1.00  0.00     0.012 A 
ATOM      8  C   UNL     1      68.611  42.100  18.659  1.00  0.00     0.047 A 
BRANCH   6   9
ATOM      9  O   UNL     1      66.611  42.099  20.030  1.00  0.00    -0.508 OA
ATOM     10  H   UNL     1      66.155  42.915  19.632  1.00  0.00     0.293 HD
ENDBRANCH   6   9
ENDBRANCH   1   3
BRANCH   2  11
ATOM     11  C   UNL     1      74.545  41.893  19.951  1.00  0.00     0.189 C 
ATOM     12  O   UNL     1      75.166  42.074  18.868  1.00  0.00    -0.289 OA
BRANCH  11  13
ATOM     13  C   UNL     1      75.276  41.431  21.147  1.00  0.00     0.064 A 
ATOM     14  C   UNL     1      74.748  40.457  22.025  1.00  0.00     0.130 A 
ATOM     15  C   UNL     1      76.522  42.010  21.441  1.00  0.00     0.020 A 
ATOM     16  C   UNL     1      75.451  40.113  23.188  1.00  0.00     0.093 A 
ATOM     17  C   UNL     1      77.220  41.653  22.596  1.00  0.00     0.047 A 
ATOM     18  C   UNL     1      76.686  40.708  23.473  1.00  0.00     0.119 A 
BRANCH  14  19
ATOM     19  O   UNL     1      73.546  39.801  21.767  1.00  0.00    -0.507 OA
ATOM     20  H   UNL     1      72.852  39.609  22.480  1.00  0.00     0.293 HD
ENDBRANCH  14  19
BRANCH  18  21
ATOM     21  O   UNL     1      77.392  40.361  24.625  1.00  0.00    -0.508 OA
ATOM     22  H   UNL     1      77.405  40.961  25.438  1.00  0.00     0.293 HD
ENDBRANCH  18  21
ENDBRANCH  11  13
ENDBRANCH   2  11
TORSDOF 6
ENDMDL
MODEL 8
REMARK VINA RESULT:    -2.515      2.313      7.392
REMARK INTER + INTRA:          -3.850
REMARK INTER:                  -4.081
REMARK INTRA:                   0.231
REMARK UNBOUND:                -0.673
REMARK SMILES O=C(C=Cc1ccc(O)cc1)c1ccc(O)cc1O
REMARK SMILES IDX 4 1 3 2 5 3 6 4 7 5 8 6 11 7 10 8 9 9 2 11 1 12 12 13 18 14
REMARK SMILES IDX 13 15 17 16 14 17 15 18 19 19 16 21
REMARK H PARENT 9 10 19 20 16 22
REMARK Flexibility Score: inf
ROOT
ATOM      1  C   UNL     1      74.151  41.952  20.373  1.00  0.00     0.012 C 
ATOM      2  C   UNL     1      73.040  41.279  20.057  1.00  0.00     0.053 C 
ENDROOT
BRANCH   1   3
ATOM      3  C   UNL     1      75.037  41.510  21.468  1.00  0.00    -0.025 A 
ATOM      4  C   UNL     1      74.588  40.527  22.362  1.00  0.00     0.012 A 
ATOM      5  C   UNL     1      75.417  40.078  23.395  1.00  0.00     0.047 A 
ATOM      6  C   UNL     1      76.685  40.643  23.573  1.00  0.00     0.115 A 
ATOM      7  C   UNL     1      76.313  42.068  21.648  1.00  0.00     0.012 A 
ATOM      8  C   UNL     1      77.129  41.640  22.698  1.00  0.00     0.047 A 
BRANCH   6   9
ATOM      9  O   UNL     1      77.496  40.205  24.617  1.00  0.00    -0.508 OA
ATOM     10  H   UNL     1      78.348  39.680  24.441  1.00  0.00     0.293 HD
ENDBRANCH   6   9
ENDBRANCH   1   3
BRANCH   2  11
ATOM     11  C   UNL     1      72.122  41.730  18.993  1.00  0.00     0.189 C 
ATOM     12  O   UNL     1      72.579  42.094  17.875  1.00  0.00    -0.289 OA
BRANCH  11  13
ATOM     13  C   UNL     1      70.668  41.772  19.240  1.00  0.00     0.064 A 
ATOM     14  C   UNL     1      70.114  41.566  20.525  1.00  0.00     0.130 A 
ATOM     15  C   UNL     1      69.805  41.986  18.152  1.00  0.00     0.020 A 
ATOM     16  C   UNL     1      68.723  41.540  20.687  1.00  0.00     0.093 A 
ATOM     17  C   UNL     1      68.420  41.970  18.326  1.00  0.00     0.047 A 
ATOM     18  C   UNL     1      67.876  41.743  19.591  1.00  0.00     0.119 A 
BRANCH  14  19
ATOM     19  O   UNL     1      70.910  41.404  21.657  1.00  0.00    -0.507 OA
ATOM     20  H   UNL     1      71.252  40.504  21.973  1.00  0.00     0.293 HD
ENDBRANCH  14  19
BRANCH  18  21
ATOM     21  O   UNL     1      66.491  41.727  19.750  1.00  0.00    -0.508 OA
ATOM     22  H   UNL     1      65.948  40.890  19.586  1.00  0.00     0.293 HD
ENDBRANCH  18  21
ENDBRANCH  11  13
ENDBRANCH   2  11
TORSDOF 6
ENDMDL
MODEL 9
REMARK VINA RESULT:    -2.491      2.008      7.564
REMARK INTER + INTRA:          -3.820
REMARK INTER:                  -4.041
REMARK INTRA:                   0.221
REMARK UNBOUND:                -0.673
REMARK SMILES O=C(C=Cc1ccc(O)cc1)c1ccc(O)cc1O
REMARK SMILES IDX 4 1 3 2 5 3 6 4 7 5 8 6 11 7 10 8 9 9 2 11 1 12 12 13 18 14
REMARK SMILES IDX 13 15 17 16 14 17 15 18 19 19 16 21
REMARK H PARENT 9 10 19 20 16 22
REMARK Flexibility Score: inf
ROOT
ATOM      1  C   UNL     1      74.751  42.125  20.555  1.00  0.00     0.012 C 
ATOM      2  C   UNL     1      74.043  41.232  19.854  1.00  0.00     0.053 C 
ENDROOT
BRANCH   1   3
ATOM      3  C   UNL     1      75.948  41.729  21.324  1.00  0.00    -0.025 A 
ATOM      4  C   UNL     1      77.194  41.689  20.684  1.00  0.00     0.012 A 
ATOM      5  C   UNL     1      78.345  41.336  21.397  1.00  0.00     0.047 A 
ATOM      6  C   UNL     1      78.251  40.972  22.745  1.00  0.00     0.115 A 
ATOM      7  C   UNL     1      75.860  41.369  22.679  1.00  0.00     0.012 A 
ATOM      8  C   UNL     1      77.006  40.988  23.382  1.00  0.00     0.047 A 
BRANCH   6   9
ATOM      9  O   UNL     1      79.398  40.601  23.442  1.00  0.00    -0.508 OA
ATOM     10  H   UNL     1      79.649  41.043  24.322  1.00  0.00     0.293 HD
ENDBRANCH   6   9
ENDBRANCH   1   3
BRANCH   2  11
ATOM     11  C   UNL     1      72.822  41.603  19.114  1.00  0.00     0.189 C 
ATOM     12  O   UNL     1      72.908  42.108  17.962  1.00  0.00    -0.289 OA
BRANCH  11  13
ATOM     13  C   UNL     1      71.495  41.400  19.728  1.00  0.00     0.064 A 
ATOM     14  C   UNL     1      71.295  40.529  20.823  1.00  0.00     0.130 A 
ATOM     15  C   UNL     1      70.388  42.067  19.176  1.00  0.00     0.020 A 
ATOM     16  C   UNL     1      70.001  40.315  21.315  1.00  0.00     0.093 A 
ATOM     17  C   UNL     1      69.104  41.856  19.681  1.00  0.00     0.047 A 
ATOM     18  C   UNL     1      68.906  40.977  20.748  1.00  0.00     0.119 A 
BRANCH  14  19
ATOM     19  O   UNL     1      72.353  39.878  21.455  1.00  0.00    -0.507 OA
ATOM     20  H   UNL     1      72.901  40.297  22.197  1.00  0.00     0.293 HD
ENDBRANCH  14  19
BRANCH  18  21
ATOM     21  O   UNL     1      67.618  40.774  21.241  1.00  0.00    -0.508 OA
ATOM     22  H   UNL     1      67.305  41.207  22.099  1.00  0.00     0.293 HD
ENDBRANCH  18  21
ENDBRANCH  11  13
ENDBRANCH   2  11
TORSDOF 6
ENDMDL
