MODEL 1
REMARK VINA RESULT:    -4.393      0.000      0.000
REMARK INTER + INTRA:          -5.037
REMARK INTER:                  -4.906
REMARK INTRA:                  -0.131
REMARK UNBOUND:                -0.131
REMARK SMILES O=C([O-])C=Cc1ccccc1
REMARK SMILES IDX 4 1 5 2 2 3 1 4 3 5 6 6 7 7 11 8 8 9 10 10 9 11
REMARK H PARENT
REMARK Flexibility Score: inf
ROOT
ATOM      1  C   UNL     1      18.616 -39.869  27.738  1.00  0.00     0.025 C 
ATOM      2  C   UNL     1      18.392 -41.123  28.159  1.00  0.00     0.010 C 
ENDROOT
BRANCH   1   3
ATOM      3  C   UNL     1      18.836 -38.755  28.675  1.00  0.00     0.064 C 
ATOM      4  O   UNL     1      18.019 -38.509  29.603  1.00  0.00    -0.545 OA
ATOM      5  O   UNL     1      19.966 -37.958  28.534  1.00  0.00    -0.545 OA
ENDBRANCH   1   3
BRANCH   2   6
ATOM      6  C   UNL     1      18.162 -42.292  27.267  1.00  0.00    -0.026 A 
ATOM      7  C   UNL     1      18.658 -42.369  25.947  1.00  0.00     0.008 A 
ATOM      8  C   UNL     1      17.413 -43.372  27.769  1.00  0.00     0.008 A 
ATOM      9  C   UNL     1      18.406 -43.499  25.161  1.00  0.00     0.001 A 
ATOM     10  C   UNL     1      17.164 -44.497  26.977  1.00  0.00     0.001 A 
ATOM     11  C   UNL     1      17.659 -44.561  25.675  1.00  0.00     0.000 A 
ENDBRANCH   2   6
TORSDOF 2
ENDMDL
MODEL 2
REMARK VINA RESULT:    -4.285      3.967      5.092
REMARK INTER + INTRA:          -4.917
REMARK INTER:                  -4.774
REMARK INTRA:                  -0.143
REMARK UNBOUND:                -0.131
REMARK SMILES O=C([O-])C=Cc1ccccc1
REMARK SMILES IDX 4 1 5 2 2 3 1 4 3 5 6 6 7 7 11 8 8 9 10 10 9 11
REMARK H PARENT
REMARK Flexibility Score: inf
ROOT
ATOM      1  C   UNL     1      17.173 -44.541  30.769  1.00  0.00     0.025 C 
ATOM      2  C   UNL     1      16.765 -45.041  29.593  1.00  0.00     0.010 C 
ENDROOT
BRANCH   1   3
ATOM      3  C   UNL     1      16.730 -45.104  32.056  1.00  0.00     0.064 C 
ATOM      4  O   UNL     1      17.551 -45.340  32.983  1.00  0.00    -0.545 OA
ATOM      5  O   UNL     1      15.383 -45.381  32.253  1.00  0.00    -0.545 OA
ENDBRANCH   1   3
BRANCH   2   6
ATOM      6  C   UNL     1      17.174 -44.520  28.260  1.00  0.00    -0.026 A 
ATOM      7  C   UNL     1      17.159 -45.302  27.084  1.00  0.00     0.008 A 
ATOM      8  C   UNL     1      17.596 -43.181  28.171  1.00  0.00     0.008 A 
ATOM      9  C   UNL     1      17.556 -44.750  25.861  1.00  0.00     0.001 A 
ATOM     10  C   UNL     1      17.991 -42.636  26.947  1.00  0.00     0.001 A 
ATOM     11  C   UNL     1      17.972 -43.419  25.792  1.00  0.00     0.000 A 
ENDBRANCH   2   6
TORSDOF 2
ENDMDL
MODEL 3
REMARK VINA RESULT:    -4.273      3.036      4.416
REMARK INTER + INTRA:          -4.903
REMARK INTER:                  -4.774
REMARK INTRA:                  -0.129
REMARK UNBOUND:                -0.131
REMARK SMILES O=C([O-])C=Cc1ccccc1
REMARK SMILES IDX 4 1 5 2 2 3 1 4 3 5 6 6 7 7 11 8 8 9 10 10 9 11
REMARK H PARENT
REMARK Flexibility Score: inf
ROOT
ATOM      1  C   UNL     1      17.515 -43.323  28.012  1.00  0.00     0.025 C 
ATOM      2  C   UNL     1      18.329 -42.273  27.824  1.00  0.00     0.010 C 
ENDROOT
BRANCH   1   3
ATOM      3  C   UNL     1      17.542 -44.123  29.249  1.00  0.00     0.064 C 
ATOM      4  O   UNL     1      17.589 -43.574  30.382  1.00  0.00    -0.545 OA
ATOM      5  O   UNL     1      17.515 -45.510  29.164  1.00  0.00    -0.545 OA
ENDBRANCH   1   3
BRANCH   2   6
ATOM      6  C   UNL     1      18.353 -41.424  26.602  1.00  0.00    -0.026 A 
ATOM      7  C   UNL     1      18.347 -41.951  25.292  1.00  0.00     0.008 A 
ATOM      8  C   UNL     1      18.384 -40.026  26.765  1.00  0.00     0.008 A 
ATOM      9  C   UNL     1      18.370 -41.096  24.184  1.00  0.00     0.001 A 
ATOM     10  C   UNL     1      18.407 -39.178  25.654  1.00  0.00     0.001 A 
ATOM     11  C   UNL     1      18.401 -39.711  24.365  1.00  0.00     0.000 A 
ENDBRANCH   2   6
TORSDOF 2
ENDMDL
MODEL 4
REMARK VINA RESULT:    -4.263      3.979      5.171
REMARK INTER + INTRA:          -4.892
REMARK INTER:                  -4.749
REMARK INTRA:                  -0.143
REMARK UNBOUND:                -0.131
REMARK SMILES O=C([O-])C=Cc1ccccc1
REMARK SMILES IDX 4 1 5 2 2 3 1 4 3 5 6 6 7 7 11 8 8 9 10 10 9 11
REMARK H PARENT
REMARK Flexibility Score: inf
ROOT
ATOM      1  C   UNL     1      15.152 -44.813  28.736  1.00  0.00     0.025 C 
ATOM      2  C   UNL     1      16.216 -43.998  28.786  1.00  0.00     0.010 C 
ENDROOT
BRANCH   1   3
ATOM      3  C   UNL     1      14.358 -45.140  29.933  1.00  0.00     0.064 C 
ATOM      4  O   UNL     1      14.913 -45.445  31.023  1.00  0.00    -0.545 OA
ATOM      5  O   UNL     1      12.970 -45.114  29.860  1.00  0.00    -0.545 OA
ENDBRANCH   1   3
BRANCH   2   6
ATOM      6  C   UNL     1      17.059 -43.627  27.617  1.00  0.00    -0.026 A 
ATOM      7  C   UNL     1      17.784 -42.418  27.536  1.00  0.00     0.008 A 
ATOM      8  C   UNL     1      17.133 -44.530  26.540  1.00  0.00     0.008 A 
ATOM      9  C   UNL     1      18.558 -42.131  26.406  1.00  0.00     0.001 A 
ATOM     10  C   UNL     1      17.909 -44.237  25.415  1.00  0.00     0.001 A 
ATOM     11  C   UNL     1      18.620 -43.039  25.347  1.00  0.00     0.000 A 
ENDBRANCH   2   6
TORSDOF 2
ENDMDL
MODEL 5
REMARK VINA RESULT:    -4.245      3.398      4.911
REMARK INTER + INTRA:          -4.872
REMARK INTER:                  -4.729
REMARK INTRA:                  -0.143
REMARK UNBOUND:                -0.131
REMARK SMILES O=C([O-])C=Cc1ccccc1
REMARK SMILES IDX 4 1 5 2 2 3 1 4 3 5 6 6 7 7 11 8 8 9 10 10 9 11
REMARK H PARENT
REMARK Flexibility Score: inf
ROOT
ATOM      1  C   UNL     1      17.093 -43.969  27.455  1.00  0.00     0.025 C 
ATOM      2  C   UNL     1      17.791 -42.854  27.717  1.00  0.00     0.010 C 
ENDROOT
BRANCH   1   3
ATOM      3  C   UNL     1      16.867 -45.010  28.472  1.00  0.00     0.064 C 
ATOM      4  O   UNL     1      17.824 -45.496  29.133  1.00  0.00    -0.545 OA
ATOM      5  O   UNL     1      15.576 -45.467  28.707  1.00  0.00    -0.545 OA
ENDBRANCH   1   3
BRANCH   2   6
ATOM      6  C   UNL     1      18.054 -41.766  26.736  1.00  0.00    -0.026 A 
ATOM      7  C   UNL     1      18.286 -40.424  27.111  1.00  0.00     0.008 A 
ATOM      8  C   UNL     1      18.073 -42.095  25.368  1.00  0.00     0.008 A 
ATOM      9  C   UNL     1      18.528 -39.448  26.138  1.00  0.00     0.001 A 
ATOM     10  C   UNL     1      18.315 -41.115  24.401  1.00  0.00     0.001 A 
ATOM     11  C   UNL     1      18.542 -39.793  24.785  1.00  0.00     0.000 A 
ENDBRANCH   2   6
TORSDOF 2
ENDMDL
MODEL 6
REMARK VINA RESULT:    -4.222      4.380      5.944
REMARK INTER + INTRA:          -4.847
REMARK INTER:                  -4.713
REMARK INTRA:                  -0.134
REMARK UNBOUND:                -0.131
REMARK SMILES O=C([O-])C=Cc1ccccc1
REMARK SMILES IDX 4 1 5 2 2 3 1 4 3 5 6 6 7 7 11 8 8 9 10 10 9 11
REMARK H PARENT
REMARK Flexibility Score: inf
ROOT
ATOM      1  C   UNL     1      17.043 -44.095  27.533  1.00  0.00     0.025 C 
ATOM      2  C   UNL     1      16.437 -45.053  28.250  1.00  0.00     0.010 C 
ENDROOT
BRANCH   1   3
ATOM      3  C   UNL     1      17.055 -44.108  26.060  1.00  0.00     0.064 C 
ATOM      4  O   UNL     1      17.930 -44.749  25.418  1.00  0.00    -0.545 OA
ATOM      5  O   UNL     1      16.085 -43.398  25.363  1.00  0.00    -0.545 OA
ENDBRANCH   1   3
BRANCH   2   6
ATOM      6  C   UNL     1      16.388 -45.100  29.737  1.00  0.00    -0.026 A 
ATOM      7  C   UNL     1      15.185 -45.181  30.471  1.00  0.00     0.008 A 
ATOM      8  C   UNL     1      17.605 -45.061  30.442  1.00  0.00     0.008 A 
ATOM      9  C   UNL     1      15.209 -45.221  31.869  1.00  0.00     0.001 A 
ATOM     10  C   UNL     1      17.623 -45.102  31.839  1.00  0.00     0.001 A 
ATOM     11  C   UNL     1      16.426 -45.181  32.553  1.00  0.00     0.000 A 
ENDBRANCH   2   6
TORSDOF 2
ENDMDL
MODEL 7
REMARK VINA RESULT:    -4.181      2.599      2.979
REMARK INTER + INTRA:          -4.800
REMARK INTER:                  -4.668
REMARK INTRA:                  -0.132
REMARK UNBOUND:                -0.131
REMARK SMILES O=C([O-])C=Cc1ccccc1
REMARK SMILES IDX 4 1 5 2 2 3 1 4 3 5 6 6 7 7 11 8 8 9 10 10 9 11
REMARK H PARENT
REMARK Flexibility Score: inf
ROOT
ATOM      1  C   UNL     1      17.373 -40.343  25.361  1.00  0.00     0.025 C 
ATOM      2  C   UNL     1      18.247 -41.325  25.628  1.00  0.00     0.010 C 
ENDROOT
BRANCH   1   3
ATOM      3  C   UNL     1      17.791 -39.059  24.774  1.00  0.00     0.064 C 
ATOM      4  O   UNL     1      18.968 -38.882  24.359  1.00  0.00    -0.545 OA
ATOM      5  O   UNL     1      16.872 -38.021  24.677  1.00  0.00    -0.545 OA
ENDBRANCH   1   3
BRANCH   2   6
ATOM      6  C   UNL     1      17.892 -42.643  26.220  1.00  0.00    -0.026 A 
ATOM      7  C   UNL     1      17.879 -43.846  25.481  1.00  0.00     0.008 A 
ATOM      8  C   UNL     1      17.551 -42.688  27.585  1.00  0.00     0.008 A 
ATOM      9  C   UNL     1      17.534 -45.054  26.099  1.00  0.00     0.001 A 
ATOM     10  C   UNL     1      17.208 -43.897  28.196  1.00  0.00     0.001 A 
ATOM     11  C   UNL     1      17.199 -45.079  27.454  1.00  0.00     0.000 A 
ENDBRANCH   2   6
TORSDOF 2
ENDMDL
MODEL 8
REMARK VINA RESULT:    -4.129      6.085      7.202
REMARK INTER + INTRA:          -4.743
REMARK INTER:                  -4.615
REMARK INTRA:                  -0.128
REMARK UNBOUND:                -0.131
REMARK SMILES O=C([O-])C=Cc1ccccc1
REMARK SMILES IDX 4 1 5 2 2 3 1 4 3 5 6 6 7 7 11 8 8 9 10 10 9 11
REMARK H PARENT
REMARK Flexibility Score: inf
ROOT
ATOM      1  C   UNL     1      19.175 -46.114  33.364  1.00  0.00     0.025 C 
ATOM      2  C   UNL     1      18.747 -45.121  32.570  1.00  0.00     0.010 C 
ENDROOT
BRANCH   1   3
ATOM      3  C   UNL     1      20.465 -46.049  34.074  1.00  0.00     0.064 C 
ATOM      4  O   UNL     1      21.209 -47.062  34.171  1.00  0.00    -0.545 OA
ATOM      5  O   UNL     1      20.868 -44.850  34.648  1.00  0.00    -0.545 OA
ENDBRANCH   1   3
BRANCH   2   6
ATOM      6  C   UNL     1      17.458 -45.123  31.826  1.00  0.00    -0.026 A 
ATOM      7  C   UNL     1      16.196 -45.146  32.461  1.00  0.00     0.008 A 
ATOM      8  C   UNL     1      17.503 -45.102  30.420  1.00  0.00     0.008 A 
ATOM      9  C   UNL     1      15.021 -45.146  31.701  1.00  0.00     0.001 A 
ATOM     10  C   UNL     1      16.326 -45.103  29.667  1.00  0.00     0.001 A 
ATOM     11  C   UNL     1      15.086 -45.126  30.306  1.00  0.00     0.000 A 
ENDBRANCH   2   6
TORSDOF 2
ENDMDL
MODEL 9
REMARK VINA RESULT:    -4.105      6.473      7.253
REMARK INTER + INTRA:          -4.716
REMARK INTER:                  -4.588
REMARK INTRA:                  -0.128
REMARK UNBOUND:                -0.131
REMARK SMILES O=C([O-])C=Cc1ccccc1
REMARK SMILES IDX 4 1 5 2 2 3 1 4 3 5 6 6 7 7 11 8 8 9 10 10 9 11
REMARK H PARENT
REMARK Flexibility Score: inf
ROOT
ATOM      1  C   UNL     1      17.820 -44.841  32.436  1.00  0.00     0.025 C 
ATOM      2  C   UNL     1      16.582 -45.125  32.866  1.00  0.00     0.010 C 
ENDROOT
BRANCH   1   3
ATOM      3  C   UNL     1      19.023 -45.352  33.115  1.00  0.00     0.064 C 
ATOM      4  O   UNL     1      20.070 -44.657  33.202  1.00  0.00    -0.545 OA
ATOM      5  O   UNL     1      19.004 -46.626  33.670  1.00  0.00    -0.545 OA
ENDBRANCH   1   3
BRANCH   2   6
ATOM      6  C   UNL     1      15.327 -44.641  32.227  1.00  0.00    -0.026 A 
ATOM      7  C   UNL     1      14.857 -45.117  30.984  1.00  0.00     0.008 A 
ATOM      8  C   UNL     1      14.576 -43.659  32.899  1.00  0.00     0.008 A 
ATOM      9  C   UNL     1      13.668 -44.620  30.439  1.00  0.00     0.001 A 
ATOM     10  C   UNL     1      13.390 -43.167  32.349  1.00  0.00     0.001 A 
ATOM     11  C   UNL     1      12.936 -43.646  31.120  1.00  0.00     0.000 A 
ENDBRANCH   2   6
TORSDOF 2
ENDMDL
