MODEL 1
REMARK VINA RESULT:    -6.239      0.000      0.000
REMARK INTER + INTRA:          -7.606
REMARK INTER:                  -7.333
REMARK INTRA:                  -0.273
REMARK UNBOUND:                -0.273
REMARK SMILES O=c1cc(-c2ccc(O)c(O)c2)oc2cc(O)cc(O)c12
REMARK SMILES IDX 4 1 3 2 2 3 1 4 21 5 19 6 18 7 16 8 15 9 14 10 13 11 5 12
REMARK SMILES IDX 6 13 7 14 8 15 12 16 10 17 9 18 11 20 20 22 17 24
REMARK H PARENT 9 19 11 21 20 23 17 25
REMARK Flexibility Score: inf
ROOT
ATOM      1  C   UNL     1      24.050   2.750 102.950  1.00  0.00     0.138 A 
ATOM      2  C   UNL     1      25.400   3.128 102.919  1.00  0.00     0.100 A 
ATOM      3  C   UNL     1      26.391   2.145 102.903  1.00  0.00     0.197 A 
ATOM      4  O   UNL     1      27.591   2.515 102.819  1.00  0.00    -0.289 OA
ATOM      5  C   UNL     1      26.028   0.778 102.957  1.00  0.00     0.107 A 
ATOM      6  C   UNL     1      26.952  -0.310 102.980  1.00  0.00     0.134 A 
ATOM      7  C   UNL     1      26.473  -1.625 102.934  1.00  0.00     0.093 A 
ATOM      8  C   UNL     1      25.105  -1.893 102.921  1.00  0.00     0.123 A 
ATOM      9  C   UNL     1      24.191  -0.839 102.949  1.00  0.00     0.094 A 
ATOM     10  C   UNL     1      24.638   0.484 102.961  1.00  0.00     0.146 A 
ATOM     11  O   UNL     1      23.735   1.459 102.966  1.00  0.00    -0.456 OA
ENDROOT
BRANCH   1  12
ATOM     12  C   UNL     1      22.955   3.753 102.970  1.00  0.00     0.021 A 
ATOM     13  C   UNL     1      22.709   4.603 101.874  1.00  0.00     0.016 A 
ATOM     14  C   UNL     1      21.664   5.531 101.919  1.00  0.00     0.051 A 
ATOM     15  C   UNL     1      20.846   5.619 103.051  1.00  0.00     0.157 A 
ATOM     16  C   UNL     1      22.119   3.841 104.098  1.00  0.00     0.062 A 
ATOM     17  C   UNL     1      21.071   4.772 104.142  1.00  0.00     0.158 A 
BRANCH  15  18
ATOM     18  O   UNL     1      19.804   6.545 103.098  1.00  0.00    -0.504 OA
ATOM     19  H   UNL     1      19.473   7.013 102.263  1.00  0.00     0.293 HD
ENDBRANCH  15  18
BRANCH  17  20
ATOM     20  O   UNL     1      20.253   4.861 105.266  1.00  0.00    -0.504 OA
ATOM     21  H   UNL     1      20.082   4.060 105.863  1.00  0.00     0.293 HD
ENDBRANCH  17  20
ENDBRANCH   1  12
BRANCH   6  22
ATOM     22  O   UNL     1      28.339  -0.158 103.074  1.00  0.00    -0.507 OA
ATOM     23  H   UNL     1      29.008  -0.513 102.406  1.00  0.00     0.293 HD
ENDBRANCH   6  22
BRANCH   8  24
ATOM     24  O   UNL     1      24.664  -3.214 102.890  1.00  0.00    -0.508 OA
ATOM     25  H   UNL     1      24.101  -3.603 103.639  1.00  0.00     0.293 HD
ENDBRANCH   8  24
TORSDOF 5
ENDMDL
MODEL 2
REMARK VINA RESULT:    -6.215      1.319      3.078
REMARK INTER + INTRA:          -7.578
REMARK INTER:                  -7.305
REMARK INTRA:                  -0.273
REMARK UNBOUND:                -0.273
REMARK SMILES O=c1cc(-c2ccc(O)c(O)c2)oc2cc(O)cc(O)c12
REMARK SMILES IDX 4 1 3 2 2 3 1 4 21 5 19 6 18 7 16 8 15 9 14 10 13 11 5 12
REMARK SMILES IDX 6 13 7 14 8 15 12 16 10 17 9 18 11 20 20 22 17 24
REMARK H PARENT 9 19 11 21 20 23 17 25
REMARK Flexibility Score: inf
ROOT
ATOM      1  C   UNL     1      23.639   2.419 103.005  1.00  0.00     0.138 A 
ATOM      2  C   UNL     1      23.265   1.068 103.019  1.00  0.00     0.100 A 
ATOM      3  C   UNL     1      24.248   0.079 102.946  1.00  0.00     0.197 A 
ATOM      4  O   UNL     1      23.885  -1.123 103.017  1.00  0.00    -0.289 OA
ATOM      5  C   UNL     1      25.609   0.448 102.821  1.00  0.00     0.107 A 
ATOM      6  C   UNL     1      26.694  -0.473 102.705  1.00  0.00     0.134 A 
ATOM      7  C   UNL     1      28.009   0.009 102.686  1.00  0.00     0.093 A 
ATOM      8  C   UNL     1      28.276   1.376 102.722  1.00  0.00     0.123 A 
ATOM      9  C   UNL     1      27.221   2.288 102.785  1.00  0.00     0.094 A 
ATOM     10  C   UNL     1      25.900   1.838 102.840  1.00  0.00     0.146 A 
ATOM     11  O   UNL     1      24.926   2.738 102.919  1.00  0.00    -0.456 OA
ENDROOT
BRANCH   1  12
ATOM     12  C   UNL     1      22.636   3.511 103.077  1.00  0.00     0.021 A 
ATOM     13  C   UNL     1      21.851   3.721 104.227  1.00  0.00     0.016 A 
ATOM     14  C   UNL     1      20.921   4.764 104.269  1.00  0.00     0.051 A 
ATOM     15  C   UNL     1      20.766   5.617 103.170  1.00  0.00     0.157 A 
ATOM     16  C   UNL     1      22.482   4.382 101.983  1.00  0.00     0.062 A 
ATOM     17  C   UNL     1      21.549   5.428 102.026  1.00  0.00     0.158 A 
BRANCH  15  18
ATOM     18  O   UNL     1      19.839   6.658 103.210  1.00  0.00    -0.504 OA
ATOM     19  H   UNL     1      19.853   7.406 102.527  1.00  0.00     0.293 HD
ENDBRANCH  15  18
BRANCH  17  20
ATOM     20  O   UNL     1      21.394   6.281 100.934  1.00  0.00    -0.504 OA
ATOM     21  H   UNL     1      20.592   6.216 100.319  1.00  0.00     0.293 HD
ENDBRANCH  17  20
ENDBRANCH   1  12
BRANCH   6  22
ATOM     22  O   UNL     1      26.539  -1.857 102.580  1.00  0.00    -0.507 OA
ATOM     23  H   UNL     1      26.557  -2.367 101.710  1.00  0.00     0.293 HD
ENDBRANCH   6  22
BRANCH   8  24
ATOM     24  O   UNL     1      29.597   1.820 102.686  1.00  0.00    -0.508 OA
ATOM     25  H   UNL     1      30.374   1.184 102.828  1.00  0.00     0.293 HD
ENDBRANCH   8  24
TORSDOF 5
ENDMDL
MODEL 3
REMARK VINA RESULT:    -6.205      1.193      2.768
REMARK INTER + INTRA:          -7.566
REMARK INTER:                  -7.302
REMARK INTRA:                  -0.265
REMARK UNBOUND:                -0.273
REMARK SMILES O=c1cc(-c2ccc(O)c(O)c2)oc2cc(O)cc(O)c12
REMARK SMILES IDX 4 1 3 2 2 3 1 4 21 5 19 6 18 7 16 8 15 9 14 10 13 11 5 12
REMARK SMILES IDX 6 13 7 14 8 15 12 16 10 17 9 18 11 20 20 22 17 24
REMARK H PARENT 9 19 11 21 20 23 17 25
REMARK Flexibility Score: inf
ROOT
ATOM      1  C   UNL     1      23.813   2.618 102.972  1.00  0.00     0.138 A 
ATOM      2  C   UNL     1      23.485   1.256 102.993  1.00  0.00     0.100 A 
ATOM      3  C   UNL     1      24.502   0.300 102.958  1.00  0.00     0.197 A 
ATOM      4  O   UNL     1      24.177  -0.914 103.034  1.00  0.00    -0.289 OA
ATOM      5  C   UNL     1      25.852   0.712 102.863  1.00  0.00     0.107 A 
ATOM      6  C   UNL     1      26.970  -0.172 102.786  1.00  0.00     0.134 A 
ATOM      7  C   UNL     1      28.268   0.353 102.796  1.00  0.00     0.093 A 
ATOM      8  C   UNL     1      28.488   1.729 102.822  1.00  0.00     0.123 A 
ATOM      9  C   UNL     1      27.402   2.605 102.847  1.00  0.00     0.094 A 
ATOM     10  C   UNL     1      26.096   2.112 102.873  1.00  0.00     0.146 A 
ATOM     11  O   UNL     1      25.091   2.979 102.916  1.00  0.00    -0.456 OA
ENDROOT
BRANCH   1  12
ATOM     12  C   UNL     1      22.772   3.677 103.005  1.00  0.00     0.021 A 
ATOM     13  C   UNL     1      22.548   4.529 101.906  1.00  0.00     0.016 A 
ATOM     14  C   UNL     1      21.554   5.511 101.963  1.00  0.00     0.051 A 
ATOM     15  C   UNL     1      20.765   5.651 103.111  1.00  0.00     0.157 A 
ATOM     16  C   UNL     1      21.966   3.817 104.148  1.00  0.00     0.062 A 
ATOM     17  C   UNL     1      20.969   4.803 104.205  1.00  0.00     0.158 A 
BRANCH  15  18
ATOM     18  O   UNL     1      19.773   6.630 103.170  1.00  0.00    -0.504 OA
ATOM     19  H   UNL     1      19.566   7.223 102.376  1.00  0.00     0.293 HD
ENDBRANCH  15  18
BRANCH  17  20
ATOM     20  O   UNL     1      20.179   4.943 105.345  1.00  0.00    -0.504 OA
ATOM     21  H   UNL     1      19.197   5.183 105.284  1.00  0.00     0.293 HD
ENDBRANCH  17  20
ENDBRANCH   1  12
BRANCH   6  22
ATOM     22  O   UNL     1      26.864  -1.562 102.674  1.00  0.00    -0.507 OA
ATOM     23  H   UNL     1      26.006  -2.067 102.514  1.00  0.00     0.293 HD
ENDBRANCH   6  22
BRANCH   8  24
ATOM     24  O   UNL     1      29.794   2.217 102.815  1.00  0.00    -0.508 OA
ATOM     25  H   UNL     1      29.989   3.212 102.802  1.00  0.00     0.293 HD
ENDBRANCH   8  24
TORSDOF 5
ENDMDL
MODEL 4
REMARK VINA RESULT:    -6.144      8.194      9.061
REMARK INTER + INTRA:          -7.494
REMARK INTER:                  -7.193
REMARK INTRA:                  -0.301
REMARK UNBOUND:                -0.273
REMARK SMILES O=c1cc(-c2ccc(O)c(O)c2)oc2cc(O)cc(O)c12
REMARK SMILES IDX 4 1 3 2 2 3 1 4 21 5 19 6 18 7 16 8 15 9 14 10 13 11 5 12
REMARK SMILES IDX 6 13 7 14 8 15 12 16 10 17 9 18 11 20 20 22 17 24
REMARK H PARENT 9 19 11 21 20 23 17 25
REMARK Flexibility Score: inf
ROOT
ATOM      1  C   UNL     1      22.804  -5.853 102.294  1.00  0.00     0.138 A 
ATOM      2  C   UNL     1      24.158  -6.208 102.365  1.00  0.00     0.100 A 
ATOM      3  C   UNL     1      24.751  -6.424 103.610  1.00  0.00     0.197 A 
ATOM      4  O   UNL     1      25.953  -6.796 103.637  1.00  0.00    -0.289 OA
ATOM      5  C   UNL     1      23.993  -6.244 104.791  1.00  0.00     0.107 A 
ATOM      6  C   UNL     1      24.500  -6.402 106.116  1.00  0.00     0.134 A 
ATOM      7  C   UNL     1      23.628  -6.295 107.207  1.00  0.00     0.093 A 
ATOM      8  C   UNL     1      22.282  -5.980 107.025  1.00  0.00     0.123 A 
ATOM      9  C   UNL     1      21.786  -5.774 105.737  1.00  0.00     0.094 A 
ATOM     10  C   UNL     1      22.622  -5.908 104.627  1.00  0.00     0.146 A 
ATOM     11  O   UNL     1      22.106  -5.723 103.417  1.00  0.00    -0.456 OA
ENDROOT
BRANCH   1  12
ATOM     12  C   UNL     1      22.124  -5.610 100.997  1.00  0.00     0.021 A 
ATOM     13  C   UNL     1      22.409  -6.382  99.854  1.00  0.00     0.016 A 
ATOM     14  C   UNL     1      21.745  -6.136  98.649  1.00  0.00     0.051 A 
ATOM     15  C   UNL     1      20.781  -5.124  98.568  1.00  0.00     0.157 A 
ATOM     16  C   UNL     1      21.144  -4.604 100.908  1.00  0.00     0.062 A 
ATOM     17  C   UNL     1      20.478  -4.358  99.699  1.00  0.00     0.158 A 
BRANCH  15  18
ATOM     18  O   UNL     1      20.118  -4.876  97.366  1.00  0.00    -0.504 OA
ATOM     19  H   UNL     1      20.277  -5.447  96.546  1.00  0.00     0.293 HD
ENDBRANCH  15  18
BRANCH  17  20
ATOM     20  O   UNL     1      19.516  -3.353  99.615  1.00  0.00    -0.504 OA
ATOM     21  H   UNL     1      19.639  -2.461 100.079  1.00  0.00     0.293 HD
ENDBRANCH  17  20
ENDBRANCH   1  12
BRANCH   6  22
ATOM     22  O   UNL     1      25.844  -6.639 106.418  1.00  0.00    -0.507 OA
ATOM     23  H   UNL     1      26.421  -7.344 105.985  1.00  0.00     0.293 HD
ENDBRANCH   6  22
BRANCH   8  24
ATOM     24  O   UNL     1      21.447  -5.866 108.135  1.00  0.00    -0.508 OA
ATOM     25  H   UNL     1      21.759  -6.130 109.063  1.00  0.00     0.293 HD
ENDBRANCH   8  24
TORSDOF 5
ENDMDL
MODEL 5
REMARK VINA RESULT:    -6.094      1.228      1.938
REMARK INTER + INTRA:          -7.436
REMARK INTER:                  -7.174
REMARK INTRA:                  -0.262
REMARK UNBOUND:                -0.273
REMARK SMILES O=c1cc(-c2ccc(O)c(O)c2)oc2cc(O)cc(O)c12
REMARK SMILES IDX 4 1 3 2 2 3 1 4 21 5 19 6 18 7 16 8 15 9 14 10 13 11 5 12
REMARK SMILES IDX 6 13 7 14 8 15 12 16 10 17 9 18 11 20 20 22 17 24
REMARK H PARENT 9 19 11 21 20 23 17 25
REMARK Flexibility Score: inf
ROOT
ATOM      1  C   UNL     1      24.647   3.311 103.092  1.00  0.00     0.138 A 
ATOM      2  C   UNL     1      25.876   3.894 103.431  1.00  0.00     0.100 A 
ATOM      3  C   UNL     1      27.034   3.115 103.426  1.00  0.00     0.197 A 
ATOM      4  O   UNL     1      28.129   3.681 103.680  1.00  0.00    -0.289 OA
ATOM      5  C   UNL     1      26.954   1.737 103.117  1.00  0.00     0.107 A 
ATOM      6  C   UNL     1      28.063   0.837 103.114  1.00  0.00     0.134 A 
ATOM      7  C   UNL     1      27.877  -0.486 102.695  1.00  0.00     0.093 A 
ATOM      8  C   UNL     1      26.616  -0.958 102.334  1.00  0.00     0.123 A 
ATOM      9  C   UNL     1      25.516  -0.101 102.381  1.00  0.00     0.094 A 
ATOM     10  C   UNL     1      25.674   1.233 102.761  1.00  0.00     0.146 A 
ATOM     11  O   UNL     1      24.604   2.021 102.774  1.00  0.00    -0.456 OA
ENDROOT
BRANCH   1  12
ATOM     12  C   UNL     1      23.384   4.091 103.083  1.00  0.00     0.021 A 
ATOM     13  C   UNL     1      22.502   4.085 104.180  1.00  0.00     0.016 A 
ATOM     14  C   UNL     1      21.324   4.838 104.146  1.00  0.00     0.051 A 
ATOM     15  C   UNL     1      21.013   5.613 103.023  1.00  0.00     0.157 A 
ATOM     16  C   UNL     1      23.070   4.884 101.964  1.00  0.00     0.062 A 
ATOM     17  C   UNL     1      21.888   5.639 101.931  1.00  0.00     0.158 A 
BRANCH  15  18
ATOM     18  O   UNL     1      19.839   6.364 102.987  1.00  0.00    -0.504 OA
ATOM     19  H   UNL     1      19.825   7.339 103.260  1.00  0.00     0.293 HD
ENDBRANCH  15  18
BRANCH  17  20
ATOM     20  O   UNL     1      21.577   6.414 100.815  1.00  0.00    -0.504 OA
ATOM     21  H   UNL     1      20.618   6.622 100.564  1.00  0.00     0.293 HD
ENDBRANCH  17  20
ENDBRANCH   1  12
BRANCH   6  22
ATOM     22  O   UNL     1      29.352   1.180 103.533  1.00  0.00    -0.507 OA
ATOM     23  H   UNL     1      30.130   1.371 102.919  1.00  0.00     0.293 HD
ENDBRANCH   6  22
BRANCH   8  24
ATOM     24  O   UNL     1      26.466  -2.285 101.937  1.00  0.00    -0.508 OA
ATOM     25  H   UNL     1      27.257  -2.838 101.624  1.00  0.00     0.293 HD
ENDBRANCH   8  24
TORSDOF 5
ENDMDL
MODEL 6
REMARK VINA RESULT:    -6.039      8.224      9.392
REMARK INTER + INTRA:          -7.372
REMARK INTER:                  -7.076
REMARK INTRA:                  -0.296
REMARK UNBOUND:                -0.273
REMARK SMILES O=c1cc(-c2ccc(O)c(O)c2)oc2cc(O)cc(O)c12
REMARK SMILES IDX 4 1 3 2 2 3 1 4 21 5 19 6 18 7 16 8 15 9 14 10 13 11 5 12
REMARK SMILES IDX 6 13 7 14 8 15 12 16 10 17 9 18 11 20 20 22 17 24
REMARK H PARENT 9 19 11 21 20 23 17 25
REMARK Flexibility Score: inf
ROOT
ATOM      1  C   UNL     1      32.212   3.815 103.014  1.00  0.00     0.138 A 
ATOM      2  C   UNL     1      32.597   2.472 102.896  1.00  0.00     0.100 A 
ATOM      3  C   UNL     1      32.745   1.906 101.628  1.00  0.00     0.197 A 
ATOM      4  O   UNL     1      33.145   0.715 101.555  1.00  0.00    -0.289 OA
ATOM      5  C   UNL     1      32.469   2.679 100.476  1.00  0.00     0.107 A 
ATOM      6  C   UNL     1      32.553   2.199  99.134  1.00  0.00     0.134 A 
ATOM      7  C   UNL     1      32.352   3.086  98.069  1.00  0.00     0.093 A 
ATOM      8  C   UNL     1      32.015   4.420  98.296  1.00  0.00     0.123 A 
ATOM      9  C   UNL     1      31.882   4.889  99.603  1.00  0.00     0.094 A 
ATOM     10  C   UNL     1      32.110   4.037 100.686  1.00  0.00     0.146 A 
ATOM     11  O   UNL     1      31.991   4.529 101.916  1.00  0.00    -0.456 OA
ENDROOT
BRANCH   1  12
ATOM     12  C   UNL     1      32.037   4.467 104.337  1.00  0.00     0.021 A 
ATOM     13  C   UNL     1      32.956   4.272 105.386  1.00  0.00     0.016 A 
ATOM     14  C   UNL     1      32.770   4.907 106.617  1.00  0.00     0.051 A 
ATOM     15  C   UNL     1      31.672   5.752 106.818  1.00  0.00     0.157 A 
ATOM     16  C   UNL     1      30.944   5.328 104.544  1.00  0.00     0.062 A 
ATOM     17  C   UNL     1      30.759   5.965 105.780  1.00  0.00     0.158 A 
BRANCH  15  18
ATOM     18  O   UNL     1      31.485   6.387 108.045  1.00  0.00    -0.504 OA
ATOM     19  H   UNL     1      31.916   7.279 108.252  1.00  0.00     0.293 HD
ENDBRANCH  15  18
BRANCH  17  20
ATOM     20  O   UNL     1      29.668   6.809 105.981  1.00  0.00    -0.504 OA
ATOM     21  H   UNL     1      28.879   6.530 106.552  1.00  0.00     0.293 HD
ENDBRANCH  17  20
ENDBRANCH   1  12
BRANCH   6  22
ATOM     22  O   UNL     1      32.803   0.866  98.792  1.00  0.00    -0.507 OA
ATOM     23  H   UNL     1      33.588   0.322  99.118  1.00  0.00     0.293 HD
ENDBRANCH   6  22
BRANCH   8  24
ATOM     24  O   UNL     1      31.808   5.270  97.212  1.00  0.00    -0.508 OA
ATOM     25  H   UNL     1      30.973   5.206  96.639  1.00  0.00     0.293 HD
ENDBRANCH   8  24
TORSDOF 5
ENDMDL
MODEL 7
REMARK VINA RESULT:    -5.991      5.025      7.687
REMARK INTER + INTRA:          -7.315
REMARK INTER:                  -6.997
REMARK INTRA:                  -0.318
REMARK UNBOUND:                -0.273
REMARK SMILES O=c1cc(-c2ccc(O)c(O)c2)oc2cc(O)cc(O)c12
REMARK SMILES IDX 4 1 3 2 2 3 1 4 21 5 19 6 18 7 16 8 15 9 14 10 13 11 5 12
REMARK SMILES IDX 6 13 7 14 8 15 12 16 10 17 9 18 11 20 20 22 17 24
REMARK H PARENT 9 19 11 21 20 23 17 25
REMARK Flexibility Score: inf
ROOT
ATOM      1  C   UNL     1      29.847   2.527 104.132  1.00  0.00     0.138 A 
ATOM      2  C   UNL     1      29.276   1.992 105.295  1.00  0.00     0.100 A 
ATOM      3  C   UNL     1      28.237   1.066 105.191  1.00  0.00     0.197 A 
ATOM      4  O   UNL     1      27.784   0.562 106.251  1.00  0.00    -0.289 OA
ATOM      5  C   UNL     1      27.743   0.703 103.915  1.00  0.00     0.107 A 
ATOM      6  C   UNL     1      26.665  -0.205 103.687  1.00  0.00     0.134 A 
ATOM      7  C   UNL     1      26.329  -0.564 102.376  1.00  0.00     0.093 A 
ATOM      8  C   UNL     1      26.992  -0.006 101.284  1.00  0.00     0.123 A 
ATOM      9  C   UNL     1      28.014   0.921 101.493  1.00  0.00     0.094 A 
ATOM     10  C   UNL     1      28.395   1.273 102.790  1.00  0.00     0.146 A 
ATOM     11  O   UNL     1      29.387   2.145 102.945  1.00  0.00    -0.456 OA
ENDROOT
BRANCH   1  12
ATOM     12  C   UNL     1      30.952   3.517 104.184  1.00  0.00     0.021 A 
ATOM     13  C   UNL     1      31.424   4.037 105.405  1.00  0.00     0.016 A 
ATOM     14  C   UNL     1      32.473   4.961 105.423  1.00  0.00     0.051 A 
ATOM     15  C   UNL     1      33.072   5.373 104.227  1.00  0.00     0.157 A 
ATOM     16  C   UNL     1      31.569   3.928 102.988  1.00  0.00     0.062 A 
ATOM     17  C   UNL     1      32.621   4.855 103.007  1.00  0.00     0.158 A 
BRANCH  15  18
ATOM     18  O   UNL     1      34.118   6.295 104.242  1.00  0.00    -0.504 OA
ATOM     19  H   UNL     1      35.035   6.050 104.594  1.00  0.00     0.293 HD
ENDBRANCH  15  18
BRANCH  17  20
ATOM     20  O   UNL     1      33.222   5.265 101.818  1.00  0.00    -0.504 OA
ATOM     21  H   UNL     1      33.062   4.774 100.946  1.00  0.00     0.293 HD
ENDBRANCH  17  20
ENDBRANCH   1  12
BRANCH   6  22
ATOM     22  O   UNL     1      25.881  -0.762 104.703  1.00  0.00    -0.507 OA
ATOM     23  H   UNL     1      26.138  -1.561 105.262  1.00  0.00     0.293 HD
ENDBRANCH   6  22
BRANCH   8  24
ATOM     24  O   UNL     1      26.621  -0.374  99.993  1.00  0.00    -0.508 OA
ATOM     25  H   UNL     1      26.383  -1.333  99.762  1.00  0.00     0.293 HD
ENDBRANCH   8  24
TORSDOF 5
ENDMDL
MODEL 8
REMARK VINA RESULT:    -5.834      5.214      8.091
REMARK INTER + INTRA:          -7.130
REMARK INTER:                  -6.814
REMARK INTRA:                  -0.316
REMARK UNBOUND:                -0.273
REMARK SMILES O=c1cc(-c2ccc(O)c(O)c2)oc2cc(O)cc(O)c12
REMARK SMILES IDX 4 1 3 2 2 3 1 4 21 5 19 6 18 7 16 8 15 9 14 10 13 11 5 12
REMARK SMILES IDX 6 13 7 14 8 15 12 16 10 17 9 18 11 20 20 22 17 24
REMARK H PARENT 9 19 11 21 20 23 17 25
REMARK Flexibility Score: inf
ROOT
ATOM      1  C   UNL     1      29.947   1.907 102.913  1.00  0.00     0.138 A 
ATOM      2  C   UNL     1      30.377   1.879 101.579  1.00  0.00     0.100 A 
ATOM      3  C   UNL     1      31.464   2.661 101.187  1.00  0.00     0.197 A 
ATOM      4  O   UNL     1      31.860   2.571  99.996  1.00  0.00    -0.289 OA
ATOM      5  C   UNL     1      32.100   3.504 102.129  1.00  0.00     0.107 A 
ATOM      6  C   UNL     1      33.197   4.371 101.837  1.00  0.00     0.134 A 
ATOM      7  C   UNL     1      33.808   5.085 102.875  1.00  0.00     0.093 A 
ATOM      8  C   UNL     1      33.330   5.009 104.182  1.00  0.00     0.123 A 
ATOM      9  C   UNL     1      32.227   4.204 104.471  1.00  0.00     0.094 A 
ATOM     10  C   UNL     1      31.617   3.452 103.464  1.00  0.00     0.146 A 
ATOM     11  O   UNL     1      30.582   2.683 103.785  1.00  0.00    -0.456 OA
ENDROOT
BRANCH   1  12
ATOM     12  C   UNL     1      28.795   1.098 103.384  1.00  0.00     0.021 A 
ATOM     13  C   UNL     1      27.940   0.433 102.484  1.00  0.00     0.016 A 
ATOM     14  C   UNL     1      26.868  -0.330 102.957  1.00  0.00     0.051 A 
ATOM     15  C   UNL     1      26.639  -0.448 104.333  1.00  0.00     0.157 A 
ATOM     16  C   UNL     1      28.564   0.962 104.764  1.00  0.00     0.062 A 
ATOM     17  C   UNL     1      27.488   0.197 105.239  1.00  0.00     0.158 A 
BRANCH  15  18
ATOM     18  O   UNL     1      25.570  -1.208 104.807  1.00  0.00    -0.504 OA
ATOM     19  H   UNL     1      24.989  -0.885 105.571  1.00  0.00     0.293 HD
ENDBRANCH  15  18
BRANCH  17  20
ATOM     20  O   UNL     1      27.259   0.075 106.608  1.00  0.00    -0.504 OA
ATOM     21  H   UNL     1      28.022   0.057 107.274  1.00  0.00     0.293 HD
ENDBRANCH  17  20
ENDBRANCH   1  12
BRANCH   6  22
ATOM     22  O   UNL     1      33.705   4.586 100.552  1.00  0.00    -0.507 OA
ATOM     23  H   UNL     1      33.147   4.701  99.719  1.00  0.00     0.293 HD
ENDBRANCH   6  22
BRANCH   8  24
ATOM     24  O   UNL     1      33.954   5.746 105.186  1.00  0.00    -0.508 OA
ATOM     25  H   UNL     1      34.065   6.752 105.116  1.00  0.00     0.293 HD
ENDBRANCH   8  24
TORSDOF 5
ENDMDL
MODEL 9
REMARK VINA RESULT:    -5.824      8.978      9.761
REMARK INTER + INTRA:          -7.119
REMARK INTER:                  -6.829
REMARK INTRA:                  -0.289
REMARK UNBOUND:                -0.273
REMARK SMILES O=c1cc(-c2ccc(O)c(O)c2)oc2cc(O)cc(O)c12
REMARK SMILES IDX 4 1 3 2 2 3 1 4 21 5 19 6 18 7 16 8 15 9 14 10 13 11 5 12
REMARK SMILES IDX 6 13 7 14 8 15 12 16 10 17 9 18 11 20 20 22 17 24
REMARK H PARENT 9 19 11 21 20 23 17 25
REMARK Flexibility Score: inf
ROOT
ATOM      1  C   UNL     1      32.689   2.911 102.604  1.00  0.00     0.138 A 
ATOM      2  C   UNL     1      33.392   1.704 102.724  1.00  0.00     0.100 A 
ATOM      3  C   UNL     1      33.537   1.112 103.979  1.00  0.00     0.197 A 
ATOM      4  O   UNL     1      34.125   0.001 104.046  1.00  0.00    -0.289 OA
ATOM      5  C   UNL     1      33.008   1.752 105.125  1.00  0.00     0.107 A 
ATOM      6  C   UNL     1      33.124   1.259 106.460  1.00  0.00     0.134 A 
ATOM      7  C   UNL     1      32.473   1.929 107.503  1.00  0.00     0.093 A 
ATOM      8  C   UNL     1      31.758   3.103 107.269  1.00  0.00     0.123 A 
ATOM      9  C   UNL     1      31.679   3.622 105.976  1.00  0.00     0.094 A 
ATOM     10  C   UNL     1      32.289   2.958 104.910  1.00  0.00     0.146 A 
ATOM     11  O   UNL     1      32.173   3.475 103.691  1.00  0.00    -0.456 OA
ENDROOT
BRANCH   1  12
ATOM     12  C   UNL     1      32.506   3.586 101.294  1.00  0.00     0.021 A 
ATOM     13  C   UNL     1      32.035   2.892 100.163  1.00  0.00     0.016 A 
ATOM     14  C   UNL     1      31.864   3.557  98.945  1.00  0.00     0.051 A 
ATOM     15  C   UNL     1      32.151   4.923  98.839  1.00  0.00     0.157 A 
ATOM     16  C   UNL     1      32.780   4.961 101.181  1.00  0.00     0.062 A 
ATOM     17  C   UNL     1      32.608   5.627  99.959  1.00  0.00     0.158 A 
BRANCH  15  18
ATOM     18  O   UNL     1      31.982   5.588  97.625  1.00  0.00    -0.504 OA
ATOM     19  H   UNL     1      31.523   5.145  96.838  1.00  0.00     0.293 HD
ENDBRANCH  15  18
BRANCH  17  20
ATOM     20  O   UNL     1      32.890   6.988  99.851  1.00  0.00    -0.504 OA
ATOM     21  H   UNL     1      33.838   7.340  99.915  1.00  0.00     0.293 HD
ENDBRANCH  17  20
ENDBRANCH   1  12
BRANCH   6  22
ATOM     22  O   UNL     1      33.881   0.139 106.819  1.00  0.00    -0.507 OA
ATOM     23  H   UNL     1      34.871   0.033 106.659  1.00  0.00     0.293 HD
ENDBRANCH   6  22
BRANCH   8  24
ATOM     24  O   UNL     1      31.136   3.752 108.334  1.00  0.00    -0.508 OA
ATOM     25  H   UNL     1      30.470   3.274 108.930  1.00  0.00     0.293 HD
ENDBRANCH   8  24
TORSDOF 5
ENDMDL
