MODEL 1
REMARK VINA RESULT:    -4.683      0.000      0.000
REMARK INTER + INTRA:         -10.921
REMARK INTER:                  -8.516
REMARK INTRA:                  -2.406
REMARK UNBOUND:                -2.406
REMARK SMILES CCCCCCCCCCCCCC[C@@H](C)C(=O)[O-]
REMARK SMILES IDX 9 1 10 2 11 3 12 4 13 5 14 6 15 7 16 8 17 9 18 10 19 11 8 12
REMARK SMILES IDX 7 13 6 14 5 15 4 16 3 17 2 18 1 19
REMARK H PARENT
REMARK Flexibility Score: inf
ROOT
ATOM      1  C   UNL     1      -7.270 -27.998  31.614  1.00  0.00     0.000 C 
ENDROOT
BRANCH   1   2
ATOM      2  C   UNL     1      -8.776 -27.893  31.327  1.00  0.00     0.000 C 
BRANCH   2   3
ATOM      3  C   UNL     1      -9.460 -26.787  32.144  1.00  0.00     0.000 C 
BRANCH   3   4
ATOM      4  C   UNL     1     -10.790 -26.373  31.503  1.00  0.00     0.000 C 
BRANCH   4   5
ATOM      5  C   UNL     1     -10.731 -26.507  29.975  1.00  0.00     0.001 C 
BRANCH   5   6
ATOM      6  C   UNL     1     -10.041 -25.315  29.278  1.00  0.00     0.009 C 
BRANCH   6   7
ATOM      7  C   UNL     1      -9.383 -25.600  27.905  1.00  0.00     0.032 C 
ATOM      8  C   UNL     1      -8.953 -27.068  27.746  1.00  0.00     0.014 C 
BRANCH   7   9
ATOM      9  C   UNL     1     -10.229 -25.111  26.754  1.00  0.00     0.044 C 
ATOM     10  O   UNL     1     -11.016 -25.886  26.146  1.00  0.00    -0.550 OA
ATOM     11  O   UNL     1     -10.124 -23.789  26.338  1.00  0.00    -0.550 OA
ENDBRANCH   7   9
ENDBRANCH   6   7
ENDBRANCH   5   6
ENDBRANCH   4   5
ENDBRANCH   3   4
ENDBRANCH   2   3
ENDBRANCH   1   2
BRANCH   1  12
ATOM     12  C   UNL     1      -6.407 -27.602  30.403  1.00  0.00     0.000 C 
BRANCH  12  13
ATOM     13  C   UNL     1      -4.939 -27.339  30.795  1.00  0.00    -0.000 C 
BRANCH  13  14
ATOM     14  C   UNL     1      -4.593 -27.754  32.239  1.00  0.00    -0.000 C 
BRANCH  14  15
ATOM     15  C   UNL     1      -4.217 -26.576  33.164  1.00  0.00    -0.000 C 
BRANCH  15  16
ATOM     16  C   UNL     1      -4.899 -25.237  32.816  1.00  0.00    -0.000 C 
BRANCH  16  17
ATOM     17  C   UNL     1      -6.246 -24.972  33.521  1.00  0.00    -0.000 C 
BRANCH  17  18
ATOM     18  C   UNL     1      -7.224 -24.068  32.753  1.00  0.00    -0.003 C 
ATOM     19  C   UNL     1      -7.094 -24.203  31.236  1.00  0.00     0.004 C 
ENDBRANCH  17  18
ENDBRANCH  16  17
ENDBRANCH  15  16
ENDBRANCH  14  15
ENDBRANCH  13  14
ENDBRANCH  12  13
ENDBRANCH   1  12
TORSDOF 14
ENDMDL
MODEL 2
REMARK VINA RESULT:    -4.669      2.745      6.124
REMARK INTER + INTRA:         -10.896
REMARK INTER:                  -8.766
REMARK INTRA:                  -2.130
REMARK UNBOUND:                -2.406
REMARK SMILES CCCCCCCCCCCCCC[C@@H](C)C(=O)[O-]
REMARK SMILES IDX 9 1 10 2 11 3 12 4 13 5 14 6 15 7 16 8 17 9 18 10 19 11 8 12
REMARK SMILES IDX 7 13 6 14 5 15 4 16 3 17 2 18 1 19
REMARK H PARENT
REMARK Flexibility Score: inf
ROOT
ATOM      1  C   UNL     1      -9.943 -25.213  29.880  1.00  0.00     0.000 C 
ENDROOT
BRANCH   1   2
ATOM      2  C   UNL     1     -10.566 -26.341  30.716  1.00  0.00     0.000 C 
BRANCH   2   3
ATOM      3  C   UNL     1     -10.328 -26.162  32.223  1.00  0.00     0.000 C 
BRANCH   3   4
ATOM      4  C   UNL     1      -9.078 -25.314  32.484  1.00  0.00     0.000 C 
BRANCH   4   5
ATOM      5  C   UNL     1      -7.967 -26.152  33.131  1.00  0.00     0.001 C 
BRANCH   5   6
ATOM      6  C   UNL     1      -7.248 -27.093  32.141  1.00  0.00     0.009 C 
BRANCH   6   7
ATOM      7  C   UNL     1      -6.050 -26.495  31.361  1.00  0.00     0.032 C 
ATOM      8  C   UNL     1      -5.029 -25.804  32.279  1.00  0.00     0.014 C 
BRANCH   7   9
ATOM      9  C   UNL     1      -5.414 -27.504  30.434  1.00  0.00     0.044 C 
ATOM     10  O   UNL     1      -4.875 -28.552  30.880  1.00  0.00    -0.550 OA
ATOM     11  O   UNL     1      -5.398 -27.263  29.065  1.00  0.00    -0.550 OA
ENDBRANCH   7   9
ENDBRANCH   6   7
ENDBRANCH   5   6
ENDBRANCH   4   5
ENDBRANCH   3   4
ENDBRANCH   2   3
ENDBRANCH   1   2
BRANCH   1  12
ATOM     12  C   UNL     1      -8.765 -25.697  29.015  1.00  0.00     0.000 C 
BRANCH  12  13
ATOM     13  C   UNL     1      -8.864 -27.200  28.684  1.00  0.00    -0.000 C 
BRANCH  13  14
ATOM     14  C   UNL     1      -9.339 -27.495  27.248  1.00  0.00    -0.000 C 
BRANCH  14  15
ATOM     15  C   UNL     1     -10.860 -27.729  27.117  1.00  0.00    -0.000 C 
BRANCH  15  16
ATOM     16  C   UNL     1     -11.659 -26.514  26.603  1.00  0.00    -0.000 C 
BRANCH  16  17
ATOM     17  C   UNL     1     -10.848 -25.474  25.802  1.00  0.00    -0.000 C 
BRANCH  17  18
ATOM     18  C   UNL     1     -10.774 -24.072  26.431  1.00  0.00    -0.003 C 
ATOM     19  C   UNL     1     -11.586 -23.031  25.662  1.00  0.00     0.004 C 
ENDBRANCH  17  18
ENDBRANCH  16  17
ENDBRANCH  15  16
ENDBRANCH  14  15
ENDBRANCH  13  14
ENDBRANCH  12  13
ENDBRANCH   1  12
TORSDOF 14
ENDMDL
MODEL 3
REMARK VINA RESULT:    -4.658      1.527      3.572
REMARK INTER + INTRA:         -10.875
REMARK INTER:                  -8.780
REMARK INTRA:                  -2.095
REMARK UNBOUND:                -2.406
REMARK SMILES CCCCCCCCCCCCCC[C@@H](C)C(=O)[O-]
REMARK SMILES IDX 9 1 10 2 11 3 12 4 13 5 14 6 15 7 16 8 17 9 18 10 19 11 8 12
REMARK SMILES IDX 7 13 6 14 5 15 4 16 3 17 2 18 1 19
REMARK H PARENT
REMARK Flexibility Score: inf
ROOT
ATOM      1  C   UNL     1      -4.823 -27.297  32.149  1.00  0.00     0.000 C 
ENDROOT
BRANCH   1   2
ATOM      2  C   UNL     1      -5.653 -28.132  31.162  1.00  0.00     0.000 C 
BRANCH   2   3
ATOM      3  C   UNL     1      -6.776 -27.321  30.499  1.00  0.00     0.000 C 
BRANCH   3   4
ATOM      4  C   UNL     1      -6.609 -27.297  28.975  1.00  0.00     0.000 C 
BRANCH   4   5
ATOM      5  C   UNL     1      -7.970 -27.216  28.271  1.00  0.00     0.001 C 
BRANCH   5   6
ATOM      6  C   UNL     1      -9.170 -27.298  29.238  1.00  0.00     0.009 C 
BRANCH   6   7
ATOM      7  C   UNL     1     -10.502 -26.676  28.746  1.00  0.00     0.032 C 
ATOM      8  C   UNL     1     -10.398 -25.161  28.509  1.00  0.00     0.014 C 
BRANCH   7   9
ATOM      9  C   UNL     1     -11.072 -27.415  27.559  1.00  0.00     0.044 C 
ATOM     10  O   UNL     1     -11.482 -26.797  26.540  1.00  0.00    -0.550 OA
ATOM     11  O   UNL     1     -11.171 -28.801  27.596  1.00  0.00    -0.550 OA
ENDBRANCH   7   9
ENDBRANCH   6   7
ENDBRANCH   5   6
ENDBRANCH   4   5
ENDBRANCH   3   4
ENDBRANCH   2   3
ENDBRANCH   1   2
BRANCH   1  12
ATOM     12  C   UNL     1      -5.135 -25.792  32.062  1.00  0.00     0.000 C 
BRANCH  12  13
ATOM     13  C   UNL     1      -5.518 -25.197  33.432  1.00  0.00    -0.000 C 
BRANCH  13  14
ATOM     14  C   UNL     1      -6.933 -24.585  33.476  1.00  0.00    -0.000 C 
BRANCH  14  15
ATOM     15  C   UNL     1      -7.512 -24.226  32.090  1.00  0.00    -0.000 C 
BRANCH  15  16
ATOM     16  C   UNL     1      -8.954 -24.716  31.845  1.00  0.00    -0.000 C 
BRANCH  16  17
ATOM     17  C   UNL     1      -9.357 -26.002  32.597  1.00  0.00    -0.000 C 
BRANCH  17  18
ATOM     18  C   UNL     1     -10.862 -26.156  32.876  1.00  0.00    -0.003 C 
ATOM     19  C   UNL     1     -11.242 -25.790  34.310  1.00  0.00     0.004 C 
ENDBRANCH  17  18
ENDBRANCH  16  17
ENDBRANCH  15  16
ENDBRANCH  14  15
ENDBRANCH  13  14
ENDBRANCH  12  13
ENDBRANCH   1  12
TORSDOF 14
ENDMDL
MODEL 4
REMARK VINA RESULT:    -4.600      2.571      5.915
REMARK INTER + INTRA:         -10.771
REMARK INTER:                  -8.979
REMARK INTRA:                  -1.792
REMARK UNBOUND:                -2.406
REMARK SMILES CCCCCCCCCCCCCC[C@@H](C)C(=O)[O-]
REMARK SMILES IDX 9 1 10 2 11 3 12 4 13 5 14 6 15 7 16 8 17 9 18 10 19 11 8 12
REMARK SMILES IDX 7 13 6 14 5 15 4 16 3 17 2 18 1 19
REMARK H PARENT
REMARK Flexibility Score: inf
ROOT
ATOM      1  C   UNL     1      -9.568 -25.438  32.230  1.00  0.00     0.000 C 
ENDROOT
BRANCH   1   2
ATOM      2  C   UNL     1      -8.913 -24.485  31.218  1.00  0.00     0.000 C 
BRANCH   2   3
ATOM      3  C   UNL     1      -7.639 -23.825  31.765  1.00  0.00     0.000 C 
BRANCH   3   4
ATOM      4  C   UNL     1      -7.041 -24.650  32.910  1.00  0.00     0.000 C 
BRANCH   4   5
ATOM      5  C   UNL     1      -5.612 -25.100  32.579  1.00  0.00     0.001 C 
BRANCH   5   6
ATOM      6  C   UNL     1      -5.427 -25.539  31.112  1.00  0.00     0.009 C 
BRANCH   6   7
ATOM      7  C   UNL     1      -5.188 -27.050  30.864  1.00  0.00     0.032 C 
ATOM      8  C   UNL     1      -6.213 -27.940  31.585  1.00  0.00     0.014 C 
BRANCH   7   9
ATOM      9  C   UNL     1      -5.063 -27.375  29.394  1.00  0.00     0.044 C 
ATOM     10  O   UNL     1      -6.083 -27.542  28.673  1.00  0.00    -0.550 OA
ATOM     11  O   UNL     1      -3.802 -27.517  28.827  1.00  0.00    -0.550 OA
ENDBRANCH   7   9
ENDBRANCH   6   7
ENDBRANCH   5   6
ENDBRANCH   4   5
ENDBRANCH   3   4
ENDBRANCH   2   3
ENDBRANCH   1   2
BRANCH   1  12
ATOM     12  C   UNL     1      -9.857 -26.828  31.634  1.00  0.00     0.000 C 
BRANCH  12  13
ATOM     13  C   UNL     1      -9.478 -26.912  30.142  1.00  0.00    -0.000 C 
BRANCH  13  14
ATOM     14  C   UNL     1     -10.658 -27.265  29.215  1.00  0.00    -0.000 C 
BRANCH  14  15
ATOM     15  C   UNL     1     -10.471 -26.813  27.750  1.00  0.00    -0.000 C 
BRANCH  15  16
ATOM     16  C   UNL     1      -9.617 -25.542  27.569  1.00  0.00    -0.000 C 
BRANCH  16  17
ATOM     17  C   UNL     1     -10.407 -24.225  27.418  1.00  0.00    -0.000 C 
BRANCH  17  18
ATOM     18  C   UNL     1     -11.025 -23.985  26.030  1.00  0.00    -0.003 C 
ATOM     19  C   UNL     1     -11.575 -22.570  25.859  1.00  0.00     0.004 C 
ENDBRANCH  17  18
ENDBRANCH  16  17
ENDBRANCH  15  16
ENDBRANCH  14  15
ENDBRANCH  13  14
ENDBRANCH  12  13
ENDBRANCH   1  12
TORSDOF 14
ENDMDL
MODEL 5
REMARK VINA RESULT:    -4.597      3.070      6.635
REMARK INTER + INTRA:         -10.764
REMARK INTER:                  -9.120
REMARK INTRA:                  -1.645
REMARK UNBOUND:                -2.406
REMARK SMILES CCCCCCCCCCCCCC[C@@H](C)C(=O)[O-]
REMARK SMILES IDX 9 1 10 2 11 3 12 4 13 5 14 6 15 7 16 8 17 9 18 10 19 11 8 12
REMARK SMILES IDX 7 13 6 14 5 15 4 16 3 17 2 18 1 19
REMARK H PARENT
REMARK Flexibility Score: inf
ROOT
ATOM      1  C   UNL     1      -8.410 -27.597  27.521  1.00  0.00     0.000 C 
ENDROOT
BRANCH   1   2
ATOM      2  C   UNL     1      -8.580 -27.164  28.986  1.00  0.00     0.000 C 
BRANCH   2   3
ATOM      3  C   UNL     1      -8.641 -25.638  29.149  1.00  0.00     0.000 C 
BRANCH   3   4
ATOM      4  C   UNL     1      -9.832 -25.226  30.022  1.00  0.00     0.000 C 
BRANCH   4   5
ATOM      5  C   UNL     1      -9.383 -24.908  31.454  1.00  0.00     0.001 C 
BRANCH   5   6
ATOM      6  C   UNL     1      -8.020 -24.186  31.528  1.00  0.00     0.009 C 
BRANCH   6   7
ATOM      7  C   UNL     1      -7.081 -24.593  32.691  1.00  0.00     0.032 C 
ATOM      8  C   UNL     1      -7.706 -25.647  33.619  1.00  0.00     0.014 C 
BRANCH   7   9
ATOM      9  C   UNL     1      -5.706 -24.985  32.204  1.00  0.00     0.044 C 
ATOM     10  O   UNL     1      -5.508 -25.317  31.005  1.00  0.00    -0.550 OA
ATOM     11  O   UNL     1      -4.642 -25.006  33.097  1.00  0.00    -0.550 OA
ENDBRANCH   7   9
ENDBRANCH   6   7
ENDBRANCH   5   6
ENDBRANCH   4   5
ENDBRANCH   3   4
ENDBRANCH   2   3
ENDBRANCH   1   2
BRANCH   1  12
ATOM     12  C   UNL     1      -9.655 -28.313  26.967  1.00  0.00     0.000 C 
BRANCH  12  13
ATOM     13  C   UNL     1     -10.855 -28.226  27.932  1.00  0.00    -0.000 C 
BRANCH  13  14
ATOM     14  C   UNL     1     -11.896 -27.158  27.542  1.00  0.00    -0.000 C 
BRANCH  14  15
ATOM     15  C   UNL     1     -11.646 -26.500  26.168  1.00  0.00    -0.000 C 
BRANCH  15  16
ATOM     16  C   UNL     1     -10.949 -25.124  26.227  1.00  0.00    -0.000 C 
BRANCH  16  17
ATOM     17  C   UNL     1     -11.444 -24.083  25.202  1.00  0.00    -0.000 C 
BRANCH  17  18
ATOM     18  C   UNL     1     -11.767 -22.694  25.780  1.00  0.00    -0.003 C 
ATOM     19  C   UNL     1     -11.080 -22.431  27.119  1.00  0.00     0.004 C 
ENDBRANCH  17  18
ENDBRANCH  16  17
ENDBRANCH  15  16
ENDBRANCH  14  15
ENDBRANCH  13  14
ENDBRANCH  12  13
ENDBRANCH   1  12
TORSDOF 14
ENDMDL
MODEL 6
REMARK VINA RESULT:    -4.553      3.213      6.509
REMARK INTER + INTRA:         -10.684
REMARK INTER:                  -8.479
REMARK INTRA:                  -2.205
REMARK UNBOUND:                -2.406
REMARK SMILES CCCCCCCCCCCCCC[C@@H](C)C(=O)[O-]
REMARK SMILES IDX 9 1 10 2 11 3 12 4 13 5 14 6 15 7 16 8 17 9 18 10 19 11 8 12
REMARK SMILES IDX 7 13 6 14 5 15 4 16 3 17 2 18 1 19
REMARK H PARENT
REMARK Flexibility Score: inf
ROOT
ATOM      1  C   UNL     1      -8.333 -27.663  31.473  1.00  0.00     0.000 C 
ENDROOT
BRANCH   1   2
ATOM      2  C   UNL     1      -6.956 -27.535  30.803  1.00  0.00     0.000 C 
BRANCH   2   3
ATOM      3  C   UNL     1      -5.856 -28.295  31.559  1.00  0.00     0.000 C 
BRANCH   3   4
ATOM      4  C   UNL     1      -4.706 -27.358  31.943  1.00  0.00     0.000 C 
BRANCH   4   5
ATOM      5  C   UNL     1      -5.034 -25.903  31.581  1.00  0.00     0.001 C 
BRANCH   5   6
ATOM      6  C   UNL     1      -5.064 -24.955  32.798  1.00  0.00     0.009 C 
BRANCH   6   7
ATOM      7  C   UNL     1      -6.459 -24.478  33.274  1.00  0.00     0.032 C 
ATOM      8  C   UNL     1      -7.396 -24.126  32.107  1.00  0.00     0.014 C 
BRANCH   7   9
ATOM      9  C   UNL     1      -7.085 -25.439  34.257  1.00  0.00     0.044 C 
ATOM     10  O   UNL     1      -8.337 -25.567  34.338  1.00  0.00    -0.550 OA
ATOM     11  O   UNL     1      -6.272 -26.178  35.107  1.00  0.00    -0.550 OA
ENDBRANCH   7   9
ENDBRANCH   6   7
ENDBRANCH   5   6
ENDBRANCH   4   5
ENDBRANCH   3   4
ENDBRANCH   2   3
ENDBRANCH   1   2
BRANCH   1  12
ATOM     12  C   UNL     1      -9.495 -27.485  30.479  1.00  0.00     0.000 C 
BRANCH  12  13
ATOM     13  C   UNL     1     -10.199 -26.123  30.646  1.00  0.00    -0.000 C 
BRANCH  13  14
ATOM     14  C   UNL     1      -9.868 -25.107  29.535  1.00  0.00    -0.000 C 
BRANCH  14  15
ATOM     15  C   UNL     1      -9.087 -25.702  28.343  1.00  0.00    -0.000 C 
BRANCH  15  16
ATOM     16  C   UNL     1      -9.966 -26.199  27.177  1.00  0.00    -0.000 C 
BRANCH  16  17
ATOM     17  C   UNL     1      -9.849 -27.703  26.849  1.00  0.00    -0.000 C 
BRANCH  17  18
ATOM     18  C   UNL     1     -11.053 -28.562  27.267  1.00  0.00    -0.003 C 
ATOM     19  C   UNL     1     -12.194 -27.740  27.866  1.00  0.00     0.004 C 
ENDBRANCH  17  18
ENDBRANCH  16  17
ENDBRANCH  15  16
ENDBRANCH  14  15
ENDBRANCH  13  14
ENDBRANCH  12  13
ENDBRANCH   1  12
TORSDOF 14
ENDMDL
MODEL 7
REMARK VINA RESULT:    -4.539      1.265      3.048
REMARK INTER + INTRA:         -10.659
REMARK INTER:                  -8.613
REMARK INTRA:                  -2.045
REMARK UNBOUND:                -2.406
REMARK SMILES CCCCCCCCCCCCCC[C@@H](C)C(=O)[O-]
REMARK SMILES IDX 9 1 10 2 11 3 12 4 13 5 14 6 15 7 16 8 17 9 18 10 19 11 8 12
REMARK SMILES IDX 7 13 6 14 5 15 4 16 3 17 2 18 1 19
REMARK H PARENT
REMARK Flexibility Score: inf
ROOT
ATOM      1  C   UNL     1      -7.346 -24.200  31.850  1.00  0.00     0.000 C 
ENDROOT
BRANCH   1   2
ATOM      2  C   UNL     1      -8.814 -24.647  31.774  1.00  0.00     0.000 C 
BRANCH   2   3
ATOM      3  C   UNL     1      -9.232 -25.066  30.357  1.00  0.00     0.000 C 
BRANCH   3   4
ATOM      4  C   UNL     1     -10.216 -26.241  30.400  1.00  0.00     0.000 C 
BRANCH   4   5
ATOM      5  C   UNL     1      -9.654 -27.459  29.654  1.00  0.00     0.001 C 
BRANCH   5   6
ATOM      6  C   UNL     1      -9.047 -27.114  28.278  1.00  0.00     0.009 C 
BRANCH   6   7
ATOM      7  C   UNL     1      -9.977 -27.275  27.049  1.00  0.00     0.032 C 
ATOM      8  C   UNL     1     -11.062 -28.343  27.262  1.00  0.00     0.014 C 
BRANCH   7   9
ATOM      9  C   UNL     1     -10.540 -25.954  26.583  1.00  0.00     0.044 C 
ATOM     10  O   UNL     1     -11.570 -25.901  25.858  1.00  0.00    -0.550 OA
ATOM     11  O   UNL     1      -9.900 -24.772  26.936  1.00  0.00    -0.550 OA
ENDBRANCH   7   9
ENDBRANCH   6   7
ENDBRANCH   5   6
ENDBRANCH   4   5
ENDBRANCH   3   4
ENDBRANCH   2   3
ENDBRANCH   1   2
BRANCH   1  12
ATOM     12  C   UNL     1      -6.657 -24.647  33.152  1.00  0.00     0.000 C 
BRANCH  12  13
ATOM     13  C   UNL     1      -5.158 -24.945  32.945  1.00  0.00    -0.000 C 
BRANCH  13  14
ATOM     14  C   UNL     1      -4.825 -26.448  32.858  1.00  0.00    -0.000 C 
BRANCH  14  15
ATOM     15  C   UNL     1      -6.060 -27.365  32.721  1.00  0.00    -0.000 C 
BRANCH  15  16
ATOM     16  C   UNL     1      -6.202 -28.057  31.350  1.00  0.00    -0.000 C 
BRANCH  16  17
ATOM     17  C   UNL     1      -5.950 -27.158  30.121  1.00  0.00    -0.000 C 
BRANCH  17  18
ATOM     18  C   UNL     1      -4.752 -27.562  29.246  1.00  0.00    -0.003 C 
ATOM     19  C   UNL     1      -3.814 -28.550  29.939  1.00  0.00     0.004 C 
ENDBRANCH  17  18
ENDBRANCH  16  17
ENDBRANCH  15  16
ENDBRANCH  14  15
ENDBRANCH  13  14
ENDBRANCH  12  13
ENDBRANCH   1  12
TORSDOF 14
ENDMDL
MODEL 8
REMARK VINA RESULT:    -4.535      0.939      2.423
REMARK INTER + INTRA:         -10.653
REMARK INTER:                  -8.344
REMARK INTRA:                  -2.308
REMARK UNBOUND:                -2.406
REMARK SMILES CCCCCCCCCCCCCC[C@@H](C)C(=O)[O-]
REMARK SMILES IDX 9 1 10 2 11 3 12 4 13 5 14 6 15 7 16 8 17 9 18 10 19 11 8 12
REMARK SMILES IDX 7 13 6 14 5 15 4 16 3 17 2 18 1 19
REMARK H PARENT
REMARK Flexibility Score: inf
ROOT
ATOM      1  C   UNL     1      -6.748 -26.854  30.442  1.00  0.00     0.000 C 
ENDROOT
BRANCH   1   2
ATOM      2  C   UNL     1      -7.402 -27.699  31.546  1.00  0.00     0.000 C 
BRANCH   2   3
ATOM      3  C   UNL     1      -8.880 -28.005  31.261  1.00  0.00     0.000 C 
BRANCH   3   4
ATOM      4  C   UNL     1      -9.746 -26.754  31.454  1.00  0.00     0.000 C 
BRANCH   4   5
ATOM      5  C   UNL     1     -10.515 -26.412  30.170  1.00  0.00     0.001 C 
BRANCH   5   6
ATOM      6  C   UNL     1      -9.922 -25.217  29.395  1.00  0.00     0.009 C 
BRANCH   6   7
ATOM      7  C   UNL     1      -9.460 -25.492  27.941  1.00  0.00     0.032 C 
ATOM      8  C   UNL     1      -9.164 -26.978  27.683  1.00  0.00     0.014 C 
BRANCH   7   9
ATOM      9  C   UNL     1     -10.403 -24.899  26.922  1.00  0.00     0.044 C 
ATOM     10  O   UNL     1     -10.758 -25.550  25.903  1.00  0.00    -0.550 OA
ATOM     11  O   UNL     1     -10.872 -23.601  27.094  1.00  0.00    -0.550 OA
ENDBRANCH   7   9
ENDBRANCH   6   7
ENDBRANCH   5   6
ENDBRANCH   4   5
ENDBRANCH   3   4
ENDBRANCH   2   3
ENDBRANCH   1   2
BRANCH   1  12
ATOM     12  C   UNL     1      -5.912 -25.690  31.004  1.00  0.00     0.000 C 
BRANCH  12  13
ATOM     13  C   UNL     1      -6.784 -24.480  31.390  1.00  0.00    -0.000 C 
BRANCH  13  14
ATOM     14  C   UNL     1      -7.341 -24.542  32.826  1.00  0.00    -0.000 C 
BRANCH  14  15
ATOM     15  C   UNL     1      -6.336 -24.108  33.916  1.00  0.00    -0.000 C 
BRANCH  15  16
ATOM     16  C   UNL     1      -6.116 -25.139  35.041  1.00  0.00    -0.000 C 
BRANCH  16  17
ATOM     17  C   UNL     1      -5.566 -26.509  34.591  1.00  0.00    -0.000 C 
BRANCH  17  18
ATOM     18  C   UNL     1      -4.115 -26.499  34.083  1.00  0.00    -0.003 C 
ATOM     19  C   UNL     1      -3.760 -27.743  33.269  1.00  0.00     0.004 C 
ENDBRANCH  17  18
ENDBRANCH  16  17
ENDBRANCH  15  16
ENDBRANCH  14  15
ENDBRANCH  13  14
ENDBRANCH  12  13
ENDBRANCH   1  12
TORSDOF 14
ENDMDL
MODEL 9
REMARK VINA RESULT:    -4.472      1.235      2.528
REMARK INTER + INTRA:         -10.538
REMARK INTER:                  -8.061
REMARK INTRA:                  -2.477
REMARK UNBOUND:                -2.406
REMARK SMILES CCCCCCCCCCCCCC[C@@H](C)C(=O)[O-]
REMARK SMILES IDX 9 1 10 2 11 3 12 4 13 5 14 6 15 7 16 8 17 9 18 10 19 11 8 12
REMARK SMILES IDX 7 13 6 14 5 15 4 16 3 17 2 18 1 19
REMARK H PARENT
REMARK Flexibility Score: inf
ROOT
ATOM      1  C   UNL     1      -6.316 -25.909  30.926  1.00  0.00     0.000 C 
ENDROOT
BRANCH   1   2
ATOM      2  C   UNL     1      -6.978 -24.560  31.243  1.00  0.00     0.000 C 
BRANCH   2   3
ATOM      3  C   UNL     1      -8.368 -24.717  31.878  1.00  0.00     0.000 C 
BRANCH   3   4
ATOM      4  C   UNL     1      -9.470 -24.620  30.817  1.00  0.00     0.000 C 
BRANCH   4   5
ATOM      5  C   UNL     1     -10.356 -25.873  30.825  1.00  0.00     0.001 C 
BRANCH   5   6
ATOM      6  C   UNL     1     -10.208 -26.742  29.558  1.00  0.00     0.009 C 
BRANCH   6   7
ATOM      7  C   UNL     1      -9.211 -26.238  28.484  1.00  0.00     0.032 C 
ATOM      8  C   UNL     1      -8.159 -27.294  28.108  1.00  0.00     0.014 C 
BRANCH   7   9
ATOM      9  C   UNL     1      -9.915 -25.660  27.279  1.00  0.00     0.044 C 
ATOM     10  O   UNL     1     -10.163 -24.428  27.196  1.00  0.00    -0.550 OA
ATOM     11  O   UNL     1     -10.322 -26.504  26.252  1.00  0.00    -0.550 OA
ENDBRANCH   7   9
ENDBRANCH   6   7
ENDBRANCH   5   6
ENDBRANCH   4   5
ENDBRANCH   3   4
ENDBRANCH   2   3
ENDBRANCH   1   2
BRANCH   1  12
ATOM     12  C   UNL     1      -6.991 -27.087  31.651  1.00  0.00     0.000 C 
BRANCH  12  13
ATOM     13  C   UNL     1      -6.157 -28.380  31.563  1.00  0.00    -0.000 C 
BRANCH  13  14
ATOM     14  C   UNL     1      -4.874 -28.242  30.720  1.00  0.00    -0.000 C 
BRANCH  14  15
ATOM     15  C   UNL     1      -3.588 -28.039  31.550  1.00  0.00    -0.000 C 
BRANCH  15  16
ATOM     16  C   UNL     1      -3.657 -28.581  32.993  1.00  0.00    -0.000 C 
BRANCH  16  17
ATOM     17  C   UNL     1      -3.454 -27.534  34.108  1.00  0.00    -0.000 C 
BRANCH  17  18
ATOM     18  C   UNL     1      -3.886 -26.102  33.752  1.00  0.00    -0.003 C 
ATOM     19  C   UNL     1      -5.138 -25.652  34.504  1.00  0.00     0.004 C 
ENDBRANCH  17  18
ENDBRANCH  16  17
ENDBRANCH  15  16
ENDBRANCH  14  15
ENDBRANCH  13  14
ENDBRANCH  12  13
ENDBRANCH   1  12
TORSDOF 14
ENDMDL
