MODEL 1
REMARK VINA RESULT:    -7.517      0.000      0.000
REMARK INTER + INTRA:          -9.484
REMARK INTER:                  -9.274
REMARK INTRA:                  -0.210
REMARK UNBOUND:                -0.210
REMARK SMILES O=c1c(O)c(-c2cc(O)c(O)c(O)c2)oc2cc(O)cc(O)c12
REMARK SMILES IDX 5 1 3 2 2 3 1 4 23 5 21 6 20 7 18 8 17 9 16 10 15 11 6 12
REMARK SMILES IDX 7 13 8 14 14 15 10 16 12 17 9 18 11 20 13 22 4 24 22 26
REMARK SMILES IDX 19 28
REMARK H PARENT 9 19 11 21 13 23 4 25 22 27 19 29
REMARK Flexibility Score: inf
ROOT
ATOM      1  C   UNL     1      42.214  -0.344  17.552  1.00  0.00     0.180 A 
ATOM      2  C   UNL     1      41.972  -0.487  16.175  1.00  0.00     0.208 A 
ATOM      3  C   UNL     1      41.874  -1.778  15.632  1.00  0.00     0.238 A 
ATOM      4  O   UNL     1      41.711  -1.901  14.390  1.00  0.00    -0.285 OA
ATOM      5  C   UNL     1      42.001  -2.909  16.475  1.00  0.00     0.111 A 
ATOM      6  C   UNL     1      41.878  -4.262  16.038  1.00  0.00     0.134 A 
ATOM      7  C   UNL     1      42.154  -5.303  16.933  1.00  0.00     0.093 A 
ATOM      8  C   UNL     1      42.483  -5.041  18.265  1.00  0.00     0.123 A 
ATOM      9  C   UNL     1      42.546  -3.724  18.716  1.00  0.00     0.094 A 
ATOM     10  C   UNL     1      42.313  -2.663  17.837  1.00  0.00     0.146 A 
ATOM     11  O   UNL     1      42.395  -1.423  18.304  1.00  0.00    -0.452 OA
ENDROOT
BRANCH   1  12
ATOM     12  C   UNL     1      42.305   0.983  18.202  1.00  0.00     0.029 A 
ATOM     13  C   UNL     1      43.495   1.356  18.848  1.00  0.00     0.062 A 
ATOM     14  C   UNL     1      43.602   2.595  19.486  1.00  0.00     0.162 A 
ATOM     15  C   UNL     1      41.207   1.859  18.236  1.00  0.00     0.062 A 
ATOM     16  C   UNL     1      42.507   3.476  19.499  1.00  0.00     0.200 A 
ATOM     17  C   UNL     1      41.305   3.103  18.875  1.00  0.00     0.162 A 
BRANCH  14  18
ATOM     18  O   UNL     1      44.806   2.934  20.104  1.00  0.00    -0.504 OA
ATOM     19  H   UNL     1      45.233   3.845  19.989  1.00  0.00     0.293 HD
ENDBRANCH  14  18
BRANCH  16  20
ATOM     20  O   UNL     1      42.624   4.712  20.137  1.00  0.00    -0.502 OA
ATOM     21  H   UNL     1      43.028   4.807  21.061  1.00  0.00     0.293 HD
ENDBRANCH  16  20
BRANCH  17  22
ATOM     22  O   UNL     1      40.211   3.965  18.897  1.00  0.00    -0.504 OA
ATOM     23  H   UNL     1      39.513   3.958  18.161  1.00  0.00     0.293 HD
ENDBRANCH  17  22
ENDBRANCH   1  12
BRANCH   2  24
ATOM     24  O   UNL     1      41.871   0.642  15.358  1.00  0.00    -0.502 OA
ATOM     25  H   UNL     1      42.104   1.572  15.684  1.00  0.00     0.293 HD
ENDBRANCH   2  24
BRANCH   6  26
ATOM     26  O   UNL     1      41.467  -4.635  14.755  1.00  0.00    -0.507 OA
ATOM     27  H   UNL     1      41.106  -3.999  14.061  1.00  0.00     0.293 HD
ENDBRANCH   6  26
BRANCH   8  28
ATOM     28  O   UNL     1      42.739  -6.083  19.154  1.00  0.00    -0.508 OA
ATOM     29  H   UNL     1      42.019  -6.749  19.410  1.00  0.00     0.293 HD
ENDBRANCH   8  28
TORSDOF 7
ENDMDL
MODEL 2
REMARK VINA RESULT:    -7.360      1.583      6.805
REMARK INTER + INTRA:          -9.291
REMARK INTER:                  -9.241
REMARK INTRA:                  -0.049
REMARK UNBOUND:                -0.210
REMARK SMILES O=c1c(O)c(-c2cc(O)c(O)c(O)c2)oc2cc(O)cc(O)c12
REMARK SMILES IDX 5 1 3 2 2 3 1 4 23 5 21 6 20 7 18 8 17 9 16 10 15 11 6 12
REMARK SMILES IDX 7 13 8 14 14 15 10 16 12 17 9 18 11 20 13 22 4 24 22 26
REMARK SMILES IDX 19 28
REMARK H PARENT 9 19 11 21 13 23 4 25 22 27 19 29
REMARK Flexibility Score: inf
ROOT
ATOM      1  C   UNL     1      42.169   0.251  18.010  1.00  0.00     0.180 A 
ATOM      2  C   UNL     1      41.663   1.511  17.645  1.00  0.00     0.208 A 
ATOM      3  C   UNL     1      41.960   2.622  18.450  1.00  0.00     0.238 A 
ATOM      4  O   UNL     1      41.460   3.737  18.150  1.00  0.00    -0.285 OA
ATOM      5  C   UNL     1      42.772   2.464  19.599  1.00  0.00     0.111 A 
ATOM      6  C   UNL     1      43.169   3.528  20.464  1.00  0.00     0.134 A 
ATOM      7  C   UNL     1      43.864   3.235  21.644  1.00  0.00     0.093 A 
ATOM      8  C   UNL     1      44.233   1.925  21.957  1.00  0.00     0.123 A 
ATOM      9  C   UNL     1      43.902   0.887  21.089  1.00  0.00     0.094 A 
ATOM     10  C   UNL     1      43.177   1.142  19.923  1.00  0.00     0.146 A 
ATOM     11  O   UNL     1      42.872   0.123  19.129  1.00  0.00    -0.452 OA
ENDROOT
BRANCH   1  12
ATOM     12  C   UNL     1      41.920  -0.962  17.198  1.00  0.00     0.029 A 
ATOM     13  C   UNL     1      42.216  -0.947  15.826  1.00  0.00     0.062 A 
ATOM     14  C   UNL     1      41.972  -2.071  15.031  1.00  0.00     0.162 A 
ATOM     15  C   UNL     1      41.340  -2.112  17.759  1.00  0.00     0.062 A 
ATOM     16  C   UNL     1      41.411  -3.226  15.601  1.00  0.00     0.200 A 
ATOM     17  C   UNL     1      41.090  -3.243  16.969  1.00  0.00     0.162 A 
BRANCH  14  18
ATOM     18  O   UNL     1      42.293  -2.021  13.674  1.00  0.00    -0.504 OA
ATOM     19  H   UNL     1      42.879  -1.292  13.285  1.00  0.00     0.293 HD
ENDBRANCH  14  18
BRANCH  16  20
ATOM     20  O   UNL     1      41.173  -4.345  14.801  1.00  0.00    -0.502 OA
ATOM     21  H   UNL     1      40.246  -4.734  14.678  1.00  0.00     0.293 HD
ENDBRANCH  16  20
BRANCH  17  22
ATOM     22  O   UNL     1      40.520  -4.380  17.538  1.00  0.00    -0.504 OA
ATOM     23  H   UNL     1      40.900  -5.305  17.371  1.00  0.00     0.293 HD
ENDBRANCH  17  22
ENDBRANCH   1  12
BRANCH   2  24
ATOM     24  O   UNL     1      40.846   1.642  16.519  1.00  0.00    -0.502 OA
ATOM     25  H   UNL     1      40.055   1.032  16.347  1.00  0.00     0.293 HD
ENDBRANCH   2  24
BRANCH   6  26
ATOM     26  O   UNL     1      42.931   4.880  20.198  1.00  0.00    -0.507 OA
ATOM     27  H   UNL     1      43.316   5.388  19.417  1.00  0.00     0.293 HD
ENDBRANCH   6  26
BRANCH   8  28
ATOM     28  O   UNL     1      44.939   1.644  23.125  1.00  0.00    -0.508 OA
ATOM     29  H   UNL     1      45.571   2.321  23.537  1.00  0.00     0.293 HD
ENDBRANCH   8  28
TORSDOF 7
ENDMDL
MODEL 3
REMARK VINA RESULT:    -7.346      1.519      6.799
REMARK INTER + INTRA:          -9.274
REMARK INTER:                  -9.212
REMARK INTRA:                  -0.061
REMARK UNBOUND:                -0.210
REMARK SMILES O=c1c(O)c(-c2cc(O)c(O)c(O)c2)oc2cc(O)cc(O)c12
REMARK SMILES IDX 5 1 3 2 2 3 1 4 23 5 21 6 20 7 18 8 17 9 16 10 15 11 6 12
REMARK SMILES IDX 7 13 8 14 14 15 10 16 12 17 9 18 11 20 13 22 4 24 22 26
REMARK SMILES IDX 19 28
REMARK H PARENT 9 19 11 21 13 23 4 25 22 27 19 29
REMARK Flexibility Score: inf
ROOT
ATOM      1  C   UNL     1      42.068   0.134  17.817  1.00  0.00     0.180 A 
ATOM      2  C   UNL     1      41.615   1.389  17.373  1.00  0.00     0.208 A 
ATOM      3  C   UNL     1      41.946   2.533  18.116  1.00  0.00     0.238 A 
ATOM      4  O   UNL     1      41.493   3.646  17.745  1.00  0.00    -0.285 OA
ATOM      5  C   UNL     1      42.740   2.411  19.283  1.00  0.00     0.111 A 
ATOM      6  C   UNL     1      43.168   3.508  20.089  1.00  0.00     0.134 A 
ATOM      7  C   UNL     1      43.839   3.258  21.293  1.00  0.00     0.093 A 
ATOM      8  C   UNL     1      44.153   1.956  21.686  1.00  0.00     0.123 A 
ATOM      9  C   UNL     1      43.791   0.882  20.876  1.00  0.00     0.094 A 
ATOM     10  C   UNL     1      43.089   1.096  19.688  1.00  0.00     0.146 A 
ATOM     11  O   UNL     1      42.753   0.045  18.951  1.00  0.00    -0.452 OA
ENDROOT
BRANCH   1  12
ATOM     12  C   UNL     1      41.781  -1.114  17.074  1.00  0.00     0.029 A 
ATOM     13  C   UNL     1      41.291  -2.234  17.766  1.00  0.00     0.062 A 
ATOM     14  C   UNL     1      41.031  -3.431  17.094  1.00  0.00     0.162 A 
ATOM     15  C   UNL     1      42.041  -1.223  15.698  1.00  0.00     0.062 A 
ATOM     16  C   UNL     1      41.273  -3.529  15.713  1.00  0.00     0.200 A 
ATOM     17  C   UNL     1      41.785  -2.421  15.015  1.00  0.00     0.162 A 
BRANCH  14  18
ATOM     18  O   UNL     1      40.531  -4.516  17.815  1.00  0.00    -0.504 OA
ATOM     19  H   UNL     1      39.551  -4.598  18.054  1.00  0.00     0.293 HD
ENDBRANCH  14  18
BRANCH  16  20
ATOM     20  O   UNL     1      41.008  -4.727  15.049  1.00  0.00    -0.502 OA
ATOM     21  H   UNL     1      41.745  -5.309  14.669  1.00  0.00     0.293 HD
ENDBRANCH  16  20
BRANCH  17  22
ATOM     22  O   UNL     1      42.041  -2.515  13.648  1.00  0.00    -0.504 OA
ATOM     23  H   UNL     1      41.307  -2.390  12.960  1.00  0.00     0.293 HD
ENDBRANCH  17  22
ENDBRANCH   1  12
BRANCH   2  24
ATOM     24  O   UNL     1      40.816   1.484  16.231  1.00  0.00    -0.502 OA
ATOM     25  H   UNL     1      40.270   0.705  15.883  1.00  0.00     0.293 HD
ENDBRANCH   2  24
BRANCH   6  26
ATOM     26  O   UNL     1      42.986   4.850  19.742  1.00  0.00    -0.507 OA
ATOM     27  H   UNL     1      42.525   5.535  20.322  1.00  0.00     0.293 HD
ENDBRANCH   6  26
BRANCH   8  28
ATOM     28  O   UNL     1      44.835   1.717  22.878  1.00  0.00    -0.508 OA
ATOM     29  H   UNL     1      44.636   0.903  23.447  1.00  0.00     0.293 HD
ENDBRANCH   8  28
TORSDOF 7
ENDMDL
MODEL 4
REMARK VINA RESULT:    -7.289      1.692      6.655
REMARK INTER + INTRA:          -9.204
REMARK INTER:                  -9.645
REMARK INTRA:                   0.442
REMARK UNBOUND:                -0.210
REMARK SMILES O=c1c(O)c(-c2cc(O)c(O)c(O)c2)oc2cc(O)cc(O)c12
REMARK SMILES IDX 5 1 3 2 2 3 1 4 23 5 21 6 20 7 18 8 17 9 16 10 15 11 6 12
REMARK SMILES IDX 7 13 8 14 14 15 10 16 12 17 9 18 11 20 13 22 4 24 22 26
REMARK SMILES IDX 19 28
REMARK H PARENT 9 19 11 21 13 23 4 25 22 27 19 29
REMARK Flexibility Score: inf
ROOT
ATOM      1  C   UNL     1      42.379  -2.538  17.042  1.00  0.00     0.180 A 
ATOM      2  C   UNL     1      42.109  -2.544  15.662  1.00  0.00     0.208 A 
ATOM      3  C   UNL     1      41.750  -1.341  15.035  1.00  0.00     0.238 A 
ATOM      4  O   UNL     1      41.456  -1.361  13.811  1.00  0.00    -0.285 OA
ATOM      5  C   UNL     1      41.682  -0.144  15.789  1.00  0.00     0.111 A 
ATOM      6  C   UNL     1      41.368   1.138  15.248  1.00  0.00     0.134 A 
ATOM      7  C   UNL     1      41.201   2.229  16.111  1.00  0.00     0.093 A 
ATOM      8  C   UNL     1      41.400   2.097  17.487  1.00  0.00     0.123 A 
ATOM      9  C   UNL     1      41.766   0.862  18.018  1.00  0.00     0.094 A 
ATOM     10  C   UNL     1      41.904  -0.253  17.187  1.00  0.00     0.146 A 
ATOM     11  O   UNL     1      42.242  -1.414  17.735  1.00  0.00    -0.452 OA
ENDROOT
BRANCH   1  12
ATOM     12  C   UNL     1      42.788  -3.762  17.769  1.00  0.00     0.029 A 
ATOM     13  C   UNL     1      43.064  -3.689  19.144  1.00  0.00     0.062 A 
ATOM     14  C   UNL     1      43.472  -4.824  19.850  1.00  0.00     0.162 A 
ATOM     15  C   UNL     1      42.963  -4.986  17.101  1.00  0.00     0.062 A 
ATOM     16  C   UNL     1      43.625  -6.051  19.183  1.00  0.00     0.200 A 
ATOM     17  C   UNL     1      43.373  -6.129  17.802  1.00  0.00     0.162 A 
BRANCH  14  18
ATOM     18  O   UNL     1      43.722  -4.713  21.218  1.00  0.00    -0.504 OA
ATOM     19  H   UNL     1      43.314  -3.978  21.784  1.00  0.00     0.293 HD
ENDBRANCH  14  18
BRANCH  16  20
ATOM     20  O   UNL     1      44.030  -7.179  19.897  1.00  0.00    -0.502 OA
ATOM     21  H   UNL     1      44.408  -7.118  20.835  1.00  0.00     0.293 HD
ENDBRANCH  16  20
BRANCH  17  22
ATOM     22  O   UNL     1      43.537  -7.339  17.131  1.00  0.00    -0.504 OA
ATOM     23  H   UNL     1      43.673  -7.375  16.126  1.00  0.00     0.293 HD
ENDBRANCH  17  22
ENDBRANCH   1  12
BRANCH   2  24
ATOM     24  O   UNL     1      42.161  -3.739  14.940  1.00  0.00    -0.502 OA
ATOM     25  H   UNL     1      41.356  -4.344  14.831  1.00  0.00     0.293 HD
ENDBRANCH   2  24
BRANCH   6  26
ATOM     26  O   UNL     1      41.238   1.398  13.881  1.00  0.00    -0.507 OA
ATOM     27  H   UNL     1      41.967   1.259  13.198  1.00  0.00     0.293 HD
ENDBRANCH   6  26
BRANCH   8  28
ATOM     28  O   UNL     1      41.247   3.191  18.336  1.00  0.00    -0.508 OA
ATOM     29  H   UNL     1      41.833   3.311  19.155  1.00  0.00     0.293 HD
ENDBRANCH   8  28
TORSDOF 7
ENDMDL
MODEL 5
REMARK VINA RESULT:    -7.019      2.863      5.267
REMARK INTER + INTRA:          -8.871
REMARK INTER:                  -9.312
REMARK INTRA:                   0.442
REMARK UNBOUND:                -0.210
REMARK SMILES O=c1c(O)c(-c2cc(O)c(O)c(O)c2)oc2cc(O)cc(O)c12
REMARK SMILES IDX 5 1 3 2 2 3 1 4 23 5 21 6 20 7 18 8 17 9 16 10 15 11 6 12
REMARK SMILES IDX 7 13 8 14 14 15 10 16 12 17 9 18 11 20 13 22 4 24 22 26
REMARK SMILES IDX 19 28
REMARK H PARENT 9 19 11 21 13 23 4 25 22 27 19 29
REMARK Flexibility Score: inf
ROOT
ATOM      1  C   UNL     1      42.565   1.528  19.860  1.00  0.00     0.180 A 
ATOM      2  C   UNL     1      42.022   2.772  19.491  1.00  0.00     0.208 A 
ATOM      3  C   UNL     1      41.505   2.930  18.196  1.00  0.00     0.238 A 
ATOM      4  O   UNL     1      41.069   4.060  17.852  1.00  0.00    -0.285 OA
ATOM      5  C   UNL     1      41.519   1.840  17.292  1.00  0.00     0.111 A 
ATOM      6  C   UNL     1      40.985   1.877  15.969  1.00  0.00     0.134 A 
ATOM      7  C   UNL     1      41.172   0.781  15.118  1.00  0.00     0.093 A 
ATOM      8  C   UNL     1      41.818  -0.375  15.564  1.00  0.00     0.123 A 
ATOM      9  C   UNL     1      42.291  -0.443  16.873  1.00  0.00     0.094 A 
ATOM     10  C   UNL     1      42.151   0.648  17.734  1.00  0.00     0.146 A 
ATOM     11  O   UNL     1      42.626   0.546  18.969  1.00  0.00    -0.452 OA
ENDROOT
BRANCH   1  12
ATOM     12  C   UNL     1      43.107   1.278  21.215  1.00  0.00     0.029 A 
ATOM     13  C   UNL     1      43.639   0.015  21.523  1.00  0.00     0.062 A 
ATOM     14  C   UNL     1      44.138  -0.256  22.800  1.00  0.00     0.162 A 
ATOM     15  C   UNL     1      43.050   2.258  22.219  1.00  0.00     0.062 A 
ATOM     16  C   UNL     1      44.098   0.735  23.796  1.00  0.00     0.200 A 
ATOM     17  C   UNL     1      43.547   1.995  23.503  1.00  0.00     0.162 A 
BRANCH  14  18
ATOM     18  O   UNL     1      44.671  -1.518  23.063  1.00  0.00    -0.504 OA
ATOM     19  H   UNL     1      45.386  -1.934  22.478  1.00  0.00     0.293 HD
ENDBRANCH  14  18
BRANCH  16  20
ATOM     20  O   UNL     1      44.602   0.457  25.067  1.00  0.00    -0.502 OA
ATOM     21  H   UNL     1      44.475   1.089  25.849  1.00  0.00     0.293 HD
ENDBRANCH  16  20
BRANCH  17  22
ATOM     22  O   UNL     1      43.491   2.977  24.490  1.00  0.00    -0.504 OA
ATOM     23  H   UNL     1      42.635   3.485  24.686  1.00  0.00     0.293 HD
ENDBRANCH  17  22
ENDBRANCH   1  12
BRANCH   2  24
ATOM     24  O   UNL     1      42.037   3.841  20.391  1.00  0.00    -0.502 OA
ATOM     25  H   UNL     1      42.134   3.708  21.390  1.00  0.00     0.293 HD
ENDBRANCH   2  24
BRANCH   6  26
ATOM     26  O   UNL     1      40.244   2.946  15.456  1.00  0.00    -0.507 OA
ATOM     27  H   UNL     1      39.359   3.260  15.823  1.00  0.00     0.293 HD
ENDBRANCH   6  26
BRANCH   8  28
ATOM     28  O   UNL     1      41.986  -1.468  14.716  1.00  0.00    -0.508 OA
ATOM     29  H   UNL     1      41.193  -1.992  14.364  1.00  0.00     0.293 HD
ENDBRANCH   8  28
TORSDOF 7
ENDMDL
MODEL 6
REMARK VINA RESULT:    -6.763      3.297      6.054
REMARK INTER + INTRA:          -8.555
REMARK INTER:                  -8.187
REMARK INTRA:                  -0.368
REMARK UNBOUND:                -0.210
REMARK SMILES O=c1c(O)c(-c2cc(O)c(O)c(O)c2)oc2cc(O)cc(O)c12
REMARK SMILES IDX 5 1 3 2 2 3 1 4 23 5 21 6 20 7 18 8 17 9 16 10 15 11 6 12
REMARK SMILES IDX 7 13 8 14 14 15 10 16 12 17 9 18 11 20 13 22 4 24 22 26
REMARK SMILES IDX 19 28
REMARK H PARENT 9 19 11 21 13 23 4 25 22 27 19 29
REMARK Flexibility Score: inf
ROOT
ATOM      1  C   UNL     1      40.931  -5.386  17.258  1.00  0.00     0.180 A 
ATOM      2  C   UNL     1      39.618  -5.852  17.450  1.00  0.00     0.208 A 
ATOM      3  C   UNL     1      39.423  -7.101  18.061  1.00  0.00     0.238 A 
ATOM      4  O   UNL     1      38.249  -7.539  18.182  1.00  0.00    -0.285 OA
ATOM      5  C   UNL     1      40.540  -7.859  18.489  1.00  0.00     0.111 A 
ATOM      6  C   UNL     1      40.457  -9.118  19.156  1.00  0.00     0.134 A 
ATOM      7  C   UNL     1      41.629  -9.840  19.415  1.00  0.00     0.093 A 
ATOM      8  C   UNL     1      42.884  -9.319  19.090  1.00  0.00     0.123 A 
ATOM      9  C   UNL     1      42.978  -8.064  18.493  1.00  0.00     0.094 A 
ATOM     10  C   UNL     1      41.825  -7.336  18.189  1.00  0.00     0.146 A 
ATOM     11  O   UNL     1      41.959  -6.149  17.609  1.00  0.00    -0.452 OA
ENDROOT
BRANCH   1  12
ATOM     12  C   UNL     1      41.215  -4.069  16.644  1.00  0.00     0.029 A 
ATOM     13  C   UNL     1      41.491  -3.993  15.269  1.00  0.00     0.062 A 
ATOM     14  C   UNL     1      41.784  -2.766  14.667  1.00  0.00     0.162 A 
ATOM     15  C   UNL     1      41.273  -2.898  17.417  1.00  0.00     0.062 A 
ATOM     16  C   UNL     1      41.819  -1.594  15.441  1.00  0.00     0.200 A 
ATOM     17  C   UNL     1      41.567  -1.663  16.822  1.00  0.00     0.162 A 
BRANCH  14  18
ATOM     18  O   UNL     1      42.038  -2.731  13.296  1.00  0.00    -0.504 OA
ATOM     19  H   UNL     1      41.495  -2.158  12.661  1.00  0.00     0.293 HD
ENDBRANCH  14  18
BRANCH  16  20
ATOM     20  O   UNL     1      42.109  -0.372  14.831  1.00  0.00    -0.502 OA
ATOM     21  H   UNL     1      42.137  -0.265  13.824  1.00  0.00     0.293 HD
ENDBRANCH  16  20
BRANCH  17  22
ATOM     22  O   UNL     1      41.615  -0.506  17.598  1.00  0.00    -0.504 OA
ATOM     23  H   UNL     1      40.924  -0.320  18.317  1.00  0.00     0.293 HD
ENDBRANCH  17  22
ENDBRANCH   1  12
BRANCH   2  24
ATOM     24  O   UNL     1      38.531  -5.098  17.001  1.00  0.00    -0.502 OA
ATOM     25  H   UNL     1      38.633  -4.336  16.343  1.00  0.00     0.293 HD
ENDBRANCH   2  24
BRANCH   6  26
ATOM     26  O   UNL     1      39.262  -9.687  19.605  1.00  0.00    -0.507 OA
ATOM     27  H   UNL     1      38.700  -9.322  20.359  1.00  0.00     0.293 HD
ENDBRANCH   6  26
BRANCH   8  28
ATOM     28  O   UNL     1      44.046 -10.037  19.366  1.00  0.00    -0.508 OA
ATOM     29  H   UNL     1      44.235 -10.928  18.923  1.00  0.00     0.293 HD
ENDBRANCH   8  28
TORSDOF 7
ENDMDL
MODEL 7
REMARK VINA RESULT:    -6.753      3.034      5.796
REMARK INTER + INTRA:          -8.542
REMARK INTER:                  -8.190
REMARK INTRA:                  -0.351
REMARK UNBOUND:                -0.210
REMARK SMILES O=c1c(O)c(-c2cc(O)c(O)c(O)c2)oc2cc(O)cc(O)c12
REMARK SMILES IDX 5 1 3 2 2 3 1 4 23 5 21 6 20 7 18 8 17 9 16 10 15 11 6 12
REMARK SMILES IDX 7 13 8 14 14 15 10 16 12 17 9 18 11 20 13 22 4 24 22 26
REMARK SMILES IDX 19 28
REMARK H PARENT 9 19 11 21 13 23 4 25 22 27 19 29
REMARK Flexibility Score: inf
ROOT
ATOM      1  C   UNL     1      41.585  -4.858  17.315  1.00  0.00     0.180 A 
ATOM      2  C   UNL     1      42.728  -5.459  17.871  1.00  0.00     0.208 A 
ATOM      3  C   UNL     1      42.608  -6.722  18.471  1.00  0.00     0.238 A 
ATOM      4  O   UNL     1      43.622  -7.232  19.015  1.00  0.00    -0.285 OA
ATOM      5  C   UNL     1      41.353  -7.376  18.493  1.00  0.00     0.111 A 
ATOM      6  C   UNL     1      41.125  -8.675  19.038  1.00  0.00     0.134 A 
ATOM      7  C   UNL     1      39.817  -9.169  19.124  1.00  0.00     0.093 A 
ATOM      8  C   UNL     1      38.737  -8.437  18.624  1.00  0.00     0.123 A 
ATOM      9  C   UNL     1      38.957  -7.194  18.035  1.00  0.00     0.094 A 
ATOM     10  C   UNL     1      40.245  -6.659  17.969  1.00  0.00     0.146 A 
ATOM     11  O   UNL     1      40.409  -5.467  17.410  1.00  0.00    -0.452 OA
ENDROOT
BRANCH   1  12
ATOM     12  C   UNL     1      41.637  -3.539  16.643  1.00  0.00     0.029 A 
ATOM     13  C   UNL     1      41.856  -3.478  15.258  1.00  0.00     0.062 A 
ATOM     14  C   UNL     1      41.931  -2.246  14.601  1.00  0.00     0.162 A 
ATOM     15  C   UNL     1      41.530  -2.342  17.371  1.00  0.00     0.062 A 
ATOM     16  C   UNL     1      41.801  -1.052  15.330  1.00  0.00     0.200 A 
ATOM     17  C   UNL     1      41.605  -1.102  16.721  1.00  0.00     0.162 A 
BRANCH  14  18
ATOM     18  O   UNL     1      42.135  -2.228  13.221  1.00  0.00    -0.504 OA
ATOM     19  H   UNL     1      42.990  -1.880  12.807  1.00  0.00     0.293 HD
ENDBRANCH  14  18
BRANCH  16  20
ATOM     20  O   UNL     1      41.874   0.173  14.666  1.00  0.00    -0.502 OA
ATOM     21  H   UNL     1      41.171   0.893  14.782  1.00  0.00     0.293 HD
ENDBRANCH  16  20
BRANCH  17  22
ATOM     22  O   UNL     1      41.491   0.079  17.452  1.00  0.00    -0.504 OA
ATOM     23  H   UNL     1      40.594   0.408  17.792  1.00  0.00     0.293 HD
ENDBRANCH  17  22
ENDBRANCH   1  12
BRANCH   2  24
ATOM     24  O   UNL     1      43.953  -4.786  17.857  1.00  0.00    -0.502 OA
ATOM     25  H   UNL     1      44.554  -4.767  17.042  1.00  0.00     0.293 HD
ENDBRANCH   2  24
BRANCH   6  26
ATOM     26  O   UNL     1      42.143  -9.525  19.482  1.00  0.00    -0.507 OA
ATOM     27  H   UNL     1      42.819  -9.973  18.882  1.00  0.00     0.293 HD
ENDBRANCH   6  26
BRANCH   8  28
ATOM     28  O   UNL     1      37.441  -8.943  18.698  1.00  0.00    -0.508 OA
ATOM     29  H   UNL     1      37.049  -9.506  17.952  1.00  0.00     0.293 HD
ENDBRANCH   8  28
TORSDOF 7
ENDMDL
MODEL 8
REMARK VINA RESULT:    -6.639      2.877      8.131
REMARK INTER + INTRA:          -8.402
REMARK INTER:                  -8.034
REMARK INTRA:                  -0.368
REMARK UNBOUND:                -0.210
REMARK SMILES O=c1c(O)c(-c2cc(O)c(O)c(O)c2)oc2cc(O)cc(O)c12
REMARK SMILES IDX 5 1 3 2 2 3 1 4 23 5 21 6 20 7 18 8 17 9 16 10 15 11 6 12
REMARK SMILES IDX 7 13 8 14 14 15 10 16 12 17 9 18 11 20 13 22 4 24 22 26
REMARK SMILES IDX 19 28
REMARK H PARENT 9 19 11 21 13 23 4 25 22 27 19 29
REMARK Flexibility Score: inf
ROOT
ATOM      1  C   UNL     1      41.001  -5.513  16.887  1.00  0.00     0.180 A 
ATOM      2  C   UNL     1      41.240  -5.574  15.502  1.00  0.00     0.208 A 
ATOM      3  C   UNL     1      41.573  -4.394  14.818  1.00  0.00     0.238 A 
ATOM      4  O   UNL     1      41.732  -4.443  13.571  1.00  0.00    -0.285 OA
ATOM      5  C   UNL     1      41.681  -3.173  15.527  1.00  0.00     0.111 A 
ATOM      6  C   UNL     1      42.051  -1.926  14.941  1.00  0.00     0.134 A 
ATOM      7  C   UNL     1      41.998  -0.758  15.713  1.00  0.00     0.093 A 
ATOM      8  C   UNL     1      41.650  -0.803  17.065  1.00  0.00     0.123 A 
ATOM      9  C   UNL     1      41.344  -2.024  17.661  1.00  0.00     0.094 A 
ATOM     10  C   UNL     1      41.353  -3.201  16.908  1.00  0.00     0.146 A 
ATOM     11  O   UNL     1      41.044  -4.342  17.512  1.00  0.00    -0.452 OA
ENDROOT
BRANCH   1  12
ATOM     12  C   UNL     1      40.670  -6.718  17.681  1.00  0.00     0.029 A 
ATOM     13  C   UNL     1      39.324  -7.031  17.933  1.00  0.00     0.062 A 
ATOM     14  C   UNL     1      38.983  -8.150  18.697  1.00  0.00     0.162 A 
ATOM     15  C   UNL     1      41.674  -7.526  18.239  1.00  0.00     0.062 A 
ATOM     16  C   UNL     1      39.991  -8.968  19.236  1.00  0.00     0.200 A 
ATOM     17  C   UNL     1      41.341  -8.650  19.009  1.00  0.00     0.162 A 
BRANCH  14  18
ATOM     18  O   UNL     1      37.634  -8.435  18.912  1.00  0.00    -0.504 OA
ATOM     19  H   UNL     1      37.173  -8.230  19.790  1.00  0.00     0.293 HD
ENDBRANCH  14  18
BRANCH  16  20
ATOM     20  O   UNL     1      39.641 -10.085  19.995  1.00  0.00    -0.502 OA
ATOM     21  H   UNL     1      40.230 -10.908  20.048  1.00  0.00     0.293 HD
ENDBRANCH  16  20
BRANCH  17  22
ATOM     22  O   UNL     1      42.346  -9.448  19.552  1.00  0.00    -0.504 OA
ATOM     23  H   UNL     1      42.530 -10.382  19.202  1.00  0.00     0.293 HD
ENDBRANCH  17  22
ENDBRANCH   1  12
BRANCH   2  24
ATOM     24  O   UNL     1      41.108  -6.785  14.818  1.00  0.00    -0.502 OA
ATOM     25  H   UNL     1      41.199  -6.854  13.812  1.00  0.00     0.293 HD
ENDBRANCH   2  24
BRANCH   6  26
ATOM     26  O   UNL     1      42.502  -1.784  13.626  1.00  0.00    -0.507 OA
ATOM     27  H   UNL     1      43.110  -1.047  13.303  1.00  0.00     0.293 HD
ENDBRANCH   6  26
BRANCH   8  28
ATOM     28  O   UNL     1      41.614   0.362  17.829  1.00  0.00    -0.508 OA
ATOM     29  H   UNL     1      41.878   0.360  18.808  1.00  0.00     0.293 HD
ENDBRANCH   8  28
TORSDOF 7
ENDMDL
MODEL 9
REMARK VINA RESULT:    -6.533      1.490      6.979
REMARK INTER + INTRA:          -8.271
REMARK INTER:                  -8.689
REMARK INTRA:                   0.418
REMARK UNBOUND:                -0.210
REMARK SMILES O=c1c(O)c(-c2cc(O)c(O)c(O)c2)oc2cc(O)cc(O)c12
REMARK SMILES IDX 5 1 3 2 2 3 1 4 23 5 21 6 20 7 18 8 17 9 16 10 15 11 6 12
REMARK SMILES IDX 7 13 8 14 14 15 10 16 12 17 9 18 11 20 13 22 4 24 22 26
REMARK SMILES IDX 19 28
REMARK H PARENT 9 19 11 21 13 23 4 25 22 27 19 29
REMARK Flexibility Score: inf
ROOT
ATOM      1  C   UNL     1      42.296  -0.624  18.108  1.00  0.00     0.180 A 
ATOM      2  C   UNL     1      41.817   0.420  17.297  1.00  0.00     0.208 A 
ATOM      3  C   UNL     1      41.893   1.739  17.770  1.00  0.00     0.238 A 
ATOM      4  O   UNL     1      41.413   2.663  17.064  1.00  0.00    -0.285 OA
ATOM      5  C   UNL     1      42.463   2.001  19.040  1.00  0.00     0.111 A 
ATOM      6  C   UNL     1      42.628   3.303  19.601  1.00  0.00     0.134 A 
ATOM      7  C   UNL     1      43.083   3.434  20.919  1.00  0.00     0.093 A 
ATOM      8  C   UNL     1      43.441   2.313  21.672  1.00  0.00     0.123 A 
ATOM      9  C   UNL     1      43.340   1.042  21.112  1.00  0.00     0.094 A 
ATOM     10  C   UNL     1      42.855   0.876  19.813  1.00  0.00     0.146 A 
ATOM     11  O   UNL     1      42.764  -0.353  19.321  1.00  0.00    -0.452 OA
ENDROOT
BRANCH   1  12
ATOM     12  C   UNL     1      42.273  -2.037  17.668  1.00  0.00     0.029 A 
ATOM     13  C   UNL     1      41.385  -2.430  16.653  1.00  0.00     0.062 A 
ATOM     14  C   UNL     1      41.327  -3.762  16.232  1.00  0.00     0.162 A 
ATOM     15  C   UNL     1      43.080  -3.009  18.282  1.00  0.00     0.062 A 
ATOM     16  C   UNL     1      42.151  -4.726  16.835  1.00  0.00     0.200 A 
ATOM     17  C   UNL     1      43.027  -4.348  17.868  1.00  0.00     0.162 A 
BRANCH  14  18
ATOM     18  O   UNL     1      40.442  -4.108  15.211  1.00  0.00    -0.504 OA
ATOM     19  H   UNL     1      40.436  -5.030  14.792  1.00  0.00     0.293 HD
ENDBRANCH  14  18
BRANCH  16  20
ATOM     20  O   UNL     1      42.088  -6.053  16.407  1.00  0.00    -0.502 OA
ATOM     21  H   UNL     1      41.800  -6.304  15.469  1.00  0.00     0.293 HD
ENDBRANCH  16  20
BRANCH  17  22
ATOM     22  O   UNL     1      43.837  -5.302  18.480  1.00  0.00    -0.504 OA
ATOM     23  H   UNL     1      43.792  -6.281  18.222  1.00  0.00     0.293 HD
ENDBRANCH  17  22
ENDBRANCH   1  12
BRANCH   2  24
ATOM     24  O   UNL     1      41.239   0.137  16.056  1.00  0.00    -0.502 OA
ATOM     25  H   UNL     1      40.243   0.218  15.889  1.00  0.00     0.293 HD
ENDBRANCH   2  24
BRANCH   6  26
ATOM     26  O   UNL     1      42.386   4.490  18.903  1.00  0.00    -0.507 OA
ATOM     27  H   UNL     1      42.402   4.579  17.899  1.00  0.00     0.293 HD
ENDBRANCH   6  26
BRANCH   8  28
ATOM     28  O   UNL     1      43.908   2.453  22.977  1.00  0.00    -0.508 OA
ATOM     29  H   UNL     1      43.823   1.703  23.653  1.00  0.00     0.293 HD
ENDBRANCH   8  28
TORSDOF 7
ENDMDL
