MODEL 1
REMARK VINA RESULT:    -5.575      0.000      0.000
REMARK INTER + INTRA:          -6.165
REMARK INTER:                  -5.901
REMARK INTRA:                  -0.264
REMARK UNBOUND:                -0.264
REMARK SMILES O=c1cc(-c2ccccc2)oc2ccccc12
REMARK SMILES IDX 4 1 3 2 2 3 1 4 17 5 16 6 15 7 14 8 13 9 12 10 11 11 5 12
REMARK SMILES IDX 8 13 7 14 9 15 6 16 10 17
REMARK H PARENT
REMARK Flexibility Score: inf
ROOT
ATOM      1  C   UNL     1     125.230  16.285 151.260  1.00  0.00     0.138 A 
ATOM      2  C   UNL     1     124.720  16.108 152.563  1.00  0.00     0.100 A 
ATOM      3  C   UNL     1     123.705  15.175 152.784  1.00  0.00     0.193 A 
ATOM      4  O   UNL     1     123.248  15.017 153.949  1.00  0.00    -0.289 OA
ATOM      5  C   UNL     1     123.207  14.428 151.708  1.00  0.00     0.065 A 
ATOM      6  C   UNL     1     122.186  13.472 151.861  1.00  0.00     0.016 A 
ATOM      7  C   UNL     1     121.726  12.754 150.753  1.00  0.00     0.001 A 
ATOM      8  C   UNL     1     122.278  12.982 149.489  1.00  0.00     0.004 A 
ATOM      9  C   UNL     1     123.294  13.930 149.327  1.00  0.00     0.048 A 
ATOM     10  C   UNL     1     123.761  14.654 150.429  1.00  0.00     0.138 A 
ATOM     11  O   UNL     1     124.727  15.552 150.266  1.00  0.00    -0.456 OA
ENDROOT
BRANCH   1  12
ATOM     12  C   UNL     1     126.316  17.262 150.937  1.00  0.00     0.017 A 
ATOM     13  C   UNL     1     128.343  19.096 150.231  1.00  0.00     0.000 A 
ATOM     14  C   UNL     1     128.130  18.770 151.571  1.00  0.00     0.001 A 
ATOM     15  C   UNL     1     127.552  18.513 149.242  1.00  0.00     0.001 A 
ATOM     16  C   UNL     1     127.128  17.862 151.926  1.00  0.00     0.012 A 
ATOM     17  C   UNL     1     126.548  17.604 149.588  1.00  0.00     0.012 A 
ENDBRANCH   1  12
TORSDOF 1
ENDMDL
MODEL 2
REMARK VINA RESULT:    -5.565      1.498      6.106
REMARK INTER + INTRA:          -6.154
REMARK INTER:                  -5.932
REMARK INTRA:                  -0.222
REMARK UNBOUND:                -0.264
REMARK SMILES O=c1cc(-c2ccccc2)oc2ccccc12
REMARK SMILES IDX 4 1 3 2 2 3 1 4 17 5 16 6 15 7 14 8 13 9 12 10 11 11 5 12
REMARK SMILES IDX 8 13 7 14 9 15 6 16 10 17
REMARK H PARENT
REMARK Flexibility Score: inf
ROOT
ATOM      1  C   UNL     1     124.865  15.728 150.676  1.00  0.00     0.138 A 
ATOM      2  C   UNL     1     126.200  15.427 151.019  1.00  0.00     0.100 A 
ATOM      3  C   UNL     1     127.152  16.448 151.037  1.00  0.00     0.193 A 
ATOM      4  O   UNL     1     128.346  16.180 151.343  1.00  0.00    -0.289 OA
ATOM      5  C   UNL     1     126.767  17.757 150.713  1.00  0.00     0.065 A 
ATOM      6  C   UNL     1     127.677  18.831 150.711  1.00  0.00     0.016 A 
ATOM      7  C   UNL     1     127.239  20.117 150.379  1.00  0.00     0.001 A 
ATOM      8  C   UNL     1     125.900  20.342 150.048  1.00  0.00     0.004 A 
ATOM      9  C   UNL     1     124.990  19.280 150.048  1.00  0.00     0.048 A 
ATOM     10  C   UNL     1     125.417  17.989 150.378  1.00  0.00     0.138 A 
ATOM     11  O   UNL     1     124.544  16.986 150.375  1.00  0.00    -0.456 OA
ENDROOT
BRANCH   1  12
ATOM     12  C   UNL     1     123.784  14.694 150.634  1.00  0.00     0.017 A 
ATOM     13  C   UNL     1     121.735  12.752 150.653  1.00  0.00     0.000 A 
ATOM     14  C   UNL     1     122.324  13.134 149.448  1.00  0.00     0.001 A 
ATOM     15  C   UNL     1     122.160  13.331 151.848  1.00  0.00     0.001 A 
ATOM     16  C   UNL     1     123.340  14.096 149.432  1.00  0.00     0.012 A 
ATOM     17  C   UNL     1     123.175  14.293 151.842  1.00  0.00     0.012 A 
ENDBRANCH   1  12
TORSDOF 1
ENDMDL
MODEL 3
REMARK VINA RESULT:    -5.537      1.656      5.945
REMARK INTER + INTRA:          -6.124
REMARK INTER:                  -5.885
REMARK INTRA:                  -0.239
REMARK UNBOUND:                -0.264
REMARK SMILES O=c1cc(-c2ccccc2)oc2ccccc12
REMARK SMILES IDX 4 1 3 2 2 3 1 4 17 5 16 6 15 7 14 8 13 9 12 10 11 11 5 12
REMARK SMILES IDX 8 13 7 14 9 15 6 16 10 17
REMARK H PARENT
REMARK Flexibility Score: inf
ROOT
ATOM      1  C   UNL     1     123.965  16.350 150.787  1.00  0.00     0.138 A 
ATOM      2  C   UNL     1     123.430  17.567 151.262  1.00  0.00     0.100 A 
ATOM      3  C   UNL     1     124.212  18.723 151.226  1.00  0.00     0.193 A 
ATOM      4  O   UNL     1     123.734  19.810 151.650  1.00  0.00    -0.289 OA
ATOM      5  C   UNL     1     125.517  18.658 150.718  1.00  0.00     0.065 A 
ATOM      6  C   UNL     1     126.357  19.785 150.654  1.00  0.00     0.016 A 
ATOM      7  C   UNL     1     127.652  19.665 150.138  1.00  0.00     0.001 A 
ATOM      8  C   UNL     1     128.116  18.426 149.685  1.00  0.00     0.004 A 
ATOM      9  C   UNL     1     127.288  17.301 149.746  1.00  0.00     0.048 A 
ATOM     10  C   UNL     1     125.991  17.411 150.260  1.00  0.00     0.138 A 
ATOM     11  O   UNL     1     125.211  16.336 150.313  1.00  0.00    -0.456 OA
ENDROOT
BRANCH   1  12
ATOM     12  C   UNL     1     123.196  15.067 150.790  1.00  0.00     0.017 A 
ATOM     13  C   UNL     1     121.765  12.635 150.698  1.00  0.00     0.000 A 
ATOM     14  C   UNL     1     121.856  13.348 151.893  1.00  0.00     0.001 A 
ATOM     15  C   UNL     1     122.382  13.127 149.548  1.00  0.00     0.001 A 
ATOM     16  C   UNL     1     122.563  14.553 151.945  1.00  0.00     0.012 A 
ATOM     17  C   UNL     1     123.091  14.331 149.590  1.00  0.00     0.012 A 
ENDBRANCH   1  12
TORSDOF 1
ENDMDL
MODEL 4
REMARK VINA RESULT:    -5.303      1.334      6.231
REMARK INTER + INTRA:          -5.877
REMARK INTER:                  -5.633
REMARK INTRA:                  -0.244
REMARK UNBOUND:                -0.264
REMARK SMILES O=c1cc(-c2ccccc2)oc2ccccc12
REMARK SMILES IDX 4 1 3 2 2 3 1 4 17 5 16 6 15 7 14 8 13 9 12 10 11 11 5 12
REMARK SMILES IDX 8 13 7 14 9 15 6 16 10 17
REMARK H PARENT
REMARK Flexibility Score: inf
ROOT
ATOM      1  C   UNL     1     124.773  15.764 150.699  1.00  0.00     0.138 A 
ATOM      2  C   UNL     1     124.801  16.855 149.805  1.00  0.00     0.100 A 
ATOM      3  C   UNL     1     125.823  17.801 149.906  1.00  0.00     0.193 A 
ATOM      4  O   UNL     1     125.849  18.777 149.106  1.00  0.00    -0.289 OA
ATOM      5  C   UNL     1     126.806  17.653 150.894  1.00  0.00     0.065 A 
ATOM      6  C   UNL     1     127.862  18.570 151.050  1.00  0.00     0.016 A 
ATOM      7  C   UNL     1     128.817  18.374 152.053  1.00  0.00     0.001 A 
ATOM      8  C   UNL     1     128.725  17.270 152.905  1.00  0.00     0.004 A 
ATOM      9  C   UNL     1     127.679  16.354 152.757  1.00  0.00     0.048 A 
ATOM     10  C   UNL     1     126.719  16.540 151.757  1.00  0.00     0.138 A 
ATOM     11  O   UNL     1     125.728  15.664 151.624  1.00  0.00    -0.456 OA
ENDROOT
BRANCH   1  12
ATOM     12  C   UNL     1     123.715  14.708 150.660  1.00  0.00     0.017 A 
ATOM     13  C   UNL     1     121.708  12.723 150.683  1.00  0.00     0.000 A 
ATOM     14  C   UNL     1     122.312  13.090 149.482  1.00  0.00     0.001 A 
ATOM     15  C   UNL     1     122.096  13.337 151.873  1.00  0.00     0.001 A 
ATOM     16  C   UNL     1     123.307  14.073 149.464  1.00  0.00     0.012 A 
ATOM     17  C   UNL     1     123.090  14.320 151.865  1.00  0.00     0.012 A 
ENDBRANCH   1  12
TORSDOF 1
ENDMDL
MODEL 5
REMARK VINA RESULT:    -5.290     14.128     15.344
REMARK INTER + INTRA:          -5.863
REMARK INTER:                  -5.633
REMARK INTRA:                  -0.230
REMARK UNBOUND:                -0.264
REMARK SMILES O=c1cc(-c2ccccc2)oc2ccccc12
REMARK SMILES IDX 4 1 3 2 2 3 1 4 17 5 16 6 15 7 14 8 13 9 12 10 11 11 5 12
REMARK SMILES IDX 8 13 7 14 9 15 6 16 10 17
REMARK H PARENT
REMARK Flexibility Score: inf
ROOT
ATOM      1  C   UNL     1     132.413   6.956 141.353  1.00  0.00     0.138 A 
ATOM      2  C   UNL     1     133.137   5.877 140.802  1.00  0.00     0.100 A 
ATOM      3  C   UNL     1     132.509   4.640 140.639  1.00  0.00     0.193 A 
ATOM      4  O   UNL     1     133.156   3.675 140.147  1.00  0.00    -0.289 OA
ATOM      5  C   UNL     1     131.170   4.489 141.025  1.00  0.00     0.065 A 
ATOM      6  C   UNL     1     130.480   3.270 140.888  1.00  0.00     0.016 A 
ATOM      7  C   UNL     1     129.143   3.174 141.289  1.00  0.00     0.001 A 
ATOM      8  C   UNL     1     128.489   4.286 141.828  1.00  0.00     0.004 A 
ATOM      9  C   UNL     1     129.168   5.500 141.968  1.00  0.00     0.048 A 
ATOM     10  C   UNL     1     130.505   5.607 141.570  1.00  0.00     0.138 A 
ATOM     11  O   UNL     1     131.142   6.766 141.706  1.00  0.00    -0.456 OA
ENDROOT
BRANCH   1  12
ATOM     12  C   UNL     1     133.009   8.312 141.561  1.00  0.00     0.017 A 
ATOM     13  C   UNL     1     134.125  10.858 142.053  1.00  0.00     0.000 A 
ATOM     14  C   UNL     1     133.963  10.408 140.743  1.00  0.00     0.001 A 
ATOM     15  C   UNL     1     133.734  10.050 143.119  1.00  0.00     0.001 A 
ATOM     16  C   UNL     1     133.411   9.147 140.493  1.00  0.00     0.012 A 
ATOM     17  C   UNL     1     133.181   8.788 142.879  1.00  0.00     0.012 A 
ENDBRANCH   1  12
TORSDOF 1
ENDMDL
MODEL 6
REMARK VINA RESULT:    -5.020      9.767     10.835
REMARK INTER + INTRA:          -5.577
REMARK INTER:                  -5.334
REMARK INTRA:                  -0.242
REMARK UNBOUND:                -0.264
REMARK SMILES O=c1cc(-c2ccccc2)oc2ccccc12
REMARK SMILES IDX 4 1 3 2 2 3 1 4 17 5 16 6 15 7 14 8 13 9 12 10 11 11 5 12
REMARK SMILES IDX 8 13 7 14 9 15 6 16 10 17
REMARK H PARENT
REMARK Flexibility Score: inf
ROOT
ATOM      1  C   UNL     1     115.464  14.672 146.739  1.00  0.00     0.138 A 
ATOM      2  C   UNL     1     115.008  13.342 146.624  1.00  0.00     0.100 A 
ATOM      3  C   UNL     1     114.558  12.668 147.761  1.00  0.00     0.193 A 
ATOM      4  O   UNL     1     114.151  11.479 147.658  1.00  0.00    -0.289 OA
ATOM      5  C   UNL     1     114.565  13.323 149.000  1.00  0.00     0.065 A 
ATOM      6  C   UNL     1     114.126  12.702 150.184  1.00  0.00     0.016 A 
ATOM      7  C   UNL     1     114.155  13.402 151.394  1.00  0.00     0.001 A 
ATOM      8  C   UNL     1     114.621  14.720 151.434  1.00  0.00     0.004 A 
ATOM      9  C   UNL     1     115.059  15.344 150.262  1.00  0.00     0.048 A 
ATOM     10  C   UNL     1     115.035  14.653 149.046  1.00  0.00     0.138 A 
ATOM     11  O   UNL     1     115.454  15.256 147.938  1.00  0.00    -0.456 OA
ENDROOT
BRANCH   1  12
ATOM     12  C   UNL     1     115.962  15.465 145.572  1.00  0.00     0.017 A 
ATOM     13  C   UNL     1     116.821  16.934 143.319  1.00  0.00     0.000 A 
ATOM     14  C   UNL     1     117.589  16.927 144.483  1.00  0.00     0.001 A 
ATOM     15  C   UNL     1     115.628  16.214 143.271  1.00  0.00     0.001 A 
ATOM     16  C   UNL     1     117.169  16.201 145.602  1.00  0.00     0.012 A 
ATOM     17  C   UNL     1     115.200  15.485 144.385  1.00  0.00     0.012 A 
ENDBRANCH   1  12
TORSDOF 1
ENDMDL
MODEL 7
REMARK VINA RESULT:    -4.955     14.204     16.497
REMARK INTER + INTRA:          -5.508
REMARK INTER:                  -5.273
REMARK INTRA:                  -0.235
REMARK UNBOUND:                -0.264
REMARK SMILES O=c1cc(-c2ccccc2)oc2ccccc12
REMARK SMILES IDX 4 1 3 2 2 3 1 4 17 5 16 6 15 7 14 8 13 9 12 10 11 11 5 12
REMARK SMILES IDX 8 13 7 14 9 15 6 16 10 17
REMARK H PARENT
REMARK Flexibility Score: inf
ROOT
ATOM      1  C   UNL     1     131.369   6.061 140.839  1.00  0.00     0.138 A 
ATOM      2  C   UNL     1     131.682   6.519 139.542  1.00  0.00     0.100 A 
ATOM      3  C   UNL     1     132.451   7.675 139.387  1.00  0.00     0.193 A 
ATOM      4  O   UNL     1     132.731   8.085 138.228  1.00  0.00    -0.289 OA
ATOM      5  C   UNL     1     132.900   8.362 140.523  1.00  0.00     0.065 A 
ATOM      6  C   UNL     1     133.677   9.533 140.438  1.00  0.00     0.016 A 
ATOM      7  C   UNL     1     134.098  10.180 141.604  1.00  0.00     0.001 A 
ATOM      8  C   UNL     1     133.749   9.669 142.857  1.00  0.00     0.004 A 
ATOM      9  C   UNL     1     132.977   8.507 142.951  1.00  0.00     0.048 A 
ATOM     10  C   UNL     1     132.550   7.852 141.791  1.00  0.00     0.138 A 
ATOM     11  O   UNL     1     131.817   6.747 141.891  1.00  0.00    -0.456 OA
ENDROOT
BRANCH   1  12
ATOM     12  C   UNL     1     130.553   4.833 141.093  1.00  0.00     0.017 A 
ATOM     13  C   UNL     1     128.946   2.573 141.622  1.00  0.00     0.000 A 
ATOM     14  C   UNL     1     130.123   2.437 140.886  1.00  0.00     0.001 A 
ATOM     15  C   UNL     1     128.565   3.827 142.097  1.00  0.00     0.001 A 
ATOM     16  C   UNL     1     130.923   3.553 140.621  1.00  0.00     0.012 A 
ATOM     17  C   UNL     1     129.358   4.949 141.837  1.00  0.00     0.012 A 
ENDBRANCH   1  12
TORSDOF 1
ENDMDL
MODEL 8
REMARK VINA RESULT:    -4.951      1.290      2.687
REMARK INTER + INTRA:          -5.505
REMARK INTER:                  -5.239
REMARK INTRA:                  -0.266
REMARK UNBOUND:                -0.264
REMARK SMILES O=c1cc(-c2ccccc2)oc2ccccc12
REMARK SMILES IDX 4 1 3 2 2 3 1 4 17 5 16 6 15 7 14 8 13 9 12 10 11 11 5 12
REMARK SMILES IDX 8 13 7 14 9 15 6 16 10 17
REMARK H PARENT
REMARK Flexibility Score: inf
ROOT
ATOM      1  C   UNL     1     124.635  16.156 150.475  1.00  0.00     0.138 A 
ATOM      2  C   UNL     1     124.384  15.324 149.364  1.00  0.00     0.100 A 
ATOM      3  C   UNL     1     123.502  14.249 149.494  1.00  0.00     0.193 A 
ATOM      4  O   UNL     1     123.277  13.505 148.501  1.00  0.00    -0.289 OA
ATOM      5  C   UNL     1     122.879  14.013 150.727  1.00  0.00     0.065 A 
ATOM      6  C   UNL     1     121.981  12.948 150.926  1.00  0.00     0.016 A 
ATOM      7  C   UNL     1     121.387  12.758 152.178  1.00  0.00     0.001 A 
ATOM      8  C   UNL     1     121.683  13.622 153.236  1.00  0.00     0.004 A 
ATOM      9  C   UNL     1     122.574  14.683 153.047  1.00  0.00     0.048 A 
ATOM     10  C   UNL     1     123.174  14.882 151.799  1.00  0.00     0.138 A 
ATOM     11  O   UNL     1     124.020  15.894 151.629  1.00  0.00    -0.456 OA
ENDROOT
BRANCH   1  12
ATOM     12  C   UNL     1     125.564  17.327 150.421  1.00  0.00     0.017 A 
ATOM     13  C   UNL     1     127.295  19.557 150.414  1.00  0.00     0.000 A 
ATOM     14  C   UNL     1     127.158  18.775 149.268  1.00  0.00     0.001 A 
ATOM     15  C   UNL     1     126.574  19.236 151.564  1.00  0.00     0.001 A 
ATOM     16  C   UNL     1     126.302  17.669 149.265  1.00  0.00     0.012 A 
ATOM     17  C   UNL     1     125.716  18.133 151.570  1.00  0.00     0.012 A 
ENDBRANCH   1  12
TORSDOF 1
ENDMDL
MODEL 9
REMARK VINA RESULT:    -4.888      9.912     11.803
REMARK INTER + INTRA:          -5.437
REMARK INTER:                  -5.187
REMARK INTRA:                  -0.250
REMARK UNBOUND:                -0.264
REMARK SMILES O=c1cc(-c2ccccc2)oc2ccccc12
REMARK SMILES IDX 4 1 3 2 2 3 1 4 17 5 16 6 15 7 14 8 13 9 12 10 11 11 5 12
REMARK SMILES IDX 8 13 7 14 9 15 6 16 10 17
REMARK H PARENT
REMARK Flexibility Score: inf
ROOT
ATOM      1  C   UNL     1     115.521  15.138 146.587  1.00  0.00     0.138 A 
ATOM      2  C   UNL     1     116.666  15.886 146.239  1.00  0.00     0.100 A 
ATOM      3  C   UNL     1     116.923  16.166 144.895  1.00  0.00     0.193 A 
ATOM      4  O   UNL     1     117.946  16.834 144.584  1.00  0.00    -0.289 OA
ATOM      5  C   UNL     1     116.039  15.701 143.912  1.00  0.00     0.065 A 
ATOM      6  C   UNL     1     116.239  15.948 142.541  1.00  0.00     0.016 A 
ATOM      7  C   UNL     1     115.325  15.460 141.601  1.00  0.00     0.001 A 
ATOM      8  C   UNL     1     114.212  14.725 142.018  1.00  0.00     0.004 A 
ATOM      9  C   UNL     1     114.006  14.475 143.378  1.00  0.00     0.048 A 
ATOM     10  C   UNL     1     114.913  14.958 144.327  1.00  0.00     0.138 A 
ATOM     11  O   UNL     1     114.708  14.716 145.618  1.00  0.00    -0.456 OA
ENDROOT
BRANCH   1  12
ATOM     12  C   UNL     1     115.173  14.794 148.000  1.00  0.00     0.017 A 
ATOM     13  C   UNL     1     114.546  14.237 150.695  1.00  0.00     0.000 A 
ATOM     14  C   UNL     1     114.315  13.276 149.711  1.00  0.00     0.001 A 
ATOM     15  C   UNL     1     115.087  15.473 150.346  1.00  0.00     0.001 A 
ATOM     16  C   UNL     1     114.624  13.546 148.374  1.00  0.00     0.012 A 
ATOM     17  C   UNL     1     115.399  15.752 149.012  1.00  0.00     0.012 A 
ENDBRANCH   1  12
TORSDOF 1
ENDMDL
