MODEL 1
REMARK VINA RESULT:    -4.614      0.000      0.000
REMARK INTER + INTRA:          -7.444
REMARK INTER:                  -7.042
REMARK INTRA:                  -0.402
REMARK UNBOUND:                -0.402
REMARK SMILES CC1=CCC[C@H](C)C(=O)C[C@H](C(C)C)C(=O)C1
REMARK SMILES IDX 8 1 9 2 6 3 7 4 5 5 4 6 3 7 2 8 1 9 10 11 11 12 15 13 16 14
REMARK SMILES IDX 17 15 12 17 13 18 14 19
REMARK H PARENT
REMARK Flexibility Score: 70.00
ROOT
ATOM      1  C   UNL     1      26.382  52.882  11.145  1.00  0.00     0.136 C 
ATOM      2  O   UNL     1      25.774  51.944  11.642  1.00  0.00    -0.299 OA
ENDROOT
BRANCH   1   3
ATOM      3  C   UNL     1      27.302  52.590   9.969  1.00  0.00     0.053 C 
ATOM      4  C   UNL     1      28.664  52.006  10.378  1.00  0.00     0.016 C 
BRANCH   3   5
ATOM      5  C   UNL     1      26.593  51.773   8.865  1.00  0.00     0.015 C 
BRANCH   5   6
ATOM      6  C   UNL     1      25.816  52.629   7.845  1.00  0.00     0.028 C 
BRANCH   6   7
ATOM      7  C   UNL     1      24.422  52.970   8.311  1.00  0.00    -0.028 C 
ATOM      8  C   UNL     1      24.015  54.193   8.731  1.00  0.00    -0.070 CG0
ATOM      9  C   UNL     1      22.600  54.325   9.238  1.00  0.00     0.039 C 
ATOM     10  G   UNL     1      24.897  55.436   8.685  1.00  0.00     0.000 G0
ENDBRANCH   6   7
ENDBRANCH   5   6
ENDBRANCH   3   5
ENDBRANCH   1   3
BRANCH   1  11
ATOM     11  C   UNL     1      26.154  54.267  11.717  1.00  0.00     0.087 C 
BRANCH  11  12
ATOM     12  C   UNL     1      26.536  55.394  10.718  1.00  0.00     0.066 C 
BRANCH  12  13
ATOM     13  C   UNL     1      25.301  55.960  10.031  1.00  0.00     0.140 C 
ATOM     14  O   UNL     1      24.654  56.855  10.558  1.00  0.00    -0.299 OA
BRANCH  13  15
ATOM     15  C   UNL     1      24.894  55.454   8.669  1.00  0.00     0.106 CG0
ATOM     16  G   UNL     1      24.038  54.194   8.717  1.00  0.00     0.000 G0
ENDBRANCH  13  15
ENDBRANCH  12  13
BRANCH  12  17
ATOM     17  C   UNL     1      27.412  56.521  11.357  1.00  0.00    -0.006 C 
ATOM     18  C   UNL     1      27.771  56.269  12.835  1.00  0.00     0.008 C 
ATOM     19  C   UNL     1      28.695  56.767  10.546  1.00  0.00     0.008 C 
ENDBRANCH  12  17
ENDBRANCH  11  12
ENDBRANCH   1  11
TORSDOF 1
ENDMDL
MODEL 2
REMARK VINA RESULT:    -4.340      6.720      8.854
REMARK INTER + INTRA:          -7.026
REMARK INTER:                  -6.721
REMARK INTRA:                  -0.305
REMARK UNBOUND:                -0.402
REMARK SMILES CC1=CCC[C@H](C)C(=O)C[C@H](C(C)C)C(=O)C1
REMARK SMILES IDX 8 1 9 2 6 3 7 4 5 5 4 6 3 7 2 8 1 9 10 11 11 12 15 13 16 14
REMARK SMILES IDX 17 15 12 17 13 18 14 19
REMARK H PARENT
REMARK Flexibility Score: 70.00
ROOT
ATOM      1  C   UNL     1      28.651  52.443  16.335  1.00  0.00     0.136 C 
ATOM      2  O   UNL     1      29.768  52.067  16.658  1.00  0.00    -0.299 OA
ENDROOT
BRANCH   1   3
ATOM      3  C   UNL     1      28.272  53.886  16.634  1.00  0.00     0.053 C 
ATOM      4  C   UNL     1      27.367  54.523  15.567  1.00  0.00     0.016 C 
BRANCH   3   5
ATOM      5  C   UNL     1      27.737  54.060  18.074  1.00  0.00     0.015 C 
BRANCH   5   6
ATOM      6  C   UNL     1      26.199  54.090  18.178  1.00  0.00     0.028 C 
BRANCH   6   7
ATOM      7  C   UNL     1      25.653  52.985  19.048  1.00  0.00    -0.028 C 
ATOM      8  C   UNL     1      25.141  51.813  18.595  1.00  0.00    -0.070 CG0
ATOM      9  C   UNL     1      24.565  50.860  19.613  1.00  0.00     0.039 C 
ATOM     10  G   UNL     1      25.149  51.402  17.127  1.00  0.00     0.000 G0
ENDBRANCH   6   7
ENDBRANCH   5   6
ENDBRANCH   3   5
ENDBRANCH   1   3
BRANCH   1  11
ATOM     11  C   UNL     1      27.736  51.455  15.638  1.00  0.00     0.087 C 
BRANCH  11  12
ATOM     12  C   UNL     1      27.416  50.216  16.519  1.00  0.00     0.066 C 
BRANCH  12  13
ATOM     13  C   UNL     1      25.928  50.133  16.830  1.00  0.00     0.140 C 
ATOM     14  O   UNL     1      25.369  49.047  16.900  1.00  0.00    -0.299 OA
BRANCH  13  15
ATOM     15  C   UNL     1      25.142  51.392  17.105  1.00  0.00     0.106 CG0
ATOM     16  G   UNL     1      25.132  51.797  18.574  1.00  0.00     0.000 G0
ENDBRANCH  13  15
ENDBRANCH  12  13
BRANCH  12  17
ATOM     17  C   UNL     1      27.960  48.875  15.925  1.00  0.00    -0.006 C 
ATOM     18  C   UNL     1      27.966  48.831  14.384  1.00  0.00     0.008 C 
ATOM     19  C   UNL     1      29.364  48.551  16.459  1.00  0.00     0.008 C 
ENDBRANCH  12  17
ENDBRANCH  11  12
ENDBRANCH   1  11
TORSDOF 1
ENDMDL
MODEL 3
REMARK VINA RESULT:    -4.324      1.738      2.033
REMARK INTER + INTRA:          -7.001
REMARK INTER:                  -6.868
REMARK INTRA:                  -0.133
REMARK UNBOUND:                -0.402
REMARK SMILES CC1=CCC[C@H](C)C(=O)C[C@H](C(C)C)C(=O)C1
REMARK SMILES IDX 8 1 9 2 6 3 7 4 5 5 4 6 3 7 2 8 1 9 10 11 11 12 15 13 16 14
REMARK SMILES IDX 17 15 12 17 13 18 14 19
REMARK H PARENT
REMARK Flexibility Score: 70.00
ROOT
ATOM      1  C   UNL     1      28.939  53.799  11.312  1.00  0.00     0.136 C 
ATOM      2  O   UNL     1      30.039  54.169  10.927  1.00  0.00    -0.299 OA
ENDROOT
BRANCH   1   3
ATOM      3  C   UNL     1      28.546  52.351  11.058  1.00  0.00     0.053 C 
ATOM      4  C   UNL     1      27.875  51.671  12.263  1.00  0.00     0.016 C 
BRANCH   3   5
ATOM      5  C   UNL     1      27.753  52.186   9.742  1.00  0.00     0.015 C 
BRANCH   5   6
ATOM      6  C   UNL     1      26.237  51.990   9.937  1.00  0.00     0.028 C 
BRANCH   6   7
ATOM      7  C   UNL     1      25.414  52.983   9.153  1.00  0.00    -0.028 C 
ATOM      8  C   UNL     1      24.929  54.153   9.636  1.00  0.00    -0.070 CG0
ATOM      9  C   UNL     1      24.057  54.980   8.726  1.00  0.00     0.039 C 
ATOM     10  G   UNL     1      25.247  54.684  11.030  1.00  0.00     0.000 G0
ENDBRANCH   6   7
ENDBRANCH   5   6
ENDBRANCH   3   5
ENDBRANCH   1   3
BRANCH   1  11
ATOM     11  C   UNL     1      28.059  54.800  12.035  1.00  0.00     0.087 C 
BRANCH  11  12
ATOM     12  C   UNL     1      27.558  55.937  11.102  1.00  0.00     0.066 C 
BRANCH  12  13
ATOM     13  C   UNL     1      26.037  55.970  11.044  1.00  0.00     0.140 C 
ATOM     14  O   UNL     1      25.444  57.036  10.956  1.00  0.00    -0.299 OA
BRANCH  13  15
ATOM     15  C   UNL     1      25.252  54.682  11.046  1.00  0.00     0.106 CG0
ATOM     16  G   UNL     1      24.941  54.154   9.650  1.00  0.00     0.000 G0
ENDBRANCH  13  15
ENDBRANCH  12  13
BRANCH  12  17
ATOM     17  C   UNL     1      28.156  57.338  11.453  1.00  0.00    -0.006 C 
ATOM     18  C   UNL     1      28.082  57.690  12.952  1.00  0.00     0.008 C 
ATOM     19  C   UNL     1      29.606  57.473  10.960  1.00  0.00     0.008 C 
ENDBRANCH  12  17
ENDBRANCH  11  12
ENDBRANCH   1  11
TORSDOF 1
ENDMDL
MODEL 4
REMARK VINA RESULT:    -4.319      2.308      4.828
REMARK INTER + INTRA:          -6.993
REMARK INTER:                  -6.624
REMARK INTRA:                  -0.369
REMARK UNBOUND:                -0.402
REMARK SMILES CC1=CCC[C@H](C)C(=O)C[C@H](C(C)C)C(=O)C1
REMARK SMILES IDX 8 1 9 2 6 3 7 4 5 5 4 6 3 7 2 8 1 9 10 11 11 12 15 13 16 14
REMARK SMILES IDX 17 15 12 17 13 18 14 19
REMARK H PARENT
REMARK Flexibility Score: 70.00
ROOT
ATOM      1  C   UNL     1      27.172  55.624  11.750  1.00  0.00     0.136 C 
ATOM      2  O   UNL     1      27.189  55.557  12.971  1.00  0.00    -0.299 OA
ENDROOT
BRANCH   1   3
ATOM      3  C   UNL     1      28.465  55.995  11.040  1.00  0.00     0.053 C 
ATOM      4  C   UNL     1      28.760  57.504  11.036  1.00  0.00     0.016 C 
BRANCH   3   5
ATOM      5  C   UNL     1      29.659  55.139  11.521  1.00  0.00     0.015 C 
BRANCH   5   6
ATOM      6  C   UNL     1      29.637  53.683  11.018  1.00  0.00     0.028 C 
BRANCH   6   7
ATOM      7  C   UNL     1      29.217  52.703  12.085  1.00  0.00    -0.028 C 
ATOM      8  C   UNL     1      28.115  51.913  12.033  1.00  0.00    -0.070 CG0
ATOM      9  C   UNL     1      27.812  51.053  13.234  1.00  0.00     0.039 C 
ATOM     10  G   UNL     1      27.198  51.829  10.819  1.00  0.00     0.000 G0
ENDBRANCH   6   7
ENDBRANCH   5   6
ENDBRANCH   3   5
ENDBRANCH   1   3
BRANCH   1  11
ATOM     11  C   UNL     1      25.874  55.308  11.033  1.00  0.00     0.087 C 
BRANCH  11  12
ATOM     12  C   UNL     1      26.000  54.083  10.086  1.00  0.00     0.066 C 
BRANCH  12  13
ATOM     13  C   UNL     1      26.008  52.780  10.872  1.00  0.00     0.140 C 
ATOM     14  O   UNL     1      25.033  52.449  11.533  1.00  0.00    -0.299 OA
BRANCH  13  15
ATOM     15  C   UNL     1      27.203  51.861  10.802  1.00  0.00     0.106 CG0
ATOM     16  G   UNL     1      28.089  51.915  12.041  1.00  0.00     0.000 G0
ENDBRANCH  13  15
ENDBRANCH  12  13
BRANCH  12  17
ATOM     17  C   UNL     1      24.930  54.067   8.946  1.00  0.00    -0.006 C 
ATOM     18  C   UNL     1      24.637  55.455   8.344  1.00  0.00     0.008 C 
ATOM     19  C   UNL     1      25.313  53.086   7.826  1.00  0.00     0.008 C 
ENDBRANCH  12  17
ENDBRANCH  11  12
ENDBRANCH   1  11
TORSDOF 1
ENDMDL
MODEL 5
REMARK VINA RESULT:    -4.177      2.233      5.356
REMARK INTER + INTRA:          -6.777
REMARK INTER:                  -6.553
REMARK INTRA:                  -0.224
REMARK UNBOUND:                -0.402
REMARK SMILES CC1=CCC[C@H](C)C(=O)C[C@H](C(C)C)C(=O)C1
REMARK SMILES IDX 8 1 9 2 6 3 7 4 5 5 4 6 3 7 2 8 1 9 10 11 11 12 15 13 16 14
REMARK SMILES IDX 17 15 12 17 13 18 14 19
REMARK H PARENT
REMARK Flexibility Score: 70.00
ROOT
ATOM      1  C   UNL     1      25.552  55.698  10.277  1.00  0.00     0.136 C 
ATOM      2  O   UNL     1      25.031  56.059   9.231  1.00  0.00    -0.299 OA
ENDROOT
BRANCH   1   3
ATOM      3  C   UNL     1      26.403  56.707  11.034  1.00  0.00     0.053 C 
ATOM      4  C   UNL     1      26.185  56.685  12.555  1.00  0.00     0.016 C 
BRANCH   3   5
ATOM      5  C   UNL     1      27.893  56.632  10.628  1.00  0.00     0.015 C 
BRANCH   5   6
ATOM      6  C   UNL     1      28.842  56.237  11.776  1.00  0.00     0.028 C 
BRANCH   6   7
ATOM      7  C   UNL     1      29.644  54.996  11.469  1.00  0.00    -0.028 C 
ATOM      8  C   UNL     1      29.302  53.734  11.830  1.00  0.00    -0.070 CG0
ATOM      9  C   UNL     1      30.272  52.626  11.505  1.00  0.00     0.039 C 
ATOM     10  G   UNL     1      27.985  53.382  12.510  1.00  0.00     0.000 G0
ENDBRANCH   6   7
ENDBRANCH   5   6
ENDBRANCH   3   5
ENDBRANCH   1   3
BRANCH   1  11
ATOM     11  C   UNL     1      25.291  54.283  10.756  1.00  0.00     0.087 C 
BRANCH  11  12
ATOM     12  C   UNL     1      26.434  53.304  10.371  1.00  0.00     0.066 C 
BRANCH  12  13
ATOM     13  C   UNL     1      27.010  52.620  11.603  1.00  0.00     0.140 C 
ATOM     14  O   UNL     1      26.736  51.454  11.849  1.00  0.00    -0.299 OA
BRANCH  13  15
ATOM     15  C   UNL     1      27.965  53.364  12.504  1.00  0.00     0.106 CG0
ATOM     16  G   UNL     1      29.284  53.726  11.830  1.00  0.00     0.000 G0
ENDBRANCH  13  15
ENDBRANCH  12  13
BRANCH  12  17
ATOM     17  C   UNL     1      26.022  52.269   9.273  1.00  0.00    -0.006 C 
ATOM     18  C   UNL     1      24.968  52.799   8.281  1.00  0.00     0.008 C 
ATOM     19  C   UNL     1      27.245  51.747   8.501  1.00  0.00     0.008 C 
ENDBRANCH  12  17
ENDBRANCH  11  12
ENDBRANCH   1  11
TORSDOF 1
ENDMDL
MODEL 6
REMARK VINA RESULT:    -4.156      6.069      7.791
REMARK INTER + INTRA:          -6.745
REMARK INTER:                  -6.371
REMARK INTRA:                  -0.374
REMARK UNBOUND:                -0.402
REMARK SMILES CC1=CCC[C@H](C)C(=O)C[C@H](C(C)C)C(=O)C1
REMARK SMILES IDX 8 1 9 2 6 3 7 4 5 5 4 6 3 7 2 8 1 9 10 11 11 12 15 13 16 14
REMARK SMILES IDX 17 15 12 17 13 18 14 19
REMARK H PARENT
REMARK Flexibility Score: 70.00
ROOT
ATOM      1  C   UNL     1      27.229  50.470  15.965  1.00  0.00     0.136 C 
ATOM      2  O   UNL     1      27.240  50.456  14.742  1.00  0.00    -0.299 OA
ENDROOT
BRANCH   1   3
ATOM      3  C   UNL     1      28.558  50.311  16.690  1.00  0.00     0.053 C 
ATOM      4  C   UNL     1      28.986  48.848  16.885  1.00  0.00     0.016 C 
BRANCH   3   5
ATOM      5  C   UNL     1      29.666  51.196  16.075  1.00  0.00     0.015 C 
BRANCH   5   6
ATOM      6  C   UNL     1      29.596  52.678  16.493  1.00  0.00     0.028 C 
BRANCH   6   7
ATOM      7  C   UNL     1      29.013  53.561  15.417  1.00  0.00    -0.028 C 
ATOM      8  C   UNL     1      27.820  54.201  15.491  1.00  0.00    -0.070 CG0
ATOM      9  C   UNL     1      27.363  54.977  14.281  1.00  0.00     0.039 C 
ATOM     10  G   UNL     1      26.942  54.202  16.738  1.00  0.00     0.000 G0
ENDBRANCH   6   7
ENDBRANCH   5   6
ENDBRANCH   3   5
ENDBRANCH   1   3
BRANCH   1  11
ATOM     11  C   UNL     1      25.901  50.673  16.667  1.00  0.00     0.087 C 
BRANCH  11  12
ATOM     12  C   UNL     1      25.885  51.948  17.555  1.00  0.00     0.066 C 
BRANCH  12  13
ATOM     13  C   UNL     1      25.808  53.208  16.705  1.00  0.00     0.140 C 
ATOM     14  O   UNL     1      24.819  53.435  16.022  1.00  0.00    -0.299 OA
BRANCH  13  15
ATOM     15  C   UNL     1      26.934  54.212  16.737  1.00  0.00     0.106 CG0
ATOM     16  G   UNL     1      27.809  54.189  15.489  1.00  0.00     0.000 G0
ENDBRANCH  13  15
ENDBRANCH  12  13
BRANCH  12  17
ATOM     17  C   UNL     1      24.776  51.923  18.657  1.00  0.00    -0.006 C 
ATOM     18  C   UNL     1      24.288  50.507  19.020  1.00  0.00     0.008 C 
ATOM     19  C   UNL     1      25.228  52.658  19.930  1.00  0.00     0.008 C 
ENDBRANCH  12  17
ENDBRANCH  11  12
ENDBRANCH   1  11
TORSDOF 1
ENDMDL
MODEL 7
REMARK VINA RESULT:    -4.100      5.937      7.295
REMARK INTER + INTRA:          -6.659
REMARK INTER:                  -6.200
REMARK INTRA:                  -0.460
REMARK UNBOUND:                -0.402
REMARK SMILES CC1=CCC[C@H](C)C(=O)C[C@H](C(C)C)C(=O)C1
REMARK SMILES IDX 8 1 9 2 6 3 7 4 5 5 4 6 3 7 2 8 1 9 10 11 11 12 15 13 16 14
REMARK SMILES IDX 17 15 12 17 13 18 14 19
REMARK H PARENT
REMARK Flexibility Score: 70.00
ROOT
ATOM      1  C   UNL     1      24.389  52.012  17.934  1.00  0.00     0.136 C 
ATOM      2  O   UNL     1      23.191  51.843  17.755  1.00  0.00    -0.299 OA
ENDROOT
BRANCH   1   3
ATOM      3  C   UNL     1      25.208  50.831  18.432  1.00  0.00     0.053 C 
ATOM      4  C   UNL     1      24.909  50.439  19.888  1.00  0.00     0.016 C 
BRANCH   3   5
ATOM      5  C   UNL     1      25.159  49.635  17.454  1.00  0.00     0.015 C 
BRANCH   5   6
ATOM      6  C   UNL     1      26.218  49.688  16.336  1.00  0.00     0.028 C 
BRANCH   6   7
ATOM      7  C   UNL     1      25.640  50.091  15.002  1.00  0.00    -0.028 C 
ATOM      8  C   UNL     1      25.949  51.225  14.325  1.00  0.00    -0.070 CG0
ATOM      9  C   UNL     1      25.206  51.499  13.041  1.00  0.00     0.039 C 
ATOM     10  G   UNL     1      27.023  52.208  14.776  1.00  0.00     0.000 G0
ENDBRANCH   6   7
ENDBRANCH   5   6
ENDBRANCH   3   5
ENDBRANCH   1   3
BRANCH   1  11
ATOM     11  C   UNL     1      24.974  53.376  17.621  1.00  0.00     0.087 C 
BRANCH  11  12
ATOM     12  C   UNL     1      26.433  53.291  17.094  1.00  0.00     0.066 C 
BRANCH  12  13
ATOM     13  C   UNL     1      26.473  53.372  15.574  1.00  0.00     0.140 C 
ATOM     14  O   UNL     1      26.099  54.384  14.998  1.00  0.00    -0.299 OA
BRANCH  13  15
ATOM     15  C   UNL     1      27.023  52.219  14.770  1.00  0.00     0.106 CG0
ATOM     16  G   UNL     1      25.955  51.234  14.308  1.00  0.00     0.000 G0
ENDBRANCH  13  15
ENDBRANCH  12  13
BRANCH  12  17
ATOM     17  C   UNL     1      27.394  54.332  17.756  1.00  0.00    -0.006 C 
ATOM     18  C   UNL     1      27.294  54.385  19.293  1.00  0.00     0.008 C 
ATOM     19  C   UNL     1      28.855  54.096  17.339  1.00  0.00     0.008 C 
ENDBRANCH  12  17
ENDBRANCH  11  12
ENDBRANCH   1  11
TORSDOF 1
ENDMDL
MODEL 8
REMARK VINA RESULT:    -4.095      6.364      8.229
REMARK INTER + INTRA:          -6.651
REMARK INTER:                  -6.135
REMARK INTRA:                  -0.515
REMARK UNBOUND:                -0.402
REMARK SMILES CC1=CCC[C@H](C)C(=O)C[C@H](C(C)C)C(=O)C1
REMARK SMILES IDX 8 1 9 2 6 3 7 4 5 5 4 6 3 7 2 8 1 9 10 11 11 12 15 13 16 14
REMARK SMILES IDX 17 15 12 17 13 18 14 19
REMARK H PARENT
REMARK Flexibility Score: 70.00
ROOT
ATOM      1  C   UNL     1      25.225  53.469  16.826  1.00  0.00     0.136 C 
ATOM      2  O   UNL     1      24.231  54.106  16.507  1.00  0.00    -0.299 OA
ENDROOT
BRANCH   1   3
ATOM      3  C   UNL     1      25.373  53.065  18.285  1.00  0.00     0.053 C 
ATOM      4  C   UNL     1      25.329  54.249  19.264  1.00  0.00     0.016 C 
BRANCH   3   5
ATOM      5  C   UNL     1      24.413  51.916  18.670  1.00  0.00     0.015 C 
BRANCH   5   6
ATOM      6  C   UNL     1      25.084  50.531  18.752  1.00  0.00     0.028 C 
BRANCH   6   7
ATOM      7  C   UNL     1      24.968  49.750  17.467  1.00  0.00    -0.028 C 
ATOM      8  C   UNL     1      25.970  49.558  16.574  1.00  0.00    -0.070 CG0
ATOM      9  C   UNL     1      25.645  48.816  15.302  1.00  0.00     0.039 C 
ATOM     10  G   UNL     1      27.404  50.023  16.806  1.00  0.00     0.000 G0
ENDBRANCH   6   7
ENDBRANCH   5   6
ENDBRANCH   3   5
ENDBRANCH   1   3
BRANCH   1  11
ATOM     11  C   UNL     1      26.223  53.107  15.743  1.00  0.00     0.087 C 
BRANCH  11  12
ATOM     12  C   UNL     1      27.571  52.595  16.322  1.00  0.00     0.066 C 
BRANCH  12  13
ATOM     13  C   UNL     1      27.837  51.156  15.904  1.00  0.00     0.140 C 
ATOM     14  O   UNL     1      28.427  50.913  14.860  1.00  0.00    -0.299 OA
BRANCH  13  15
ATOM     15  C   UNL     1      27.416  50.018  16.801  1.00  0.00     0.106 CG0
ATOM     16  G   UNL     1      25.983  49.553  16.566  1.00  0.00     0.000 G0
ENDBRANCH  13  15
ENDBRANCH  12  13
BRANCH  12  17
ATOM     17  C   UNL     1      28.782  53.528  15.993  1.00  0.00    -0.006 C 
ATOM     18  C   UNL     1      28.536  54.474  14.801  1.00  0.00     0.008 C 
ATOM     19  C   UNL     1      29.216  54.344  17.222  1.00  0.00     0.008 C 
ENDBRANCH  12  17
ENDBRANCH  11  12
ENDBRANCH   1  11
TORSDOF 1
ENDMDL
MODEL 9
REMARK VINA RESULT:    -4.040      7.153      8.462
REMARK INTER + INTRA:          -6.567
REMARK INTER:                  -6.651
REMARK INTRA:                   0.083
REMARK UNBOUND:                -0.402
REMARK SMILES CC1=CCC[C@H](C)C(=O)C[C@H](C(C)C)C(=O)C1
REMARK SMILES IDX 8 1 9 2 6 3 7 4 5 5 4 6 3 7 2 8 1 9 10 11 11 12 15 13 16 14
REMARK SMILES IDX 17 15 12 17 13 18 14 19
REMARK H PARENT
REMARK Flexibility Score: 70.00
ROOT
ATOM      1  C   UNL     1      25.483  50.488  17.467  1.00  0.00     0.136 C 
ATOM      2  O   UNL     1      24.874  49.928  18.367  1.00  0.00    -0.299 OA
ENDROOT
BRANCH   1   3
ATOM      3  C   UNL     1      26.441  49.653  16.630  1.00  0.00     0.053 C 
ATOM      4  C   UNL     1      25.988  49.465  15.173  1.00  0.00     0.016 C 
BRANCH   3   5
ATOM      5  C   UNL     1      27.902  50.140  16.758  1.00  0.00     0.015 C 
BRANCH   5   6
ATOM      6  C   UNL     1      28.352  51.096  15.636  1.00  0.00     0.028 C 
BRANCH   6   7
ATOM      7  C   UNL     1      29.224  52.219  16.140  1.00  0.00    -0.028 C 
ATOM      8  C   UNL     1      28.779  53.434  16.546  1.00  0.00    -0.070 CG0
ATOM      9  C   UNL     1      29.809  54.462  16.942  1.00  0.00     0.039 C 
ATOM     10  G   UNL     1      27.302  53.796  16.652  1.00  0.00     0.000 G0
ENDBRANCH   6   7
ENDBRANCH   5   6
ENDBRANCH   3   5
ENDBRANCH   1   3
BRANCH   1  11
ATOM     11  C   UNL     1      25.221  51.963  17.233  1.00  0.00     0.087 C 
BRANCH  11  12
ATOM     12  C   UNL     1      25.645  52.842  18.443  1.00  0.00     0.066 C 
BRANCH  12  13
ATOM     13  C   UNL     1      26.798  53.764  18.074  1.00  0.00     0.140 C 
ATOM     14  O   UNL     1      27.340  54.451  18.929  1.00  0.00    -0.299 OA
BRANCH  13  15
ATOM     15  C   UNL     1      27.314  53.801  16.656  1.00  0.00     0.106 CG0
ATOM     16  G   UNL     1      28.791  53.443  16.534  1.00  0.00     0.000 G0
ENDBRANCH  13  15
ENDBRANCH  12  13
BRANCH  12  17
ATOM     17  C   UNL     1      24.456  53.628  19.086  1.00  0.00    -0.006 C 
ATOM     18  C   UNL     1      23.091  53.341  18.431  1.00  0.00     0.008 C 
ATOM     19  C   UNL     1      24.368  53.378  20.600  1.00  0.00     0.008 C 
ENDBRANCH  12  17
ENDBRANCH  11  12
ENDBRANCH   1  11
TORSDOF 1
ENDMDL
