MODEL 1
REMARK VINA RESULT:    -4.585      0.000      0.000
REMARK INTER + INTRA:          -5.013
REMARK INTER:                  -4.987
REMARK INTRA:                  -0.025
REMARK UNBOUND:                -0.025
REMARK SMILES COc1ccccc1O
REMARK SMILES IDX 3 1 4 2 5 3 6 4 7 5 8 6 2 7 1 8 9 9
REMARK H PARENT 9 10
REMARK Flexibility Score: inf
ROOT
ATOM      1  C   UNL     1      31.170 -13.464  41.078  1.00  0.00     0.160 A 
ATOM      2  C   UNL     1      32.047 -14.501  41.459  1.00  0.00     0.050 A 
ATOM      3  C   UNL     1      32.869 -14.353  42.579  1.00  0.00     0.004 A 
ATOM      4  C   UNL     1      32.830 -13.177  43.328  1.00  0.00     0.004 A 
ATOM      5  C   UNL     1      31.965 -12.143  42.960  1.00  0.00     0.050 A 
ATOM      6  C   UNL     1      31.136 -12.280  41.840  1.00  0.00     0.157 A 
ENDROOT
BRANCH   1   7
ATOM      7  O   UNL     1      30.328 -13.576  39.960  1.00  0.00    -0.493 OA
ATOM      8  C   UNL     1      30.079 -14.788  39.255  1.00  0.00     0.278 C 
ENDBRANCH   1   7
BRANCH   6   9
ATOM      9  O   UNL     1      30.285 -11.228  41.501  1.00  0.00    -0.504 OA
ATOM     10  H   UNL     1      30.526 -10.260  41.680  1.00  0.00     0.293 HD
ENDBRANCH   6   9
TORSDOF 2
ENDMDL
MODEL 2
REMARK VINA RESULT:    -4.545      1.527      2.919
REMARK INTER + INTRA:          -4.969
REMARK INTER:                  -4.923
REMARK INTRA:                  -0.045
REMARK UNBOUND:                -0.025
REMARK SMILES COc1ccccc1O
REMARK SMILES IDX 3 1 4 2 5 3 6 4 7 5 8 6 2 7 1 8 9 9
REMARK H PARENT 9 10
REMARK Flexibility Score: inf
ROOT
ATOM      1  C   UNL     1      31.361 -12.595  41.867  1.00  0.00     0.160 A 
ATOM      2  C   UNL     1      30.666 -13.571  41.123  1.00  0.00     0.050 A 
ATOM      3  C   UNL     1      31.116 -14.894  41.100  1.00  0.00     0.004 A 
ATOM      4  C   UNL     1      32.259 -15.259  41.813  1.00  0.00     0.004 A 
ATOM      5  C   UNL     1      32.956 -14.300  42.552  1.00  0.00     0.050 A 
ATOM      6  C   UNL     1      32.515 -12.972  42.583  1.00  0.00     0.157 A 
ENDROOT
BRANCH   1   7
ATOM      7  O   UNL     1      30.940 -11.257  41.915  1.00  0.00    -0.493 OA
ATOM      8  C   UNL     1      29.948 -10.755  42.804  1.00  0.00     0.278 C 
ENDBRANCH   1   7
BRANCH   6   9
ATOM      9  O   UNL     1      33.235 -12.041  43.332  1.00  0.00    -0.504 OA
ATOM     10  H   UNL     1      32.854 -11.609  44.166  1.00  0.00     0.293 HD
ENDBRANCH   6   9
TORSDOF 2
ENDMDL
MODEL 3
REMARK VINA RESULT:    -4.520      2.030      3.573
REMARK INTER + INTRA:          -4.942
REMARK INTER:                  -4.898
REMARK INTRA:                  -0.044
REMARK UNBOUND:                -0.025
REMARK SMILES COc1ccccc1O
REMARK SMILES IDX 3 1 4 2 5 3 6 4 7 5 8 6 2 7 1 8 9 9
REMARK H PARENT 9 10
REMARK Flexibility Score: inf
ROOT
ATOM      1  C   UNL     1      31.255 -11.357  42.647  1.00  0.00     0.160 A 
ATOM      2  C   UNL     1      30.443 -12.160  41.820  1.00  0.00     0.050 A 
ATOM      3  C   UNL     1      30.896 -13.408  41.383  1.00  0.00     0.004 A 
ATOM      4  C   UNL     1      32.159 -13.867  41.761  1.00  0.00     0.004 A 
ATOM      5  C   UNL     1      32.973 -13.079  42.579  1.00  0.00     0.050 A 
ATOM      6  C   UNL     1      32.529 -11.828  43.023  1.00  0.00     0.157 A 
ENDROOT
BRANCH   1   7
ATOM      7  O   UNL     1      30.835 -10.099  43.106  1.00  0.00    -0.493 OA
ATOM      8  C   UNL     1      29.827  -9.895  44.091  1.00  0.00     0.278 C 
ENDBRANCH   1   7
BRANCH   6   9
ATOM      9  O   UNL     1      33.367 -11.068  43.838  1.00  0.00    -0.504 OA
ATOM     10  H   UNL     1      33.007 -10.385  44.495  1.00  0.00     0.293 HD
ENDBRANCH   6   9
TORSDOF 2
ENDMDL
MODEL 4
REMARK VINA RESULT:    -4.421      2.349      3.428
REMARK INTER + INTRA:          -4.834
REMARK INTER:                  -4.808
REMARK INTRA:                  -0.027
REMARK UNBOUND:                -0.025
REMARK SMILES COc1ccccc1O
REMARK SMILES IDX 3 1 4 2 5 3 6 4 7 5 8 6 2 7 1 8 9 9
REMARK H PARENT 9 10
REMARK Flexibility Score: inf
ROOT
ATOM      1  C   UNL     1      32.843 -14.553  42.526  1.00  0.00     0.160 A 
ATOM      2  C   UNL     1      32.102 -15.435  41.713  1.00  0.00     0.050 A 
ATOM      3  C   UNL     1      31.050 -14.956  40.929  1.00  0.00     0.004 A 
ATOM      4  C   UNL     1      30.722 -13.600  40.947  1.00  0.00     0.004 A 
ATOM      5  C   UNL     1      31.448 -12.717  41.750  1.00  0.00     0.050 A 
ATOM      6  C   UNL     1      32.505 -13.185  42.539  1.00  0.00     0.157 A 
ENDROOT
BRANCH   1   7
ATOM      7  O   UNL     1      33.907 -14.997  43.327  1.00  0.00    -0.493 OA
ATOM      8  C   UNL     1      34.724 -16.125  43.031  1.00  0.00     0.278 C 
ENDBRANCH   1   7
BRANCH   6   9
ATOM      9  O   UNL     1      33.209 -12.276  43.329  1.00  0.00    -0.504 OA
ATOM     10  H   UNL     1      33.575 -12.524  44.241  1.00  0.00     0.293 HD
ENDBRANCH   6   9
TORSDOF 2
ENDMDL
MODEL 5
REMARK VINA RESULT:    -4.361      2.028      2.667
REMARK INTER + INTRA:          -4.769
REMARK INTER:                  -4.743
REMARK INTRA:                  -0.025
REMARK UNBOUND:                -0.025
REMARK SMILES COc1ccccc1O
REMARK SMILES IDX 3 1 4 2 5 3 6 4 7 5 8 6 2 7 1 8 9 9
REMARK H PARENT 9 10
REMARK Flexibility Score: inf
ROOT
ATOM      1  C   UNL     1      31.705 -13.542  42.035  1.00  0.00     0.160 A 
ATOM      2  C   UNL     1      30.779 -12.605  41.532  1.00  0.00     0.050 A 
ATOM      3  C   UNL     1      30.784 -11.288  41.997  1.00  0.00     0.004 A 
ATOM      4  C   UNL     1      31.706 -10.889  42.966  1.00  0.00     0.004 A 
ATOM      5  C   UNL     1      32.627 -11.808  43.472  1.00  0.00     0.050 A 
ATOM      6  C   UNL     1      32.632 -13.130  43.014  1.00  0.00     0.157 A 
ENDROOT
BRANCH   1   7
ATOM      7  O   UNL     1      31.731 -14.873  41.593  1.00  0.00    -0.493 OA
ATOM      8  C   UNL     1      30.972 -15.375  40.497  1.00  0.00     0.278 C 
ENDBRANCH   1   7
BRANCH   6   9
ATOM      9  O   UNL     1      33.567 -14.022  43.541  1.00  0.00    -0.504 OA
ATOM     10  H   UNL     1      33.770 -14.067  44.533  1.00  0.00     0.293 HD
ENDBRANCH   6   9
TORSDOF 2
ENDMDL
MODEL 6
REMARK VINA RESULT:    -4.352      1.804      3.190
REMARK INTER + INTRA:          -4.759
REMARK INTER:                  -4.733
REMARK INTRA:                  -0.026
REMARK UNBOUND:                -0.025
REMARK SMILES COc1ccccc1O
REMARK SMILES IDX 3 1 4 2 5 3 6 4 7 5 8 6 2 7 1 8 9 9
REMARK H PARENT 9 10
REMARK Flexibility Score: inf
ROOT
ATOM      1  C   UNL     1      32.265 -13.760  42.421  1.00  0.00     0.160 A 
ATOM      2  C   UNL     1      32.909 -12.615  42.932  1.00  0.00     0.050 A 
ATOM      3  C   UNL     1      32.276 -11.370  42.887  1.00  0.00     0.004 A 
ATOM      4  C   UNL     1      31.001 -11.251  42.333  1.00  0.00     0.004 A 
ATOM      5  C   UNL     1      30.354 -12.379  41.823  1.00  0.00     0.050 A 
ATOM      6  C   UNL     1      30.978 -13.631  41.863  1.00  0.00     0.157 A 
ENDROOT
BRANCH   1   7
ATOM      7  O   UNL     1      32.869 -15.027  42.449  1.00  0.00    -0.493 OA
ATOM      8  C   UNL     1      33.948 -15.389  43.305  1.00  0.00     0.278 C 
ENDBRANCH   1   7
BRANCH   6   9
ATOM      9  O   UNL     1      30.303 -14.736  41.344  1.00  0.00    -0.504 OA
ATOM     10  H   UNL     1      29.428 -14.647  40.840  1.00  0.00     0.293 HD
ENDBRANCH   6   9
TORSDOF 2
ENDMDL
MODEL 7
REMARK VINA RESULT:    -4.329      2.022      3.480
REMARK INTER + INTRA:          -4.735
REMARK INTER:                  -4.699
REMARK INTRA:                  -0.036
REMARK UNBOUND:                -0.025
REMARK SMILES COc1ccccc1O
REMARK SMILES IDX 3 1 4 2 5 3 6 4 7 5 8 6 2 7 1 8 9 9
REMARK H PARENT 9 10
REMARK Flexibility Score: inf
ROOT
ATOM      1  C   UNL     1      31.989 -11.650  42.896  1.00  0.00     0.160 A 
ATOM      2  C   UNL     1      32.123 -11.208  44.228  1.00  0.00     0.050 A 
ATOM      3  C   UNL     1      31.149 -10.387  44.801  1.00  0.00     0.004 A 
ATOM      4  C   UNL     1      30.035  -9.996  44.056  1.00  0.00     0.004 A 
ATOM      5  C   UNL     1      29.892 -10.427  42.735  1.00  0.00     0.050 A 
ATOM      6  C   UNL     1      30.862 -11.250  42.151  1.00  0.00     0.157 A 
ENDROOT
BRANCH   1   7
ATOM      7  O   UNL     1      32.947 -12.476  42.286  1.00  0.00    -0.493 OA
ATOM      8  C   UNL     1      32.926 -13.899  42.324  1.00  0.00     0.278 C 
ENDBRANCH   1   7
BRANCH   6   9
ATOM      9  O   UNL     1      30.687 -11.662  40.830  1.00  0.00    -0.504 OA
ATOM     10  H   UNL     1      31.457 -12.004  40.265  1.00  0.00     0.293 HD
ENDBRANCH   6   9
TORSDOF 2
ENDMDL
MODEL 8
REMARK VINA RESULT:    -2.914      1.356      3.223
REMARK INTER + INTRA:          -3.195
REMARK INTER:                  -3.149
REMARK INTRA:                  -0.046
REMARK UNBOUND:                -0.025
REMARK SMILES COc1ccccc1O
REMARK SMILES IDX 3 1 4 2 5 3 6 4 7 5 8 6 2 7 1 8 9 9
REMARK H PARENT 9 10
REMARK Flexibility Score: inf
ROOT
ATOM      1  C   UNL     1      31.816 -13.750  41.551  1.00  0.00     0.160 A 
ATOM      2  C   UNL     1      32.146 -15.094  41.823  1.00  0.00     0.050 A 
ATOM      3  C   UNL     1      31.589 -16.125  41.062  1.00  0.00     0.004 A 
ATOM      4  C   UNL     1      30.700 -15.832  40.027  1.00  0.00     0.004 A 
ATOM      5  C   UNL     1      30.366 -14.504  39.750  1.00  0.00     0.050 A 
ATOM      6  C   UNL     1      30.918 -13.463  40.505  1.00  0.00     0.157 A 
ENDROOT
BRANCH   1   7
ATOM      7  O   UNL     1      32.356 -12.688  42.293  1.00  0.00    -0.493 OA
ATOM      8  C   UNL     1      31.853 -12.244  43.550  1.00  0.00     0.278 C 
ENDBRANCH   1   7
BRANCH   6   9
ATOM      9  O   UNL     1      30.562 -12.149  40.200  1.00  0.00    -0.504 OA
ATOM     10  H   UNL     1      30.078 -11.905  39.343  1.00  0.00     0.293 HD
ENDBRANCH   6   9
TORSDOF 2
ENDMDL
