MODEL 1
REMARK VINA RESULT:    -5.606      0.000      0.000
REMARK INTER + INTRA:          -8.124
REMARK INTER:                  -7.572
REMARK INTRA:                  -0.552
REMARK UNBOUND:                -0.552
REMARK SMILES O=c1c(-c2ccc(O)cc2)coc2c([C@@H]3O[C@H](CO)[C@H](O)[C@@H](O)[C@H]3O)c(O)ccc12
REMARK SMILES IDX 3 1 11 2 12 3 13 4 30 5 2 6 1 7 29 8 28 9 26 10 14 11 4 12
REMARK SMILES IDX 5 13 6 14 7 15 10 16 9 17 8 18 15 20 24 21 16 22 22 23 17 24
REMARK SMILES IDX 20 25 25 26 23 28 18 30 19 31 21 33 27 35
REMARK H PARENT 8 19 25 27 23 29 19 32 21 34 27 36
REMARK Flexibility Score: inf
ROOT
ATOM      1  C   UNL     1     170.973 146.107 183.003  1.00  0.00     0.065 A 
ATOM      2  C   UNL     1     169.946 146.268 183.943  1.00  0.00     0.208 A 
ATOM      3  O   UNL     1     170.192 146.166 185.244  1.00  0.00    -0.463 OA
ATOM      4  C   UNL     1     171.400 145.911 185.740  1.00  0.00     0.147 A 
ATOM      5  C   UNL     1     172.496 145.744 184.860  1.00  0.00     0.066 A 
ATOM      6  C   UNL     1     172.272 145.848 183.476  1.00  0.00     0.200 A 
ATOM      7  O   UNL     1     173.233 145.733 182.666  1.00  0.00    -0.288 OA
ATOM      8  C   UNL     1     173.772 145.490 185.386  1.00  0.00     0.020 A 
ATOM      9  C   UNL     1     173.960 145.410 186.764  1.00  0.00     0.047 A 
ATOM     10  C   UNL     1     172.883 145.576 187.644  1.00  0.00     0.125 A 
ATOM     11  C   UNL     1     171.584 145.811 187.139  1.00  0.00     0.069 A 
ENDROOT
BRANCH   1  12
ATOM     12  C   UNL     1     170.671 146.217 181.553  1.00  0.00    -0.011 A 
ATOM     13  C   UNL     1     169.565 145.542 181.006  1.00  0.00     0.013 A 
ATOM     14  C   UNL     1     169.284 145.637 179.639  1.00  0.00     0.047 A 
ATOM     15  C   UNL     1     170.103 146.400 178.803  1.00  0.00     0.115 A 
ATOM     16  C   UNL     1     171.495 146.978 180.704  1.00  0.00     0.013 A 
ATOM     17  C   UNL     1     171.211 147.070 179.339  1.00  0.00     0.047 A 
BRANCH  15  18
ATOM     18  O   UNL     1     169.811 146.486 177.444  1.00  0.00    -0.508 OA
ATOM     19  H   UNL     1     170.279 147.154 176.842  1.00  0.00     0.293 HD
ENDBRANCH  15  18
ENDBRANCH   1  12
BRANCH  11  20
ATOM     20  C   UNL     1     170.414 146.013 188.092  1.00  0.00     0.188 C 
ATOM     21  C   UNL     1     169.844 144.644 188.530  1.00  0.00     0.179 C 
ATOM     22  O   UNL     1     170.854 146.768 189.211  1.00  0.00    -0.362 OA
ATOM     23  C   UNL     1     168.717 144.832 189.567  1.00  0.00     0.177 C 
ATOM     24  C   UNL     1     169.770 147.086 190.066  1.00  0.00     0.176 C 
ATOM     25  C   UNL     1     169.157 145.803 190.685  1.00  0.00     0.177 C 
BRANCH  21  26
ATOM     26  O   UNL     1     169.353 143.955 187.408  1.00  0.00    -0.387 OA
ATOM     27  H   UNL     1     169.350 144.600 186.654  1.00  0.00     0.211 HD
ENDBRANCH  21  26
BRANCH  23  28
ATOM     28  O   UNL     1     167.570 145.331 188.925  1.00  0.00    -0.387 OA
ATOM     29  H   UNL     1     166.873 144.629 188.993  1.00  0.00     0.211 HD
ENDBRANCH  23  28
BRANCH  24  30
ATOM     30  C   UNL     1     170.242 148.075 191.140  1.00  0.00     0.191 C 
BRANCH  30  31
ATOM     31  O   UNL     1     170.597 149.301 190.564  1.00  0.00    -0.394 OA
ATOM     32  H   UNL     1     169.814 149.899 190.685  1.00  0.00     0.210 HD
ENDBRANCH  30  31
ENDBRANCH  24  30
BRANCH  25  33
ATOM     33  O   UNL     1     170.041 145.167 191.578  1.00  0.00    -0.388 OA
ATOM     34  H   UNL     1     169.765 145.393 192.503  1.00  0.00     0.211 HD
ENDBRANCH  25  33
ENDBRANCH  11  20
BRANCH  10  35
ATOM     35  O   UNL     1     173.107 145.510 189.019  1.00  0.00    -0.507 OA
ATOM     36  H   UNL     1     173.063 146.334 189.608  1.00  0.00     0.293 HD
ENDBRANCH  10  35
TORSDOF 9
ENDMDL
MODEL 2
REMARK VINA RESULT:    -5.597      8.601     12.392
REMARK INTER + INTRA:          -8.112
REMARK INTER:                  -7.435
REMARK INTRA:                  -0.677
REMARK UNBOUND:                -0.552
REMARK SMILES O=c1c(-c2ccc(O)cc2)coc2c([C@@H]3O[C@H](CO)[C@H](O)[C@@H](O)[C@H]3O)c(O)ccc12
REMARK SMILES IDX 3 1 11 2 12 3 13 4 30 5 2 6 1 7 29 8 28 9 26 10 14 11 4 12
REMARK SMILES IDX 5 13 6 14 7 15 10 16 9 17 8 18 15 20 24 21 16 22 22 23 17 24
REMARK SMILES IDX 20 25 25 26 23 28 18 30 19 31 21 33 27 35
REMARK H PARENT 8 19 25 27 23 29 19 32 21 34 27 36
REMARK Flexibility Score: inf
ROOT
ATOM      1  C   UNL     1     172.488 152.713 191.561  1.00  0.00     0.065 A 
ATOM      2  C   UNL     1     172.255 153.954 192.170  1.00  0.00     0.208 A 
ATOM      3  O   UNL     1     172.511 155.087 191.528  1.00  0.00    -0.463 OA
ATOM      4  C   UNL     1     172.994 155.129 190.289  1.00  0.00     0.147 A 
ATOM      5  C   UNL     1     173.248 153.922 189.596  1.00  0.00     0.066 A 
ATOM      6  C   UNL     1     172.986 152.703 190.246  1.00  0.00     0.200 A 
ATOM      7  O   UNL     1     173.175 151.609 189.646  1.00  0.00    -0.288 OA
ATOM      8  C   UNL     1     173.743 153.969 188.283  1.00  0.00     0.020 A 
ATOM      9  C   UNL     1     173.974 155.196 187.664  1.00  0.00     0.047 A 
ATOM     10  C   UNL     1     173.724 156.397 188.339  1.00  0.00     0.125 A 
ATOM     11  C   UNL     1     173.246 156.376 189.669  1.00  0.00     0.069 A 
ENDROOT
BRANCH   1  12
ATOM     12  C   UNL     1     172.203 151.459 192.304  1.00  0.00    -0.011 A 
ATOM     13  C   UNL     1     170.884 150.984 192.412  1.00  0.00     0.013 A 
ATOM     14  C   UNL     1     170.611 149.808 193.118  1.00  0.00     0.047 A 
ATOM     15  C   UNL     1     171.648 149.096 193.727  1.00  0.00     0.115 A 
ATOM     16  C   UNL     1     173.240 150.741 192.925  1.00  0.00     0.013 A 
ATOM     17  C   UNL     1     172.964 149.566 193.630  1.00  0.00     0.047 A 
BRANCH  15  18
ATOM     18  O   UNL     1     171.362 147.926 194.427  1.00  0.00    -0.508 OA
ATOM     19  H   UNL     1     172.087 147.258 194.661  1.00  0.00     0.293 HD
ENDBRANCH  15  18
ENDBRANCH   1  12
BRANCH  11  20
ATOM     20  C   UNL     1     172.952 157.679 190.401  1.00  0.00     0.188 C 
ATOM     21  C   UNL     1     171.428 157.945 190.417  1.00  0.00     0.179 C 
ATOM     22  O   UNL     1     173.472 157.596 191.719  1.00  0.00    -0.362 OA
ATOM     23  C   UNL     1     171.108 159.214 191.235  1.00  0.00     0.177 C 
ATOM     24  C   UNL     1     173.329 158.832 192.399  1.00  0.00     0.176 C 
ATOM     25  C   UNL     1     171.832 159.185 192.598  1.00  0.00     0.177 C 
BRANCH  21  26
ATOM     26  O   UNL     1     170.960 158.092 189.100  1.00  0.00    -0.387 OA
ATOM     27  H   UNL     1     169.990 158.291 189.161  1.00  0.00     0.211 HD
ENDBRANCH  21  26
BRANCH  23  28
ATOM     28  O   UNL     1     171.504 160.351 190.507  1.00  0.00    -0.387 OA
ATOM     29  H   UNL     1     171.373 160.138 189.547  1.00  0.00     0.211 HD
ENDBRANCH  23  28
BRANCH  24  30
ATOM     30  C   UNL     1     174.089 158.770 193.731  1.00  0.00     0.191 C 
BRANCH  30  31
ATOM     31  O   UNL     1     173.764 157.603 194.434  1.00  0.00    -0.394 OA
ATOM     32  H   UNL     1     173.188 157.889 195.191  1.00  0.00     0.210 HD
ENDBRANCH  30  31
ENDBRANCH  24  30
BRANCH  25  33
ATOM     33  O   UNL     1     171.190 158.301 193.485  1.00  0.00    -0.388 OA
ATOM     34  H   UNL     1     171.412 157.373 193.217  1.00  0.00     0.211 HD
ENDBRANCH  25  33
ENDBRANCH  11  20
BRANCH  10  35
ATOM     35  O   UNL     1     173.947 157.609 187.686  1.00  0.00    -0.507 OA
ATOM     36  H   UNL     1     173.340 157.935 186.944  1.00  0.00     0.293 HD
ENDBRANCH  10  35
TORSDOF 9
ENDMDL
MODEL 3
REMARK VINA RESULT:    -5.550      7.392     11.429
REMARK INTER + INTRA:          -8.049
REMARK INTER:                  -6.882
REMARK INTRA:                  -1.166
REMARK UNBOUND:                -0.552
REMARK SMILES O=c1c(-c2ccc(O)cc2)coc2c([C@@H]3O[C@H](CO)[C@H](O)[C@@H](O)[C@H]3O)c(O)ccc12
REMARK SMILES IDX 3 1 11 2 12 3 13 4 30 5 2 6 1 7 29 8 28 9 26 10 14 11 4 12
REMARK SMILES IDX 5 13 6 14 7 15 10 16 9 17 8 18 15 20 24 21 16 22 22 23 17 24
REMARK SMILES IDX 20 25 25 26 23 28 18 30 19 31 21 33 27 35
REMARK H PARENT 8 19 25 27 23 29 19 32 21 34 27 36
REMARK Flexibility Score: inf
ROOT
ATOM      1  C   UNL     1     171.976 150.811 191.455  1.00  0.00     0.065 A 
ATOM      2  C   UNL     1     171.607 151.831 192.343  1.00  0.00     0.208 A 
ATOM      3  O   UNL     1     171.957 153.091 192.116  1.00  0.00    -0.463 OA
ATOM      4  C   UNL     1     172.665 153.471 191.055  1.00  0.00     0.147 A 
ATOM      5  C   UNL     1     173.070 152.507 190.103  1.00  0.00     0.066 A 
ATOM      6  C   UNL     1     172.714 151.163 190.311  1.00  0.00     0.200 A 
ATOM      7  O   UNL     1     173.035 150.281 189.466  1.00  0.00    -0.288 OA
ATOM      8  C   UNL     1     173.804 152.912 188.976  1.00  0.00     0.020 A 
ATOM      9  C   UNL     1     174.124 154.256 188.794  1.00  0.00     0.047 A 
ATOM     10  C   UNL     1     173.725 155.219 189.729  1.00  0.00     0.125 A 
ATOM     11  C   UNL     1     173.005 154.834 190.882  1.00  0.00     0.069 A 
ENDROOT
BRANCH   1  12
ATOM     12  C   UNL     1     171.580 149.408 191.736  1.00  0.00    -0.011 A 
ATOM     13  C   UNL     1     172.442 148.559 192.454  1.00  0.00     0.013 A 
ATOM     14  C   UNL     1     172.075 147.234 192.712  1.00  0.00     0.047 A 
ATOM     15  C   UNL     1     170.851 146.739 192.254  1.00  0.00     0.115 A 
ATOM     16  C   UNL     1     170.353 148.901 191.272  1.00  0.00     0.013 A 
ATOM     17  C   UNL     1     169.991 147.576 191.531  1.00  0.00     0.047 A 
BRANCH  15  18
ATOM     18  O   UNL     1     170.499 145.418 192.519  1.00  0.00    -0.508 OA
ATOM     19  H   UNL     1     170.226 145.118 193.447  1.00  0.00     0.293 HD
ENDBRANCH  15  18
ENDBRANCH   1  12
BRANCH  11  20
ATOM     20  C   UNL     1     172.551 155.880 191.891  1.00  0.00     0.188 C 
ATOM     21  C   UNL     1     173.700 156.201 192.876  1.00  0.00     0.179 C 
ATOM     22  O   UNL     1     172.134 157.045 191.193  1.00  0.00    -0.362 OA
ATOM     23  C   UNL     1     173.285 157.326 193.846  1.00  0.00     0.177 C 
ATOM     24  C   UNL     1     171.588 158.001 192.085  1.00  0.00     0.176 C 
ATOM     25  C   UNL     1     172.665 158.513 193.076  1.00  0.00     0.177 C 
BRANCH  21  26
ATOM     26  O   UNL     1     174.039 155.045 193.599  1.00  0.00    -0.387 OA
ATOM     27  H   UNL     1     173.289 154.404 193.484  1.00  0.00     0.211 HD
ENDBRANCH  21  26
BRANCH  23  28
ATOM     28  O   UNL     1     172.357 156.823 194.776  1.00  0.00    -0.387 OA
ATOM     29  H   UNL     1     171.668 157.526 194.904  1.00  0.00     0.211 HD
ENDBRANCH  23  28
BRANCH  24  30
ATOM     30  C   UNL     1     170.957 159.145 191.279  1.00  0.00     0.191 C 
BRANCH  30  31
ATOM     31  O   UNL     1     170.892 160.315 192.045  1.00  0.00    -0.394 OA
ATOM     32  H   UNL     1     170.309 160.105 192.821  1.00  0.00     0.210 HD
ENDBRANCH  30  31
ENDBRANCH  24  30
BRANCH  25  33
ATOM     33  O   UNL     1     173.665 159.267 192.434  1.00  0.00    -0.388 OA
ATOM     34  H   UNL     1     173.811 158.886 191.531  1.00  0.00     0.211 HD
ENDBRANCH  25  33
ENDBRANCH  11  20
BRANCH  10  35
ATOM     35  O   UNL     1     174.044 156.559 189.509  1.00  0.00    -0.507 OA
ATOM     36  H   UNL     1     173.771 157.287 190.159  1.00  0.00     0.293 HD
ENDBRANCH  10  35
TORSDOF 9
ENDMDL
MODEL 4
REMARK VINA RESULT:    -5.485      2.012      8.215
REMARK INTER + INTRA:          -7.961
REMARK INTER:                  -6.968
REMARK INTRA:                  -0.994
REMARK UNBOUND:                -0.552
REMARK SMILES O=c1c(-c2ccc(O)cc2)coc2c([C@@H]3O[C@H](CO)[C@H](O)[C@@H](O)[C@H]3O)c(O)ccc12
REMARK SMILES IDX 3 1 11 2 12 3 13 4 30 5 2 6 1 7 29 8 28 9 26 10 14 11 4 12
REMARK SMILES IDX 5 13 6 14 7 15 10 16 9 17 8 18 15 20 24 21 16 22 22 23 17 24
REMARK SMILES IDX 20 25 25 26 23 28 18 30 19 31 21 33 27 35
REMARK H PARENT 8 19 25 27 23 29 19 32 21 34 27 36
REMARK Flexibility Score: inf
ROOT
ATOM      1  C   UNL     1     169.439 145.416 188.663  1.00  0.00     0.065 A 
ATOM      2  C   UNL     1     169.128 146.246 187.578  1.00  0.00     0.208 A 
ATOM      3  O   UNL     1     169.940 146.331 186.530  1.00  0.00    -0.463 OA
ATOM      4  C   UNL     1     171.079 145.650 186.434  1.00  0.00     0.147 A 
ATOM      5  C   UNL     1     171.464 144.780 187.481  1.00  0.00     0.066 A 
ATOM      6  C   UNL     1     170.627 144.664 188.605  1.00  0.00     0.200 A 
ATOM      7  O   UNL     1     170.926 143.875 189.544  1.00  0.00    -0.288 OA
ATOM      8  C   UNL     1     172.659 144.050 187.371  1.00  0.00     0.020 A 
ATOM      9  C   UNL     1     173.455 144.176 186.235  1.00  0.00     0.047 A 
ATOM     10  C   UNL     1     173.082 145.033 185.191  1.00  0.00     0.125 A 
ATOM     11  C   UNL     1     171.895 145.795 185.288  1.00  0.00     0.069 A 
ENDROOT
BRANCH   1  12
ATOM     12  C   UNL     1     168.520 145.345 189.827  1.00  0.00    -0.011 A 
ATOM     13  C   UNL     1     167.375 144.530 189.778  1.00  0.00     0.013 A 
ATOM     14  C   UNL     1     166.504 144.469 190.870  1.00  0.00     0.047 A 
ATOM     15  C   UNL     1     166.760 145.221 192.020  1.00  0.00     0.115 A 
ATOM     16  C   UNL     1     168.768 146.105 190.985  1.00  0.00     0.013 A 
ATOM     17  C   UNL     1     167.894 146.042 192.074  1.00  0.00     0.047 A 
BRANCH  15  18
ATOM     18  O   UNL     1     165.883 145.150 193.100  1.00  0.00    -0.508 OA
ATOM     19  H   UNL     1     165.049 145.723 193.144  1.00  0.00     0.293 HD
ENDBRANCH  15  18
ENDBRANCH   1  12
BRANCH  11  20
ATOM     20  C   UNL     1     171.475 146.711 184.147  1.00  0.00     0.188 C 
ATOM     21  C   UNL     1     172.551 147.797 183.914  1.00  0.00     0.179 C 
ATOM     22  O   UNL     1     171.272 145.930 182.978  1.00  0.00    -0.362 OA
ATOM     23  C   UNL     1     172.182 148.676 182.701  1.00  0.00     0.177 C 
ATOM     24  C   UNL     1     170.761 146.724 181.921  1.00  0.00     0.176 C 
ATOM     25  C   UNL     1     171.789 147.802 181.490  1.00  0.00     0.177 C 
BRANCH  21  26
ATOM     26  O   UNL     1     172.675 148.594 185.065  1.00  0.00    -0.387 OA
ATOM     27  H   UNL     1     172.474 148.010 185.842  1.00  0.00     0.211 HD
ENDBRANCH  21  26
BRANCH  23  28
ATOM     28  O   UNL     1     171.113 149.523 183.046  1.00  0.00    -0.387 OA
ATOM     29  H   UNL     1     170.425 148.955 183.480  1.00  0.00     0.211 HD
ENDBRANCH  23  28
BRANCH  24  30
ATOM     30  C   UNL     1     170.355 145.815 180.753  1.00  0.00     0.191 C 
BRANCH  30  31
ATOM     31  O   UNL     1     170.357 146.526 179.546  1.00  0.00    -0.394 OA
ATOM     32  H   UNL     1     171.262 146.926 179.464  1.00  0.00     0.210 HD
ENDBRANCH  30  31
ENDBRANCH  24  30
BRANCH  25  33
ATOM     33  O   UNL     1     172.932 147.239 180.891  1.00  0.00    -0.388 OA
ATOM     34  H   UNL     1     173.429 146.731 181.582  1.00  0.00     0.211 HD
ENDBRANCH  25  33
ENDBRANCH  11  20
BRANCH  10  35
ATOM     35  O   UNL     1     173.891 145.124 184.058  1.00  0.00    -0.507 OA
ATOM     36  H   UNL     1     173.988 144.352 183.408  1.00  0.00     0.293 HD
ENDBRANCH  10  35
TORSDOF 9
ENDMDL
MODEL 5
REMARK VINA RESULT:    -5.436      2.824      8.656
REMARK INTER + INTRA:          -7.895
REMARK INTER:                  -6.851
REMARK INTRA:                  -1.044
REMARK UNBOUND:                -0.552
REMARK SMILES O=c1c(-c2ccc(O)cc2)coc2c([C@@H]3O[C@H](CO)[C@H](O)[C@@H](O)[C@H]3O)c(O)ccc12
REMARK SMILES IDX 3 1 11 2 12 3 13 4 30 5 2 6 1 7 29 8 28 9 26 10 14 11 4 12
REMARK SMILES IDX 5 13 6 14 7 15 10 16 9 17 8 18 15 20 24 21 16 22 22 23 17 24
REMARK SMILES IDX 20 25 25 26 23 28 18 30 19 31 21 33 27 35
REMARK H PARENT 8 19 25 27 23 29 19 32 21 34 27 36
REMARK Flexibility Score: inf
ROOT
ATOM      1  C   UNL     1     168.739 145.388 189.552  1.00  0.00     0.065 A 
ATOM      2  C   UNL     1     169.928 146.007 189.141  1.00  0.00     0.208 A 
ATOM      3  O   UNL     1     170.171 146.230 187.855  1.00  0.00    -0.463 OA
ATOM      4  C   UNL     1     169.327 145.891 186.884  1.00  0.00     0.147 A 
ATOM      5  C   UNL     1     168.098 145.270 187.211  1.00  0.00     0.066 A 
ATOM      6  C   UNL     1     167.807 145.022 188.564  1.00  0.00     0.200 A 
ATOM      7  O   UNL     1     166.707 144.495 188.892  1.00  0.00    -0.288 OA
ATOM      8  C   UNL     1     167.202 144.928 186.186  1.00  0.00     0.020 A 
ATOM      9  C   UNL     1     167.516 145.205 184.858  1.00  0.00     0.047 A 
ATOM     10  C   UNL     1     168.728 145.822 184.523  1.00  0.00     0.125 A 
ATOM     11  C   UNL     1     169.657 146.157 185.534  1.00  0.00     0.069 A 
ENDROOT
BRANCH   1  12
ATOM     12  C   UNL     1     168.494 145.141 190.995  1.00  0.00    -0.011 A 
ATOM     13  C   UNL     1     167.610 145.966 191.714  1.00  0.00     0.013 A 
ATOM     14  C   UNL     1     167.384 145.741 193.076  1.00  0.00     0.047 A 
ATOM     15  C   UNL     1     168.038 144.696 193.736  1.00  0.00     0.115 A 
ATOM     16  C   UNL     1     169.153 144.096 191.667  1.00  0.00     0.013 A 
ATOM     17  C   UNL     1     168.925 143.875 193.028  1.00  0.00     0.047 A 
BRANCH  15  18
ATOM     18  O   UNL     1     167.803 144.484 195.093  1.00  0.00    -0.508 OA
ATOM     19  H   UNL     1     167.847 145.242 195.763  1.00  0.00     0.293 HD
ENDBRANCH  15  18
ENDBRANCH   1  12
BRANCH  11  20
ATOM     20  C   UNL     1     170.967 146.846 185.178  1.00  0.00     0.188 C 
ATOM     21  C   UNL     1     172.056 145.791 184.873  1.00  0.00     0.179 C 
ATOM     22  O   UNL     1     170.751 147.699 184.063  1.00  0.00    -0.362 OA
ATOM     23  C   UNL     1     173.363 146.476 184.420  1.00  0.00     0.177 C 
ATOM     24  C   UNL     1     171.914 148.455 183.771  1.00  0.00     0.176 C 
ATOM     25  C   UNL     1     173.079 147.532 183.330  1.00  0.00     0.177 C 
BRANCH  21  26
ATOM     26  O   UNL     1     172.294 145.013 186.018  1.00  0.00    -0.387 OA
ATOM     27  H   UNL     1     172.490 145.644 186.759  1.00  0.00     0.211 HD
ENDBRANCH  21  26
BRANCH  23  28
ATOM     28  O   UNL     1     173.978 147.087 185.528  1.00  0.00    -0.387 OA
ATOM     29  H   UNL     1     174.583 146.411 185.930  1.00  0.00     0.211 HD
ENDBRANCH  23  28
BRANCH  24  30
ATOM     30  C   UNL     1     171.580 149.511 182.708  1.00  0.00     0.191 C 
BRANCH  30  31
ATOM     31  O   UNL     1     172.732 149.890 182.007  1.00  0.00    -0.394 OA
ATOM     32  H   UNL     1     173.489 149.425 182.449  1.00  0.00     0.210 HD
ENDBRANCH  30  31
ENDBRANCH  24  30
BRANCH  25  33
ATOM     33  O   UNL     1     172.829 146.914 182.090  1.00  0.00    -0.388 OA
ATOM     34  H   UNL     1     172.424 146.025 182.261  1.00  0.00     0.211 HD
ENDBRANCH  25  33
ENDBRANCH  11  20
BRANCH  10  35
ATOM     35  O   UNL     1     169.006 146.104 183.186  1.00  0.00    -0.507 OA
ATOM     36  H   UNL     1     168.524 145.633 182.429  1.00  0.00     0.293 HD
ENDBRANCH  10  35
TORSDOF 9
ENDMDL
MODEL 6
REMARK VINA RESULT:    -5.313      2.687      5.705
REMARK INTER + INTRA:          -7.729
REMARK INTER:                  -7.073
REMARK INTRA:                  -0.656
REMARK UNBOUND:                -0.552
REMARK SMILES O=c1c(-c2ccc(O)cc2)coc2c([C@@H]3O[C@H](CO)[C@H](O)[C@@H](O)[C@H]3O)c(O)ccc12
REMARK SMILES IDX 3 1 11 2 12 3 13 4 30 5 2 6 1 7 29 8 28 9 26 10 14 11 4 12
REMARK SMILES IDX 5 13 6 14 7 15 10 16 9 17 8 18 15 20 24 21 16 22 22 23 17 24
REMARK SMILES IDX 20 25 25 26 23 28 18 30 19 31 21 33 27 35
REMARK H PARENT 8 19 25 27 23 29 19 32 21 34 27 36
REMARK Flexibility Score: inf
ROOT
ATOM      1  C   UNL     1     170.485 145.484 187.219  1.00  0.00     0.065 A 
ATOM      2  C   UNL     1     170.944 145.700 188.526  1.00  0.00     0.208 A 
ATOM      3  O   UNL     1     170.103 145.687 189.554  1.00  0.00    -0.463 OA
ATOM      4  C   UNL     1     168.796 145.473 189.424  1.00  0.00     0.147 A 
ATOM      5  C   UNL     1     168.250 145.236 188.141  1.00  0.00     0.066 A 
ATOM      6  C   UNL     1     169.112 145.240 187.030  1.00  0.00     0.200 A 
ATOM      7  O   UNL     1     168.662 145.004 185.874  1.00  0.00    -0.288 OA
ATOM      8  C   UNL     1     166.874 144.996 188.008  1.00  0.00     0.020 A 
ATOM      9  C   UNL     1     166.052 144.982 189.133  1.00  0.00     0.047 A 
ATOM     10  C   UNL     1     166.583 145.213 190.409  1.00  0.00     0.125 A 
ATOM     11  C   UNL     1     167.961 145.480 190.567  1.00  0.00     0.069 A 
ENDROOT
BRANCH   1  12
ATOM     12  C   UNL     1     171.443 145.512 186.085  1.00  0.00    -0.011 A 
ATOM     13  C   UNL     1     171.087 146.128 184.872  1.00  0.00     0.013 A 
ATOM     14  C   UNL     1     171.984 146.149 183.799  1.00  0.00     0.047 A 
ATOM     15  C   UNL     1     173.242 145.552 183.921  1.00  0.00     0.115 A 
ATOM     16  C   UNL     1     172.707 144.908 186.198  1.00  0.00     0.013 A 
ATOM     17  C   UNL     1     173.601 144.929 185.124  1.00  0.00     0.047 A 
BRANCH  15  18
ATOM     18  O   UNL     1     174.125 145.580 182.845  1.00  0.00    -0.508 OA
ATOM     19  H   UNL     1     173.817 145.377 181.901  1.00  0.00     0.293 HD
ENDBRANCH  15  18
ENDBRANCH   1  12
BRANCH  11  20
ATOM     20  C   UNL     1     168.546 145.710 191.953  1.00  0.00     0.188 C 
ATOM     21  C   UNL     1     168.494 147.215 192.308  1.00  0.00     0.179 C 
ATOM     22  O   UNL     1     167.820 144.935 192.896  1.00  0.00    -0.362 OA
ATOM     23  C   UNL     1     168.999 147.451 193.746  1.00  0.00     0.177 C 
ATOM     24  C   UNL     1     168.406 145.023 194.183  1.00  0.00     0.176 C 
ATOM     25  C   UNL     1     168.325 146.471 194.731  1.00  0.00     0.177 C 
BRANCH  21  26
ATOM     26  O   UNL     1     169.280 147.942 191.398  1.00  0.00    -0.387 OA
ATOM     27  H   UNL     1     170.194 147.557 191.436  1.00  0.00     0.211 HD
ENDBRANCH  21  26
BRANCH  23  28
ATOM     28  O   UNL     1     170.395 147.283 193.786  1.00  0.00    -0.387 OA
ATOM     29  H   UNL     1     170.795 148.190 193.763  1.00  0.00     0.211 HD
ENDBRANCH  23  28
BRANCH  24  30
ATOM     30  C   UNL     1     167.729 144.013 195.120  1.00  0.00     0.191 C 
BRANCH  30  31
ATOM     31  O   UNL     1     166.345 143.986 194.903  1.00  0.00    -0.394 OA
ATOM     32  H   UNL     1     166.180 143.237 194.273  1.00  0.00     0.210 HD
ENDBRANCH  30  31
ENDBRANCH  24  30
BRANCH  25  33
ATOM     33  O   UNL     1     167.000 146.866 194.999  1.00  0.00    -0.388 OA
ATOM     34  H   UNL     1     166.968 147.857 195.018  1.00  0.00     0.211 HD
ENDBRANCH  25  33
ENDBRANCH  11  20
BRANCH  10  35
ATOM     35  O   UNL     1     165.738 145.174 191.518  1.00  0.00    -0.507 OA
ATOM     36  H   UNL     1     165.246 144.329 191.786  1.00  0.00     0.293 HD
ENDBRANCH  10  35
TORSDOF 9
ENDMDL
MODEL 7
REMARK VINA RESULT:    -5.169      2.713      5.961
REMARK INTER + INTRA:          -7.533
REMARK INTER:                  -7.058
REMARK INTRA:                  -0.475
REMARK UNBOUND:                -0.552
REMARK SMILES O=c1c(-c2ccc(O)cc2)coc2c([C@@H]3O[C@H](CO)[C@H](O)[C@@H](O)[C@H]3O)c(O)ccc12
REMARK SMILES IDX 3 1 11 2 12 3 13 4 30 5 2 6 1 7 29 8 28 9 26 10 14 11 4 12
REMARK SMILES IDX 5 13 6 14 7 15 10 16 9 17 8 18 15 20 24 21 16 22 22 23 17 24
REMARK SMILES IDX 20 25 25 26 23 28 18 30 19 31 21 33 27 35
REMARK H PARENT 8 19 25 27 23 29 19 32 21 34 27 36
REMARK Flexibility Score: inf
ROOT
ATOM      1  C   UNL     1     169.607 145.854 188.093  1.00  0.00     0.065 A 
ATOM      2  C   UNL     1     170.123 146.589 189.169  1.00  0.00     0.208 A 
ATOM      3  O   UNL     1     169.536 146.557 190.359  1.00  0.00    -0.463 OA
ATOM      4  C   UNL     1     168.444 145.843 190.615  1.00  0.00     0.147 A 
ATOM      5  C   UNL     1     167.862 145.062 189.588  1.00  0.00     0.066 A 
ATOM      6  C   UNL     1     168.459 145.071 188.315  1.00  0.00     0.200 A 
ATOM      7  O   UNL     1     167.983 144.364 187.383  1.00  0.00    -0.288 OA
ATOM      8  C   UNL     1     166.718 144.297 189.863  1.00  0.00     0.020 A 
ATOM      9  C   UNL     1     166.164 144.299 191.141  1.00  0.00     0.047 A 
ATOM     10  C   UNL     1     166.733 145.066 192.166  1.00  0.00     0.125 A 
ATOM     11  C   UNL     1     167.871 145.862 191.909  1.00  0.00     0.069 A 
ENDROOT
BRANCH   1  12
ATOM     12  C   UNL     1     170.275 145.913 186.769  1.00  0.00    -0.011 A 
ATOM     13  C   UNL     1     171.641 145.601 186.650  1.00  0.00     0.013 A 
ATOM     14  C   UNL     1     172.275 145.665 185.405  1.00  0.00     0.047 A 
ATOM     15  C   UNL     1     171.557 146.042 184.266  1.00  0.00     0.115 A 
ATOM     16  C   UNL     1     169.560 146.299 185.620  1.00  0.00     0.013 A 
ATOM     17  C   UNL     1     170.197 146.362 184.378  1.00  0.00     0.047 A 
BRANCH  15  18
ATOM     18  O   UNL     1     172.201 146.101 183.033  1.00  0.00    -0.508 OA
ATOM     19  H   UNL     1     171.687 146.249 182.173  1.00  0.00     0.293 HD
ENDBRANCH  15  18
ENDBRANCH   1  12
BRANCH  11  20
ATOM     20  C   UNL     1     168.506 146.680 193.025  1.00  0.00     0.188 C 
ATOM     21  C   UNL     1     169.915 146.131 193.350  1.00  0.00     0.179 C 
ATOM     22  O   UNL     1     168.566 148.041 192.623  1.00  0.00    -0.362 OA
ATOM     23  C   UNL     1     170.606 147.007 194.415  1.00  0.00     0.177 C 
ATOM     24  C   UNL     1     169.037 148.860 193.679  1.00  0.00     0.176 C 
ATOM     25  C   UNL     1     170.501 148.503 194.046  1.00  0.00     0.177 C 
BRANCH  21  26
ATOM     26  O   UNL     1     169.811 144.807 193.811  1.00  0.00    -0.387 OA
ATOM     27  H   UNL     1     169.583 144.246 193.025  1.00  0.00     0.211 HD
ENDBRANCH  21  26
BRANCH  23  28
ATOM     28  O   UNL     1     170.008 146.781 195.668  1.00  0.00    -0.387 OA
ATOM     29  H   UNL     1     170.465 147.375 196.317  1.00  0.00     0.211 HD
ENDBRANCH  23  28
BRANCH  24  30
ATOM     30  C   UNL     1     168.886 150.336 193.284  1.00  0.00     0.191 C 
BRANCH  30  31
ATOM     31  O   UNL     1     169.105 150.507 191.911  1.00  0.00    -0.394 OA
ATOM     32  H   UNL     1     169.828 151.182 191.829  1.00  0.00     0.210 HD
ENDBRANCH  30  31
ENDBRANCH  24  30
BRANCH  25  33
ATOM     33  O   UNL     1     171.404 148.827 193.016  1.00  0.00    -0.388 OA
ATOM     34  H   UNL     1     171.676 147.988 192.565  1.00  0.00     0.211 HD
ENDBRANCH  25  33
ENDBRANCH  11  20
BRANCH  10  35
ATOM     35  O   UNL     1     166.166 145.032 193.441  1.00  0.00    -0.507 OA
ATOM     36  H   UNL     1     165.985 145.879 193.967  1.00  0.00     0.293 HD
ENDBRANCH  10  35
TORSDOF 9
ENDMDL
MODEL 8
REMARK VINA RESULT:    -5.163      2.753      5.803
REMARK INTER + INTRA:          -7.526
REMARK INTER:                  -6.464
REMARK INTRA:                  -1.062
REMARK UNBOUND:                -0.552
REMARK SMILES O=c1c(-c2ccc(O)cc2)coc2c([C@@H]3O[C@H](CO)[C@H](O)[C@@H](O)[C@H]3O)c(O)ccc12
REMARK SMILES IDX 3 1 11 2 12 3 13 4 30 5 2 6 1 7 29 8 28 9 26 10 14 11 4 12
REMARK SMILES IDX 5 13 6 14 7 15 10 16 9 17 8 18 15 20 24 21 16 22 22 23 17 24
REMARK SMILES IDX 20 25 25 26 23 28 18 30 19 31 21 33 27 35
REMARK H PARENT 8 19 25 27 23 29 19 32 21 34 27 36
REMARK Flexibility Score: inf
ROOT
ATOM      1  C   UNL     1     171.260 145.772 187.671  1.00  0.00     0.065 A 
ATOM      2  C   UNL     1     171.814 146.587 188.669  1.00  0.00     0.208 A 
ATOM      3  O   UNL     1     171.151 146.835 189.792  1.00  0.00    -0.463 OA
ATOM      4  C   UNL     1     169.943 146.340 190.049  1.00  0.00     0.147 A 
ATOM      5  C   UNL     1     169.315 145.499 189.101  1.00  0.00     0.066 A 
ATOM      6  C   UNL     1     169.990 145.214 187.901  1.00  0.00     0.200 A 
ATOM      7  O   UNL     1     169.470 144.444 187.046  1.00  0.00    -0.288 OA
ATOM      8  C   UNL     1     168.047 144.966 189.381  1.00  0.00     0.020 A 
ATOM      9  C   UNL     1     167.415 145.256 190.588  1.00  0.00     0.047 A 
ATOM     10  C   UNL     1     168.029 146.085 191.536  1.00  0.00     0.125 A 
ATOM     11  C   UNL     1     169.295 146.652 191.268  1.00  0.00     0.069 A 
ENDROOT
BRANCH   1  12
ATOM     12  C   UNL     1     172.017 145.518 186.420  1.00  0.00    -0.011 A 
ATOM     13  C   UNL     1     171.649 146.162 185.225  1.00  0.00     0.013 A 
ATOM     14  C   UNL     1     172.355 145.918 184.043  1.00  0.00     0.047 A 
ATOM     15  C   UNL     1     173.431 145.025 184.037  1.00  0.00     0.115 A 
ATOM     16  C   UNL     1     173.097 144.616 186.404  1.00  0.00     0.013 A 
ATOM     17  C   UNL     1     173.799 144.373 185.221  1.00  0.00     0.047 A 
BRANCH  15  18
ATOM     18  O   UNL     1     174.125 144.791 182.852  1.00  0.00    -0.508 OA
ATOM     19  H   UNL     1     174.965 144.225 182.832  1.00  0.00     0.293 HD
ENDBRANCH  15  18
ENDBRANCH   1  12
BRANCH  11  20
ATOM     20  C   UNL     1     169.976 147.537 192.303  1.00  0.00     0.188 C 
ATOM     21  C   UNL     1     169.554 149.012 192.101  1.00  0.00     0.179 C 
ATOM     22  O   UNL     1     169.631 147.078 193.602  1.00  0.00    -0.362 OA
ATOM     23  C   UNL     1     170.163 149.906 193.200  1.00  0.00     0.177 C 
ATOM     24  C   UNL     1     170.339 147.796 194.598  1.00  0.00     0.176 C 
ATOM     25  C   UNL     1     169.931 149.292 194.598  1.00  0.00     0.177 C 
BRANCH  21  26
ATOM     26  O   UNL     1     169.973 149.454 190.835  1.00  0.00    -0.387 OA
ATOM     27  H   UNL     1     169.343 149.067 190.173  1.00  0.00     0.211 HD
ENDBRANCH  21  26
BRANCH  23  28
ATOM     28  O   UNL     1     171.542 150.058 192.968  1.00  0.00    -0.387 OA
ATOM     29  H   UNL     1     171.659 150.172 191.990  1.00  0.00     0.211 HD
ENDBRANCH  23  28
BRANCH  24  30
ATOM     30  C   UNL     1     170.106 147.135 195.963  1.00  0.00     0.191 C 
BRANCH  30  31
ATOM     31  O   UNL     1     168.850 146.517 196.008  1.00  0.00    -0.394 OA
ATOM     32  H   UNL     1     168.356 146.840 195.210  1.00  0.00     0.210 HD
ENDBRANCH  30  31
ENDBRANCH  24  30
BRANCH  25  33
ATOM     33  O   UNL     1     168.599 149.482 195.011  1.00  0.00    -0.388 OA
ATOM     34  H   UNL     1     168.595 149.633 195.990  1.00  0.00     0.211 HD
ENDBRANCH  25  33
ENDBRANCH  11  20
BRANCH  10  35
ATOM     35  O   UNL     1     167.379 146.342 192.743  1.00  0.00    -0.507 OA
ATOM     36  H   UNL     1     166.843 147.189 192.892  1.00  0.00     0.293 HD
ENDBRANCH  10  35
TORSDOF 9
ENDMDL
MODEL 9
REMARK VINA RESULT:    -5.009      7.469      9.977
REMARK INTER + INTRA:          -7.319
REMARK INTER:                  -6.261
REMARK INTRA:                  -1.057
REMARK UNBOUND:                -0.552
REMARK SMILES O=c1c(-c2ccc(O)cc2)coc2c([C@@H]3O[C@H](CO)[C@H](O)[C@@H](O)[C@H]3O)c(O)ccc12
REMARK SMILES IDX 3 1 11 2 12 3 13 4 30 5 2 6 1 7 29 8 28 9 26 10 14 11 4 12
REMARK SMILES IDX 5 13 6 14 7 15 10 16 9 17 8 18 15 20 24 21 16 22 22 23 17 24
REMARK SMILES IDX 20 25 25 26 23 28 18 30 19 31 21 33 27 35
REMARK H PARENT 8 19 25 27 23 29 19 32 21 34 27 36
REMARK Flexibility Score: inf
ROOT
ATOM      1  C   UNL     1     172.206 154.611 190.803  1.00  0.00     0.065 A 
ATOM      2  C   UNL     1     171.523 154.011 191.870  1.00  0.00     0.208 A 
ATOM      3  O   UNL     1     171.592 152.701 192.072  1.00  0.00    -0.463 OA
ATOM      4  C   UNL     1     172.296 151.880 191.298  1.00  0.00     0.147 A 
ATOM      5  C   UNL     1     173.024 152.404 190.204  1.00  0.00     0.066 A 
ATOM      6  C   UNL     1     172.976 153.788 189.962  1.00  0.00     0.200 A 
ATOM      7  O   UNL     1     173.637 154.292 189.011  1.00  0.00    -0.288 OA
ATOM      8  C   UNL     1     173.780 151.538 189.397  1.00  0.00     0.020 A 
ATOM      9  C   UNL     1     173.819 150.174 189.677  1.00  0.00     0.047 A 
ATOM     10  C   UNL     1     173.103 149.645 190.759  1.00  0.00     0.125 A 
ATOM     11  C   UNL     1     172.318 150.492 191.573  1.00  0.00     0.069 A 
ENDROOT
BRANCH   1  12
ATOM     12  C   UNL     1     172.106 156.077 190.592  1.00  0.00    -0.011 A 
ATOM     13  C   UNL     1     172.626 156.968 191.548  1.00  0.00     0.013 A 
ATOM     14  C   UNL     1     172.526 158.349 191.356  1.00  0.00     0.047 A 
ATOM     15  C   UNL     1     171.903 158.859 190.213  1.00  0.00     0.115 A 
ATOM     16  C   UNL     1     171.475 156.597 189.448  1.00  0.00     0.013 A 
ATOM     17  C   UNL     1     171.376 157.979 189.260  1.00  0.00     0.047 A 
BRANCH  15  18
ATOM     18  O   UNL     1     171.811 160.237 190.035  1.00  0.00    -0.508 OA
ATOM     19  H   UNL     1     172.220 160.886 190.697  1.00  0.00     0.293 HD
ENDBRANCH  15  18
ENDBRANCH   1  12
BRANCH  11  20
ATOM     20  C   UNL     1     171.556 149.926 192.763  1.00  0.00     0.188 C 
ATOM     21  C   UNL     1     170.250 149.250 192.284  1.00  0.00     0.179 C 
ATOM     22  O   UNL     1     172.389 149.002 193.448  1.00  0.00    -0.362 OA
ATOM     23  C   UNL     1     169.513 148.591 193.469  1.00  0.00     0.177 C 
ATOM     24  C   UNL     1     171.766 148.540 194.634  1.00  0.00     0.176 C 
ATOM     25  C   UNL     1     170.484 147.732 194.308  1.00  0.00     0.177 C 
BRANCH  21  26
ATOM     26  O   UNL     1     169.419 150.207 191.675  1.00  0.00    -0.387 OA
ATOM     27  H   UNL     1     168.654 150.355 192.289  1.00  0.00     0.211 HD
ENDBRANCH  21  26
BRANCH  23  28
ATOM     28  O   UNL     1     168.940 149.590 194.276  1.00  0.00    -0.387 OA
ATOM     29  H   UNL     1     169.238 150.462 193.911  1.00  0.00     0.211 HD
ENDBRANCH  23  28
BRANCH  24  30
ATOM     30  C   UNL     1     172.773 147.719 195.451  1.00  0.00     0.191 C 
BRANCH  30  31
ATOM     31  O   UNL     1     173.546 146.905 194.613  1.00  0.00    -0.394 OA
ATOM     32  H   UNL     1     174.317 146.600 195.159  1.00  0.00     0.210 HD
ENDBRANCH  30  31
ENDBRANCH  24  30
BRANCH  25  33
ATOM     33  O   UNL     1     170.770 146.520 193.652  1.00  0.00    -0.388 OA
ATOM     34  H   UNL     1     171.717 146.540 193.359  1.00  0.00     0.211 HD
ENDBRANCH  25  33
ENDBRANCH  11  20
BRANCH  10  35
ATOM     35  O   UNL     1     173.177 148.277 191.025  1.00  0.00    -0.507 OA
ATOM     36  H   UNL     1     173.516 147.617 190.336  1.00  0.00     0.293 HD
ENDBRANCH  10  35
TORSDOF 9
ENDMDL
