MODEL 1
REMARK VINA RESULT:    -3.211      0.000      0.000
REMARK INTER + INTRA:          -3.794
REMARK INTER:                  -3.775
REMARK INTRA:                  -0.019
REMARK UNBOUND:                -0.019
REMARK SMILES CCCCC(=O)[O-]
REMARK SMILES IDX 4 1 5 2 6 3 7 4 3 5 2 6 1 7
REMARK H PARENT
REMARK Flexibility Score: inf
ROOT
ATOM      1  C   UNL     1      -6.064  35.316  20.996  1.00  0.00     0.053 C 
ENDROOT
BRANCH   1   2
ATOM      2  C   UNL     1      -5.236  36.085  20.012  1.00  0.00     0.041 C 
ATOM      3  O   UNL     1      -4.631  35.482  19.087  1.00  0.00    -0.550 OA
ATOM      4  O   UNL     1      -5.159  37.469  20.098  1.00  0.00    -0.550 OA
ENDBRANCH   1   2
BRANCH   1   5
ATOM      5  C   UNL     1      -6.125  36.013  22.364  1.00  0.00     0.006 C 
BRANCH   5   6
ATOM      6  C   UNL     1      -5.945  35.065  23.564  1.00  0.00    -0.003 C 
ATOM      7  C   UNL     1      -6.111  35.771  24.909  1.00  0.00     0.004 C 
ENDBRANCH   5   6
ENDBRANCH   1   5
TORSDOF 3
ENDMDL
MODEL 2
REMARK VINA RESULT:    -2.968      2.829      4.193
REMARK INTER + INTRA:          -3.508
REMARK INTER:                  -3.477
REMARK INTRA:                  -0.030
REMARK UNBOUND:                -0.019
REMARK SMILES CCCCC(=O)[O-]
REMARK SMILES IDX 4 1 5 2 6 3 7 4 3 5 2 6 1 7
REMARK H PARENT
REMARK Flexibility Score: inf
ROOT
ATOM      1  C   UNL     1      -6.084  36.156  22.636  1.00  0.00     0.053 C 
ENDROOT
BRANCH   1   2
ATOM      2  C   UNL     1      -6.093  35.238  23.820  1.00  0.00     0.041 C 
ATOM      3  O   UNL     1      -6.101  35.710  24.987  1.00  0.00    -0.550 OA
ATOM      4  O   UNL     1      -6.125  33.862  23.633  1.00  0.00    -0.550 OA
ENDBRANCH   1   2
BRANCH   1   5
ATOM      5  C   UNL     1      -6.053  35.383  21.309  1.00  0.00     0.006 C 
BRANCH   5   6
ATOM      6  C   UNL     1      -5.212  36.054  20.207  1.00  0.00    -0.003 C 
ATOM      7  C   UNL     1      -5.343  37.576  20.204  1.00  0.00     0.004 C 
ENDBRANCH   5   6
ENDBRANCH   1   5
TORSDOF 3
ENDMDL
MODEL 3
REMARK VINA RESULT:    -2.902      2.807      4.218
REMARK INTER + INTRA:          -3.431
REMARK INTER:                  -3.411
REMARK INTRA:                  -0.020
REMARK UNBOUND:                -0.019
REMARK SMILES CCCCC(=O)[O-]
REMARK SMILES IDX 4 1 5 2 6 3 7 4 3 5 2 6 1 7
REMARK H PARENT
REMARK Flexibility Score: inf
ROOT
ATOM      1  C   UNL     1      -6.125  35.830  22.337  1.00  0.00     0.053 C 
ENDROOT
BRANCH   1   2
ATOM      2  C   UNL     1      -5.982  35.096  23.635  1.00  0.00     0.041 C 
ATOM      3  O   UNL     1      -5.946  33.838  23.650  1.00  0.00    -0.550 OA
ATOM      4  O   UNL     1      -5.858  35.804  24.825  1.00  0.00    -0.550 OA
ENDBRANCH   1   2
BRANCH   1   5
ATOM      5  C   UNL     1      -5.069  35.391  21.310  1.00  0.00     0.006 C 
BRANCH   5   6
ATOM      6  C   UNL     1      -5.403  35.778  19.858  1.00  0.00    -0.003 C 
ATOM      7  C   UNL     1      -4.620  34.961  18.830  1.00  0.00     0.004 C 
ENDBRANCH   5   6
ENDBRANCH   1   5
TORSDOF 3
ENDMDL
MODEL 4
REMARK VINA RESULT:    -2.609      1.803      2.191
REMARK INTER + INTRA:          -3.085
REMARK INTER:                  -3.037
REMARK INTRA:                  -0.049
REMARK UNBOUND:                -0.019
REMARK SMILES CCCCC(=O)[O-]
REMARK SMILES IDX 4 1 5 2 6 3 7 4 3 5 2 6 1 7
REMARK H PARENT
REMARK Flexibility Score: inf
ROOT
ATOM      1  C   UNL     1      -5.068  35.936  19.676  1.00  0.00     0.053 C 
ENDROOT
BRANCH   1   2
ATOM      2  C   UNL     1      -5.170  34.808  18.694  1.00  0.00     0.041 C 
ATOM      3  O   UNL     1      -6.125  33.991  18.766  1.00  0.00    -0.550 OA
ATOM      4  O   UNL     1      -4.228  34.681  17.681  1.00  0.00    -0.550 OA
ENDBRANCH   1   2
BRANCH   1   5
ATOM      5  C   UNL     1      -5.898  35.671  20.943  1.00  0.00     0.006 C 
BRANCH   5   6
ATOM      6  C   UNL     1      -5.109  35.011  22.087  1.00  0.00    -0.003 C 
ATOM      7  C   UNL     1      -5.898  34.949  23.395  1.00  0.00     0.004 C 
ENDBRANCH   5   6
ENDBRANCH   1   5
TORSDOF 3
ENDMDL
MODEL 5
REMARK VINA RESULT:    -2.365     12.931     13.814
REMARK INTER + INTRA:          -2.799
REMARK INTER:                  -2.753
REMARK INTRA:                  -0.047
REMARK UNBOUND:                -0.019
REMARK SMILES CCCCC(=O)[O-]
REMARK SMILES IDX 4 1 5 2 6 3 7 4 3 5 2 6 1 7
REMARK H PARENT
REMARK Flexibility Score: inf
ROOT
ATOM      1  C   UNL     1      -4.563  25.234  29.684  1.00  0.00     0.053 C 
ENDROOT
BRANCH   1   2
ATOM      2  C   UNL     1      -5.102  23.835  29.667  1.00  0.00     0.041 C 
ATOM      3  O   UNL     1      -4.849  23.072  28.698  1.00  0.00    -0.550 OA
ATOM      4  O   UNL     1      -5.855  23.367  30.736  1.00  0.00    -0.550 OA
ENDBRANCH   1   2
BRANCH   1   5
ATOM      5  C   UNL     1      -5.639  26.268  29.314  1.00  0.00     0.006 C 
BRANCH   5   6
ATOM      6  C   UNL     1      -5.553  27.580  30.114  1.00  0.00    -0.003 C 
ATOM      7  C   UNL     1      -4.580  27.497  31.289  1.00  0.00     0.004 C 
ENDBRANCH   5   6
ENDBRANCH   1   5
TORSDOF 3
ENDMDL
MODEL 6
REMARK VINA RESULT:    -2.281      2.662      4.066
REMARK INTER + INTRA:          -2.700
REMARK INTER:                  -2.693
REMARK INTRA:                  -0.008
REMARK UNBOUND:                -0.019
REMARK SMILES CCCCC(=O)[O-]
REMARK SMILES IDX 4 1 5 2 6 3 7 4 3 5 2 6 1 7
REMARK H PARENT
REMARK Flexibility Score: inf
ROOT
ATOM      1  C   UNL     1      -5.721  34.848  23.653  1.00  0.00     0.053 C 
ENDROOT
BRANCH   1   2
ATOM      2  C   UNL     1      -5.769  36.151  24.392  1.00  0.00     0.041 C 
ATOM      3  O   UNL     1      -5.460  36.198  25.612  1.00  0.00    -0.550 OA
ATOM      4  O   UNL     1      -6.125  37.316  23.725  1.00  0.00    -0.550 OA
ENDBRANCH   1   2
BRANCH   1   5
ATOM      5  C   UNL     1      -6.052  35.021  22.162  1.00  0.00     0.006 C 
BRANCH   5   6
ATOM      6  C   UNL     1      -4.859  35.470  21.299  1.00  0.00    -0.003 C 
ATOM      7  C   UNL     1      -5.261  36.435  20.185  1.00  0.00     0.004 C 
ENDBRANCH   5   6
ENDBRANCH   1   5
TORSDOF 3
ENDMDL
MODEL 7
REMARK VINA RESULT:    -2.273      3.064      3.906
REMARK INTER + INTRA:          -2.691
REMARK INTER:                  -2.661
REMARK INTRA:                  -0.029
REMARK UNBOUND:                -0.019
REMARK SMILES CCCCC(=O)[O-]
REMARK SMILES IDX 4 1 5 2 6 3 7 4 3 5 2 6 1 7
REMARK H PARENT
REMARK Flexibility Score: inf
ROOT
ATOM      1  C   UNL     1      -5.344  37.920  20.370  1.00  0.00     0.053 C 
ENDROOT
BRANCH   1   2
ATOM      2  C   UNL     1      -5.778  38.899  21.419  1.00  0.00     0.041 C 
ATOM      3  O   UNL     1      -6.115  40.067  21.092  1.00  0.00    -0.550 OA
ATOM      4  O   UNL     1      -5.840  38.509  22.751  1.00  0.00    -0.550 OA
ENDBRANCH   1   2
BRANCH   1   5
ATOM      5  C   UNL     1      -5.660  36.470  20.772  1.00  0.00     0.006 C 
BRANCH   5   6
ATOM      6  C   UNL     1      -4.563  35.458  20.395  1.00  0.00    -0.003 C 
ATOM      7  C   UNL     1      -4.700  34.938  18.964  1.00  0.00     0.004 C 
ENDBRANCH   5   6
ENDBRANCH   1   5
TORSDOF 3
ENDMDL
MODEL 8
REMARK VINA RESULT:    -2.223      2.540      3.151
REMARK INTER + INTRA:          -2.632
REMARK INTER:                  -2.611
REMARK INTRA:                  -0.021
REMARK UNBOUND:                -0.019
REMARK SMILES CCCCC(=O)[O-]
REMARK SMILES IDX 4 1 5 2 6 3 7 4 3 5 2 6 1 7
REMARK H PARENT
REMARK Flexibility Score: inf
ROOT
ATOM      1  C   UNL     1      -5.146  37.227  19.886  1.00  0.00     0.053 C 
ENDROOT
BRANCH   1   2
ATOM      2  C   UNL     1      -5.330  35.743  19.800  1.00  0.00     0.041 C 
ATOM      3  O   UNL     1      -6.122  35.158  20.584  1.00  0.00    -0.550 OA
ATOM      4  O   UNL     1      -4.652  35.012  18.833  1.00  0.00    -0.550 OA
ENDBRANCH   1   2
BRANCH   1   5
ATOM      5  C   UNL     1      -5.717  37.803  21.191  1.00  0.00     0.006 C 
BRANCH   5   6
ATOM      6  C   UNL     1      -5.724  39.341  21.252  1.00  0.00    -0.003 C 
ATOM      7  C   UNL     1      -5.341  39.883  22.629  1.00  0.00     0.004 C 
ENDBRANCH   5   6
ENDBRANCH   1   5
TORSDOF 3
ENDMDL
MODEL 9
REMARK VINA RESULT:    -2.145     12.647     13.596
REMARK INTER + INTRA:          -2.541
REMARK INTER:                  -2.512
REMARK INTRA:                  -0.029
REMARK UNBOUND:                -0.019
REMARK SMILES CCCCC(=O)[O-]
REMARK SMILES IDX 4 1 5 2 6 3 7 4 3 5 2 6 1 7
REMARK H PARENT
REMARK Flexibility Score: inf
ROOT
ATOM      1  C   UNL     1      -4.313  25.958  29.906  1.00  0.00     0.053 C 
ENDROOT
BRANCH   1   2
ATOM      2  C   UNL     1      -4.912  27.211  30.469  1.00  0.00     0.041 C 
ATOM      3  O   UNL     1      -5.907  27.742  29.910  1.00  0.00    -0.550 OA
ATOM      4  O   UNL     1      -4.389  27.772  31.627  1.00  0.00    -0.550 OA
ENDBRANCH   1   2
BRANCH   1   5
ATOM      5  C   UNL     1      -5.364  25.082  29.206  1.00  0.00     0.006 C 
BRANCH   5   6
ATOM      6  C   UNL     1      -5.114  23.569  29.339  1.00  0.00    -0.003 C 
ATOM      7  C   UNL     1      -5.661  22.988  30.642  1.00  0.00     0.004 C 
ENDBRANCH   5   6
ENDBRANCH   1   5
TORSDOF 3
ENDMDL
