MODEL 1
REMARK VINA RESULT:    -6.269      0.000      0.000
REMARK INTER + INTRA:          -7.682
REMARK INTER:                  -7.368
REMARK INTRA:                  -0.314
REMARK UNBOUND:                -0.314
REMARK SMILES O=c1c(O)c(-c2ccc(O)c(O)c2)oc2cc(O)ccc12
REMARK SMILES IDX 5 1 3 2 2 3 1 4 21 5 15 6 14 7 16 8 17 9 19 10 20 11 6 12
REMARK SMILES IDX 7 13 8 14 9 15 13 16 11 17 10 18 12 20 4 22 18 24
REMARK H PARENT 10 19 12 21 4 23 18 25
REMARK Flexibility Score: inf
ROOT
ATOM      1  C   UNL     1     -12.782   2.020  -1.673  1.00  0.00     0.180 A 
ATOM      2  C   UNL     1     -13.435   1.516  -2.817  1.00  0.00     0.208 A 
ATOM      3  C   UNL     1     -12.782   1.588  -4.056  1.00  0.00     0.235 A 
ATOM      4  O   UNL     1     -13.351   1.153  -5.095  1.00  0.00    -0.285 OA
ATOM      5  C   UNL     1     -11.492   2.138  -4.126  1.00  0.00     0.069 A 
ATOM      6  C   UNL     1     -10.897   2.599  -2.933  1.00  0.00     0.142 A 
ATOM      7  O   UNL     1     -11.552   2.521  -1.780  1.00  0.00    -0.452 OA
ATOM      8  C   UNL     1      -9.609   3.145  -2.959  1.00  0.00     0.094 A 
ATOM      9  C   UNL     1      -8.906   3.238  -4.168  1.00  0.00     0.119 A 
ATOM     10  C   UNL     1      -9.496   2.783  -5.352  1.00  0.00     0.047 A 
ATOM     11  C   UNL     1     -10.782   2.235  -5.337  1.00  0.00     0.020 A 
ENDROOT
BRANCH   1  12
ATOM     12  C   UNL     1     -13.411   1.998  -0.333  1.00  0.00     0.025 A 
ATOM     13  C   UNL     1     -13.317   0.870   0.502  1.00  0.00     0.016 A 
ATOM     14  C   UNL     1     -13.940   0.863   1.752  1.00  0.00     0.051 A 
ATOM     15  C   UNL     1     -14.676   1.974   2.182  1.00  0.00     0.157 A 
ATOM     16  C   UNL     1     -14.167   3.101   0.094  1.00  0.00     0.062 A 
ATOM     17  C   UNL     1     -14.792   3.098   1.346  1.00  0.00     0.158 A 
BRANCH  15  18
ATOM     18  O   UNL     1     -15.293   1.966   3.431  1.00  0.00    -0.504 OA
ATOM     19  H   UNL     1     -15.582   1.101   3.874  1.00  0.00     0.293 HD
ENDBRANCH  15  18
BRANCH  17  20
ATOM     20  O   UNL     1     -15.523   4.218   1.742  1.00  0.00    -0.504 OA
ATOM     21  H   UNL     1     -15.192   5.161   1.581  1.00  0.00     0.293 HD
ENDBRANCH  17  20
ENDBRANCH   1  12
BRANCH   2  22
ATOM     22  O   UNL     1     -14.699   0.929  -2.708  1.00  0.00    -0.502 OA
ATOM     23  H   UNL     1     -15.418   1.058  -3.410  1.00  0.00     0.293 HD
ENDBRANCH   2  22
BRANCH   9  24
ATOM     24  O   UNL     1      -7.623   3.780  -4.204  1.00  0.00    -0.508 OA
ATOM     25  H   UNL     1      -7.454   4.753  -3.980  1.00  0.00     0.293 HD
ENDBRANCH   9  24
TORSDOF 5
ENDMDL
MODEL 2
REMARK VINA RESULT:    -6.233      3.852      5.126
REMARK INTER + INTRA:          -7.639
REMARK INTER:                  -7.340
REMARK INTRA:                  -0.299
REMARK UNBOUND:                -0.314
REMARK SMILES O=c1c(O)c(-c2ccc(O)c(O)c2)oc2cc(O)ccc12
REMARK SMILES IDX 5 1 3 2 2 3 1 4 21 5 15 6 14 7 16 8 17 9 19 10 20 11 6 12
REMARK SMILES IDX 7 13 8 14 9 15 13 16 11 17 10 18 12 20 4 22 18 24
REMARK H PARENT 10 19 12 21 4 23 18 25
REMARK Flexibility Score: inf
ROOT
ATOM      1  C   UNL     1     -12.407  -0.459   0.350  1.00  0.00     0.180 A 
ATOM      2  C   UNL     1     -12.841  -1.435  -0.571  1.00  0.00     0.208 A 
ATOM      3  C   UNL     1     -12.011  -2.536  -0.830  1.00  0.00     0.235 A 
ATOM      4  O   UNL     1     -12.373  -3.417  -1.658  1.00  0.00    -0.285 OA
ATOM      5  C   UNL     1     -10.785  -2.651  -0.157  1.00  0.00     0.069 A 
ATOM      6  C   UNL     1     -10.433  -1.644   0.767  1.00  0.00     0.142 A 
ATOM      7  O   UNL     1     -11.243  -0.612   0.978  1.00  0.00    -0.452 OA
ATOM      8  C   UNL     1      -9.224  -1.727   1.466  1.00  0.00     0.094 A 
ATOM      9  C   UNL     1      -8.357  -2.807   1.250  1.00  0.00     0.119 A 
ATOM     10  C   UNL     1      -8.703  -3.805   0.333  1.00  0.00     0.047 A 
ATOM     11  C   UNL     1      -9.910  -3.732  -0.369  1.00  0.00     0.020 A 
ENDROOT
BRANCH   1  12
ATOM     12  C   UNL     1     -13.216   0.741   0.664  1.00  0.00     0.025 A 
ATOM     13  C   UNL     1     -13.234   1.857  -0.191  1.00  0.00     0.016 A 
ATOM     14  C   UNL     1     -13.986   2.987   0.139  1.00  0.00     0.051 A 
ATOM     15  C   UNL     1     -14.719   3.026   1.331  1.00  0.00     0.157 A 
ATOM     16  C   UNL     1     -13.936   0.793   1.869  1.00  0.00     0.062 A 
ATOM     17  C   UNL     1     -14.691   1.923   2.202  1.00  0.00     0.158 A 
BRANCH  15  18
ATOM     18  O   UNL     1     -15.471   4.154   1.656  1.00  0.00    -0.504 OA
ATOM     19  H   UNL     1     -15.654   4.883   0.975  1.00  0.00     0.293 HD
ENDBRANCH  15  18
BRANCH  17  20
ATOM     20  O   UNL     1     -15.404   1.933   3.400  1.00  0.00    -0.504 OA
ATOM     21  H   UNL     1     -15.589   2.789   3.909  1.00  0.00     0.293 HD
ENDBRANCH  17  20
ENDBRANCH   1  12
BRANCH   2  22
ATOM     22  O   UNL     1     -14.089  -1.319  -1.189  1.00  0.00    -0.502 OA
ATOM     23  H   UNL     1     -14.776  -2.063  -1.164  1.00  0.00     0.293 HD
ENDBRANCH   2  22
BRANCH   9  24
ATOM     24  O   UNL     1      -7.150  -2.898   1.941  1.00  0.00    -0.508 OA
ATOM     25  H   UNL     1      -6.410  -3.517   1.634  1.00  0.00     0.293 HD
ENDBRANCH   9  24
TORSDOF 5
ENDMDL
MODEL 3
REMARK VINA RESULT:    -6.154      4.289      5.372
REMARK INTER + INTRA:          -7.547
REMARK INTER:                  -7.299
REMARK INTRA:                  -0.248
REMARK UNBOUND:                -0.314
REMARK SMILES O=c1c(O)c(-c2ccc(O)c(O)c2)oc2cc(O)ccc12
REMARK SMILES IDX 5 1 3 2 2 3 1 4 21 5 15 6 14 7 16 8 17 9 19 10 20 11 6 12
REMARK SMILES IDX 7 13 8 14 9 15 13 16 11 17 10 18 12 20 4 22 18 24
REMARK H PARENT 10 19 12 21 4 23 18 25
REMARK Flexibility Score: inf
ROOT
ATOM      1  C   UNL     1     -11.705  -1.420  -2.524  1.00  0.00     0.180 A 
ATOM      2  C   UNL     1     -13.093  -1.170  -2.534  1.00  0.00     0.208 A 
ATOM      3  C   UNL     1     -13.568  -0.017  -3.178  1.00  0.00     0.235 A 
ATOM      4  O   UNL     1     -14.805   0.233  -3.191  1.00  0.00    -0.285 OA
ATOM      5  C   UNL     1     -12.659   0.845  -3.810  1.00  0.00     0.069 A 
ATOM      6  C   UNL     1     -11.288   0.513  -3.775  1.00  0.00     0.142 A 
ATOM      7  O   UNL     1     -10.877  -0.584  -3.148  1.00  0.00    -0.452 OA
ATOM      8  C   UNL     1     -10.351   1.342  -4.402  1.00  0.00     0.094 A 
ATOM      9  C   UNL     1     -10.769   2.504  -5.065  1.00  0.00     0.119 A 
ATOM     10  C   UNL     1     -12.127   2.836  -5.099  1.00  0.00     0.047 A 
ATOM     11  C   UNL     1     -13.072   2.014  -4.477  1.00  0.00     0.020 A 
ENDROOT
BRANCH   1  12
ATOM     12  C   UNL     1     -11.124  -2.603  -1.851  1.00  0.00     0.025 A 
ATOM     13  C   UNL     1     -11.247  -3.892  -2.400  1.00  0.00     0.016 A 
ATOM     14  C   UNL     1     -10.711  -4.997  -1.733  1.00  0.00     0.051 A 
ATOM     15  C   UNL     1     -10.057  -4.834  -0.506  1.00  0.00     0.157 A 
ATOM     16  C   UNL     1     -10.485  -2.448  -0.610  1.00  0.00     0.062 A 
ATOM     17  C   UNL     1      -9.946  -3.552   0.060  1.00  0.00     0.158 A 
BRANCH  15  18
ATOM     18  O   UNL     1      -9.520  -5.938   0.155  1.00  0.00    -0.504 OA
ATOM     19  H   UNL     1      -8.523  -6.123   0.155  1.00  0.00     0.293 HD
ENDBRANCH  15  18
BRANCH  17  20
ATOM     20  O   UNL     1      -9.308  -3.358   1.284  1.00  0.00    -0.504 OA
ATOM     21  H   UNL     1      -9.018  -4.132   1.869  1.00  0.00     0.293 HD
ENDBRANCH  17  20
ENDBRANCH   1  12
BRANCH   2  22
ATOM     22  O   UNL     1     -13.979  -2.072  -1.939  1.00  0.00    -0.502 OA
ATOM     23  H   UNL     1     -13.991  -2.240  -0.940  1.00  0.00     0.293 HD
ENDBRANCH   2  22
BRANCH   9  24
ATOM     24  O   UNL     1      -9.843   3.335  -5.691  1.00  0.00    -0.508 OA
ATOM     25  H   UNL     1      -9.755   4.313  -5.441  1.00  0.00     0.293 HD
ENDBRANCH   9  24
TORSDOF 5
ENDMDL
MODEL 4
REMARK VINA RESULT:    -6.079      4.151      5.960
REMARK INTER + INTRA:          -7.459
REMARK INTER:                  -7.326
REMARK INTRA:                  -0.133
REMARK UNBOUND:                -0.314
REMARK SMILES O=c1c(O)c(-c2ccc(O)c(O)c2)oc2cc(O)ccc12
REMARK SMILES IDX 5 1 3 2 2 3 1 4 21 5 15 6 14 7 16 8 17 9 19 10 20 11 6 12
REMARK SMILES IDX 7 13 8 14 9 15 13 16 11 17 10 18 12 20 4 22 18 24
REMARK H PARENT 10 19 12 21 4 23 18 25
REMARK Flexibility Score: inf
ROOT
ATOM      1  C   UNL     1     -12.459  -0.820  -2.872  1.00  0.00     0.180 A 
ATOM      2  C   UNL     1     -12.924  -1.902  -3.649  1.00  0.00     0.208 A 
ATOM      3  C   UNL     1     -12.442  -3.190  -3.371  1.00  0.00     0.235 A 
ATOM      4  O   UNL     1     -12.835  -4.172  -4.059  1.00  0.00    -0.285 OA
ATOM      5  C   UNL     1     -11.529  -3.375  -2.321  1.00  0.00     0.069 A 
ATOM      6  C   UNL     1     -11.131  -2.245  -1.576  1.00  0.00     0.142 A 
ATOM      7  O   UNL     1     -11.604  -1.040  -1.875  1.00  0.00    -0.452 OA
ATOM      8  C   UNL     1     -10.230  -2.388  -0.514  1.00  0.00     0.094 A 
ATOM      9  C   UNL     1      -9.719  -3.652  -0.189  1.00  0.00     0.119 A 
ATOM     10  C   UNL     1     -10.111  -4.773  -0.927  1.00  0.00     0.047 A 
ATOM     11  C   UNL     1     -11.012  -4.641  -1.989  1.00  0.00     0.020 A 
ENDROOT
BRANCH   1  12
ATOM     12  C   UNL     1     -12.905   0.570  -3.114  1.00  0.00     0.025 A 
ATOM     13  C   UNL     1     -13.658   1.275  -2.157  1.00  0.00     0.016 A 
ATOM     14  C   UNL     1     -14.089   2.578  -2.418  1.00  0.00     0.051 A 
ATOM     15  C   UNL     1     -13.786   3.192  -3.640  1.00  0.00     0.157 A 
ATOM     16  C   UNL     1     -12.623   1.183  -4.345  1.00  0.00     0.062 A 
ATOM     17  C   UNL     1     -13.052   2.488  -4.610  1.00  0.00     0.158 A 
BRANCH  15  18
ATOM     18  O   UNL     1     -14.215   4.493  -3.896  1.00  0.00    -0.504 OA
ATOM     19  H   UNL     1     -15.200   4.727  -3.950  1.00  0.00     0.293 HD
ENDBRANCH  15  18
BRANCH  17  20
ATOM     20  O   UNL     1     -12.741   3.069  -5.839  1.00  0.00    -0.504 OA
ATOM     21  H   UNL     1     -13.253   3.862  -6.205  1.00  0.00     0.293 HD
ENDBRANCH  17  20
ENDBRANCH   1  12
BRANCH   2  22
ATOM     22  O   UNL     1     -13.870  -1.695  -4.656  1.00  0.00    -0.502 OA
ATOM     23  H   UNL     1     -14.333  -0.804  -4.789  1.00  0.00     0.293 HD
ENDBRANCH   2  22
BRANCH   9  24
ATOM     24  O   UNL     1      -8.821  -3.804   0.866  1.00  0.00    -0.508 OA
ATOM     25  H   UNL     1      -8.694  -3.079   1.562  1.00  0.00     0.293 HD
ENDBRANCH   9  24
TORSDOF 5
ENDMDL
MODEL 5
REMARK VINA RESULT:    -5.992      4.312      5.574
REMARK INTER + INTRA:          -7.356
REMARK INTER:                  -7.282
REMARK INTRA:                  -0.074
REMARK UNBOUND:                -0.314
REMARK SMILES O=c1c(O)c(-c2ccc(O)c(O)c2)oc2cc(O)ccc12
REMARK SMILES IDX 5 1 3 2 2 3 1 4 21 5 15 6 14 7 16 8 17 9 19 10 20 11 6 12
REMARK SMILES IDX 7 13 8 14 9 15 13 16 11 17 10 18 12 20 4 22 18 24
REMARK H PARENT 10 19 12 21 4 23 18 25
REMARK Flexibility Score: inf
ROOT
ATOM      1  C   UNL     1     -12.652  -0.936  -2.786  1.00  0.00     0.180 A 
ATOM      2  C   UNL     1     -13.067  -1.756  -3.856  1.00  0.00     0.208 A 
ATOM      3  C   UNL     1     -12.611  -3.082  -3.908  1.00  0.00     0.235 A 
ATOM      4  O   UNL     1     -12.961  -3.832  -4.861  1.00  0.00    -0.285 OA
ATOM      5  C   UNL     1     -11.774  -3.565  -2.890  1.00  0.00     0.069 A 
ATOM      6  C   UNL     1     -11.422  -2.689  -1.842  1.00  0.00     0.142 A 
ATOM      7  O   UNL     1     -11.868  -1.437  -1.833  1.00  0.00    -0.452 OA
ATOM      8  C   UNL     1     -10.597  -3.135  -0.804  1.00  0.00     0.094 A 
ATOM      9  C   UNL     1     -10.115  -4.451  -0.801  1.00  0.00     0.119 A 
ATOM     10  C   UNL     1     -10.461  -5.321  -1.841  1.00  0.00     0.047 A 
ATOM     11  C   UNL     1     -11.286  -4.885  -2.882  1.00  0.00     0.020 A 
ENDROOT
BRANCH   1  12
ATOM     12  C   UNL     1     -13.074   0.478  -2.669  1.00  0.00     0.025 A 
ATOM     13  C   UNL     1     -12.862   1.394  -3.715  1.00  0.00     0.016 A 
ATOM     14  C   UNL     1     -13.247   2.730  -3.572  1.00  0.00     0.051 A 
ATOM     15  C   UNL     1     -13.837   3.173  -2.381  1.00  0.00     0.157 A 
ATOM     16  C   UNL     1     -13.647   0.932  -1.470  1.00  0.00     0.062 A 
ATOM     17  C   UNL     1     -14.035   2.268  -1.324  1.00  0.00     0.158 A 
BRANCH  15  18
ATOM     18  O   UNL     1     -14.223   4.505  -2.243  1.00  0.00    -0.504 OA
ATOM     19  H   UNL     1     -15.176   4.802  -2.419  1.00  0.00     0.293 HD
ENDBRANCH  15  18
BRANCH  17  20
ATOM     20  O   UNL     1     -14.613   2.680  -0.123  1.00  0.00    -0.504 OA
ATOM     21  H   UNL     1     -14.603   2.098   0.705  1.00  0.00     0.293 HD
ENDBRANCH  17  20
ENDBRANCH   1  12
BRANCH   2  22
ATOM     22  O   UNL     1     -13.942  -1.263  -4.827  1.00  0.00    -0.502 OA
ATOM     23  H   UNL     1     -14.937  -1.169  -4.663  1.00  0.00     0.293 HD
ENDBRANCH   2  22
BRANCH   9  24
ATOM     24  O   UNL     1      -9.293  -4.904   0.228  1.00  0.00    -0.508 OA
ATOM     25  H   UNL     1      -9.411  -5.824   0.634  1.00  0.00     0.293 HD
ENDBRANCH   9  24
TORSDOF 5
ENDMDL
MODEL 6
REMARK VINA RESULT:    -5.880      3.832      5.397
REMARK INTER + INTRA:          -7.225
REMARK INTER:                  -7.277
REMARK INTRA:                   0.052
REMARK UNBOUND:                -0.314
REMARK SMILES O=c1c(O)c(-c2ccc(O)c(O)c2)oc2cc(O)ccc12
REMARK SMILES IDX 5 1 3 2 2 3 1 4 21 5 15 6 14 7 16 8 17 9 19 10 20 11 6 12
REMARK SMILES IDX 7 13 8 14 9 15 13 16 11 17 10 18 12 20 4 22 18 24
REMARK H PARENT 10 19 12 21 4 23 18 25
REMARK Flexibility Score: inf
ROOT
ATOM      1  C   UNL     1     -12.147  -0.377  -1.415  1.00  0.00     0.180 A 
ATOM      2  C   UNL     1     -12.853   0.407  -0.479  1.00  0.00     0.208 A 
ATOM      3  C   UNL     1     -13.445   1.605  -0.908  1.00  0.00     0.235 A 
ATOM      4  O   UNL     1     -14.073   2.327  -0.086  1.00  0.00    -0.285 OA
ATOM      5  C   UNL     1     -13.338   1.984  -2.255  1.00  0.00     0.069 A 
ATOM      6  C   UNL     1     -12.634   1.134  -3.134  1.00  0.00     0.142 A 
ATOM      7  O   UNL     1     -12.081   0.012  -2.687  1.00  0.00    -0.452 OA
ATOM      8  C   UNL     1     -12.514   1.472  -4.487  1.00  0.00     0.094 A 
ATOM      9  C   UNL     1     -13.088   2.655  -4.973  1.00  0.00     0.119 A 
ATOM     10  C   UNL     1     -13.784   3.499  -4.102  1.00  0.00     0.047 A 
ATOM     11  C   UNL     1     -13.912   3.170  -2.749  1.00  0.00     0.020 A 
ENDROOT
BRANCH   1  12
ATOM     12  C   UNL     1     -11.480  -1.643  -1.038  1.00  0.00     0.025 A 
ATOM     13  C   UNL     1     -11.695  -2.829  -1.763  1.00  0.00     0.016 A 
ATOM     14  C   UNL     1     -11.073  -4.018  -1.372  1.00  0.00     0.051 A 
ATOM     15  C   UNL     1     -10.239  -4.044  -0.248  1.00  0.00     0.157 A 
ATOM     16  C   UNL     1     -10.658  -1.679   0.101  1.00  0.00     0.062 A 
ATOM     17  C   UNL     1     -10.033  -2.868   0.493  1.00  0.00     0.158 A 
BRANCH  15  18
ATOM     18  O   UNL     1      -9.617  -5.230   0.136  1.00  0.00    -0.504 OA
ATOM     19  H   UNL     1      -8.962  -5.259   0.910  1.00  0.00     0.293 HD
ENDBRANCH  15  18
BRANCH  17  20
ATOM     20  O   UNL     1      -9.214  -2.862   1.622  1.00  0.00    -0.504 OA
ATOM     21  H   UNL     1      -9.021  -3.704   2.151  1.00  0.00     0.293 HD
ENDBRANCH  17  20
ENDBRANCH   1  12
BRANCH   2  22
ATOM     22  O   UNL     1     -12.985  -0.021   0.845  1.00  0.00    -0.502 OA
ATOM     23  H   UNL     1     -13.552  -0.821   1.102  1.00  0.00     0.293 HD
ENDBRANCH   2  22
BRANCH   9  24
ATOM     24  O   UNL     1     -12.973   2.999  -6.318  1.00  0.00    -0.508 OA
ATOM     25  H   UNL     1     -12.491   3.842  -6.609  1.00  0.00     0.293 HD
ENDBRANCH   9  24
TORSDOF 5
ENDMDL
MODEL 7
REMARK VINA RESULT:    -5.848      3.422      5.109
REMARK INTER + INTRA:          -7.187
REMARK INTER:                  -6.871
REMARK INTRA:                  -0.316
REMARK UNBOUND:                -0.314
REMARK SMILES O=c1c(O)c(-c2ccc(O)c(O)c2)oc2cc(O)ccc12
REMARK SMILES IDX 5 1 3 2 2 3 1 4 21 5 15 6 14 7 16 8 17 9 19 10 20 11 6 12
REMARK SMILES IDX 7 13 8 14 9 15 13 16 11 17 10 18 12 20 4 22 18 24
REMARK H PARENT 10 19 12 21 4 23 18 25
REMARK Flexibility Score: inf
ROOT
ATOM      1  C   UNL     1      -9.737   1.833  -4.718  1.00  0.00     0.180 A 
ATOM      2  C   UNL     1      -9.547   0.441  -4.587  1.00  0.00     0.208 A 
ATOM      3  C   UNL     1      -8.301  -0.107  -4.927  1.00  0.00     0.235 A 
ATOM      4  O   UNL     1      -8.110  -1.350  -4.827  1.00  0.00    -0.285 OA
ATOM      5  C   UNL     1      -7.272   0.740  -5.369  1.00  0.00     0.069 A 
ATOM      6  C   UNL     1      -7.534   2.124  -5.452  1.00  0.00     0.142 A 
ATOM      7  O   UNL     1      -8.731   2.603  -5.128  1.00  0.00    -0.452 OA
ATOM      8  C   UNL     1      -6.532   3.002  -5.879  1.00  0.00     0.094 A 
ATOM      9  C   UNL     1      -5.266   2.511  -6.228  1.00  0.00     0.119 A 
ATOM     10  C   UNL     1      -5.005   1.139  -6.149  1.00  0.00     0.047 A 
ATOM     11  C   UNL     1      -5.999   0.254  -5.722  1.00  0.00     0.020 A 
ENDROOT
BRANCH   1  12
ATOM     12  C   UNL     1     -11.027   2.484  -4.397  1.00  0.00     0.025 A 
ATOM     13  C   UNL     1     -12.081   2.520  -5.327  1.00  0.00     0.016 A 
ATOM     14  C   UNL     1     -13.280   3.163  -5.011  1.00  0.00     0.051 A 
ATOM     15  C   UNL     1     -13.441   3.788  -3.768  1.00  0.00     0.157 A 
ATOM     16  C   UNL     1     -11.186   3.131  -3.161  1.00  0.00     0.062 A 
ATOM     17  C   UNL     1     -12.386   3.774  -2.840  1.00  0.00     0.158 A 
BRANCH  15  18
ATOM     18  O   UNL     1     -14.640   4.425  -3.454  1.00  0.00    -0.504 OA
ATOM     19  H   UNL     1     -14.872   4.679  -2.499  1.00  0.00     0.293 HD
ENDBRANCH  15  18
BRANCH  17  20
ATOM     20  O   UNL     1     -12.512   4.394  -1.597  1.00  0.00    -0.504 OA
ATOM     21  H   UNL     1     -11.835   5.068  -1.261  1.00  0.00     0.293 HD
ENDBRANCH  17  20
ENDBRANCH   1  12
BRANCH   2  22
ATOM     22  O   UNL     1     -10.574  -0.370  -4.096  1.00  0.00    -0.502 OA
ATOM     23  H   UNL     1     -11.195  -0.886  -4.708  1.00  0.00     0.293 HD
ENDBRANCH   2  22
BRANCH   9  24
ATOM     24  O   UNL     1      -4.262   3.377  -6.655  1.00  0.00    -0.508 OA
ATOM     25  H   UNL     1      -4.452   4.125  -7.311  1.00  0.00     0.293 HD
ENDBRANCH   9  24
TORSDOF 5
ENDMDL
MODEL 8
REMARK VINA RESULT:    -5.833      4.141      6.742
REMARK INTER + INTRA:          -7.170
REMARK INTER:                  -6.876
REMARK INTRA:                  -0.294
REMARK UNBOUND:                -0.314
REMARK SMILES O=c1c(O)c(-c2ccc(O)c(O)c2)oc2cc(O)ccc12
REMARK SMILES IDX 5 1 3 2 2 3 1 4 21 5 15 6 14 7 16 8 17 9 19 10 20 11 6 12
REMARK SMILES IDX 7 13 8 14 9 15 13 16 11 17 10 18 12 20 4 22 18 24
REMARK H PARENT 10 19 12 21 4 23 18 25
REMARK Flexibility Score: inf
ROOT
ATOM      1  C   UNL     1     -12.155  -1.468  -2.279  1.00  0.00     0.180 A 
ATOM      2  C   UNL     1     -12.836  -1.164  -1.081  1.00  0.00     0.208 A 
ATOM      3  C   UNL     1     -12.166  -1.334   0.140  1.00  0.00     0.235 A 
ATOM      4  O   UNL     1     -12.758  -1.079   1.225  1.00  0.00    -0.285 OA
ATOM      5  C   UNL     1     -10.835  -1.779   0.141  1.00  0.00     0.069 A 
ATOM      6  C   UNL     1     -10.216  -2.039  -1.100  1.00  0.00     0.142 A 
ATOM      7  O   UNL     1     -10.888  -1.874  -2.235  1.00  0.00    -0.452 OA
ATOM      8  C   UNL     1      -8.887  -2.475  -1.142  1.00  0.00     0.094 A 
ATOM      9  C   UNL     1      -8.167  -2.658   0.046  1.00  0.00     0.119 A 
ATOM     10  C   UNL     1      -8.779  -2.402   1.278  1.00  0.00     0.047 A 
ATOM     11  C   UNL     1     -10.106  -1.965   1.330  1.00  0.00     0.020 A 
ENDROOT
BRANCH   1  12
ATOM     12  C   UNL     1     -12.798  -1.333  -3.605  1.00  0.00     0.025 A 
ATOM     13  C   UNL     1     -13.316  -2.450  -4.285  1.00  0.00     0.016 A 
ATOM     14  C   UNL     1     -13.897  -2.302  -5.547  1.00  0.00     0.051 A 
ATOM     15  C   UNL     1     -13.958  -1.041  -6.154  1.00  0.00     0.157 A 
ATOM     16  C   UNL     1     -12.844  -0.075  -4.227  1.00  0.00     0.062 A 
ATOM     17  C   UNL     1     -13.426   0.078  -5.490  1.00  0.00     0.158 A 
BRANCH  15  18
ATOM     18  O   UNL     1     -14.541  -0.896  -7.411  1.00  0.00    -0.504 OA
ATOM     19  H   UNL     1     -14.673   0.017  -7.833  1.00  0.00     0.293 HD
ENDBRANCH  15  18
BRANCH  17  20
ATOM     20  O   UNL     1     -13.465   1.345  -6.071  1.00  0.00    -0.504 OA
ATOM     21  H   UNL     1     -14.170   1.605  -6.749  1.00  0.00     0.293 HD
ENDBRANCH  17  20
ENDBRANCH   1  12
BRANCH   2  22
ATOM     22  O   UNL     1     -14.145  -0.675  -1.116  1.00  0.00    -0.502 OA
ATOM     23  H   UNL     1     -14.869  -1.105  -1.680  1.00  0.00     0.293 HD
ENDBRANCH   2  22
BRANCH   9  24
ATOM     24  O   UNL     1      -6.843  -3.092   0.014  1.00  0.00    -0.508 OA
ATOM     25  H   UNL     1      -6.509  -3.716  -0.710  1.00  0.00     0.293 HD
ENDBRANCH   9  24
TORSDOF 5
ENDMDL
MODEL 9
REMARK VINA RESULT:    -5.806      4.393      4.965
REMARK INTER + INTRA:          -7.138
REMARK INTER:                  -6.847
REMARK INTRA:                  -0.291
REMARK UNBOUND:                -0.314
REMARK SMILES O=c1c(O)c(-c2ccc(O)c(O)c2)oc2cc(O)ccc12
REMARK SMILES IDX 5 1 3 2 2 3 1 4 21 5 15 6 14 7 16 8 17 9 19 10 20 11 6 12
REMARK SMILES IDX 7 13 8 14 9 15 13 16 11 17 10 18 12 20 4 22 18 24
REMARK H PARENT 10 19 12 21 4 23 18 25
REMARK Flexibility Score: inf
ROOT
ATOM      1  C   UNL     1     -12.459  -1.211  -0.810  1.00  0.00     0.180 A 
ATOM      2  C   UNL     1     -13.220  -2.181  -1.497  1.00  0.00     0.208 A 
ATOM      3  C   UNL     1     -12.575  -3.331  -1.977  1.00  0.00     0.235 A 
ATOM      4  O   UNL     1     -13.232  -4.207  -2.604  1.00  0.00    -0.285 OA
ATOM      5  C   UNL     1     -11.200  -3.498  -1.747  1.00  0.00     0.069 A 
ATOM      6  C   UNL     1     -10.515  -2.494  -1.032  1.00  0.00     0.142 A 
ATOM      7  O   UNL     1     -11.160  -1.415  -0.601  1.00  0.00    -0.452 OA
ATOM      8  C   UNL     1      -9.146  -2.629  -0.774  1.00  0.00     0.094 A 
ATOM      9  C   UNL     1      -8.451  -3.759  -1.226  1.00  0.00     0.119 A 
ATOM     10  C   UNL     1      -9.128  -4.755  -1.937  1.00  0.00     0.047 A 
ATOM     11  C   UNL     1     -10.496  -4.630  -2.199  1.00  0.00     0.020 A 
ENDROOT
BRANCH   1  12
ATOM     12  C   UNL     1     -13.062   0.036  -0.289  1.00  0.00     0.025 A 
ATOM     13  C   UNL     1     -13.455   0.153   1.056  1.00  0.00     0.016 A 
ATOM     14  C   UNL     1     -14.044   1.333   1.519  1.00  0.00     0.051 A 
ATOM     15  C   UNL     1     -14.260   2.406   0.646  1.00  0.00     0.157 A 
ATOM     16  C   UNL     1     -13.299   1.108  -1.165  1.00  0.00     0.062 A 
ATOM     17  C   UNL     1     -13.888   2.291  -0.705  1.00  0.00     0.158 A 
BRANCH  15  18
ATOM     18  O   UNL     1     -14.845   3.583   1.111  1.00  0.00    -0.504 OA
ATOM     19  H   UNL     1     -14.450   4.492   0.897  1.00  0.00     0.293 HD
ENDBRANCH  15  18
BRANCH  17  20
ATOM     20  O   UNL     1     -14.096   3.339  -1.601  1.00  0.00    -0.504 OA
ATOM     21  H   UNL     1     -13.426   3.569  -2.324  1.00  0.00     0.293 HD
ENDBRANCH  17  20
ENDBRANCH   1  12
BRANCH   2  22
ATOM     22  O   UNL     1     -14.596  -2.010  -1.667  1.00  0.00    -0.502 OA
ATOM     23  H   UNL     1     -15.001  -1.719  -2.549  1.00  0.00     0.293 HD
ENDBRANCH   2  22
BRANCH   9  24
ATOM     24  O   UNL     1      -7.088  -3.901  -0.974  1.00  0.00    -0.508 OA
ATOM     25  H   UNL     1      -6.630  -4.803  -1.033  1.00  0.00     0.293 HD
ENDBRANCH   9  24
TORSDOF 5
ENDMDL
