MODEL 1
REMARK VINA RESULT:    -2.791      0.000      0.000
REMARK INTER + INTRA:          -2.791
REMARK INTER:                  -2.791
REMARK INTRA:                   0.000
REMARK UNBOUND:                 0.000
REMARK SMILES CC(=O)[O-]
REMARK SMILES IDX 1 1 2 2 3 3 4 4
REMARK H PARENT
REMARK Flexibility Score: inf
ROOT
ATOM      1  C   UNL     1      38.369  51.900  35.023  1.00  0.00     0.063 C 
ATOM      2  C   UNL     1      38.506  50.955  33.878  1.00  0.00     0.038 C 
ATOM      3  O   UNL     1      37.518  50.272  33.500  1.00  0.00    -0.550 OA
ATOM      4  O   UNL     1      39.711  50.862  33.192  1.00  0.00    -0.550 OA
ENDROOT
TORSDOF 0
ENDMDL
MODEL 2
REMARK VINA RESULT:    -2.598      1.362      1.977
REMARK INTER + INTRA:          -2.598
REMARK INTER:                  -2.598
REMARK INTRA:                   0.000
REMARK UNBOUND:                 0.000
REMARK SMILES CC(=O)[O-]
REMARK SMILES IDX 1 1 2 2 3 3 4 4
REMARK H PARENT
REMARK Flexibility Score: inf
ROOT
ATOM      1  C   UNL     1      39.821  51.021  33.492  1.00  0.00     0.063 C 
ATOM      2  C   UNL     1      38.399  51.111  33.930  1.00  0.00     0.038 C 
ATOM      3  O   UNL     1      38.027  52.049  34.684  1.00  0.00    -0.550 OA
ATOM      4  O   UNL     1      37.468  50.191  33.465  1.00  0.00    -0.550 OA
ENDROOT
TORSDOF 0
ENDMDL
MODEL 3
REMARK VINA RESULT:    -2.431      1.946      2.683
REMARK INTER + INTRA:          -2.431
REMARK INTER:                  -2.431
REMARK INTRA:                   0.000
REMARK UNBOUND:                 0.000
REMARK SMILES CC(=O)[O-]
REMARK SMILES IDX 1 1 2 2 3 3 4 4
REMARK H PARENT
REMARK Flexibility Score: inf
ROOT
ATOM      1  C   UNL     1      38.335  50.940  33.833  1.00  0.00     0.063 C 
ATOM      2  C   UNL     1      38.857  51.728  34.985  1.00  0.00     0.038 C 
ATOM      3  O   UNL     1      40.041  52.158  34.973  1.00  0.00    -0.550 OA
ATOM      4  O   UNL     1      38.024  52.037  36.053  1.00  0.00    -0.550 OA
ENDROOT
TORSDOF 0
ENDMDL
MODEL 4
REMARK VINA RESULT:    -2.309     11.090     11.685
REMARK INTER + INTRA:          -2.309
REMARK INTER:                  -2.309
REMARK INTRA:                   0.000
REMARK UNBOUND:                 0.000
REMARK SMILES CC(=O)[O-]
REMARK SMILES IDX 1 1 2 2 3 3 4 4
REMARK H PARENT
REMARK Flexibility Score: inf
ROOT
ATOM      1  C   UNL     1      34.340  46.860  23.994  1.00  0.00     0.063 C 
ATOM      2  C   UNL     1      33.372  46.120  24.852  1.00  0.00     0.038 C 
ATOM      3  O   UNL     1      33.459  46.188  26.107  1.00  0.00    -0.550 OA
ATOM      4  O   UNL     1      32.338  45.396  24.272  1.00  0.00    -0.550 OA
ENDROOT
TORSDOF 0
ENDMDL
MODEL 5
REMARK VINA RESULT:    -2.282     10.886     11.368
REMARK INTER + INTRA:          -2.282
REMARK INTER:                  -2.282
REMARK INTRA:                   0.000
REMARK UNBOUND:                 0.000
REMARK SMILES CC(=O)[O-]
REMARK SMILES IDX 1 1 2 2 3 3 4 4
REMARK H PARENT
REMARK Flexibility Score: inf
ROOT
ATOM      1  C   UNL     1      33.031  46.877  26.177  1.00  0.00     0.063 C 
ATOM      2  C   UNL     1      33.410  46.337  24.840  1.00  0.00     0.038 C 
ATOM      3  O   UNL     1      32.740  45.405  24.322  1.00  0.00    -0.550 OA
ATOM      4  O   UNL     1      34.470  46.895  24.138  1.00  0.00    -0.550 OA
ENDROOT
TORSDOF 0
ENDMDL
MODEL 6
REMARK VINA RESULT:    -2.108     18.242     18.458
REMARK INTER + INTRA:          -2.108
REMARK INTER:                  -2.108
REMARK INTRA:                   0.000
REMARK UNBOUND:                 0.000
REMARK SMILES CC(=O)[O-]
REMARK SMILES IDX 1 1 2 2 3 3 4 4
REMARK H PARENT
REMARK Flexibility Score: inf
ROOT
ATOM      1  C   UNL     1      37.960  39.673  19.293  1.00  0.00     0.063 C 
ATOM      2  C   UNL     1      36.922  38.979  20.109  1.00  0.00     0.038 C 
ATOM      3  O   UNL     1      35.795  39.512  20.285  1.00  0.00    -0.550 OA
ATOM      4  O   UNL     1      37.177  37.719  20.635  1.00  0.00    -0.550 OA
ENDROOT
TORSDOF 0
ENDMDL
MODEL 7
REMARK VINA RESULT:    -2.100     18.235     18.441
REMARK INTER + INTRA:          -2.100
REMARK INTER:                  -2.100
REMARK INTRA:                   0.000
REMARK UNBOUND:                 0.000
REMARK SMILES CC(=O)[O-]
REMARK SMILES IDX 1 1 2 2 3 3 4 4
REMARK H PARENT
REMARK Flexibility Score: inf
ROOT
ATOM      1  C   UNL     1      37.165  37.663  20.380  1.00  0.00     0.063 C 
ATOM      2  C   UNL     1      36.871  39.079  20.017  1.00  0.00     0.038 C 
ATOM      3  O   UNL     1      35.744  39.577  20.275  1.00  0.00    -0.550 OA
ATOM      4  O   UNL     1      37.857  39.869  19.440  1.00  0.00    -0.550 OA
ENDROOT
TORSDOF 0
ENDMDL
MODEL 8
REMARK VINA RESULT:    -2.096     10.979     11.534
REMARK INTER + INTRA:          -2.096
REMARK INTER:                  -2.096
REMARK INTRA:                   0.000
REMARK UNBOUND:                 0.000
REMARK SMILES CC(=O)[O-]
REMARK SMILES IDX 1 1 2 2 3 3 4 4
REMARK H PARENT
REMARK Flexibility Score: inf
ROOT
ATOM      1  C   UNL     1      32.347  45.504  24.231  1.00  0.00     0.063 C 
ATOM      2  C   UNL     1      33.431  46.254  24.928  1.00  0.00     0.038 C 
ATOM      3  O   UNL     1      33.491  46.255  26.186  1.00  0.00    -0.550 OA
ATOM      4  O   UNL     1      34.409  46.911  24.192  1.00  0.00    -0.550 OA
ENDROOT
TORSDOF 0
ENDMDL
MODEL 9
REMARK VINA RESULT:    -2.084     18.192     18.354
REMARK INTER + INTRA:          -2.084
REMARK INTER:                  -2.084
REMARK INTRA:                   0.000
REMARK UNBOUND:                 0.000
REMARK SMILES CC(=O)[O-]
REMARK SMILES IDX 1 1 2 2 3 3 4 4
REMARK H PARENT
REMARK Flexibility Score: inf
ROOT
ATOM      1  C   UNL     1      38.047  39.687  19.263  1.00  0.00     0.063 C 
ATOM      2  C   UNL     1      37.061  39.042  20.177  1.00  0.00     0.038 C 
ATOM      3  O   UNL     1      37.413  38.082  20.911  1.00  0.00    -0.550 OA
ATOM      4  O   UNL     1      35.764  39.534  20.261  1.00  0.00    -0.550 OA
ENDROOT
TORSDOF 0
ENDMDL
