MODEL 1
REMARK VINA RESULT:    -3.770      0.000      0.000
REMARK INTER + INTRA:          -4.460
REMARK INTER:                  -4.431
REMARK INTRA:                  -0.029
REMARK UNBOUND:                -0.029
REMARK SMILES O=C([O-])CCC(=O)[O-]
REMARK SMILES IDX 4 1 2 2 1 3 3 4 5 5 6 6 7 7 8 8
REMARK H PARENT
REMARK Flexibility Score: inf
ROOT
ATOM      1  C   UNL     1      22.030 -11.673  21.978  1.00  0.00     0.059 C 
ENDROOT
BRANCH   1   2
ATOM      2  C   UNL     1      22.014 -12.958  21.208  1.00  0.00     0.042 C 
ATOM      3  O   UNL     1      21.015 -13.262  20.505  1.00  0.00    -0.550 OA
ATOM      4  O   UNL     1      23.118 -13.800  21.235  1.00  0.00    -0.550 OA
ENDBRANCH   1   2
BRANCH   1   5
ATOM      5  C   UNL     1      20.730 -11.469  22.765  1.00  0.00     0.059 C 
BRANCH   5   6
ATOM      6  C   UNL     1      20.917 -10.514  23.903  1.00  0.00     0.042 C 
ATOM      7  O   UNL     1      20.446 -10.783  25.039  1.00  0.00    -0.550 OA
ATOM      8  O   UNL     1      21.645  -9.346  23.720  1.00  0.00    -0.550 OA
ENDBRANCH   5   6
ENDBRANCH   1   5
TORSDOF 3
ENDMDL
MODEL 2
REMARK VINA RESULT:    -3.768      0.118      4.265
REMARK INTER + INTRA:          -4.458
REMARK INTER:                  -4.430
REMARK INTRA:                  -0.028
REMARK UNBOUND:                -0.029
REMARK SMILES O=C([O-])CCC(=O)[O-]
REMARK SMILES IDX 4 1 2 2 1 3 3 4 5 5 6 6 7 7 8 8
REMARK H PARENT
REMARK Flexibility Score: inf
ROOT
ATOM      1  C   UNL     1      20.732 -11.489  22.734  1.00  0.00     0.059 C 
ENDROOT
BRANCH   1   2
ATOM      2  C   UNL     1      20.912 -10.528  23.870  1.00  0.00     0.042 C 
ATOM      3  O   UNL     1      20.433 -10.792  25.004  1.00  0.00    -0.550 OA
ATOM      4  O   UNL     1      21.642  -9.361  23.686  1.00  0.00    -0.550 OA
ENDBRANCH   1   2
BRANCH   1   5
ATOM      5  C   UNL     1      22.058 -11.772  22.019  1.00  0.00     0.059 C 
BRANCH   5   6
ATOM      6  C   UNL     1      21.975 -13.001  21.166  1.00  0.00     0.042 C 
ATOM      7  O   UNL     1      22.915 -13.838  21.168  1.00  0.00    -0.550 OA
ATOM      8  O   UNL     1      20.840 -13.242  20.402  1.00  0.00    -0.550 OA
ENDBRANCH   5   6
ENDBRANCH   1   5
TORSDOF 3
ENDMDL
MODEL 3
REMARK VINA RESULT:    -3.717      0.131      1.625
REMARK INTER + INTRA:          -4.398
REMARK INTER:                  -4.369
REMARK INTRA:                  -0.029
REMARK UNBOUND:                -0.029
REMARK SMILES O=C([O-])CCC(=O)[O-]
REMARK SMILES IDX 4 1 2 2 1 3 3 4 5 5 6 6 7 7 8 8
REMARK H PARENT
REMARK Flexibility Score: inf
ROOT
ATOM      1  C   UNL     1      22.199 -11.801  22.033  1.00  0.00     0.059 C 
ENDROOT
BRANCH   1   2
ATOM      2  C   UNL     1      22.107 -13.026  21.175  1.00  0.00     0.042 C 
ATOM      3  O   UNL     1      23.061 -13.848  21.142  1.00  0.00    -0.550 OA
ATOM      4  O   UNL     1      20.954 -13.281  20.444  1.00  0.00    -0.550 OA
ENDBRANCH   1   2
BRANCH   1   5
ATOM      5  C   UNL     1      20.843 -11.441  22.651  1.00  0.00     0.059 C 
BRANCH   5   6
ATOM      6  C   UNL     1      20.995 -10.508  23.813  1.00  0.00     0.042 C 
ATOM      7  O   UNL     1      21.599  -9.413  23.670  1.00  0.00    -0.550 OA
ATOM      8  O   UNL     1      20.435 -10.830  25.042  1.00  0.00    -0.550 OA
ENDBRANCH   5   6
ENDBRANCH   1   5
TORSDOF 3
ENDMDL
MODEL 4
REMARK VINA RESULT:    -3.697      6.776      7.504
REMARK INTER + INTRA:          -4.374
REMARK INTER:                  -4.347
REMARK INTRA:                  -0.027
REMARK UNBOUND:                -0.029
REMARK SMILES O=C([O-])CCC(=O)[O-]
REMARK SMILES IDX 4 1 2 2 1 3 3 4 5 5 6 6 7 7 8 8
REMARK H PARENT
REMARK Flexibility Score: inf
ROOT
ATOM      1  C   UNL     1      15.172 -13.815  18.358  1.00  0.00     0.059 C 
ENDROOT
BRANCH   1   2
ATOM      2  C   UNL     1      15.948 -13.206  17.231  1.00  0.00     0.042 C 
ATOM      3  O   UNL     1      15.591 -12.103  16.740  1.00  0.00    -0.550 OA
ATOM      4  O   UNL     1      17.087 -13.837  16.749  1.00  0.00    -0.550 OA
ENDBRANCH   1   2
BRANCH   1   5
ATOM      5  C   UNL     1      15.928 -13.707  19.688  1.00  0.00     0.059 C 
BRANCH   5   6
ATOM      6  C   UNL     1      14.996 -13.764  20.859  1.00  0.00     0.042 C 
ATOM      7  O   UNL     1      15.054 -12.884  21.758  1.00  0.00    -0.550 OA
ATOM      8  O   UNL     1      14.036 -14.765  20.938  1.00  0.00    -0.550 OA
ENDBRANCH   5   6
ENDBRANCH   1   5
TORSDOF 3
ENDMDL
MODEL 5
REMARK VINA RESULT:    -3.678      6.763      8.183
REMARK INTER + INTRA:          -4.351
REMARK INTER:                  -4.325
REMARK INTRA:                  -0.026
REMARK UNBOUND:                -0.029
REMARK SMILES O=C([O-])CCC(=O)[O-]
REMARK SMILES IDX 4 1 2 2 1 3 3 4 5 5 6 6 7 7 8 8
REMARK H PARENT
REMARK Flexibility Score: inf
ROOT
ATOM      1  C   UNL     1      15.893 -13.730  19.675  1.00  0.00     0.059 C 
ENDROOT
BRANCH   1   2
ATOM      2  C   UNL     1      14.979 -13.777  20.861  1.00  0.00     0.042 C 
ATOM      3  O   UNL     1      15.051 -12.890  21.751  1.00  0.00    -0.550 OA
ATOM      4  O   UNL     1      14.022 -14.779  20.964  1.00  0.00    -0.550 OA
ENDBRANCH   1   2
BRANCH   1   5
ATOM      5  C   UNL     1      15.109 -13.744  18.357  1.00  0.00     0.059 C 
BRANCH   5   6
ATOM      6  C   UNL     1      15.924 -13.202  17.223  1.00  0.00     0.042 C 
ATOM      7  O   UNL     1      15.521 -12.201  16.575  1.00  0.00    -0.550 OA
ATOM      8  O   UNL     1      17.149 -13.778  16.909  1.00  0.00    -0.550 OA
ENDBRANCH   5   6
ENDBRANCH   1   5
TORSDOF 3
ENDMDL
MODEL 6
REMARK VINA RESULT:    -3.565      2.700      4.082
REMARK INTER + INTRA:          -4.219
REMARK INTER:                  -4.179
REMARK INTRA:                  -0.040
REMARK UNBOUND:                -0.029
REMARK SMILES O=C([O-])CCC(=O)[O-]
REMARK SMILES IDX 4 1 2 2 1 3 3 4 5 5 6 6 7 7 8 8
REMARK H PARENT
REMARK Flexibility Score: inf
ROOT
ATOM      1  C   UNL     1      22.652 -14.989  19.612  1.00  0.00     0.059 C 
ENDROOT
BRANCH   1   2
ATOM      2  C   UNL     1      23.092 -16.421  19.613  1.00  0.00     0.042 C 
ATOM      3  O   UNL     1      23.201 -17.050  18.528  1.00  0.00    -0.550 OA
ATOM      4  O   UNL     1      23.420 -17.048  20.808  1.00  0.00    -0.550 OA
ENDBRANCH   1   2
BRANCH   1   5
ATOM      5  C   UNL     1      22.883 -14.326  20.975  1.00  0.00     0.059 C 
BRANCH   5   6
ATOM      6  C   UNL     1      22.042 -13.097  21.141  1.00  0.00     0.042 C 
ATOM      7  O   UNL     1      20.827 -13.112  20.814  1.00  0.00    -0.550 OA
ATOM      8  O   UNL     1      22.592 -11.947  21.694  1.00  0.00    -0.550 OA
ENDBRANCH   5   6
ENDBRANCH   1   5
TORSDOF 3
ENDMDL
MODEL 7
REMARK VINA RESULT:    -3.495      1.355      4.436
REMARK INTER + INTRA:          -4.136
REMARK INTER:                  -4.098
REMARK INTRA:                  -0.038
REMARK UNBOUND:                -0.029
REMARK SMILES O=C([O-])CCC(=O)[O-]
REMARK SMILES IDX 4 1 2 2 1 3 3 4 5 5 6 6 7 7 8 8
REMARK H PARENT
REMARK Flexibility Score: inf
ROOT
ATOM      1  C   UNL     1      22.447 -11.845  21.722  1.00  0.00     0.059 C 
ENDROOT
BRANCH   1   2
ATOM      2  C   UNL     1      21.660 -10.869  22.543  1.00  0.00     0.042 C 
ATOM      3  O   UNL     1      22.114  -9.715  22.761  1.00  0.00    -0.550 OA
ATOM      4  O   UNL     1      20.409 -11.220  23.033  1.00  0.00    -0.550 OA
ENDBRANCH   1   2
BRANCH   1   5
ATOM      5  C   UNL     1      21.543 -12.910  21.091  1.00  0.00     0.059 C 
BRANCH   5   6
ATOM      6  C   UNL     1      22.333 -14.081  20.593  1.00  0.00     0.042 C 
ATOM      7  O   UNL     1      23.255 -14.569  21.299  1.00  0.00    -0.550 OA
ATOM      8  O   UNL     1      22.025 -14.660  19.369  1.00  0.00    -0.550 OA
ENDBRANCH   5   6
ENDBRANCH   1   5
TORSDOF 3
ENDMDL
MODEL 8
REMARK VINA RESULT:    -3.487      1.592      4.450
REMARK INTER + INTRA:          -4.127
REMARK INTER:                  -4.077
REMARK INTRA:                  -0.050
REMARK UNBOUND:                -0.029
REMARK SMILES O=C([O-])CCC(=O)[O-]
REMARK SMILES IDX 4 1 2 2 1 3 3 4 5 5 6 6 7 7 8 8
REMARK H PARENT
REMARK Flexibility Score: inf
ROOT
ATOM      1  C   UNL     1      20.811 -10.325  24.144  1.00  0.00     0.059 C 
ENDROOT
BRANCH   1   2
ATOM      2  C   UNL     1      21.004  -8.869  24.440  1.00  0.00     0.042 C 
ATOM      3  O   UNL     1      21.137  -8.044  23.498  1.00  0.00    -0.550 OA
ATOM      4  O   UNL     1      20.997  -8.418  25.754  1.00  0.00    -0.550 OA
ENDBRANCH   1   2
BRANCH   1   5
ATOM      5  C   UNL     1      21.558 -10.747  22.874  1.00  0.00     0.059 C 
BRANCH   5   6
ATOM      6  C   UNL     1      20.886 -11.903  22.197  1.00  0.00     0.042 C 
ATOM      7  O   UNL     1      19.702 -12.209  22.492  1.00  0.00    -0.550 OA
ATOM      8  O   UNL     1      21.556 -12.618  21.211  1.00  0.00    -0.550 OA
ENDBRANCH   5   6
ENDBRANCH   1   5
TORSDOF 3
ENDMDL
MODEL 9
REMARK VINA RESULT:    -3.449      2.502      5.303
REMARK INTER + INTRA:          -4.082
REMARK INTER:                  -4.051
REMARK INTRA:                  -0.031
REMARK UNBOUND:                -0.029
REMARK SMILES O=C([O-])CCC(=O)[O-]
REMARK SMILES IDX 4 1 2 2 1 3 3 4 5 5 6 6 7 7 8 8
REMARK H PARENT
REMARK Flexibility Score: inf
ROOT
ATOM      1  C   UNL     1      21.121  -8.641  24.580  1.00  0.00     0.059 C 
ENDROOT
BRANCH   1   2
ATOM      2  C   UNL     1      20.503  -7.783  25.642  1.00  0.00     0.042 C 
ATOM      3  O   UNL     1      19.397  -7.219  25.435  1.00  0.00    -0.550 OA
ATOM      4  O   UNL     1      21.128  -7.641  26.874  1.00  0.00    -0.550 OA
ENDBRANCH   1   2
BRANCH   1   5
ATOM      5  C   UNL     1      20.534 -10.057  24.584  1.00  0.00     0.059 C 
BRANCH   5   6
ATOM      6  C   UNL     1      20.959 -10.834  23.376  1.00  0.00     0.042 C 
ATOM      7  O   UNL     1      22.090 -10.635  22.860  1.00  0.00    -0.550 OA
ATOM      8  O   UNL     1      20.123 -11.808  22.845  1.00  0.00    -0.550 OA
ENDBRANCH   5   6
ENDBRANCH   1   5
TORSDOF 3
ENDMDL
