MODEL 1
REMARK VINA RESULT:    -2.692      0.000      0.000
REMARK INTER + INTRA:          -2.928
REMARK INTER:                  -2.928
REMARK INTRA:                   0.000
REMARK UNBOUND:                 0.000
REMARK SMILES [NH3+]CC(=O)[O-]
REMARK SMILES IDX 2 1 1 2 3 6 4 7 5 8
REMARK H PARENT 1 3 1 4 1 5
REMARK Flexibility Score: inf
ROOT
ATOM      1  C   UNL     1     163.286 179.071 182.994  1.00  0.00     0.312 C 
ENDROOT
BRANCH   1   2
ATOM      2  N   UNL     1     164.497 179.879 183.116  1.00  0.00    -0.353 N 
ATOM      3  H   UNL     1     164.228 180.871 183.311  1.00  0.00     0.344 HD
ATOM      4  H   UNL     1     165.086 179.526 183.907  1.00  0.00     0.344 HD
ATOM      5  H   UNL     1     165.044 179.844 182.225  1.00  0.00     0.344 HD
ENDBRANCH   1   2
BRANCH   1   6
ATOM      6  C   UNL     1     163.188 178.091 184.123  1.00  0.00     0.096 C 
ATOM      7  O   UNL     1     163.659 176.930 183.995  1.00  0.00    -0.544 OA
ATOM      8  O   UNL     1     162.531 178.442 185.295  1.00  0.00    -0.544 OA
ENDBRANCH   1   6
TORSDOF 2
ENDMDL
MODEL 2
REMARK VINA RESULT:    -2.675     21.336     21.785
REMARK INTER + INTRA:          -2.909
REMARK INTER:                  -2.909
REMARK INTRA:                   0.000
REMARK UNBOUND:                 0.000
REMARK SMILES [NH3+]CC(=O)[O-]
REMARK SMILES IDX 2 1 1 2 3 6 4 7 5 8
REMARK H PARENT 1 3 1 4 1 5
REMARK Flexibility Score: inf
ROOT
ATOM      1  C   UNL     1     181.037 165.922 182.539  1.00  0.00     0.312 C 
ENDROOT
BRANCH   1   2
ATOM      2  N   UNL     1     180.953 164.471 182.384  1.00  0.00    -0.353 N 
ATOM      3  H   UNL     1     180.257 164.094 183.068  1.00  0.00     0.344 HD
ATOM      4  H   UNL     1     180.640 164.231 181.414  1.00  0.00     0.344 HD
ATOM      5  H   UNL     1     181.885 164.035 182.574  1.00  0.00     0.344 HD
ENDBRANCH   1   2
BRANCH   1   6
ATOM      6  C   UNL     1     181.097 166.296 183.988  1.00  0.00     0.096 C 
ATOM      7  O   UNL     1     180.561 167.363 184.389  1.00  0.00    -0.544 OA
ATOM      8  O   UNL     1     181.790 165.495 184.886  1.00  0.00    -0.544 OA
ENDBRANCH   1   6
TORSDOF 2
ENDMDL
MODEL 3
REMARK VINA RESULT:    -2.667      0.114      1.453
REMARK INTER + INTRA:          -2.901
REMARK INTER:                  -2.901
REMARK INTRA:                   0.000
REMARK UNBOUND:                 0.000
REMARK SMILES [NH3+]CC(=O)[O-]
REMARK SMILES IDX 2 1 1 2 3 6 4 7 5 8
REMARK H PARENT 1 3 1 4 1 5
REMARK Flexibility Score: inf
ROOT
ATOM      1  C   UNL     1     163.136 179.156 183.062  1.00  0.00     0.312 C 
ENDROOT
BRANCH   1   2
ATOM      2  N   UNL     1     164.434 179.827 183.033  1.00  0.00    -0.353 N 
ATOM      3  H   UNL     1     164.587 180.233 182.081  1.00  0.00     0.344 HD
ATOM      4  H   UNL     1     164.454 180.600 183.738  1.00  0.00     0.344 HD
ATOM      5  H   UNL     1     165.197 179.142 183.236  1.00  0.00     0.344 HD
ENDBRANCH   1   2
BRANCH   1   6
ATOM      6  C   UNL     1     163.091 178.140 184.162  1.00  0.00     0.096 C 
ATOM      7  O   UNL     1     162.551 178.424 185.264  1.00  0.00    -0.544 OA
ATOM      8  O   UNL     1     163.690 176.899 183.989  1.00  0.00    -0.544 OA
ENDBRANCH   1   6
TORSDOF 2
ENDMDL
MODEL 4
REMARK VINA RESULT:    -2.578      2.157      2.508
REMARK INTER + INTRA:          -2.804
REMARK INTER:                  -2.804
REMARK INTRA:                   0.000
REMARK UNBOUND:                 0.000
REMARK SMILES [NH3+]CC(=O)[O-]
REMARK SMILES IDX 2 1 1 2 3 6 4 7 5 8
REMARK H PARENT 1 3 1 4 1 5
REMARK Flexibility Score: inf
ROOT
ATOM      1  C   UNL     1     163.350 178.140 183.751  1.00  0.00     0.312 C 
ENDROOT
BRANCH   1   2
ATOM      2  N   UNL     1     162.648 178.219 185.031  1.00  0.00    -0.353 N 
ATOM      3  H   UNL     1     161.806 178.829 184.921  1.00  0.00     0.344 HD
ATOM      4  H   UNL     1     162.339 177.264 185.330  1.00  0.00     0.344 HD
ATOM      5  H   UNL     1     163.275 178.632 185.759  1.00  0.00     0.344 HD
ENDBRANCH   1   2
BRANCH   1   6
ATOM      6  C   UNL     1     164.079 176.837 183.628  1.00  0.00     0.096 C 
ATOM      7  O   UNL     1     164.840 176.448 184.553  1.00  0.00    -0.544 OA
ATOM      8  O   UNL     1     163.959 176.079 182.470  1.00  0.00    -0.544 OA
ENDBRANCH   1   6
TORSDOF 2
ENDMDL
MODEL 5
REMARK VINA RESULT:    -2.549     20.788     21.214
REMARK INTER + INTRA:          -2.772
REMARK INTER:                  -2.772
REMARK INTRA:                   0.000
REMARK UNBOUND:                 0.000
REMARK SMILES [NH3+]CC(=O)[O-]
REMARK SMILES IDX 2 1 1 2 3 6 4 7 5 8
REMARK H PARENT 1 3 1 4 1 5
REMARK Flexibility Score: inf
ROOT
ATOM      1  C   UNL     1     181.418 165.848 182.396  1.00  0.00     0.312 C 
ENDROOT
BRANCH   1   2
ATOM      2  N   UNL     1     181.012 164.450 182.268  1.00  0.00    -0.353 N 
ATOM      3  H   UNL     1     181.866 163.852 182.195  1.00  0.00     0.344 HD
ATOM      4  H   UNL     1     180.465 164.158 183.112  1.00  0.00     0.344 HD
ATOM      5  H   UNL     1     180.432 164.322 181.408  1.00  0.00     0.344 HD
ENDBRANCH   1   2
BRANCH   1   6
ATOM      6  C   UNL     1     180.404 166.625 183.178  1.00  0.00     0.096 C 
ATOM      7  O   UNL     1     179.195 166.623 182.824  1.00  0.00    -0.544 OA
ATOM      8  O   UNL     1     180.802 167.391 184.266  1.00  0.00    -0.544 OA
ENDBRANCH   1   6
TORSDOF 2
ENDMDL
MODEL 6
REMARK VINA RESULT:    -2.545     19.798     20.125
REMARK INTER + INTRA:          -2.768
REMARK INTER:                  -2.768
REMARK INTRA:                   0.000
REMARK UNBOUND:                 0.000
REMARK SMILES [NH3+]CC(=O)[O-]
REMARK SMILES IDX 2 1 1 2 3 6 4 7 5 8
REMARK H PARENT 1 3 1 4 1 5
REMARK Flexibility Score: inf
ROOT
ATOM      1  C   UNL     1     180.955 166.879 183.721  1.00  0.00     0.312 C 
ENDROOT
BRANCH   1   2
ATOM      2  N   UNL     1     181.406 166.421 185.033  1.00  0.00    -0.353 N 
ATOM      3  H   UNL     1     180.593 166.016 185.551  1.00  0.00     0.344 HD
ATOM      4  H   UNL     1     182.139 165.682 184.922  1.00  0.00     0.344 HD
ATOM      5  H   UNL     1     181.792 167.223 185.581  1.00  0.00     0.344 HD
ENDBRANCH   1   2
BRANCH   1   6
ATOM      6  C   UNL     1     179.899 167.932 183.863  1.00  0.00     0.096 C 
ATOM      7  O   UNL     1     179.715 168.772 182.943  1.00  0.00    -0.544 OA
ATOM      8  O   UNL     1     179.155 168.018 185.033  1.00  0.00    -0.544 OA
ENDBRANCH   1   6
TORSDOF 2
ENDMDL
MODEL 7
REMARK VINA RESULT:    -2.511      4.269      4.899
REMARK INTER + INTRA:          -2.732
REMARK INTER:                  -2.732
REMARK INTRA:                   0.000
REMARK UNBOUND:                 0.000
REMARK SMILES [NH3+]CC(=O)[O-]
REMARK SMILES IDX 2 1 1 2 3 6 4 7 5 8
REMARK H PARENT 1 3 1 4 1 5
REMARK Flexibility Score: inf
ROOT
ATOM      1  C   UNL     1     166.375 175.170 185.776  1.00  0.00     0.312 C 
ENDROOT
BRANCH   1   2
ATOM      2  N   UNL     1     165.666 173.988 186.260  1.00  0.00    -0.353 N 
ATOM      3  H   UNL     1     165.357 174.154 187.245  1.00  0.00     0.344 HD
ATOM      4  H   UNL     1     164.822 173.808 185.666  1.00  0.00     0.344 HD
ATOM      5  H   UNL     1     166.298 173.155 186.238  1.00  0.00     0.344 HD
ENDBRANCH   1   2
BRANCH   1   6
ATOM      6  C   UNL     1     165.734 175.699 184.530  1.00  0.00     0.096 C 
ATOM      7  O   UNL     1     164.770 176.506 184.608  1.00  0.00    -0.544 OA
ATOM      8  O   UNL     1     166.166 175.260 183.285  1.00  0.00    -0.544 OA
ENDBRANCH   1   6
TORSDOF 2
ENDMDL
MODEL 8
REMARK VINA RESULT:    -2.502      2.390      2.811
REMARK INTER + INTRA:          -2.721
REMARK INTER:                  -2.721
REMARK INTRA:                   0.000
REMARK UNBOUND:                 0.000
REMARK SMILES [NH3+]CC(=O)[O-]
REMARK SMILES IDX 2 1 1 2 3 6 4 7 5 8
REMARK H PARENT 1 3 1 4 1 5
REMARK Flexibility Score: inf
ROOT
ATOM      1  C   UNL     1     163.488 177.682 183.805  1.00  0.00     0.312 C 
ENDROOT
BRANCH   1   2
ATOM      2  N   UNL     1     162.714 178.070 184.982  1.00  0.00    -0.353 N 
ATOM      3  H   UNL     1     162.287 179.010 184.814  1.00  0.00     0.344 HD
ATOM      4  H   UNL     1     161.949 177.376 185.153  1.00  0.00     0.344 HD
ATOM      5  H   UNL     1     163.336 178.125 185.820  1.00  0.00     0.344 HD
ENDBRANCH   1   2
BRANCH   1   6
ATOM      6  C   UNL     1     163.669 178.848 182.882  1.00  0.00     0.096 C 
ATOM      7  O   UNL     1     162.672 179.525 182.516  1.00  0.00    -0.544 OA
ATOM      8  O   UNL     1     164.929 179.156 182.387  1.00  0.00    -0.544 OA
ENDBRANCH   1   6
TORSDOF 2
ENDMDL
MODEL 9
REMARK VINA RESULT:    -2.358     18.111     18.587
REMARK INTER + INTRA:          -2.565
REMARK INTER:                  -2.565
REMARK INTRA:                   0.000
REMARK UNBOUND:                 0.000
REMARK SMILES [NH3+]CC(=O)[O-]
REMARK SMILES IDX 2 1 1 2 3 6 4 7 5 8
REMARK H PARENT 1 3 1 4 1 5
REMARK Flexibility Score: inf
ROOT
ATOM      1  C   UNL     1     178.209 168.513 185.404  1.00  0.00     0.312 C 
ENDROOT
BRANCH   1   2
ATOM      2  N   UNL     1     178.392 169.816 186.039  1.00  0.00    -0.353 N 
ATOM      3  H   UNL     1     179.126 170.349 185.519  1.00  0.00     0.344 HD
ATOM      4  H   UNL     1     177.496 170.358 186.012  1.00  0.00     0.344 HD
ATOM      5  H   UNL     1     178.702 169.693 187.031  1.00  0.00     0.344 HD
ENDBRANCH   1   2
BRANCH   1   6
ATOM      6  C   UNL     1     179.226 168.303 184.325  1.00  0.00     0.096 C 
ATOM      7  O   UNL     1     180.192 167.516 184.510  1.00  0.00    -0.544 OA
ATOM      8  O   UNL     1     179.136 169.015 183.136  1.00  0.00    -0.544 OA
ENDBRANCH   1   6
TORSDOF 2
ENDMDL
