MODEL 1
REMARK VINA RESULT:    -4.239      0.000      0.000
REMARK INTER + INTRA:          -4.836
REMARK INTER:                  -4.611
REMARK INTRA:                  -0.225
REMARK UNBOUND:                -0.225
REMARK SMILES O=C([O-])c1ccccc1O
REMARK SMILES IDX 4 1 9 2 5 3 8 4 6 5 7 6 2 7 1 8 3 9 10 10
REMARK H PARENT 10 11
REMARK Flexibility Score: inf
ROOT
ATOM      1  C   UNL     1      14.232  -1.743  12.251  1.00  0.00     0.039 A 
ATOM      2  C   UNL     1      13.822  -3.100  12.218  1.00  0.00     0.124 A 
ATOM      3  C   UNL     1      13.372  -0.760  11.722  1.00  0.00     0.014 A 
ATOM      4  C   UNL     1      12.609  -3.444  11.608  1.00  0.00     0.047 A 
ATOM      5  C   UNL     1      12.155  -1.119  11.137  1.00  0.00     0.001 A 
ATOM      6  C   UNL     1      11.779  -2.459  11.071  1.00  0.00     0.004 A 
ENDROOT
BRANCH   1   7
ATOM      7  C   UNL     1      15.545  -1.322  12.786  1.00  0.00     0.075 C 
ATOM      8  O   UNL     1      16.125  -2.021  13.659  1.00  0.00    -0.545 OA
ATOM      9  O   UNL     1      16.123  -0.123  12.390  1.00  0.00    -0.545 OA
ENDBRANCH   1   7
BRANCH   2  10
ATOM     10  O   UNL     1      14.568  -4.125  12.806  1.00  0.00    -0.507 OA
ATOM     11  H   UNL     1      14.895  -4.936  12.299  1.00  0.00     0.293 HD
ENDBRANCH   2  10
TORSDOF 2
ENDMDL
MODEL 2
REMARK VINA RESULT:    -4.080      2.262      4.075
REMARK INTER + INTRA:          -4.662
REMARK INTER:                  -4.413
REMARK INTRA:                  -0.250
REMARK UNBOUND:                -0.225
REMARK SMILES O=C([O-])c1ccccc1O
REMARK SMILES IDX 4 1 9 2 5 3 8 4 6 5 7 6 2 7 1 8 3 9 10 10
REMARK H PARENT 10 11
REMARK Flexibility Score: inf
ROOT
ATOM      1  C   UNL     1      13.173  -2.678  11.764  1.00  0.00     0.039 A 
ATOM      2  C   UNL     1      13.925  -1.475  11.795  1.00  0.00     0.124 A 
ATOM      3  C   UNL     1      13.705  -3.828  12.377  1.00  0.00     0.014 A 
ATOM      4  C   UNL     1      15.201  -1.469  12.373  1.00  0.00     0.047 A 
ATOM      5  C   UNL     1      14.970  -3.799  12.968  1.00  0.00     0.001 A 
ATOM      6  C   UNL     1      15.721  -2.624  12.958  1.00  0.00     0.004 A 
ENDROOT
BRANCH   1   7
ATOM      7  C   UNL     1      11.866  -2.779  11.080  1.00  0.00     0.075 C 
ATOM      8  O   UNL     1      11.582  -3.805  10.406  1.00  0.00    -0.545 OA
ATOM      9  O   UNL     1      10.963  -1.724  11.112  1.00  0.00    -0.545 OA
ENDBRANCH   1   7
BRANCH   2  10
ATOM     10  O   UNL     1      13.430  -0.267  11.298  1.00  0.00    -0.507 OA
ATOM     11  H   UNL     1      13.919   0.295  10.614  1.00  0.00     0.293 HD
ENDBRANCH   2  10
TORSDOF 2
ENDMDL
MODEL 3
REMARK VINA RESULT:    -2.991     17.003     18.340
REMARK INTER + INTRA:          -3.478
REMARK INTER:                  -3.229
REMARK INTRA:                  -0.249
REMARK UNBOUND:                -0.225
REMARK SMILES O=C([O-])c1ccccc1O
REMARK SMILES IDX 4 1 9 2 5 3 8 4 6 5 7 6 2 7 1 8 3 9 10 10
REMARK H PARENT 10 11
REMARK Flexibility Score: inf
ROOT
ATOM      1  C   UNL     1       0.373  -2.118   0.219  1.00  0.00     0.039 A 
ATOM      2  C   UNL     1      -0.309  -3.240   0.755  1.00  0.00     0.124 A 
ATOM      3  C   UNL     1       0.312  -1.885  -1.168  1.00  0.00     0.014 A 
ATOM      4  C   UNL     1      -0.972  -4.125  -0.105  1.00  0.00     0.047 A 
ATOM      5  C   UNL     1      -0.372  -2.765  -2.009  1.00  0.00     0.001 A 
ATOM      6  C   UNL     1      -1.005  -3.889  -1.480  1.00  0.00     0.004 A 
ENDROOT
BRANCH   1   7
ATOM      7  C   UNL     1       1.178  -1.203   1.058  1.00  0.00     0.075 C 
ATOM      8  O   UNL     1       0.712  -0.766   2.143  1.00  0.00    -0.545 OA
ATOM      9  O   UNL     1       2.423  -0.759   0.631  1.00  0.00    -0.545 OA
ENDBRANCH   1   7
BRANCH   2  10
ATOM     10  O   UNL     1      -0.382  -3.491   2.128  1.00  0.00    -0.507 OA
ATOM     11  H   UNL     1      -0.318  -2.766   2.829  1.00  0.00     0.293 HD
ENDBRANCH   2  10
TORSDOF 2
ENDMDL
MODEL 4
REMARK VINA RESULT:    -2.312      1.098      2.203
REMARK INTER + INTRA:          -2.739
REMARK INTER:                  -2.541
REMARK INTRA:                  -0.199
REMARK UNBOUND:                -0.225
REMARK SMILES O=C([O-])c1ccccc1O
REMARK SMILES IDX 4 1 9 2 5 3 8 4 6 5 7 6 2 7 1 8 3 9 10 10
REMARK H PARENT 10 11
REMARK Flexibility Score: inf
ROOT
ATOM      1  C   UNL     1      14.023  -2.023  12.034  1.00  0.00     0.039 A 
ATOM      2  C   UNL     1      13.061  -1.180  11.422  1.00  0.00     0.124 A 
ATOM      3  C   UNL     1      13.744  -3.398  12.154  1.00  0.00     0.014 A 
ATOM      4  C   UNL     1      11.833  -1.713  11.008  1.00  0.00     0.047 A 
ATOM      5  C   UNL     1      12.523  -3.918  11.716  1.00  0.00     0.001 A 
ATOM      6  C   UNL     1      11.566  -3.075  11.153  1.00  0.00     0.004 A 
ENDROOT
BRANCH   1   7
ATOM      7  C   UNL     1      15.294  -1.507  12.586  1.00  0.00     0.075 C 
ATOM      8  O   UNL     1      16.088  -2.285  13.179  1.00  0.00    -0.545 OA
ATOM      9  O   UNL     1      15.600  -0.154  12.522  1.00  0.00    -0.545 OA
ENDBRANCH   1   7
BRANCH   2  10
ATOM     10  O   UNL     1      13.297   0.175  11.176  1.00  0.00    -0.507 OA
ATOM     11  H   UNL     1      14.164   0.640  11.409  1.00  0.00     0.293 HD
ENDBRANCH   2  10
TORSDOF 2
ENDMDL
MODEL 5
REMARK VINA RESULT:    -2.114     17.109     18.611
REMARK INTER + INTRA:          -2.524
REMARK INTER:                  -2.328
REMARK INTRA:                  -0.196
REMARK UNBOUND:                -0.225
REMARK SMILES O=C([O-])c1ccccc1O
REMARK SMILES IDX 4 1 9 2 5 3 8 4 6 5 7 6 2 7 1 8 3 9 10 10
REMARK H PARENT 10 11
REMARK Flexibility Score: inf
ROOT
ATOM      1  C   UNL     1       0.102  -2.589  -0.093  1.00  0.00     0.039 A 
ATOM      2  C   UNL     1      -0.029  -2.991   1.261  1.00  0.00     0.124 A 
ATOM      3  C   UNL     1       0.929  -1.492  -0.400  1.00  0.00     0.014 A 
ATOM      4  C   UNL     1       0.609  -2.254   2.267  1.00  0.00     0.047 A 
ATOM      5  C   UNL     1       1.576  -0.782   0.614  1.00  0.00     0.001 A 
ATOM      6  C   UNL     1       1.409  -1.157   1.946  1.00  0.00     0.004 A 
ENDROOT
BRANCH   1   7
ATOM      7  C   UNL     1      -0.626  -3.258  -1.193  1.00  0.00     0.075 C 
ATOM      8  O   UNL     1      -1.503  -4.125  -0.937  1.00  0.00    -0.545 OA
ATOM      9  O   UNL     1      -0.309  -2.994  -2.520  1.00  0.00    -0.545 OA
ENDBRANCH   1   7
BRANCH   2  10
ATOM     10  O   UNL     1      -0.750  -4.125   1.642  1.00  0.00    -0.507 OA
ATOM     11  H   UNL     1      -0.954  -4.356   2.605  1.00  0.00     0.293 HD
ENDBRANCH   2  10
TORSDOF 2
ENDMDL
MODEL 6
REMARK VINA RESULT:    -1.318     17.473     18.866
REMARK INTER + INTRA:          -1.658
REMARK INTER:                  -1.425
REMARK INTRA:                  -0.234
REMARK UNBOUND:                -0.225
REMARK SMILES O=C([O-])c1ccccc1O
REMARK SMILES IDX 4 1 9 2 5 3 8 4 6 5 7 6 2 7 1 8 3 9 10 10
REMARK H PARENT 10 11
REMARK Flexibility Score: inf
ROOT
ATOM      1  C   UNL     1      -0.168  -2.996   0.248  1.00  0.00     0.039 A 
ATOM      2  C   UNL     1       0.513  -2.125  -0.641  1.00  0.00     0.124 A 
ATOM      3  C   UNL     1      -0.998  -4.001  -0.287  1.00  0.00     0.014 A 
ATOM      4  C   UNL     1       0.299  -2.237  -2.021  1.00  0.00     0.047 A 
ATOM      5  C   UNL     1      -1.182  -4.112  -1.667  1.00  0.00     0.001 A 
ATOM      6  C   UNL     1      -0.542  -3.225  -2.532  1.00  0.00     0.004 A 
ENDROOT
BRANCH   1   7
ATOM      7  C   UNL     1      -0.069  -2.868   1.718  1.00  0.00     0.075 C 
ATOM      8  O   UNL     1      -0.409  -3.826   2.461  1.00  0.00    -0.545 OA
ATOM      9  O   UNL     1       0.332  -1.672   2.301  1.00  0.00    -0.545 OA
ENDBRANCH   1   7
BRANCH   2  10
ATOM     10  O   UNL     1       1.428  -1.167  -0.199  1.00  0.00    -0.507 OA
ATOM     11  H   UNL     1       2.289  -1.398   0.279  1.00  0.00     0.293 HD
ENDBRANCH   2  10
TORSDOF 2
ENDMDL
MODEL 7
REMARK VINA RESULT:    -1.257     16.311     17.648
REMARK INTER + INTRA:          -1.592
REMARK INTER:                  -1.375
REMARK INTRA:                  -0.217
REMARK UNBOUND:                -0.225
REMARK SMILES O=C([O-])c1ccccc1O
REMARK SMILES IDX 4 1 9 2 5 3 8 4 6 5 7 6 2 7 1 8 3 9 10 10
REMARK H PARENT 10 11
REMARK Flexibility Score: inf
ROOT
ATOM      1  C   UNL     1       1.004  -1.990   0.926  1.00  0.00     0.039 A 
ATOM      2  C   UNL     1       0.775  -2.117  -0.468  1.00  0.00     0.124 A 
ATOM      3  C   UNL     1       0.233  -2.762   1.816  1.00  0.00     0.014 A 
ATOM      4  C   UNL     1      -0.250  -2.953  -0.928  1.00  0.00     0.047 A 
ATOM      5  C   UNL     1      -0.771  -3.608   1.338  1.00  0.00     0.001 A 
ATOM      6  C   UNL     1      -1.019  -3.696  -0.031  1.00  0.00     0.004 A 
ENDROOT
BRANCH   1   7
ATOM      7  C   UNL     1       2.000  -1.049   1.484  1.00  0.00     0.075 C 
ATOM      8  O   UNL     1       1.918  -0.680   2.686  1.00  0.00    -0.545 OA
ATOM      9  O   UNL     1       2.993  -0.505   0.680  1.00  0.00    -0.545 OA
ENDBRANCH   1   7
BRANCH   2  10
ATOM     10  O   UNL     1       1.559  -1.463  -1.421  1.00  0.00    -0.507 OA
ATOM     11  H   UNL     1       1.486  -0.474  -1.617  1.00  0.00     0.293 HD
ENDBRANCH   2  10
TORSDOF 2
ENDMDL
