MODEL 1
REMARK VINA RESULT:    -7.545      0.000      0.000
REMARK INTER + INTRA:         -12.600
REMARK INTER:                 -10.191
REMARK INTRA:                  -2.409
REMARK UNBOUND:                -2.409
REMARK SMILES CC[C@H](CC[C@H](C)[C@@H]1CC[C@@H]2[C@@H]3CC(=O)C4=CC(=O)CC[C@]4(C)[C@@H]3CC[C@@]21C)C(C)C
REMARK SMILES IDX 4 1 3 2 2 3 1 4 29 5 30 6 31 7 5 8 6 9 7 10 8 11 9 12 27 13
REMARK SMILES IDX 10 14 11 15 26 16 28 17 12 18 25 19 24 20 13 21 22 22 14 23
REMARK SMILES IDX 16 24 21 25 23 26 15 27 17 28 20 29 18 30 19 31
REMARK H PARENT
REMARK Flexibility Score: inf
ROOT
ATOM      1  C   UNL     1       4.619  20.973  53.137  1.00  0.00     0.004 C 
ENDROOT
BRANCH   1   2
ATOM      2  C   UNL     1       4.786  20.422  54.589  1.00  0.00    -0.009 C 
BRANCH   2   3
ATOM      3  C   UNL     1       3.527  20.594  55.478  1.00  0.00     0.000 C 
ATOM      4  C   UNL     1       3.723  21.637  56.580  1.00  0.00     0.004 C 
ENDBRANCH   2   3
BRANCH   2   5
ATOM      5  C   UNL     1       5.370  18.969  54.682  1.00  0.00    -0.014 C 
ATOM      6  C   UNL     1       4.352  17.856  54.399  1.00  0.00     0.007 C 
ATOM      7  C   UNL     1       6.619  18.784  53.803  1.00  0.00     0.007 C 
ENDBRANCH   2   5
ENDBRANCH   1   2
BRANCH   1   8
ATOM      8  C   UNL     1       5.305  22.329  52.836  1.00  0.00     0.004 C 
BRANCH   8   9
ATOM      9  C   UNL     1       5.884  22.999  54.121  1.00  0.00    -0.011 C 
ATOM     10  C   UNL     1       5.272  24.414  54.248  1.00  0.00     0.008 C 
BRANCH   9  11
ATOM     11  C   UNL     1       7.461  23.060  54.120  1.00  0.00    -0.002 C 
ATOM     12  C   UNL     1       8.113  22.015  53.208  1.00  0.00     0.005 C 
ATOM     13  C   UNL     1       8.211  22.886  55.496  1.00  0.00    -0.026 C 
ATOM     14  C   UNL     1       9.569  21.969  53.611  1.00  0.00     0.005 C 
ATOM     15  C   UNL     1       9.606  22.268  55.114  1.00  0.00    -0.001 C 
ATOM     16  C   UNL     1       7.460  21.943  56.478  1.00  0.00     0.007 C 
ATOM     17  C   UNL     1       8.420  24.272  56.167  1.00  0.00     0.012 C 
ATOM     18  C   UNL     1      10.100  21.066  55.997  1.00  0.00     0.004 C 
ATOM     19  C   UNL     1       8.274  21.563  57.726  1.00  0.00     0.005 C 
ATOM     20  C   UNL     1       9.802  21.353  57.491  1.00  0.00     0.003 C 
ATOM     21  C   UNL     1       9.625  19.653  55.550  1.00  0.00     0.085 C 
ATOM     22  C   UNL     1      10.423  20.263  58.437  1.00  0.00    -0.000 C 
ATOM     23  C   UNL     1       9.588  18.599  56.631  1.00  0.00     0.159 C 
ATOM     24  C   UNL     1       9.839  18.906  58.066  1.00  0.00     0.005 C 
ATOM     25  C   UNL     1      10.129  20.632  59.931  1.00  0.00     0.020 C 
ATOM     26  C   UNL     1      11.965  20.187  58.249  1.00  0.00     0.017 C 
ATOM     27  O   UNL     1       9.312  17.416  56.286  1.00  0.00    -0.295 OA
ATOM     28  C   UNL     1       9.614  17.965  59.005  1.00  0.00     0.055 C 
ATOM     29  C   UNL     1      10.454  19.497  60.909  1.00  0.00     0.081 C 
ATOM     30  C   UNL     1       9.865  18.205  60.434  1.00  0.00     0.156 C 
ATOM     31  O   UNL     1       9.613  17.295  61.269  1.00  0.00    -0.295 OA
ENDBRANCH   9  11
ENDBRANCH   8   9
ENDBRANCH   1   8
TORSDOF 6
ENDMDL
MODEL 2
REMARK VINA RESULT:    -7.366      4.235      7.354
REMARK INTER + INTRA:         -12.359
REMARK INTER:                 -10.275
REMARK INTRA:                  -2.083
REMARK UNBOUND:                -2.409
REMARK SMILES CC[C@H](CC[C@H](C)[C@@H]1CC[C@@H]2[C@@H]3CC(=O)C4=CC(=O)CC[C@]4(C)[C@@H]3CC[C@@]21C)C(C)C
REMARK SMILES IDX 4 1 3 2 2 3 1 4 29 5 30 6 31 7 5 8 6 9 7 10 8 11 9 12 27 13
REMARK SMILES IDX 10 14 11 15 26 16 28 17 12 18 25 19 24 20 13 21 22 22 14 23
REMARK SMILES IDX 16 24 21 25 23 26 15 27 17 28 20 29 18 30 19 31
REMARK H PARENT
REMARK Flexibility Score: inf
ROOT
ATOM      1  C   UNL     1      10.462  20.225  59.656  1.00  0.00     0.004 C 
ENDROOT
BRANCH   1   2
ATOM      2  C   UNL     1       9.919  18.773  59.850  1.00  0.00    -0.009 C 
BRANCH   2   3
ATOM      3  C   UNL     1      10.039  18.244  61.303  1.00  0.00     0.000 C 
ATOM      4  C   UNL     1      10.125  19.372  62.333  1.00  0.00     0.004 C 
ENDBRANCH   2   3
BRANCH   2   5
ATOM      5  C   UNL     1       8.492  18.515  59.252  1.00  0.00    -0.014 C 
ATOM      6  C   UNL     1       8.482  18.160  57.759  1.00  0.00     0.007 C 
ATOM      7  C   UNL     1       7.705  17.464  60.054  1.00  0.00     0.007 C 
ENDBRANCH   2   5
ENDBRANCH   1   2
BRANCH   1   8
ATOM      8  C   UNL     1      11.869  20.352  59.019  1.00  0.00     0.004 C 
BRANCH   8   9
ATOM      9  C   UNL     1      12.359  19.009  58.394  1.00  0.00    -0.011 C 
ATOM     10  C   UNL     1      13.679  18.603  59.090  1.00  0.00     0.008 C 
BRANCH   9  11
ATOM     11  C   UNL     1      12.546  19.097  56.829  1.00  0.00    -0.002 C 
ATOM     12  C   UNL     1      11.503  19.981  56.138  1.00  0.00     0.005 C 
ATOM     13  C   UNL     1      12.517  17.754  56.002  1.00  0.00    -0.026 C 
ATOM     14  C   UNL     1      11.597  19.653  54.665  1.00  0.00     0.005 C 
ATOM     15  C   UNL     1      11.990  18.174  54.581  1.00  0.00    -0.001 C 
ATOM     16  C   UNL     1      11.579  16.682  56.624  1.00  0.00     0.007 C 
ATOM     17  C   UNL     1      13.953  17.176  55.877  1.00  0.00     0.012 C 
ATOM     18  C   UNL     1      10.888  17.250  53.947  1.00  0.00     0.004 C 
ATOM     19  C   UNL     1      11.342  15.459  55.723  1.00  0.00     0.005 C 
ATOM     20  C   UNL     1      11.241  15.762  54.196  1.00  0.00     0.003 C 
ATOM     21  C   UNL     1       9.417  17.591  54.325  1.00  0.00     0.085 C 
ATOM     22  C   UNL     1      10.265  14.789  53.442  1.00  0.00    -0.000 C 
ATOM     23  C   UNL     1       8.431  16.450  54.221  1.00  0.00     0.159 C 
ATOM     24  C   UNL     1       8.845  15.050  53.928  1.00  0.00     0.005 C 
ATOM     25  C   UNL     1      10.699  13.306  53.692  1.00  0.00     0.020 C 
ATOM     26  C   UNL     1      10.300  15.054  51.910  1.00  0.00     0.017 C 
ATOM     27  O   UNL     1       7.211  16.712  54.415  1.00  0.00    -0.295 OA
ATOM     28  C   UNL     1       7.949  14.049  54.029  1.00  0.00     0.055 C 
ATOM     29  C   UNL     1       9.656  12.283  53.228  1.00  0.00     0.081 C 
ATOM     30  C   UNL     1       8.294  12.651  53.730  1.00  0.00     0.156 C 
ATOM     31  O   UNL     1       7.420  11.753  53.865  1.00  0.00    -0.295 OA
ENDBRANCH   9  11
ENDBRANCH   8   9
ENDBRANCH   1   8
TORSDOF 6
ENDMDL
MODEL 3
REMARK VINA RESULT:    -7.356      3.005      5.245
REMARK INTER + INTRA:         -12.344
REMARK INTER:                  -9.560
REMARK INTRA:                  -2.785
REMARK UNBOUND:                -2.409
REMARK SMILES CC[C@H](CC[C@H](C)[C@@H]1CC[C@@H]2[C@@H]3CC(=O)C4=CC(=O)CC[C@]4(C)[C@@H]3CC[C@@]21C)C(C)C
REMARK SMILES IDX 4 1 3 2 2 3 1 4 29 5 30 6 31 7 5 8 6 9 7 10 8 11 9 12 27 13
REMARK SMILES IDX 10 14 11 15 26 16 28 17 12 18 25 19 24 20 13 21 22 22 14 23
REMARK SMILES IDX 16 24 21 25 23 26 15 27 17 28 20 29 18 30 19 31
REMARK H PARENT
REMARK Flexibility Score: inf
ROOT
ATOM      1  C   UNL     1       6.880  20.948  57.377  1.00  0.00     0.004 C 
ENDROOT
BRANCH   1   2
ATOM      2  C   UNL     1       8.392  21.341  57.418  1.00  0.00    -0.009 C 
BRANCH   2   3
ATOM      3  C   UNL     1       8.649  22.867  57.330  1.00  0.00     0.000 C 
ATOM      4  C   UNL     1       9.056  23.314  55.924  1.00  0.00     0.004 C 
ENDBRANCH   2   3
BRANCH   2   5
ATOM      5  C   UNL     1       9.216  20.677  58.576  1.00  0.00    -0.014 C 
ATOM      6  C   UNL     1       8.951  19.178  58.767  1.00  0.00     0.007 C 
ATOM      7  C   UNL     1      10.727  20.937  58.440  1.00  0.00     0.007 C 
ENDBRANCH   2   5
ENDBRANCH   1   2
BRANCH   1   8
ATOM      8  C   UNL     1       6.396  20.218  56.099  1.00  0.00     0.004 C 
BRANCH   8   9
ATOM      9  C   UNL     1       7.436  20.303  54.938  1.00  0.00    -0.011 C 
ATOM     10  C   UNL     1       6.751  20.969  53.722  1.00  0.00     0.008 C 
BRANCH   9  11
ATOM     11  C   UNL     1       8.036  18.895  54.552  1.00  0.00    -0.002 C 
ATOM     12  C   UNL     1       7.768  17.809  55.599  1.00  0.00     0.005 C 
ATOM     13  C   UNL     1       9.588  18.797  54.289  1.00  0.00    -0.026 C 
ATOM     14  C   UNL     1       8.706  16.672  55.260  1.00  0.00     0.005 C 
ATOM     15  C   UNL     1       9.963  17.317  54.667  1.00  0.00    -0.001 C 
ATOM     16  C   UNL     1      10.411  19.793  55.153  1.00  0.00     0.007 C 
ATOM     17  C   UNL     1       9.889  19.044  52.785  1.00  0.00     0.012 C 
ATOM     18  C   UNL     1      11.256  17.129  55.539  1.00  0.00     0.004 C 
ATOM     19  C   UNL     1      11.930  19.561  55.100  1.00  0.00     0.005 C 
ATOM     20  C   UNL     1      12.377  18.069  55.029  1.00  0.00     0.003 C 
ATOM     21  C   UNL     1      11.054  17.213  57.081  1.00  0.00     0.085 C 
ATOM     22  C   UNL     1      13.745  17.805  55.756  1.00  0.00    -0.000 C 
ATOM     23  C   UNL     1      12.275  17.601  57.883  1.00  0.00     0.159 C 
ATOM     24  C   UNL     1      13.554  18.026  57.251  1.00  0.00     0.005 C 
ATOM     25  C   UNL     1      14.847  18.750  55.167  1.00  0.00     0.020 C 
ATOM     26  C   UNL     1      14.203  16.333  55.546  1.00  0.00     0.017 C 
ATOM     27  O   UNL     1      12.179  17.575  59.142  1.00  0.00    -0.295 OA
ATOM     28  C   UNL     1      14.544  18.533  58.012  1.00  0.00     0.055 C 
ATOM     29  C   UNL     1      16.139  18.760  55.992  1.00  0.00     0.081 C 
ATOM     30  C   UNL     1      15.837  18.948  57.446  1.00  0.00     0.156 C 
ATOM     31  O   UNL     1      16.717  19.438  58.204  1.00  0.00    -0.295 OA
ENDBRANCH   9  11
ENDBRANCH   8   9
ENDBRANCH   1   8
TORSDOF 6
ENDMDL
MODEL 4
REMARK VINA RESULT:    -7.315      3.139      8.026
REMARK INTER + INTRA:         -12.290
REMARK INTER:                 -10.905
REMARK INTRA:                  -1.385
REMARK UNBOUND:                -2.409
REMARK SMILES CC[C@H](CC[C@H](C)[C@@H]1CC[C@@H]2[C@@H]3CC(=O)C4=CC(=O)CC[C@]4(C)[C@@H]3CC[C@@]21C)C(C)C
REMARK SMILES IDX 4 1 3 2 2 3 1 4 29 5 30 6 31 7 5 8 6 9 7 10 8 11 9 12 27 13
REMARK SMILES IDX 10 14 11 15 26 16 28 17 12 18 25 19 24 20 13 21 22 22 14 23
REMARK SMILES IDX 16 24 21 25 23 26 15 27 17 28 20 29 18 30 19 31
REMARK H PARENT
REMARK Flexibility Score: inf
ROOT
ATOM      1  C   UNL     1      14.533  18.635  58.170  1.00  0.00     0.004 C 
ENDROOT
BRANCH   1   2
ATOM      2  C   UNL     1      15.409  18.056  57.012  1.00  0.00    -0.009 C 
BRANCH   2   3
ATOM      3  C   UNL     1      14.636  17.838  55.685  1.00  0.00     0.000 C 
ATOM      4  C   UNL     1      14.215  16.381  55.483  1.00  0.00     0.004 C 
ENDBRANCH   2   3
BRANCH   2   5
ATOM      5  C   UNL     1      16.770  18.800  56.777  1.00  0.00    -0.014 C 
ATOM      6  C   UNL     1      16.876  19.522  55.427  1.00  0.00     0.007 C 
ATOM      7  C   UNL     1      17.113  19.766  57.925  1.00  0.00     0.007 C 
ENDBRANCH   2   5
ENDBRANCH   1   2
BRANCH   1   8
ATOM      8  C   UNL     1      13.097  19.072  57.789  1.00  0.00     0.004 C 
BRANCH   8   9
ATOM      9  C   UNL     1      12.052  18.688  58.882  1.00  0.00    -0.011 C 
ATOM     10  C   UNL     1      12.764  17.829  59.953  1.00  0.00     0.008 C 
BRANCH   9  11
ATOM     11  C   UNL     1      10.798  17.932  58.290  1.00  0.00    -0.002 C 
ATOM     12  C   UNL     1      11.019  17.405  56.868  1.00  0.00     0.005 C 
ATOM     13  C   UNL     1       9.434  18.717  58.199  1.00  0.00    -0.026 C 
ATOM     14  C   UNL     1       9.644  17.063  56.339  1.00  0.00     0.005 C 
ATOM     15  C   UNL     1       8.677  18.060  56.986  1.00  0.00    -0.001 C 
ATOM     16  C   UNL     1       9.628  20.239  57.945  1.00  0.00     0.007 C 
ATOM     17  C   UNL     1       8.613  18.509  59.501  1.00  0.00     0.012 C 
ATOM     18  C   UNL     1       7.998  19.049  55.972  1.00  0.00     0.004 C 
ATOM     19  C   UNL     1       8.327  20.989  57.614  1.00  0.00     0.005 C 
ATOM     20  C   UNL     1       7.302  20.199  56.743  1.00  0.00     0.003 C 
ATOM     21  C   UNL     1       8.903  19.563  54.814  1.00  0.00     0.085 C 
ATOM     22  C   UNL     1       6.465  21.127  55.791  1.00  0.00    -0.000 C 
ATOM     23  C   UNL     1       8.497  20.881  54.198  1.00  0.00     0.159 C 
ATOM     24  C   UNL     1       7.400  21.724  54.747  1.00  0.00     0.005 C 
ATOM     25  C   UNL     1       5.750  22.238  56.631  1.00  0.00     0.020 C 
ATOM     26  C   UNL     1       5.376  20.307  55.042  1.00  0.00     0.017 C 
ATOM     27  O   UNL     1       9.142  21.277  53.187  1.00  0.00    -0.295 OA
ATOM     28  C   UNL     1       7.205  22.969  54.269  1.00  0.00     0.055 C 
ATOM     29  C   UNL     1       5.136  23.348  55.769  1.00  0.00     0.081 C 
ATOM     30  C   UNL     1       6.123  23.838  54.757  1.00  0.00     0.156 C 
ATOM     31  O   UNL     1       6.004  25.003  54.289  1.00  0.00    -0.295 OA
ENDBRANCH   9  11
ENDBRANCH   8   9
ENDBRANCH   1   8
TORSDOF 6
ENDMDL
MODEL 5
REMARK VINA RESULT:    -7.187      2.534      4.642
REMARK INTER + INTRA:         -12.116
REMARK INTER:                  -9.544
REMARK INTRA:                  -2.572
REMARK UNBOUND:                -2.409
REMARK SMILES CC[C@H](CC[C@H](C)[C@@H]1CC[C@@H]2[C@@H]3CC(=O)C4=CC(=O)CC[C@]4(C)[C@@H]3CC[C@@]21C)C(C)C
REMARK SMILES IDX 4 1 3 2 2 3 1 4 29 5 30 6 31 7 5 8 6 9 7 10 8 11 9 12 27 13
REMARK SMILES IDX 10 14 11 15 26 16 28 17 12 18 25 19 24 20 13 21 22 22 14 23
REMARK SMILES IDX 16 24 21 25 23 26 15 27 17 28 20 29 18 30 19 31
REMARK H PARENT
REMARK Flexibility Score: inf
ROOT
ATOM      1  C   UNL     1       6.317  22.478  55.669  1.00  0.00     0.004 C 
ENDROOT
BRANCH   1   2
ATOM      2  C   UNL     1       7.839  22.473  56.023  1.00  0.00    -0.009 C 
BRANCH   2   3
ATOM      3  C   UNL     1       8.526  23.856  55.876  1.00  0.00     0.000 C 
ATOM      4  C   UNL     1       7.772  24.967  56.611  1.00  0.00     0.004 C 
ENDBRANCH   2   3
BRANCH   2   5
ATOM      5  C   UNL     1       8.198  21.787  57.386  1.00  0.00    -0.014 C 
ATOM      6  C   UNL     1       7.453  20.472  57.653  1.00  0.00     0.007 C 
ATOM      7  C   UNL     1       9.714  21.582  57.556  1.00  0.00     0.007 C 
ENDBRANCH   2   5
ENDBRANCH   1   2
BRANCH   1   8
ATOM      8  C   UNL     1       5.885  21.572  54.488  1.00  0.00     0.004 C 
BRANCH   8   9
ATOM      9  C   UNL     1       7.086  21.178  53.574  1.00  0.00    -0.011 C 
ATOM     10  C   UNL     1       6.868  21.820  52.184  1.00  0.00     0.008 C 
BRANCH   9  11
ATOM     11  C   UNL     1       7.275  19.615  53.455  1.00  0.00    -0.002 C 
ATOM     12  C   UNL     1       6.602  18.831  54.585  1.00  0.00     0.005 C 
ATOM     13  C   UNL     1       8.745  19.046  53.418  1.00  0.00    -0.026 C 
ATOM     14  C   UNL     1       7.188  17.438  54.525  1.00  0.00     0.005 C 
ATOM     15  C   UNL     1       8.629  17.602  54.029  1.00  0.00    -0.001 C 
ATOM     16  C   UNL     1       9.744  19.899  54.252  1.00  0.00     0.007 C 
ATOM     17  C   UNL     1       9.244  18.954  51.950  1.00  0.00     0.012 C 
ATOM     18  C   UNL     1       9.722  17.203  55.084  1.00  0.00     0.004 C 
ATOM     19  C   UNL     1      11.124  19.246  54.433  1.00  0.00     0.005 C 
ATOM     20  C   UNL     1      11.113  17.697  54.615  1.00  0.00     0.003 C 
ATOM     21  C   UNL     1       9.413  17.587  56.561  1.00  0.00     0.085 C 
ATOM     22  C   UNL     1      12.269  17.182  55.547  1.00  0.00    -0.000 C 
ATOM     23  C   UNL     1      10.615  17.743  57.465  1.00  0.00     0.159 C 
ATOM     24  C   UNL     1      12.015  17.686  56.962  1.00  0.00     0.005 C 
ATOM     25  C   UNL     1      13.650  17.674  54.996  1.00  0.00     0.020 C 
ATOM     26  C   UNL     1      12.288  15.628  55.590  1.00  0.00     0.017 C 
ATOM     27  O   UNL     1      10.400  17.948  58.692  1.00  0.00    -0.295 OA
ATOM     28  C   UNL     1      13.036  18.011  57.779  1.00  0.00     0.055 C 
ATOM     29  C   UNL     1      14.805  17.456  55.980  1.00  0.00     0.081 C 
ATOM     30  C   UNL     1      14.440  17.952  57.344  1.00  0.00     0.156 C 
ATOM     31  O   UNL     1      15.352  18.292  58.145  1.00  0.00    -0.295 OA
ENDBRANCH   9  11
ENDBRANCH   8   9
ENDBRANCH   1   8
TORSDOF 6
ENDMDL
MODEL 6
REMARK VINA RESULT:    -7.111      3.397      7.640
REMARK INTER + INTRA:         -12.013
REMARK INTER:                 -10.447
REMARK INTRA:                  -1.567
REMARK UNBOUND:                -2.409
REMARK SMILES CC[C@H](CC[C@H](C)[C@@H]1CC[C@@H]2[C@@H]3CC(=O)C4=CC(=O)CC[C@]4(C)[C@@H]3CC[C@@]21C)C(C)C
REMARK SMILES IDX 4 1 3 2 2 3 1 4 29 5 30 6 31 7 5 8 6 9 7 10 8 11 9 12 27 13
REMARK SMILES IDX 10 14 11 15 26 16 28 17 12 18 25 19 24 20 13 21 22 22 14 23
REMARK SMILES IDX 16 24 21 25 23 26 15 27 17 28 20 29 18 30 19 31
REMARK H PARENT
REMARK Flexibility Score: inf
ROOT
ATOM      1  C   UNL     1      13.538  18.684  58.103  1.00  0.00     0.004 C 
ENDROOT
BRANCH   1   2
ATOM      2  C   UNL     1      14.454  18.596  56.840  1.00  0.00    -0.009 C 
BRANCH   2   3
ATOM      3  C   UNL     1      15.887  18.080  57.136  1.00  0.00     0.000 C 
ATOM      4  C   UNL     1      16.971  19.013  56.591  1.00  0.00     0.004 C 
ENDBRANCH   2   3
BRANCH   2   5
ATOM      5  C   UNL     1      13.815  17.863  55.610  1.00  0.00    -0.014 C 
ATOM      6  C   UNL     1      14.153  18.490  54.250  1.00  0.00     0.007 C 
ATOM      7  C   UNL     1      14.135  16.358  55.595  1.00  0.00     0.007 C 
ENDBRANCH   2   5
ENDBRANCH   1   2
BRANCH   1   8
ATOM      8  C   UNL     1      12.492  19.827  58.111  1.00  0.00     0.004 C 
BRANCH   8   9
ATOM      9  C   UNL     1      11.031  19.292  57.992  1.00  0.00    -0.011 C 
ATOM     10  C   UNL     1      11.028  17.797  58.386  1.00  0.00     0.008 C 
BRANCH   9  11
ATOM     11  C   UNL     1      10.420  19.501  56.551  1.00  0.00    -0.002 C 
ATOM     12  C   UNL     1      11.083  20.638  55.766  1.00  0.00     0.005 C 
ATOM     13  C   UNL     1       8.877  19.806  56.436  1.00  0.00    -0.026 C 
ATOM     14  C   UNL     1      10.154  20.934  54.610  1.00  0.00     0.005 C 
ATOM     15  C   UNL     1       8.736  20.652  55.118  1.00  0.00    -0.001 C 
ATOM     16  C   UNL     1       8.329  20.612  57.648  1.00  0.00     0.007 C 
ATOM     17  C   UNL     1       8.082  18.479  56.294  1.00  0.00     0.012 C 
ATOM     18  C   UNL     1       7.817  21.923  55.202  1.00  0.00     0.004 C 
ATOM     19  C   UNL     1       6.894  21.130  57.457  1.00  0.00     0.005 C 
ATOM     20  C   UNL     1       6.537  21.596  56.012  1.00  0.00     0.003 C 
ATOM     21  C   UNL     1       8.512  23.233  55.678  1.00  0.00     0.085 C 
ATOM     22  C   UNL     1       5.504  22.779  55.988  1.00  0.00    -0.000 C 
ATOM     23  C   UNL     1       7.604  24.270  56.298  1.00  0.00     0.159 C 
ATOM     24  C   UNL     1       6.166  24.016  56.584  1.00  0.00     0.005 C 
ATOM     25  C   UNL     1       4.217  22.373  56.782  1.00  0.00     0.020 C 
ATOM     26  C   UNL     1       5.090  23.117  54.528  1.00  0.00     0.017 C 
ATOM     27  O   UNL     1       8.112  25.387  56.597  1.00  0.00    -0.295 OA
ATOM     28  C   UNL     1       5.455  24.908  57.301  1.00  0.00     0.055 C 
ATOM     29  C   UNL     1       3.272  23.550  57.046  1.00  0.00     0.081 C 
ATOM     30  C   UNL     1       4.026  24.721  57.596  1.00  0.00     0.156 C 
ATOM     31  O   UNL     1       3.419  25.578  58.292  1.00  0.00    -0.295 OA
ENDBRANCH   9  11
ENDBRANCH   8   9
ENDBRANCH   1   8
TORSDOF 6
ENDMDL
MODEL 7
REMARK VINA RESULT:    -7.008      3.113      6.058
REMARK INTER + INTRA:         -11.875
REMARK INTER:                  -9.809
REMARK INTRA:                  -2.066
REMARK UNBOUND:                -2.409
REMARK SMILES CC[C@H](CC[C@H](C)[C@@H]1CC[C@@H]2[C@@H]3CC(=O)C4=CC(=O)CC[C@]4(C)[C@@H]3CC[C@@]21C)C(C)C
REMARK SMILES IDX 4 1 3 2 2 3 1 4 29 5 30 6 31 7 5 8 6 9 7 10 8 11 9 12 27 13
REMARK SMILES IDX 10 14 11 15 26 16 28 17 12 18 25 19 24 20 13 21 22 22 14 23
REMARK SMILES IDX 16 24 21 25 23 26 15 27 17 28 20 29 18 30 19 31
REMARK H PARENT
REMARK Flexibility Score: inf
ROOT
ATOM      1  C   UNL     1       7.910  21.930  57.400  1.00  0.00     0.004 C 
ENDROOT
BRANCH   1   2
ATOM      2  C   UNL     1       7.515  22.672  56.083  1.00  0.00    -0.009 C 
BRANCH   2   3
ATOM      3  C   UNL     1       8.253  24.019  55.872  1.00  0.00     0.000 C 
ATOM      4  C   UNL     1       7.398  25.225  56.263  1.00  0.00     0.004 C 
ENDBRANCH   2   3
BRANCH   2   5
ATOM      5  C   UNL     1       7.542  21.784  54.791  1.00  0.00    -0.014 C 
ATOM      6  C   UNL     1       8.763  22.011  53.889  1.00  0.00     0.007 C 
ATOM      7  C   UNL     1       7.386  20.286  55.107  1.00  0.00     0.007 C 
ENDBRANCH   2   5
ENDBRANCH   1   2
BRANCH   1   8
ATOM      8  C   UNL     1       9.416  21.935  57.764  1.00  0.00     0.004 C 
BRANCH   8   9
ATOM      9  C   UNL     1       9.892  20.565  58.338  1.00  0.00    -0.011 C 
ATOM     10  C   UNL     1      10.367  20.788  59.794  1.00  0.00     0.008 C 
BRANCH   9  11
ATOM     11  C   UNL     1      11.027  19.899  57.467  1.00  0.00    -0.002 C 
ATOM     12  C   UNL     1      11.149  20.498  56.062  1.00  0.00     0.005 C 
ATOM     13  C   UNL     1      10.952  18.344  57.214  1.00  0.00    -0.026 C 
ATOM     14  C   UNL     1      11.989  19.520  55.270  1.00  0.00     0.005 C 
ATOM     15  C   UNL     1      11.669  18.130  55.831  1.00  0.00    -0.001 C 
ATOM     16  C   UNL     1       9.492  17.814  57.145  1.00  0.00     0.007 C 
ATOM     17  C   UNL     1      11.726  17.586  58.327  1.00  0.00     0.012 C 
ATOM     18  C   UNL     1      10.948  17.176  54.813  1.00  0.00     0.004 C 
ATOM     19  C   UNL     1       9.378  16.357  56.665  1.00  0.00     0.005 C 
ATOM     20  C   UNL     1      10.391  15.936  55.557  1.00  0.00     0.003 C 
ATOM     21  C   UNL     1       9.892  17.845  53.885  1.00  0.00     0.085 C 
ATOM     22  C   UNL     1       9.806  14.866  54.566  1.00  0.00    -0.000 C 
ATOM     23  C   UNL     1       8.824  16.928  53.336  1.00  0.00     0.159 C 
ATOM     24  C   UNL     1       8.682  15.509  53.763  1.00  0.00     0.005 C 
ATOM     25  C   UNL     1       9.303  13.620  55.371  1.00  0.00     0.020 C 
ATOM     26  C   UNL     1      10.896  14.391  53.564  1.00  0.00     0.017 C 
ATOM     27  O   UNL     1       8.014  17.411  52.496  1.00  0.00    -0.295 OA
ATOM     28  C   UNL     1       7.605  14.796  53.379  1.00  0.00     0.055 C 
ATOM     29  C   UNL     1       8.472  12.649  54.525  1.00  0.00     0.081 C 
ATOM     30  C   UNL     1       7.423  13.385  53.752  1.00  0.00     0.156 C 
ATOM     31  O   UNL     1       6.382  12.776  53.384  1.00  0.00    -0.295 OA
ENDBRANCH   9  11
ENDBRANCH   8   9
ENDBRANCH   1   8
TORSDOF 6
ENDMDL
MODEL 8
REMARK VINA RESULT:    -6.980      2.843      6.891
REMARK INTER + INTRA:         -11.837
REMARK INTER:                  -9.651
REMARK INTRA:                  -2.186
REMARK UNBOUND:                -2.409
REMARK SMILES CC[C@H](CC[C@H](C)[C@@H]1CC[C@@H]2[C@@H]3CC(=O)C4=CC(=O)CC[C@]4(C)[C@@H]3CC[C@@]21C)C(C)C
REMARK SMILES IDX 4 1 3 2 2 3 1 4 29 5 30 6 31 7 5 8 6 9 7 10 8 11 9 12 27 13
REMARK SMILES IDX 10 14 11 15 26 16 28 17 12 18 25 19 24 20 13 21 22 22 14 23
REMARK SMILES IDX 16 24 21 25 23 26 15 27 17 28 20 29 18 30 19 31
REMARK H PARENT
REMARK Flexibility Score: inf
ROOT
ATOM      1  C   UNL     1      12.942  17.941  55.080  1.00  0.00     0.004 C 
ENDROOT
BRANCH   1   2
ATOM      2  C   UNL     1      11.972  17.125  54.166  1.00  0.00    -0.009 C 
BRANCH   2   3
ATOM      3  C   UNL     1      11.797  15.645  54.595  1.00  0.00     0.000 C 
ATOM      4  C   UNL     1      12.592  14.680  53.714  1.00  0.00     0.004 C 
ENDBRANCH   2   3
BRANCH   2   5
ATOM      5  C   UNL     1      10.593  17.815  53.883  1.00  0.00    -0.014 C 
ATOM      6  C   UNL     1      10.623  19.348  53.948  1.00  0.00     0.007 C 
ATOM      7  C   UNL     1       9.970  17.352  52.554  1.00  0.00     0.007 C 
ENDBRANCH   2   5
ENDBRANCH   1   2
BRANCH   1   8
ATOM      8  C   UNL     1      12.926  17.584  56.587  1.00  0.00     0.004 C 
BRANCH   8   9
ATOM      9  C   UNL     1      12.570  18.812  57.482  1.00  0.00    -0.011 C 
ATOM     10  C   UNL     1      13.718  19.020  58.498  1.00  0.00     0.008 C 
BRANCH   9  11
ATOM     11  C   UNL     1      11.183  18.649  58.218  1.00  0.00    -0.002 C 
ATOM     12  C   UNL     1      10.283  17.577  57.595  1.00  0.00     0.005 C 
ATOM     13  C   UNL     1      10.249  19.915  58.328  1.00  0.00    -0.026 C 
ATOM     14  C   UNL     1       8.903  17.818  58.164  1.00  0.00     0.005 C 
ATOM     15  C   UNL     1       8.790  19.330  58.388  1.00  0.00    -0.001 C 
ATOM     16  C   UNL     1      10.388  20.876  57.114  1.00  0.00     0.007 C 
ATOM     17  C   UNL     1      10.555  20.690  59.639  1.00  0.00     0.012 C 
ATOM     18  C   UNL     1       7.719  20.036  57.482  1.00  0.00     0.004 C 
ATOM     19  C   UNL     1       9.328  21.988  57.071  1.00  0.00     0.005 C 
ATOM     20  C   UNL     1       7.903  21.574  57.551  1.00  0.00     0.003 C 
ATOM     21  C   UNL     1       7.609  19.508  56.022  1.00  0.00     0.085 C 
ATOM     22  C   UNL     1       6.756  22.340  56.798  1.00  0.00    -0.000 C 
ATOM     23  C   UNL     1       7.048  20.482  55.011  1.00  0.00     0.159 C 
ATOM     24  C   UNL     1       6.757  21.905  55.338  1.00  0.00     0.005 C 
ATOM     25  C   UNL     1       6.970  23.884  56.942  1.00  0.00     0.020 C 
ATOM     26  C   UNL     1       5.368  21.982  57.401  1.00  0.00     0.017 C 
ATOM     27  O   UNL     1       6.844  20.056  53.840  1.00  0.00    -0.295 OA
ATOM     28  C   UNL     1       6.432  22.767  54.354  1.00  0.00     0.055 C 
ATOM     29  C   UNL     1       6.066  24.709  56.019  1.00  0.00     0.081 C 
ATOM     30  C   UNL     1       6.112  24.178  54.620  1.00  0.00     0.156 C 
ATOM     31  O   UNL     1       5.839  24.944  53.657  1.00  0.00    -0.295 OA
ENDBRANCH   9  11
ENDBRANCH   8   9
ENDBRANCH   1   8
TORSDOF 6
ENDMDL
MODEL 9
REMARK VINA RESULT:    -6.942      2.643      6.675
REMARK INTER + INTRA:         -11.786
REMARK INTER:                  -9.669
REMARK INTRA:                  -2.117
REMARK UNBOUND:                -2.409
REMARK SMILES CC[C@H](CC[C@H](C)[C@@H]1CC[C@@H]2[C@@H]3CC(=O)C4=CC(=O)CC[C@]4(C)[C@@H]3CC[C@@]21C)C(C)C
REMARK SMILES IDX 4 1 3 2 2 3 1 4 29 5 30 6 31 7 5 8 6 9 7 10 8 11 9 12 27 13
REMARK SMILES IDX 10 14 11 15 26 16 28 17 12 18 25 19 24 20 13 21 22 22 14 23
REMARK SMILES IDX 16 24 21 25 23 26 15 27 17 28 20 29 18 30 19 31
REMARK H PARENT
REMARK Flexibility Score: inf
ROOT
ATOM      1  C   UNL     1      10.855  17.552  57.719  1.00  0.00     0.004 C 
ENDROOT
BRANCH   1   2
ATOM      2  C   UNL     1       9.858  18.537  58.410  1.00  0.00    -0.009 C 
BRANCH   2   3
ATOM      3  C   UNL     1       9.015  17.891  59.540  1.00  0.00     0.000 C 
ATOM      4  C   UNL     1       9.734  17.907  60.891  1.00  0.00     0.004 C 
ENDBRANCH   2   3
BRANCH   2   5
ATOM      5  C   UNL     1      10.483  19.903  58.858  1.00  0.00    -0.014 C 
ATOM      6  C   UNL     1      11.990  20.031  58.596  1.00  0.00     0.007 C 
ATOM      7  C   UNL     1       9.736  21.111  58.263  1.00  0.00     0.007 C 
ENDBRANCH   2   5
ENDBRANCH   1   2
BRANCH   1   8
ATOM      8  C   UNL     1      10.614  17.277  56.213  1.00  0.00     0.004 C 
BRANCH   8   9
ATOM      9  C   UNL     1       9.114  16.987  55.897  1.00  0.00    -0.011 C 
ATOM     10  C   UNL     1       8.929  15.455  55.785  1.00  0.00     0.008 C 
BRANCH   9  11
ATOM     11  C   UNL     1       8.614  17.716  54.589  1.00  0.00    -0.002 C 
ATOM     12  C   UNL     1       9.694  18.568  53.914  1.00  0.00     0.005 C 
ATOM     13  C   UNL     1       7.379  18.689  54.708  1.00  0.00    -0.026 C 
ATOM     14  C   UNL     1       8.962  19.461  52.937  1.00  0.00     0.005 C 
ATOM     15  C   UNL     1       7.592  19.745  53.562  1.00  0.00    -0.001 C 
ATOM     16  C   UNL     1       7.305  19.405  56.086  1.00  0.00     0.007 C 
ATOM     17  C   UNL     1       6.060  17.907  54.460  1.00  0.00     0.012 C 
ATOM     18  C   UNL     1       7.361  21.249  53.951  1.00  0.00     0.004 C 
ATOM     19  C   UNL     1       6.261  20.531  56.151  1.00  0.00     0.005 C 
ATOM     20  C   UNL     1       6.104  21.375  54.848  1.00  0.00     0.003 C 
ATOM     21  C   UNL     1       8.594  21.997  54.535  1.00  0.00     0.085 C 
ATOM     22  C   UNL     1       5.727  22.874  55.130  1.00  0.00    -0.000 C 
ATOM     23  C   UNL     1       8.286  23.189  55.412  1.00  0.00     0.159 C 
ATOM     24  C   UNL     1       6.902  23.549  55.826  1.00  0.00     0.005 C 
ATOM     25  C   UNL     1       4.426  22.936  56.001  1.00  0.00     0.020 C 
ATOM     26  C   UNL     1       5.459  23.633  53.800  1.00  0.00     0.017 C 
ATOM     27  O   UNL     1       9.259  23.884  55.816  1.00  0.00    -0.295 OA
ATOM     28  C   UNL     1       6.705  24.508  56.752  1.00  0.00     0.055 C 
ATOM     29  C   UNL     1       4.135  24.336  56.554  1.00  0.00     0.081 C 
ATOM     30  C   UNL     1       5.361  24.921  57.183  1.00  0.00     0.156 C 
ATOM     31  O   UNL     1       5.240  25.808  58.071  1.00  0.00    -0.295 OA
ENDBRANCH   9  11
ENDBRANCH   8   9
ENDBRANCH   1   8
TORSDOF 6
ENDMDL
