MODEL 1
REMARK VINA RESULT:    -1.606      0.000      0.000
REMARK INTER + INTRA:          -0.478
REMARK INTER:                  -1.981
REMARK INTRA:                   1.503
REMARK UNBOUND:                 1.503
REMARK SMILES C=C1[C@H]2CC[C@@H]3[C@H]2C(C)(C)CCC[C@]13C
REMARK SMILES IDX 14 1 6 2 7 3 3 4 2 5 1 6 4 7 5 8 15 9 8 10 9 11 10 12 11 13
REMARK SMILES IDX 13 15 12 16
REMARK H PARENT
REMARK Flexibility Score: 80.00
ROOT
ATOM      1  C   UNL     1     137.537 136.542 124.920  1.00  0.00    -0.008 C 
ATOM      2  C   UNL     1     137.782 137.824 124.050  1.00  0.00     0.003 C 
ATOM      3  C   UNL     1     137.468 137.362 122.624  1.00  0.00     0.006 C 
ATOM      4  C   UNL     1     136.075 136.840 122.986  1.00  0.00     0.019 C 
ATOM      5  C   UNL     1     136.368 135.955 124.172  1.00  0.00    -0.068 C 
ATOM      6  C   UNL     1     135.660 134.875 124.524  1.00  0.00     0.009 C 
ATOM      7  C   UNL     1     135.424 138.116 123.556  1.00  0.00     0.008 C 
ATOM      8  C   UNL     1     136.615 138.836 124.233  1.00  0.00     0.005 C 
ATOM      9  C   UNL     1     137.144 136.870 126.385  1.00  0.00     0.016 C 
ENDROOT
BRANCH   3  10
ATOM     10  C   UNL     1     138.460 136.389 121.880  1.00  0.00    -0.032 C 
ATOM     11  C   UNL     1     137.836 134.969 121.930  1.00  0.00     0.011 C 
ATOM     12  C   UNL     1     138.573 136.776 120.387  1.00  0.00     0.011 C 
BRANCH  10  13
ATOM     13  C   UNL     1     139.871 136.275 122.520  1.00  0.00     0.007 CG0
ATOM     14  G   UNL     1     139.954 136.007 124.031  1.00  0.00     0.000 G0
ENDBRANCH  10  13
ENDBRANCH   3  10
BRANCH   1  15
ATOM     15  C   UNL     1     138.810 135.640 124.938  1.00  0.00     0.011 C 
BRANCH  15  16
ATOM     16  C   UNL     1     140.025 136.009 124.058  1.00  0.00     0.001 CG0
ATOM     17  G   UNL     1     139.824 136.261 122.555  1.00  0.00     0.000 G0
ENDBRANCH  15  16
ENDBRANCH   1  15
TORSDOF 0
ENDMDL
