MODEL 1
REMARK VINA RESULT:    -3.968      0.000      0.000
REMARK INTER + INTRA:          -4.606
REMARK INTER:                  -4.548
REMARK INTRA:                  -0.058
REMARK UNBOUND:                -0.058
REMARK SMILES CC(C)[C@@H]([NH3+])C(=O)[O-]
REMARK SMILES IDX 4 1 5 2 6 6 7 7 8 8 2 9 1 10 3 11
REMARK H PARENT 5 3 5 4 5 5
REMARK Flexibility Score: inf
ROOT
ATOM      1  C   UNL     1     -39.467  19.701 -29.315  1.00  0.00     0.230 C 
ENDROOT
BRANCH   1   2
ATOM      2  N   UNL     1     -40.105  19.367 -28.031  1.00  0.00    -0.350 N 
ATOM      3  H   UNL     1     -39.688  18.497 -27.631  1.00  0.00     0.345 HD
ATOM      4  H   UNL     1     -41.123  19.185 -28.187  1.00  0.00     0.345 HD
ATOM      5  H   UNL     1     -40.010  20.147 -27.342  1.00  0.00     0.345 HD
ENDBRANCH   1   2
BRANCH   1   6
ATOM      6  C   UNL     1     -39.381  21.195 -29.503  1.00  0.00     0.099 C 
ATOM      7  O   UNL     1     -38.324  21.822 -29.227  1.00  0.00    -0.544 OA
ATOM      8  O   UNL     1     -40.464  21.885 -30.034  1.00  0.00    -0.544 OA
ENDBRANCH   1   6
BRANCH   1   9
ATOM      9  C   UNL     1     -38.068  19.037 -29.492  1.00  0.00     0.047 C 
ATOM     10  C   UNL     1     -38.032  18.093 -30.705  1.00  0.00     0.014 C 
ATOM     11  C   UNL     1     -37.570  18.304 -28.235  1.00  0.00     0.014 C 
ENDBRANCH   1   9
TORSDOF 3
ENDMDL
MODEL 2
REMARK VINA RESULT:    -3.908      2.769      3.540
REMARK INTER + INTRA:          -4.537
REMARK INTER:                  -4.476
REMARK INTRA:                  -0.061
REMARK UNBOUND:                -0.058
REMARK SMILES CC(C)[C@@H]([NH3+])C(=O)[O-]
REMARK SMILES IDX 4 1 5 2 6 6 7 7 8 8 2 9 1 10 3 11
REMARK H PARENT 5 3 5 4 5 5
REMARK Flexibility Score: inf
ROOT
ATOM      1  C   UNL     1     -37.652  18.825 -29.355  1.00  0.00     0.230 C 
ENDROOT
BRANCH   1   2
ATOM      2  N   UNL     1     -37.431  18.257 -28.015  1.00  0.00    -0.350 N 
ATOM      3  H   UNL     1     -37.515  18.999 -27.286  1.00  0.00     0.345 HD
ATOM      4  H   UNL     1     -36.460  17.870 -27.960  1.00  0.00     0.345 HD
ATOM      5  H   UNL     1     -38.107  17.487 -27.810  1.00  0.00     0.345 HD
ENDBRANCH   1   2
BRANCH   1   6
ATOM      6  C   UNL     1     -37.555  17.758 -30.418  1.00  0.00     0.099 C 
ATOM      7  O   UNL     1     -36.729  16.813 -30.311  1.00  0.00    -0.544 OA
ATOM      8  O   UNL     1     -38.419  17.789 -31.505  1.00  0.00    -0.544 OA
ENDBRANCH   1   6
BRANCH   1   9
ATOM      9  C   UNL     1     -38.997  19.605 -29.473  1.00  0.00     0.047 C 
ATOM     10  C   UNL     1     -38.795  21.121 -29.317  1.00  0.00     0.014 C 
ATOM     11  C   UNL     1     -40.081  19.113 -28.500  1.00  0.00     0.014 C 
ENDBRANCH   1   9
TORSDOF 3
ENDMDL
MODEL 3
REMARK VINA RESULT:    -3.885      1.950      2.444
REMARK INTER + INTRA:          -4.511
REMARK INTER:                  -4.433
REMARK INTRA:                  -0.078
REMARK UNBOUND:                -0.058
REMARK SMILES CC(C)[C@@H]([NH3+])C(=O)[O-]
REMARK SMILES IDX 4 1 5 2 6 6 7 7 8 8 2 9 1 10 3 11
REMARK H PARENT 5 3 5 4 5 5
REMARK Flexibility Score: inf
ROOT
ATOM      1  C   UNL     1     -37.985  18.227 -28.886  1.00  0.00     0.230 C 
ENDROOT
BRANCH   1   2
ATOM      2  N   UNL     1     -36.993  18.461 -27.824  1.00  0.00    -0.350 N 
ATOM      3  H   UNL     1     -36.156  18.953 -28.208  1.00  0.00     0.345 HD
ATOM      4  H   UNL     1     -36.671  17.542 -27.442  1.00  0.00     0.345 HD
ATOM      5  H   UNL     1     -37.398  19.021 -27.039  1.00  0.00     0.345 HD
ENDBRANCH   1   2
BRANCH   1   6
ATOM      6  C   UNL     1     -39.086  19.256 -28.835  1.00  0.00     0.099 C 
ATOM      7  O   UNL     1     -40.254  18.938 -28.486  1.00  0.00    -0.544 OA
ATOM      8  O   UNL     1     -38.801  20.584 -29.129  1.00  0.00    -0.544 OA
ENDBRANCH   1   6
BRANCH   1   9
ATOM      9  C   UNL     1     -37.351  18.162 -30.309  1.00  0.00     0.047 C 
ATOM     10  C   UNL     1     -38.380  17.756 -31.376  1.00  0.00     0.014 C 
ATOM     11  C   UNL     1     -36.116  17.250 -30.392  1.00  0.00     0.014 C 
ENDBRANCH   1   9
TORSDOF 3
ENDMDL
MODEL 4
REMARK VINA RESULT:    -3.749      1.781      2.138
REMARK INTER + INTRA:          -4.355
REMARK INTER:                  -4.304
REMARK INTRA:                  -0.051
REMARK UNBOUND:                -0.058
REMARK SMILES CC(C)[C@@H]([NH3+])C(=O)[O-]
REMARK SMILES IDX 4 1 5 2 6 6 7 7 8 8 2 9 1 10 3 11
REMARK H PARENT 5 3 5 4 5 5
REMARK Flexibility Score: inf
ROOT
ATOM      1  C   UNL     1     -38.926  20.856 -29.973  1.00  0.00     0.230 C 
ENDROOT
BRANCH   1   2
ATOM      2  N   UNL     1     -40.104  21.614 -29.523  1.00  0.00    -0.350 N 
ATOM      3  H   UNL     1     -40.808  21.686 -30.291  1.00  0.00     0.345 HD
ATOM      4  H   UNL     1     -39.813  22.587 -29.270  1.00  0.00     0.345 HD
ATOM      5  H   UNL     1     -40.546  21.173 -28.685  1.00  0.00     0.345 HD
ENDBRANCH   1   2
BRANCH   1   6
ATOM      6  C   UNL     1     -37.666  21.672 -29.820  1.00  0.00     0.099 C 
ATOM      7  O   UNL     1     -37.472  22.374 -28.792  1.00  0.00    -0.544 OA
ATOM      8  O   UNL     1     -36.684  21.613 -30.801  1.00  0.00    -0.544 OA
ENDBRANCH   1   6
BRANCH   1   9
ATOM      9  C   UNL     1     -38.782  19.474 -29.266  1.00  0.00     0.047 C 
ATOM     10  C   UNL     1     -38.439  18.354 -30.261  1.00  0.00     0.014 C 
ATOM     11  C   UNL     1     -40.011  19.080 -28.429  1.00  0.00     0.014 C 
ENDBRANCH   1   9
TORSDOF 3
ENDMDL
MODEL 5
REMARK VINA RESULT:    -3.746      1.978      2.388
REMARK INTER + INTRA:          -4.351
REMARK INTER:                  -4.278
REMARK INTRA:                  -0.073
REMARK UNBOUND:                -0.058
REMARK SMILES CC(C)[C@@H]([NH3+])C(=O)[O-]
REMARK SMILES IDX 4 1 5 2 6 6 7 7 8 8 2 9 1 10 3 11
REMARK H PARENT 5 3 5 4 5 5
REMARK Flexibility Score: inf
ROOT
ATOM      1  C   UNL     1     -38.998  20.672 -29.966  1.00  0.00     0.230 C 
ENDROOT
BRANCH   1   2
ATOM      2  N   UNL     1     -39.079  21.760 -28.978  1.00  0.00    -0.350 N 
ATOM      3  H   UNL     1     -39.348  21.384 -28.042  1.00  0.00     0.345 HD
ATOM      4  H   UNL     1     -39.820  22.439 -29.270  1.00  0.00     0.345 HD
ATOM      5  H   UNL     1     -38.172  22.274 -28.899  1.00  0.00     0.345 HD
ENDBRANCH   1   2
BRANCH   1   6
ATOM      6  C   UNL     1     -37.789  20.836 -30.853  1.00  0.00     0.099 C 
ATOM      7  O   UNL     1     -36.909  21.700 -30.594  1.00  0.00    -0.544 OA
ATOM      8  O   UNL     1     -37.616  19.992 -31.943  1.00  0.00    -0.544 OA
ENDBRANCH   1   6
BRANCH   1   9
ATOM      9  C   UNL     1     -39.023  19.255 -29.318  1.00  0.00     0.047 C 
ATOM     10  C   UNL     1     -40.239  19.069 -28.395  1.00  0.00     0.014 C 
ATOM     11  C   UNL     1     -37.730  18.898 -28.566  1.00  0.00     0.014 C 
ENDBRANCH   1   9
TORSDOF 3
ENDMDL
MODEL 6
REMARK VINA RESULT:    -3.735      3.108      3.938
REMARK INTER + INTRA:          -4.339
REMARK INTER:                  -4.279
REMARK INTRA:                  -0.060
REMARK UNBOUND:                -0.058
REMARK SMILES CC(C)[C@@H]([NH3+])C(=O)[O-]
REMARK SMILES IDX 4 1 5 2 6 6 7 7 8 8 2 9 1 10 3 11
REMARK H PARENT 5 3 5 4 5 5
REMARK Flexibility Score: inf
ROOT
ATOM      1  C   UNL     1     -38.352  18.400 -30.289  1.00  0.00     0.230 C 
ENDROOT
BRANCH   1   2
ATOM      2  N   UNL     1     -38.015  19.019 -31.582  1.00  0.00    -0.350 N 
ATOM      3  H   UNL     1     -38.835  19.545 -31.960  1.00  0.00     0.345 HD
ATOM      4  H   UNL     1     -37.776  18.270 -32.272  1.00  0.00     0.345 HD
ATOM      5  H   UNL     1     -37.197  19.663 -31.496  1.00  0.00     0.345 HD
ENDBRANCH   1   2
BRANCH   1   6
ATOM      6  C   UNL     1     -37.241  17.496 -29.817  1.00  0.00     0.099 C 
ATOM      7  O   UNL     1     -36.804  17.569 -28.637  1.00  0.00    -0.544 OA
ATOM      8  O   UNL     1     -36.723  16.536 -30.677  1.00  0.00    -0.544 OA
ENDBRANCH   1   6
BRANCH   1   9
ATOM      9  C   UNL     1     -38.723  19.444 -29.192  1.00  0.00     0.047 C 
ATOM     10  C   UNL     1     -40.044  19.090 -28.489  1.00  0.00     0.014 C 
ATOM     11  C   UNL     1     -38.771  20.891 -29.709  1.00  0.00     0.014 C 
ENDBRANCH   1   9
TORSDOF 3
ENDMDL
MODEL 7
REMARK VINA RESULT:    -3.715      2.389      3.202
REMARK INTER + INTRA:          -4.316
REMARK INTER:                  -4.262
REMARK INTRA:                  -0.053
REMARK UNBOUND:                -0.058
REMARK SMILES CC(C)[C@@H]([NH3+])C(=O)[O-]
REMARK SMILES IDX 4 1 5 2 6 6 7 7 8 8 2 9 1 10 3 11
REMARK H PARENT 5 3 5 4 5 5
REMARK Flexibility Score: inf
ROOT
ATOM      1  C   UNL     1     -39.046  20.772 -29.069  1.00  0.00     0.230 C 
ENDROOT
BRANCH   1   2
ATOM      2  N   UNL     1     -40.249  21.472 -29.548  1.00  0.00    -0.350 N 
ATOM      3  H   UNL     1     -40.040  21.999 -30.425  1.00  0.00     0.345 HD
ATOM      4  H   UNL     1     -40.554  22.168 -28.828  1.00  0.00     0.345 HD
ATOM      5  H   UNL     1     -41.036  20.807 -29.720  1.00  0.00     0.345 HD
ENDBRANCH   1   2
BRANCH   1   6
ATOM      6  C   UNL     1     -39.385  19.383 -28.587  1.00  0.00     0.099 C 
ATOM      7  O   UNL     1     -40.583  19.003 -28.498  1.00  0.00    -0.544 OA
ATOM      8  O   UNL     1     -38.363  18.492 -28.283  1.00  0.00    -0.544 OA
ENDBRANCH   1   6
BRANCH   1   9
ATOM      9  C   UNL     1     -37.902  20.729 -30.128  1.00  0.00     0.047 C 
ATOM     10  C   UNL     1     -36.894  21.872 -29.929  1.00  0.00     0.014 C 
ATOM     11  C   UNL     1     -38.408  20.716 -31.581  1.00  0.00     0.014 C 
ENDBRANCH   1   9
TORSDOF 3
ENDMDL
MODEL 8
REMARK VINA RESULT:    -3.614      1.901      2.293
REMARK INTER + INTRA:          -4.200
REMARK INTER:                  -4.123
REMARK INTRA:                  -0.077
REMARK UNBOUND:                -0.058
REMARK SMILES CC(C)[C@@H]([NH3+])C(=O)[O-]
REMARK SMILES IDX 4 1 5 2 6 6 7 7 8 8 2 9 1 10 3 11
REMARK H PARENT 5 3 5 4 5 5
REMARK Flexibility Score: inf
ROOT
ATOM      1  C   UNL     1     -37.972  20.200 -30.767  1.00  0.00     0.230 C 
ENDROOT
BRANCH   1   2
ATOM      2  N   UNL     1     -38.151  20.386 -32.217  1.00  0.00    -0.350 N 
ATOM      3  H   UNL     1     -37.471  21.089 -32.582  1.00  0.00     0.345 HD
ATOM      4  H   UNL     1     -39.113  20.752 -32.402  1.00  0.00     0.345 HD
ATOM      5  H   UNL     1     -38.033  19.486 -32.735  1.00  0.00     0.345 HD
ENDBRANCH   1   2
BRANCH   1   6
ATOM      6  C   UNL     1     -38.575  21.349 -29.997  1.00  0.00     0.099 C 
ATOM      7  O   UNL     1     -37.846  22.144 -29.346  1.00  0.00    -0.544 OA
ATOM      8  O   UNL     1     -39.946  21.564 -30.044  1.00  0.00    -0.544 OA
ENDBRANCH   1   6
BRANCH   1   9
ATOM      9  C   UNL     1     -38.524  18.836 -30.254  1.00  0.00     0.047 C 
ATOM     10  C   UNL     1     -38.283  18.652 -28.747  1.00  0.00     0.014 C 
ATOM     11  C   UNL     1     -37.986  17.622 -31.028  1.00  0.00     0.014 C 
ENDBRANCH   1   9
TORSDOF 3
ENDMDL
MODEL 9
REMARK VINA RESULT:    -3.591      2.051      2.609
REMARK INTER + INTRA:          -4.173
REMARK INTER:                  -4.111
REMARK INTRA:                  -0.062
REMARK UNBOUND:                -0.058
REMARK SMILES CC(C)[C@@H]([NH3+])C(=O)[O-]
REMARK SMILES IDX 4 1 5 2 6 6 7 7 8 8 2 9 1 10 3 11
REMARK H PARENT 5 3 5 4 5 5
REMARK Flexibility Score: inf
ROOT
ATOM      1  C   UNL     1     -37.655  19.104 -30.419  1.00  0.00     0.230 C 
ENDROOT
BRANCH   1   2
ATOM      2  N   UNL     1     -38.325  18.053 -31.202  1.00  0.00    -0.350 N 
ATOM      3  H   UNL     1     -37.654  17.611 -31.869  1.00  0.00     0.345 HD
ATOM      4  H   UNL     1     -39.095  18.479 -31.767  1.00  0.00     0.345 HD
ATOM      5  H   UNL     1     -38.736  17.318 -30.583  1.00  0.00     0.345 HD
ENDBRANCH   1   2
BRANCH   1   6
ATOM      6  C   UNL     1     -37.919  20.468 -31.009  1.00  0.00     0.099 C 
ATOM      7  O   UNL     1     -38.329  20.592 -32.194  1.00  0.00    -0.544 OA
ATOM      8  O   UNL     1     -37.755  21.601 -30.222  1.00  0.00    -0.544 OA
ENDBRANCH   1   6
BRANCH   1   9
ATOM      9  C   UNL     1     -38.030  19.071 -28.907  1.00  0.00     0.047 C 
ATOM     10  C   UNL     1     -37.253  17.984 -28.148  1.00  0.00     0.014 C 
ATOM     11  C   UNL     1     -39.539  18.920 -28.649  1.00  0.00     0.014 C 
ENDBRANCH   1   9
TORSDOF 3
ENDMDL
