MODEL 1
REMARK VINA RESULT:    -7.892      0.000      0.000
REMARK INTER + INTRA:          -8.584
REMARK INTER:                  -8.584
REMARK INTRA:                   0.000
REMARK UNBOUND:                 0.000
REMARK SMILES Cc1cc(O)c2c(c1)C(=O)c1cc(O)cc(O)c1C2=O
REMARK SMILES IDX 1 1 2 2 8 3 7 4 6 5 4 6 3 7 19 8 20 9 18 10 11 11 9 12 10 13
REMARK SMILES IDX 12 14 13 15 15 16 16 17 5 18 17 20 14 22
REMARK H PARENT 5 19 17 21 14 23
REMARK Flexibility Score: inf
ROOT
ATOM      1  C   UNL     1      15.818 113.373  26.754  1.00  0.00     0.044 C 
ATOM      2  C   UNL     1      15.902 114.592  25.883  1.00  0.00    -0.047 A 
ATOM      3  C   UNL     1      14.960 115.618  26.014  1.00  0.00     0.016 A 
ATOM      4  C   UNL     1      15.006 116.748  25.178  1.00  0.00     0.038 A 
ATOM      5  C   UNL     1      16.006 116.848  24.186  1.00  0.00     0.076 A 
ATOM      6  C   UNL     1      16.945 115.797  24.045  1.00  0.00     0.127 A 
ATOM      7  C   UNL     1      16.880 114.680  24.888  1.00  0.00     0.050 A 
ATOM      8  C   UNL     1      16.047 118.052  23.309  1.00  0.00     0.201 C 
ATOM      9  O   UNL     1      16.940 118.152  22.426  1.00  0.00    -0.288 OA
ATOM     10  C   UNL     1      15.040 119.139  23.468  1.00  0.00     0.076 A 
ATOM     11  C   UNL     1      14.046 119.022  24.464  1.00  0.00     0.041 A 
ATOM     12  C   UNL     1      14.006 117.828  25.339  1.00  0.00     0.194 C 
ATOM     13  O   UNL     1      13.115 117.732  26.228  1.00  0.00    -0.289 OA
ATOM     14  C   UNL     1      13.091 120.043  24.623  1.00  0.00     0.059 A 
ATOM     15  C   UNL     1      13.117 121.174  23.804  1.00  0.00     0.120 A 
ATOM     16  C   UNL     1      14.095 121.296  22.820  1.00  0.00     0.093 A 
ATOM     17  C   UNL     1      15.057 120.292  22.643  1.00  0.00     0.131 A 
ENDROOT
BRANCH   6  18
ATOM     18  O   UNL     1      17.941 115.853  23.070  1.00  0.00    -0.507 OA
ATOM     19  H   UNL     1      18.524 115.053  22.856  1.00  0.00     0.293 HD
ENDBRANCH   6  18
BRANCH  17  20
ATOM     20  O   UNL     1      16.022 120.446  21.647  1.00  0.00    -0.507 OA
ATOM     21  H   UNL     1      15.988 119.916  20.784  1.00  0.00     0.293 HD
ENDBRANCH  17  20
BRANCH  15  22
ATOM     22  O   UNL     1      12.172 122.186  23.960  1.00  0.00    -0.508 OA
ATOM     23  H   UNL     1      12.279 122.908  24.664  1.00  0.00     0.293 HD
ENDBRANCH  15  22
TORSDOF 3
ENDMDL
MODEL 2
REMARK VINA RESULT:    -7.782      1.252      5.489
REMARK INTER + INTRA:          -8.464
REMARK INTER:                  -8.464
REMARK INTRA:                   0.000
REMARK UNBOUND:                 0.000
REMARK SMILES Cc1cc(O)c2c(c1)C(=O)c1cc(O)cc(O)c1C2=O
REMARK SMILES IDX 1 1 2 2 8 3 7 4 6 5 4 6 3 7 19 8 20 9 18 10 11 11 9 12 10 13
REMARK SMILES IDX 12 14 13 15 15 16 16 17 5 18 17 20 14 22
REMARK H PARENT 5 19 17 21 14 23
REMARK Flexibility Score: inf
ROOT
ATOM      1  C   UNL     1      12.791 122.332  23.976  1.00  0.00     0.044 C 
ATOM      2  C   UNL     1      13.690 121.144  23.800  1.00  0.00    -0.047 A 
ATOM      3  C   UNL     1      13.529 120.013  24.609  1.00  0.00     0.016 A 
ATOM      4  C   UNL     1      14.389 118.908  24.479  1.00  0.00     0.038 A 
ATOM      5  C   UNL     1      15.436 118.939  23.532  1.00  0.00     0.076 A 
ATOM      6  C   UNL     1      15.606 120.095  22.730  1.00  0.00     0.127 A 
ATOM      7  C   UNL     1      14.738 121.185  22.877  1.00  0.00     0.050 A 
ATOM      8  C   UNL     1      16.339 117.761  23.401  1.00  0.00     0.201 C 
ATOM      9  O   UNL     1      17.271 117.778  22.553  1.00  0.00    -0.288 OA
ATOM     10  C   UNL     1      16.148 116.562  24.264  1.00  0.00     0.076 A 
ATOM     11  C   UNL     1      15.097 116.548  25.208  1.00  0.00     0.041 A 
ATOM     12  C   UNL     1      14.197 117.716  25.336  1.00  0.00     0.194 C 
ATOM     13  O   UNL     1      13.259 117.695  26.181  1.00  0.00    -0.289 OA
ATOM     14  C   UNL     1      14.908 115.421  26.028  1.00  0.00     0.059 A 
ATOM     15  C   UNL     1      15.750 114.311  25.917  1.00  0.00     0.120 A 
ATOM     16  C   UNL     1      16.788 114.319  24.988  1.00  0.00     0.093 A 
ATOM     17  C   UNL     1      16.997 115.431  24.161  1.00  0.00     0.131 A 
ENDROOT
BRANCH   6  18
ATOM     18  O   UNL     1      16.634 120.169  21.791  1.00  0.00    -0.507 OA
ATOM     19  H   UNL     1      16.549 120.727  20.950  1.00  0.00     0.293 HD
ENDBRANCH   6  18
BRANCH  17  20
ATOM     20  O   UNL     1      18.046 115.405  23.242  1.00  0.00    -0.507 OA
ATOM     21  H   UNL     1      18.729 116.151  23.190  1.00  0.00     0.293 HD
ENDBRANCH  17  20
BRANCH  15  22
ATOM     22  O   UNL     1      15.564 113.194  26.729  1.00  0.00    -0.508 OA
ATOM     23  H   UNL     1      15.681 112.253  26.370  1.00  0.00     0.293 HD
ENDBRANCH  15  22
TORSDOF 3
ENDMDL
MODEL 3
REMARK VINA RESULT:    -7.754      3.254      4.912
REMARK INTER + INTRA:          -8.434
REMARK INTER:                  -8.434
REMARK INTRA:                   0.000
REMARK UNBOUND:                 0.000
REMARK SMILES Cc1cc(O)c2c(c1)C(=O)c1cc(O)cc(O)c1C2=O
REMARK SMILES IDX 1 1 2 2 8 3 7 4 6 5 4 6 3 7 19 8 20 9 18 10 11 11 9 12 10 13
REMARK SMILES IDX 12 14 13 15 15 16 16 17 5 18 17 20 14 22
REMARK H PARENT 5 19 17 21 14 23
REMARK Flexibility Score: inf
ROOT
ATOM      1  C   UNL     1      13.775 118.580  20.290  1.00  0.00     0.044 C 
ATOM      2  C   UNL     1      14.298 119.134  21.582  1.00  0.00    -0.047 A 
ATOM      3  C   UNL     1      13.627 120.181  22.223  1.00  0.00     0.016 A 
ATOM      4  C   UNL     1      14.127 120.734  23.416  1.00  0.00     0.038 A 
ATOM      5  C   UNL     1      15.328 120.239  23.969  1.00  0.00     0.076 A 
ATOM      6  C   UNL     1      16.015 119.194  23.304  1.00  0.00     0.127 A 
ATOM      7  C   UNL     1      15.498 118.657  22.118  1.00  0.00     0.050 A 
ATOM      8  C   UNL     1      15.848 120.831  25.234  1.00  0.00     0.201 C 
ATOM      9  O   UNL     1      16.915 120.390  25.739  1.00  0.00    -0.288 OA
ATOM     10  C   UNL     1      15.114 121.939  25.909  1.00  0.00     0.076 A 
ATOM     11  C   UNL     1      13.915 122.423  25.340  1.00  0.00     0.041 A 
ATOM     12  C   UNL     1      13.396 121.833  24.085  1.00  0.00     0.194 C 
ATOM     13  O   UNL     1      12.323 122.270  23.584  1.00  0.00    -0.289 OA
ATOM     14  C   UNL     1      13.215 123.468  25.969  1.00  0.00     0.059 A 
ATOM     15  C   UNL     1      13.694 124.034  27.153  1.00  0.00     0.120 A 
ATOM     16  C   UNL     1      14.875 123.560  27.719  1.00  0.00     0.093 A 
ATOM     17  C   UNL     1      15.591 122.520  27.111  1.00  0.00     0.131 A 
ENDROOT
BRANCH   6  18
ATOM     18  O   UNL     1      17.210 118.685  23.813  1.00  0.00    -0.507 OA
ATOM     19  H   UNL     1      17.293 117.723  24.119  1.00  0.00     0.293 HD
ENDBRANCH   6  18
BRANCH  17  20
ATOM     20  O   UNL     1      16.771 122.071  27.704  1.00  0.00    -0.507 OA
ATOM     21  H   UNL     1      17.055 122.378  28.628  1.00  0.00     0.293 HD
ENDBRANCH  17  20
BRANCH  15  22
ATOM     22  O   UNL     1      13.002 125.069  27.777  1.00  0.00    -0.508 OA
ATOM     23  H   UNL     1      13.129 126.036  27.499  1.00  0.00     0.293 HD
ENDBRANCH  15  22
TORSDOF 3
ENDMDL
MODEL 4
REMARK VINA RESULT:    -7.690      1.847      6.610
REMARK INTER + INTRA:          -8.365
REMARK INTER:                  -8.365
REMARK INTRA:                   0.000
REMARK UNBOUND:                 0.000
REMARK SMILES Cc1cc(O)c2c(c1)C(=O)c1cc(O)cc(O)c1C2=O
REMARK SMILES IDX 1 1 2 2 8 3 7 4 6 5 4 6 3 7 19 8 20 9 18 10 11 11 9 12 10 13
REMARK SMILES IDX 12 14 13 15 15 16 16 17 5 18 17 20 14 22
REMARK H PARENT 5 19 17 21 14 23
REMARK Flexibility Score: inf
ROOT
ATOM      1  C   UNL     1      15.278 120.082  21.513  1.00  0.00     0.044 C 
ATOM      2  C   UNL     1      15.174 119.146  22.680  1.00  0.00    -0.047 A 
ATOM      3  C   UNL     1      16.083 118.092  22.821  1.00  0.00     0.016 A 
ATOM      4  C   UNL     1      15.974 117.186  23.891  1.00  0.00     0.038 A 
ATOM      5  C   UNL     1      14.929 117.330  24.830  1.00  0.00     0.076 A 
ATOM      6  C   UNL     1      13.999 118.386  24.670  1.00  0.00     0.127 A 
ATOM      7  C   UNL     1      14.127 119.277  23.597  1.00  0.00     0.050 A 
ATOM      8  C   UNL     1      14.826 116.365  25.961  1.00  0.00     0.201 C 
ATOM      9  O   UNL     1      13.900 116.490  26.807  1.00  0.00    -0.288 OA
ATOM     10  C   UNL     1      15.808 115.254  26.101  1.00  0.00     0.076 A 
ATOM     11  C   UNL     1      16.846 115.124  25.151  1.00  0.00     0.041 A 
ATOM     12  C   UNL     1      16.953 116.083  24.030  1.00  0.00     0.194 C 
ATOM     13  O   UNL     1      17.884 115.961  23.187  1.00  0.00    -0.289 OA
ATOM     14  C   UNL     1      17.779 114.078  25.275  1.00  0.00     0.059 A 
ATOM     15  C   UNL     1      17.690 113.166  26.329  1.00  0.00     0.120 A 
ATOM     16  C   UNL     1      16.669 113.289  27.268  1.00  0.00     0.093 A 
ATOM     17  C   UNL     1      15.727 114.322  27.166  1.00  0.00     0.131 A 
ENDROOT
BRANCH   6  18
ATOM     18  O   UNL     1      12.947 118.556  25.570  1.00  0.00    -0.507 OA
ATOM     19  H   UNL     1      12.263 119.295  25.459  1.00  0.00     0.293 HD
ENDBRANCH   6  18
BRANCH  17  20
ATOM     20  O   UNL     1      14.718 114.416  28.124  1.00  0.00    -0.507 OA
ATOM     21  H   UNL     1      14.832 114.964  28.969  1.00  0.00     0.293 HD
ENDBRANCH  17  20
BRANCH  15  22
ATOM     22  O   UNL     1      18.614 112.129  26.452  1.00  0.00    -0.508 OA
ATOM     23  H   UNL     1      18.534 111.280  25.904  1.00  0.00     0.293 HD
ENDBRANCH  15  22
TORSDOF 3
ENDMDL
MODEL 5
REMARK VINA RESULT:    -7.678      3.184      6.140
REMARK INTER + INTRA:          -8.351
REMARK INTER:                  -8.351
REMARK INTRA:                   0.000
REMARK UNBOUND:                 0.000
REMARK SMILES Cc1cc(O)c2c(c1)C(=O)c1cc(O)cc(O)c1C2=O
REMARK SMILES IDX 1 1 2 2 8 3 7 4 6 5 4 6 3 7 19 8 20 9 18 10 11 11 9 12 10 13
REMARK SMILES IDX 12 14 13 15 15 16 16 17 5 18 17 20 14 22
REMARK H PARENT 5 19 17 21 14 23
REMARK Flexibility Score: inf
ROOT
ATOM      1  C   UNL     1      12.752 125.341  27.423  1.00  0.00     0.044 C 
ATOM      2  C   UNL     1      13.570 124.215  26.862  1.00  0.00    -0.047 A 
ATOM      3  C   UNL     1      13.143 123.537  25.715  1.00  0.00     0.016 A 
ATOM      4  C   UNL     1      13.882 122.456  25.201  1.00  0.00     0.038 A 
ATOM      5  C   UNL     1      15.062 122.039  25.853  1.00  0.00     0.076 A 
ATOM      6  C   UNL     1      15.479 122.716  27.026  1.00  0.00     0.127 A 
ATOM      7  C   UNL     1      14.727 123.790  27.521  1.00  0.00     0.050 A 
ATOM      8  C   UNL     1      15.839 120.895  25.298  1.00  0.00     0.201 C 
ATOM      9  O   UNL     1      16.898 120.520  25.870  1.00  0.00    -0.288 OA
ATOM     10  C   UNL     1      15.374 120.190  24.070  1.00  0.00     0.076 A 
ATOM     11  C   UNL     1      14.189 120.620  23.431  1.00  0.00     0.041 A 
ATOM     12  C   UNL     1      13.420 121.758  23.980  1.00  0.00     0.194 C 
ATOM     13  O   UNL     1      12.363 122.137  23.402  1.00  0.00    -0.289 OA
ATOM     14  C   UNL     1      13.743 119.961  22.272  1.00  0.00     0.059 A 
ATOM     15  C   UNL     1      14.459 118.885  21.743  1.00  0.00     0.120 A 
ATOM     16  C   UNL     1      15.628 118.457  22.368  1.00  0.00     0.093 A 
ATOM     17  C   UNL     1      16.094 119.097  23.525  1.00  0.00     0.131 A 
ENDROOT
BRANCH   6  18
ATOM     18  O   UNL     1      16.634 122.328  27.705  1.00  0.00    -0.507 OA
ATOM     19  H   UNL     1      17.534 122.747  27.510  1.00  0.00     0.293 HD
ENDBRANCH   6  18
BRANCH  17  20
ATOM     20  O   UNL     1      17.268 118.642  24.126  1.00  0.00    -0.507 OA
ATOM     21  H   UNL     1      18.170 119.049  23.910  1.00  0.00     0.293 HD
ENDBRANCH  17  20
BRANCH  15  22
ATOM     22  O   UNL     1      14.017 118.231  20.594  1.00  0.00    -0.508 OA
ATOM     23  H   UNL     1      14.108 117.227  20.487  1.00  0.00     0.293 HD
ENDBRANCH  15  22
TORSDOF 3
ENDMDL
MODEL 6
REMARK VINA RESULT:    -7.615      2.679      5.719
REMARK INTER + INTRA:          -8.283
REMARK INTER:                  -8.283
REMARK INTRA:                   0.000
REMARK UNBOUND:                 0.000
REMARK SMILES Cc1cc(O)c2c(c1)C(=O)c1cc(O)cc(O)c1C2=O
REMARK SMILES IDX 1 1 2 2 8 3 7 4 6 5 4 6 3 7 19 8 20 9 18 10 11 11 9 12 10 13
REMARK SMILES IDX 12 14 13 15 15 16 16 17 5 18 17 20 14 22
REMARK H PARENT 5 19 17 21 14 23
REMARK Flexibility Score: inf
ROOT
ATOM      1  C   UNL     1      13.436 118.536  18.933  1.00  0.00     0.044 C 
ATOM      2  C   UNL     1      13.527 118.993  20.359  1.00  0.00    -0.047 A 
ATOM      3  C   UNL     1      14.627 118.633  21.145  1.00  0.00     0.016 A 
ATOM      4  C   UNL     1      14.706 119.025  22.494  1.00  0.00     0.038 A 
ATOM      5  C   UNL     1      13.660 119.779  23.069  1.00  0.00     0.076 A 
ATOM      6  C   UNL     1      12.539 120.122  22.273  1.00  0.00     0.127 A 
ATOM      7  C   UNL     1      12.481 119.722  20.932  1.00  0.00     0.050 A 
ATOM      8  C   UNL     1      13.756 120.191  24.498  1.00  0.00     0.201 C 
ATOM      9  O   UNL     1      12.830 120.870  25.017  1.00  0.00    -0.288 OA
ATOM     10  C   UNL     1      14.939 119.807  25.318  1.00  0.00     0.076 A 
ATOM     11  C   UNL     1      15.975 119.050  24.727  1.00  0.00     0.041 A 
ATOM     12  C   UNL     1      15.883 118.644  23.307  1.00  0.00     0.194 C 
ATOM     13  O   UNL     1      16.814 117.969  22.786  1.00  0.00    -0.289 OA
ATOM     14  C   UNL     1      17.096 118.682  25.493  1.00  0.00     0.059 A 
ATOM     15  C   UNL     1      17.196 119.059  26.835  1.00  0.00     0.120 A 
ATOM     16  C   UNL     1      16.178 119.805  27.423  1.00  0.00     0.093 A 
ATOM     17  C   UNL     1      15.050 120.183  26.680  1.00  0.00     0.131 A 
ENDROOT
BRANCH   6  18
ATOM     18  O   UNL     1      11.480 120.858  22.807  1.00  0.00    -0.507 OA
ATOM     19  H   UNL     1      11.633 121.716  23.323  1.00  0.00     0.293 HD
ENDBRANCH   6  18
BRANCH  17  20
ATOM     20  O   UNL     1      14.049 120.930  27.301  1.00  0.00    -0.507 OA
ATOM     21  H   UNL     1      14.251 121.561  28.068  1.00  0.00     0.293 HD
ENDBRANCH  17  20
BRANCH  15  22
ATOM     22  O   UNL     1      18.306 118.695  27.595  1.00  0.00    -0.508 OA
ATOM     23  H   UNL     1      19.248 118.931  27.304  1.00  0.00     0.293 HD
ENDBRANCH  15  22
TORSDOF 3
ENDMDL
MODEL 7
REMARK VINA RESULT:    -7.476      1.185      3.494
REMARK INTER + INTRA:          -8.131
REMARK INTER:                  -8.131
REMARK INTRA:                   0.000
REMARK UNBOUND:                 0.000
REMARK SMILES Cc1cc(O)c2c(c1)C(=O)c1cc(O)cc(O)c1C2=O
REMARK SMILES IDX 1 1 2 2 8 3 7 4 6 5 4 6 3 7 19 8 20 9 18 10 11 11 9 12 10 13
REMARK SMILES IDX 12 14 13 15 15 16 16 17 5 18 17 20 14 22
REMARK H PARENT 5 19 17 21 14 23
REMARK Flexibility Score: inf
ROOT
ATOM      1  C   UNL     1      17.165 112.983  27.316  1.00  0.00     0.044 C 
ATOM      2  C   UNL     1      16.407 114.168  26.794  1.00  0.00    -0.047 A 
ATOM      3  C   UNL     1      16.840 114.828  25.639  1.00  0.00     0.016 A 
ATOM      4  C   UNL     1      16.159 115.962  25.160  1.00  0.00     0.038 A 
ATOM      5  C   UNL     1      15.031 116.450  25.856  1.00  0.00     0.076 A 
ATOM      6  C   UNL     1      14.610 115.789  27.035  1.00  0.00     0.127 A 
ATOM      7  C   UNL     1      15.303 114.662  27.495  1.00  0.00     0.050 A 
ATOM      8  C   UNL     1      14.316 117.650  25.337  1.00  0.00     0.201 C 
ATOM      9  O   UNL     1      13.304 118.088  25.948  1.00  0.00    -0.288 OA
ATOM     10  C   UNL     1      14.786 118.336  24.100  1.00  0.00     0.076 A 
ATOM     11  C   UNL     1      15.917 117.835  23.418  1.00  0.00     0.041 A 
ATOM     12  C   UNL     1      16.626 116.641  23.930  1.00  0.00     0.194 C 
ATOM     13  O   UNL     1      17.635 116.199  23.313  1.00  0.00    -0.289 OA
ATOM     14  C   UNL     1      16.368 118.475  22.250  1.00  0.00     0.059 A 
ATOM     15  C   UNL     1      15.708 119.603  21.756  1.00  0.00     0.120 A 
ATOM     16  C   UNL     1      14.593 120.101  22.424  1.00  0.00     0.093 A 
ATOM     17  C   UNL     1      14.124 119.481  23.590  1.00  0.00     0.131 A 
ENDROOT
BRANCH   6  18
ATOM     18  O   UNL     1      13.507 116.247  27.757  1.00  0.00    -0.507 OA
ATOM     19  H   UNL     1      13.347 117.234  27.920  1.00  0.00     0.293 HD
ENDBRANCH   6  18
BRANCH  17  20
ATOM     20  O   UNL     1      13.004 120.007  24.235  1.00  0.00    -0.507 OA
ATOM     21  H   UNL     1      12.893 121.003  24.385  1.00  0.00     0.293 HD
ENDBRANCH  17  20
BRANCH  15  22
ATOM     22  O   UNL     1      16.155 120.238  20.598  1.00  0.00    -0.508 OA
ATOM     23  H   UNL     1      16.892 119.841  20.027  1.00  0.00     0.293 HD
ENDBRANCH  15  22
TORSDOF 3
ENDMDL
MODEL 8
REMARK VINA RESULT:    -7.473      1.783      6.191
REMARK INTER + INTRA:          -8.128
REMARK INTER:                  -8.128
REMARK INTRA:                   0.000
REMARK UNBOUND:                 0.000
REMARK SMILES Cc1cc(O)c2c(c1)C(=O)c1cc(O)cc(O)c1C2=O
REMARK SMILES IDX 1 1 2 2 8 3 7 4 6 5 4 6 3 7 19 8 20 9 18 10 11 11 9 12 10 13
REMARK SMILES IDX 12 14 13 15 15 16 16 17 5 18 17 20 14 22
REMARK H PARENT 5 19 17 21 14 23
REMARK Flexibility Score: inf
ROOT
ATOM      1  C   UNL     1      16.127 119.762  20.277  1.00  0.00     0.044 C 
ATOM      2  C   UNL     1      15.655 119.182  21.578  1.00  0.00    -0.047 A 
ATOM      3  C   UNL     1      16.310 118.078  22.136  1.00  0.00     0.016 A 
ATOM      4  C   UNL     1      15.855 117.503  23.336  1.00  0.00     0.038 A 
ATOM      5  C   UNL     1      14.717 118.034  23.983  1.00  0.00     0.076 A 
ATOM      6  C   UNL     1      14.047 119.138  23.402  1.00  0.00     0.127 A 
ATOM      7  C   UNL     1      14.517 119.696  22.206  1.00  0.00     0.050 A 
ATOM      8  C   UNL     1      14.247 117.418  25.255  1.00  0.00     0.201 C 
ATOM      9  O   UNL     1      13.236 117.890  25.843  1.00  0.00    -0.288 OA
ATOM     10  C   UNL     1      14.961 116.248  25.840  1.00  0.00     0.076 A 
ATOM     11  C   UNL     1      16.096 115.729  25.178  1.00  0.00     0.041 A 
ATOM     12  C   UNL     1      16.567 116.342  23.917  1.00  0.00     0.194 C 
ATOM     13  O   UNL     1      17.583 115.873  23.333  1.00  0.00    -0.289 OA
ATOM     14  C   UNL     1      16.778 114.625  25.722  1.00  0.00     0.059 A 
ATOM     15  C   UNL     1      16.344 114.036  26.913  1.00  0.00     0.120 A 
ATOM     16  C   UNL     1      15.226 114.544  27.570  1.00  0.00     0.093 A 
ATOM     17  C   UNL     1      14.529 115.643  27.047  1.00  0.00     0.131 A 
ENDROOT
BRANCH   6  18
ATOM     18  O   UNL     1      12.913 119.685  24.005  1.00  0.00    -0.507 OA
ATOM     19  H   UNL     1      12.431 120.482  23.609  1.00  0.00     0.293 HD
ENDBRANCH   6  18
BRANCH  17  20
ATOM     20  O   UNL     1      13.413 116.126  27.731  1.00  0.00    -0.507 OA
ATOM     21  H   UNL     1      13.178 115.804  28.663  1.00  0.00     0.293 HD
ENDBRANCH  17  20
BRANCH  15  22
ATOM     22  O   UNL     1      17.018 112.943  27.453  1.00  0.00    -0.508 OA
ATOM     23  H   UNL     1      17.824 113.062  28.055  1.00  0.00     0.293 HD
ENDBRANCH  15  22
TORSDOF 3
ENDMDL
MODEL 9
REMARK VINA RESULT:    -7.455      2.453      6.109
REMARK INTER + INTRA:          -8.108
REMARK INTER:                  -8.108
REMARK INTRA:                   0.000
REMARK UNBOUND:                 0.000
REMARK SMILES Cc1cc(O)c2c(c1)C(=O)c1cc(O)cc(O)c1C2=O
REMARK SMILES IDX 1 1 2 2 8 3 7 4 6 5 4 6 3 7 19 8 20 9 18 10 11 11 9 12 10 13
REMARK SMILES IDX 12 14 13 15 15 16 16 17 5 18 17 20 14 22
REMARK H PARENT 5 19 17 21 14 23
REMARK Flexibility Score: inf
ROOT
ATOM      1  C   UNL     1      14.021 124.623  27.492  1.00  0.00     0.044 C 
ATOM      2  C   UNL     1      14.009 123.526  26.470  1.00  0.00    -0.047 A 
ATOM      3  C   UNL     1      14.839 122.409  26.624  1.00  0.00     0.016 A 
ATOM      4  C   UNL     1      14.863 121.391  25.654  1.00  0.00     0.038 A 
ATOM      5  C   UNL     1      14.052 121.498  24.503  1.00  0.00     0.076 A 
ATOM      6  C   UNL     1      13.230 122.640  24.342  1.00  0.00     0.127 A 
ATOM      7  C   UNL     1      13.221 123.642  25.321  1.00  0.00     0.050 A 
ATOM      8  C   UNL     1      14.084 120.411  23.484  1.00  0.00     0.201 C 
ATOM      9  O   UNL     1      13.358 120.495  22.457  1.00  0.00    -0.288 OA
ATOM     10  C   UNL     1      14.967 119.225  23.669  1.00  0.00     0.076 A 
ATOM     11  C   UNL     1      15.774 119.136  24.825  1.00  0.00     0.041 A 
ATOM     12  C   UNL     1      15.740 120.213  25.841  1.00  0.00     0.194 C 
ATOM     13  O   UNL     1      16.462 120.125  26.872  1.00  0.00    -0.289 OA
ATOM     14  C   UNL     1      16.610 118.021  25.009  1.00  0.00     0.059 A 
ATOM     15  C   UNL     1      16.652 116.998  24.059  1.00  0.00     0.120 A 
ATOM     16  C   UNL     1      15.859 117.080  22.917  1.00  0.00     0.093 A 
ATOM     17  C   UNL     1      15.017 118.182  22.711  1.00  0.00     0.131 A 
ENDROOT
BRANCH   6  18
ATOM     18  O   UNL     1      12.422 122.788  23.215  1.00  0.00    -0.507 OA
ATOM     19  H   UNL     1      12.661 123.427  22.467  1.00  0.00     0.293 HD
ENDBRANCH   6  18
BRANCH  17  20
ATOM     20  O   UNL     1      14.237 118.232  21.555  1.00  0.00    -0.507 OA
ATOM     21  H   UNL     1      14.554 117.833  20.679  1.00  0.00     0.293 HD
ENDBRANCH  17  20
BRANCH  15  22
ATOM     22  O   UNL     1      17.481 115.892  24.240  1.00  0.00    -0.508 OA
ATOM     23  H   UNL     1      18.075 115.803  25.057  1.00  0.00     0.293 HD
ENDBRANCH  15  22
TORSDOF 3
ENDMDL
