MODEL 1
REMARK VINA RESULT:    -4.604      0.000      0.000
REMARK INTER + INTRA:          -9.333
REMARK INTER:                  -8.102
REMARK INTRA:                  -1.231
REMARK UNBOUND:                -1.231
REMARK SMILES CCCCCCC=CCCCCCCCC(=O)[O-]
REMARK SMILES IDX 10 1 11 2 12 3 13 4 14 5 15 6 16 7 17 8 18 9 9 10 8 11 7 12
REMARK SMILES IDX 6 13 5 14 4 15 3 16 2 17 1 18
REMARK H PARENT
REMARK Flexibility Score: inf
ROOT
ATOM      1  C   UNL     1      -1.711   2.833  16.582  1.00  0.00     0.004 C 
ENDROOT
BRANCH   1   2
ATOM      2  C   UNL     1      -0.748   4.018  16.770  1.00  0.00     0.000 C 
BRANCH   2   3
ATOM      3  C   UNL     1       0.576   3.831  16.012  1.00  0.00     0.000 C 
BRANCH   3   4
ATOM      4  C   UNL     1       0.575   2.580  15.119  1.00  0.00     0.000 C 
BRANCH   4   5
ATOM      5  C   UNL     1       1.571   1.533  15.642  1.00  0.00     0.006 C 
BRANCH   5   6
ATOM      6  C   UNL     1       2.552   1.072  14.557  1.00  0.00     0.053 C 
BRANCH   6   7
ATOM      7  C   UNL     1       2.542  -0.418  14.397  1.00  0.00     0.041 C 
ATOM      8  O   UNL     1       1.570  -1.095  14.822  1.00  0.00    -0.550 OA
ATOM      9  O   UNL     1       3.623  -1.060  13.805  1.00  0.00    -0.550 OA
ENDBRANCH   6   7
ENDBRANCH   5   6
ENDBRANCH   4   5
ENDBRANCH   3   4
ENDBRANCH   2   3
ENDBRANCH   1   2
BRANCH   1  10
ATOM     10  C   UNL     1      -3.021   3.261  15.907  1.00  0.00     0.027 C 
BRANCH  10  11
ATOM     11  C   UNL     1      -2.815   4.386  14.920  1.00  0.00    -0.031 C 
ATOM     12  C   UNL     1      -2.540   4.195  13.617  1.00  0.00    -0.031 C 
BRANCH  12  13
ATOM     13  C   UNL     1      -2.361   2.843  12.968  1.00  0.00     0.027 C 
BRANCH  13  14
ATOM     14  C   UNL     1      -3.689   2.299  12.424  1.00  0.00     0.004 C 
BRANCH  14  15
ATOM     15  C   UNL     1      -3.485   1.087  11.501  1.00  0.00     0.000 C 
BRANCH  15  16
ATOM     16  C   UNL     1      -2.766   1.447  10.189  1.00  0.00    -0.000 C 
BRANCH  16  17
ATOM     17  C   UNL     1      -3.485   0.986   8.908  1.00  0.00    -0.003 C 
ATOM     18  C   UNL     1      -4.976   0.731   9.117  1.00  0.00     0.004 C 
ENDBRANCH  16  17
ENDBRANCH  15  16
ENDBRANCH  14  15
ENDBRANCH  13  14
ENDBRANCH  12  13
ENDBRANCH  10  11
ENDBRANCH   1  10
TORSDOF 13
ENDMDL
MODEL 2
REMARK VINA RESULT:    -4.494      9.434     11.993
REMARK INTER + INTRA:          -9.140
REMARK INTER:                  -6.703
REMARK INTRA:                  -2.437
REMARK UNBOUND:                -1.231
REMARK SMILES CCCCCCC=CCCCCCCCC(=O)[O-]
REMARK SMILES IDX 10 1 11 2 12 3 13 4 14 5 15 6 16 7 17 8 18 9 9 10 8 11 7 12
REMARK SMILES IDX 6 13 5 14 4 15 3 16 2 17 1 18
REMARK H PARENT
REMARK Flexibility Score: inf
ROOT
ATOM      1  C   UNL     1       7.004  -7.183  18.097  1.00  0.00     0.004 C 
ENDROOT
BRANCH   1   2
ATOM      2  C   UNL     1       5.803  -7.794  17.355  1.00  0.00     0.000 C 
BRANCH   2   3
ATOM      3  C   UNL     1       5.854  -7.541  15.839  1.00  0.00     0.000 C 
BRANCH   3   4
ATOM      4  C   UNL     1       6.965  -6.558  15.440  1.00  0.00     0.000 C 
BRANCH   4   5
ATOM      5  C   UNL     1       6.413  -5.444  14.538  1.00  0.00     0.006 C 
BRANCH   5   6
ATOM      6  C   UNL     1       7.006  -4.071  14.882  1.00  0.00     0.053 C 
BRANCH   6   7
ATOM      7  C   UNL     1       6.257  -2.959  14.214  1.00  0.00     0.041 C 
ATOM      8  O   UNL     1       6.847  -2.185  13.415  1.00  0.00    -0.550 OA
ATOM      9  O   UNL     1       4.911  -2.759  14.497  1.00  0.00    -0.550 OA
ENDBRANCH   6   7
ENDBRANCH   5   6
ENDBRANCH   4   5
ENDBRANCH   3   4
ENDBRANCH   2   3
ENDBRANCH   1   2
BRANCH   1  10
ATOM     10  C   UNL     1       7.033  -7.593  19.576  1.00  0.00     0.027 C 
BRANCH  10  11
ATOM     11  C   UNL     1       5.773  -7.189  20.306  1.00  0.00    -0.031 C 
ATOM     12  C   UNL     1       5.638  -6.030  20.976  1.00  0.00    -0.031 C 
BRANCH  12  13
ATOM     13  C   UNL     1       6.727  -4.994  21.125  1.00  0.00     0.027 C 
BRANCH  13  14
ATOM     14  C   UNL     1       6.381  -3.700  20.377  1.00  0.00     0.004 C 
BRANCH  14  15
ATOM     15  C   UNL     1       5.053  -3.810  19.611  1.00  0.00     0.000 C 
BRANCH  15  16
ATOM     16  C   UNL     1       5.248  -3.932  18.089  1.00  0.00    -0.000 C 
BRANCH  16  17
ATOM     17  C   UNL     1       4.076  -4.588  17.336  1.00  0.00    -0.003 C 
ATOM     18  C   UNL     1       3.137  -5.368  18.253  1.00  0.00     0.004 C 
ENDBRANCH  16  17
ENDBRANCH  15  16
ENDBRANCH  14  15
ENDBRANCH  13  14
ENDBRANCH  12  13
ENDBRANCH  10  11
ENDBRANCH   1  10
TORSDOF 13
ENDMDL
MODEL 3
REMARK VINA RESULT:    -4.425      9.293     11.742
REMARK INTER + INTRA:          -9.019
REMARK INTER:                  -6.793
REMARK INTRA:                  -2.226
REMARK UNBOUND:                -1.231
REMARK SMILES CCCCCCC=CCCCCCCCC(=O)[O-]
REMARK SMILES IDX 10 1 11 2 12 3 13 4 14 5 15 6 16 7 17 8 18 9 9 10 8 11 7 12
REMARK SMILES IDX 6 13 5 14 4 15 3 16 2 17 1 18
REMARK H PARENT
REMARK Flexibility Score: inf
ROOT
ATOM      1  C   UNL     1       6.232  -8.046  15.757  1.00  0.00     0.004 C 
ENDROOT
BRANCH   1   2
ATOM      2  C   UNL     1       6.912  -7.278  16.904  1.00  0.00     0.000 C 
BRANCH   2   3
ATOM      3  C   UNL     1       6.155  -7.413  18.236  1.00  0.00     0.000 C 
BRANCH   3   4
ATOM      4  C   UNL     1       7.066  -7.218  19.457  1.00  0.00     0.000 C 
BRANCH   4   5
ATOM      5  C   UNL     1       6.481  -6.169  20.416  1.00  0.00     0.006 C 
BRANCH   5   6
ATOM      6  C   UNL     1       5.318  -5.391  19.785  1.00  0.00     0.053 C 
BRANCH   6   7
ATOM      7  C   UNL     1       5.581  -3.916  19.771  1.00  0.00     0.041 C 
ATOM      8  O   UNL     1       4.809  -3.140  19.150  1.00  0.00    -0.550 OA
ATOM      9  O   UNL     1       6.697  -3.403  20.420  1.00  0.00    -0.550 OA
ENDBRANCH   6   7
ENDBRANCH   5   6
ENDBRANCH   4   5
ENDBRANCH   3   4
ENDBRANCH   2   3
ENDBRANCH   1   2
BRANCH   1  10
ATOM     10  C   UNL     1       6.757  -7.606  14.383  1.00  0.00     0.027 C 
BRANCH  10  11
ATOM     11  C   UNL     1       5.669  -7.586  13.335  1.00  0.00    -0.031 C 
ATOM     12  C   UNL     1       5.514  -6.594  12.440  1.00  0.00    -0.031 C 
BRANCH  12  13
ATOM     13  C   UNL     1       6.371  -5.351  12.380  1.00  0.00     0.027 C 
BRANCH  13  14
ATOM     14  C   UNL     1       5.797  -4.229  13.254  1.00  0.00     0.004 C 
BRANCH  14  15
ATOM     15  C   UNL     1       6.704  -3.905  14.453  1.00  0.00     0.000 C 
BRANCH  15  16
ATOM     16  C   UNL     1       5.998  -4.100  15.807  1.00  0.00    -0.000 C 
BRANCH  16  17
ATOM     17  C   UNL     1       4.461  -4.031  15.753  1.00  0.00    -0.003 C 
ATOM     18  C   UNL     1       3.789  -5.348  16.137  1.00  0.00     0.004 C 
ENDBRANCH  16  17
ENDBRANCH  15  16
ENDBRANCH  14  15
ENDBRANCH  13  14
ENDBRANCH  12  13
ENDBRANCH  10  11
ENDBRANCH   1  10
TORSDOF 13
ENDMDL
MODEL 4
REMARK VINA RESULT:    -4.419      9.428     11.983
REMARK INTER + INTRA:          -9.007
REMARK INTER:                  -7.879
REMARK INTRA:                  -1.129
REMARK UNBOUND:                -1.231
REMARK SMILES CCCCCCC=CCCCCCCCC(=O)[O-]
REMARK SMILES IDX 10 1 11 2 12 3 13 4 14 5 15 6 16 7 17 8 18 9 9 10 8 11 7 12
REMARK SMILES IDX 6 13 5 14 4 15 3 16 2 17 1 18
REMARK H PARENT
REMARK Flexibility Score: inf
ROOT
ATOM      1  C   UNL     1       5.506  -6.735  17.749  1.00  0.00     0.004 C 
ENDROOT
BRANCH   1   2
ATOM      2  C   UNL     1       6.848  -7.227  18.319  1.00  0.00     0.000 C 
BRANCH   2   3
ATOM      3  C   UNL     1       6.837  -7.330  19.853  1.00  0.00     0.000 C 
BRANCH   3   4
ATOM      4  C   UNL     1       5.516  -6.844  20.469  1.00  0.00     0.000 C 
BRANCH   4   5
ATOM      5  C   UNL     1       5.766  -5.708  21.473  1.00  0.00     0.006 C 
BRANCH   5   6
ATOM      6  C   UNL     1       6.947  -4.819  21.062  1.00  0.00     0.053 C 
BRANCH   6   7
ATOM      7  C   UNL     1       6.486  -3.514  20.490  1.00  0.00     0.041 C 
ATOM      8  O   UNL     1       6.795  -2.430  21.051  1.00  0.00    -0.550 OA
ATOM      9  O   UNL     1       5.689  -3.497  19.352  1.00  0.00    -0.550 OA
ENDBRANCH   6   7
ENDBRANCH   5   6
ENDBRANCH   4   5
ENDBRANCH   3   4
ENDBRANCH   2   3
ENDBRANCH   1   2
BRANCH   1  10
ATOM     10  C   UNL     1       4.947  -7.695  16.690  1.00  0.00     0.027 C 
BRANCH  10  11
ATOM     11  C   UNL     1       6.041  -8.404  15.926  1.00  0.00    -0.031 C 
ATOM     12  C   UNL     1       6.539  -7.966  14.756  1.00  0.00    -0.031 C 
BRANCH  12  13
ATOM     13  C   UNL     1       6.055  -6.736  14.026  1.00  0.00     0.027 C 
BRANCH  13  14
ATOM     14  C   UNL     1       6.232  -6.876  12.508  1.00  0.00     0.004 C 
BRANCH  14  15
ATOM     15  C   UNL     1       6.388  -5.513  11.813  1.00  0.00     0.000 C 
BRANCH  15  16
ATOM     16  C   UNL     1       5.891  -4.340  12.676  1.00  0.00    -0.000 C 
BRANCH  16  17
ATOM     17  C   UNL     1       6.902  -3.192  12.855  1.00  0.00    -0.003 C 
ATOM     18  C   UNL     1       6.405  -2.100  13.800  1.00  0.00     0.004 C 
ENDBRANCH  16  17
ENDBRANCH  15  16
ENDBRANCH  14  15
ENDBRANCH  13  14
ENDBRANCH  12  13
ENDBRANCH  10  11
ENDBRANCH   1  10
TORSDOF 13
ENDMDL
MODEL 5
REMARK VINA RESULT:    -4.398      2.872      5.097
REMARK INTER + INTRA:          -8.971
REMARK INTER:                  -6.424
REMARK INTRA:                  -2.547
REMARK UNBOUND:                -1.231
REMARK SMILES CCCCCCC=CCCCCCCCC(=O)[O-]
REMARK SMILES IDX 10 1 11 2 12 3 13 4 14 5 15 6 16 7 17 8 18 9 9 10 8 11 7 12
REMARK SMILES IDX 6 13 5 14 4 15 3 16 2 17 1 18
REMARK H PARENT
REMARK Flexibility Score: inf
ROOT
ATOM      1  C   UNL     1      -1.035   4.406  16.943  1.00  0.00     0.004 C 
ENDROOT
BRANCH   1   2
ATOM      2  C   UNL     1      -2.236   3.463  17.131  1.00  0.00     0.000 C 
BRANCH   2   3
ATOM      3  C   UNL     1      -3.152   3.419  15.898  1.00  0.00     0.000 C 
BRANCH   3   4
ATOM      4  C   UNL     1      -2.734   4.423  14.813  1.00  0.00     0.000 C 
BRANCH   4   5
ATOM      5  C   UNL     1      -2.612   3.734  13.446  1.00  0.00     0.006 C 
BRANCH   5   6
ATOM      6  C   UNL     1      -3.670   2.640  13.250  1.00  0.00     0.053 C 
BRANCH   6   7
ATOM      7  C   UNL     1      -3.353   1.765  12.077  1.00  0.00     0.041 C 
ATOM      8  O   UNL     1      -3.953   0.669  11.921  1.00  0.00    -0.550 OA
ATOM      9  O   UNL     1      -2.370   2.145  11.171  1.00  0.00    -0.550 OA
ENDBRANCH   6   7
ENDBRANCH   5   6
ENDBRANCH   4   5
ENDBRANCH   3   4
ENDBRANCH   2   3
ENDBRANCH   1   2
BRANCH   1  10
ATOM     10  C   UNL     1       0.298   3.645  16.948  1.00  0.00     0.027 C 
BRANCH  10  11
ATOM     11  C   UNL     1       0.816   3.391  15.552  1.00  0.00    -0.031 C 
ATOM     12  C   UNL     1       0.741   2.198  14.934  1.00  0.00    -0.031 C 
BRANCH  12  13
ATOM     13  C   UNL     1       0.170   0.945  15.555  1.00  0.00     0.027 C 
BRANCH  13  14
ATOM     14  C   UNL     1      -1.156   0.543  14.896  1.00  0.00     0.004 C 
BRANCH  14  15
ATOM     15  C   UNL     1      -1.851  -0.606  15.643  1.00  0.00     0.000 C 
BRANCH  15  16
ATOM     16  C   UNL     1      -3.063  -0.137  16.469  1.00  0.00    -0.000 C 
BRANCH  16  17
ATOM     17  C   UNL     1      -4.391  -0.077  15.693  1.00  0.00    -0.003 C 
ATOM     18  C   UNL     1      -4.549  -1.216  14.688  1.00  0.00     0.004 C 
ENDBRANCH  16  17
ENDBRANCH  15  16
ENDBRANCH  14  15
ENDBRANCH  13  14
ENDBRANCH  12  13
ENDBRANCH  10  11
ENDBRANCH   1  10
TORSDOF 13
ENDMDL
MODEL 6
REMARK VINA RESULT:    -4.350      9.421     11.655
REMARK INTER + INTRA:          -8.887
REMARK INTER:                  -6.370
REMARK INTRA:                  -2.517
REMARK UNBOUND:                -1.231
REMARK SMILES CCCCCCC=CCCCCCCCC(=O)[O-]
REMARK SMILES IDX 10 1 11 2 12 3 13 4 14 5 15 6 16 7 17 8 18 9 9 10 8 11 7 12
REMARK SMILES IDX 6 13 5 14 4 15 3 16 2 17 1 18
REMARK H PARENT
REMARK Flexibility Score: inf
ROOT
ATOM      1  C   UNL     1       5.789  -7.204  12.800  1.00  0.00     0.004 C 
ENDROOT
BRANCH   1   2
ATOM      2  C   UNL     1       6.668  -7.422  14.044  1.00  0.00     0.000 C 
BRANCH   2   3
ATOM      3  C   UNL     1       5.954  -8.233  15.138  1.00  0.00     0.000 C 
BRANCH   3   4
ATOM      4  C   UNL     1       6.372  -7.810  16.556  1.00  0.00     0.000 C 
BRANCH   4   5
ATOM      5  C   UNL     1       5.155  -7.760  17.493  1.00  0.00     0.006 C 
BRANCH   5   6
ATOM      6  C   UNL     1       5.236  -6.594  18.487  1.00  0.00     0.053 C 
BRANCH   6   7
ATOM      7  C   UNL     1       6.010  -6.965  19.715  1.00  0.00     0.041 C 
ATOM      8  O   UNL     1       5.985  -8.147  20.148  1.00  0.00    -0.550 OA
ATOM      9  O   UNL     1       6.734  -5.996  20.399  1.00  0.00    -0.550 OA
ENDBRANCH   6   7
ENDBRANCH   5   6
ENDBRANCH   4   5
ENDBRANCH   3   4
ENDBRANCH   2   3
ENDBRANCH   1   2
BRANCH   1  10
ATOM     10  C   UNL     1       6.378  -6.141  11.862  1.00  0.00     0.027 C 
BRANCH  10  11
ATOM     11  C   UNL     1       5.412  -5.008  11.605  1.00  0.00    -0.031 C 
ATOM     12  C   UNL     1       5.690  -3.718  11.865  1.00  0.00    -0.031 C 
BRANCH  12  13
ATOM     13  C   UNL     1       6.978  -3.225  12.481  1.00  0.00     0.027 C 
BRANCH  13  14
ATOM     14  C   UNL     1       6.768  -2.757  13.927  1.00  0.00     0.004 C 
BRANCH  14  15
ATOM     15  C   UNL     1       7.116  -3.853  14.948  1.00  0.00     0.000 C 
BRANCH  15  16
ATOM     16  C   UNL     1       5.917  -4.255  15.826  1.00  0.00    -0.000 C 
BRANCH  16  17
ATOM     17  C   UNL     1       4.537  -4.014  15.189  1.00  0.00    -0.003 C 
ATOM     18  C   UNL     1       3.649  -5.257  15.197  1.00  0.00     0.004 C 
ENDBRANCH  16  17
ENDBRANCH  15  16
ENDBRANCH  14  15
ENDBRANCH  13  14
ENDBRANCH  12  13
ENDBRANCH  10  11
ENDBRANCH   1  10
TORSDOF 13
ENDMDL
MODEL 7
REMARK VINA RESULT:    -4.323     12.131     14.107
REMARK INTER + INTRA:          -8.839
REMARK INTER:                  -6.895
REMARK INTRA:                  -1.944
REMARK UNBOUND:                -1.231
REMARK SMILES CCCCCCC=CCCCCCCCC(=O)[O-]
REMARK SMILES IDX 10 1 11 2 12 3 13 4 14 5 15 6 16 7 17 8 18 9 9 10 8 11 7 12
REMARK SMILES IDX 6 13 5 14 4 15 3 16 2 17 1 18
REMARK H PARENT
REMARK Flexibility Score: inf
ROOT
ATOM      1  C   UNL     1     -12.148  -5.070  13.797  1.00  0.00     0.004 C 
ENDROOT
BRANCH   1   2
ATOM      2  C   UNL     1     -11.909  -3.741  14.535  1.00  0.00     0.000 C 
BRANCH   2   3
ATOM      3  C   UNL     1     -10.598  -3.736  15.337  1.00  0.00     0.000 C 
BRANCH   3   4
ATOM      4  C   UNL     1     -10.204  -5.136  15.835  1.00  0.00     0.000 C 
BRANCH   4   5
ATOM      5  C   UNL     1     -10.658  -5.348  17.287  1.00  0.00     0.006 C 
BRANCH   5   6
ATOM      6  C   UNL     1      -9.738  -6.312  18.048  1.00  0.00     0.053 C 
BRANCH   6   7
ATOM      7  C   UNL     1     -10.520  -7.303  18.855  1.00  0.00     0.041 C 
ATOM      8  O   UNL     1     -11.540  -7.855  18.367  1.00  0.00    -0.550 OA
ATOM      9  O   UNL     1     -10.137  -7.594  20.159  1.00  0.00    -0.550 OA
ENDBRANCH   6   7
ENDBRANCH   5   6
ENDBRANCH   4   5
ENDBRANCH   3   4
ENDBRANCH   2   3
ENDBRANCH   1   2
BRANCH   1  10
ATOM     10  C   UNL     1     -12.786  -4.854  12.418  1.00  0.00     0.027 C 
BRANCH  10  11
ATOM     11  C   UNL     1     -11.939  -5.418  11.301  1.00  0.00    -0.031 C 
ATOM     12  C   UNL     1     -12.039  -6.684  10.857  1.00  0.00    -0.031 C 
BRANCH  12  13
ATOM     13  C   UNL     1     -12.974  -7.723  11.430  1.00  0.00     0.027 C 
BRANCH  13  14
ATOM     14  C   UNL     1     -12.223  -8.733  12.307  1.00  0.00     0.004 C 
BRANCH  14  15
ATOM     15  C   UNL     1     -12.744  -8.745  13.755  1.00  0.00     0.000 C 
BRANCH  15  16
ATOM     16  C   UNL     1     -11.660  -8.377  14.783  1.00  0.00    -0.000 C 
BRANCH  16  17
ATOM     17  C   UNL     1     -10.217  -8.419  14.249  1.00  0.00    -0.003 C 
ATOM     18  C   UNL     1      -9.192  -8.779  15.323  1.00  0.00     0.004 C 
ENDBRANCH  16  17
ENDBRANCH  15  16
ENDBRANCH  14  15
ENDBRANCH  13  14
ENDBRANCH  12  13
ENDBRANCH  10  11
ENDBRANCH   1  10
TORSDOF 13
ENDMDL
MODEL 8
REMARK VINA RESULT:    -4.321      9.526     11.669
REMARK INTER + INTRA:          -8.835
REMARK INTER:                  -7.302
REMARK INTRA:                  -1.534
REMARK UNBOUND:                -1.231
REMARK SMILES CCCCCCC=CCCCCCCCC(=O)[O-]
REMARK SMILES IDX 10 1 11 2 12 3 13 4 14 5 15 6 16 7 17 8 18 9 9 10 8 11 7 12
REMARK SMILES IDX 6 13 5 14 4 15 3 16 2 17 1 18
REMARK H PARENT
REMARK Flexibility Score: inf
ROOT
ATOM      1  C   UNL     1       5.811  -7.646  17.353  1.00  0.00     0.004 C 
ENDROOT
BRANCH   1   2
ATOM      2  C   UNL     1       7.123  -7.249  18.052  1.00  0.00     0.000 C 
BRANCH   2   3
ATOM      3  C   UNL     1       7.042  -7.381  19.581  1.00  0.00     0.000 C 
BRANCH   3   4
ATOM      4  C   UNL     1       5.602  -7.286  20.108  1.00  0.00     0.000 C 
BRANCH   4   5
ATOM      5  C   UNL     1       5.424  -6.044  20.995  1.00  0.00     0.006 C 
BRANCH   5   6
ATOM      6  C   UNL     1       6.673  -5.152  21.002  1.00  0.00     0.053 C 
BRANCH   6   7
ATOM      7  C   UNL     1       6.400  -3.810  20.394  1.00  0.00     0.041 C 
ATOM      8  O   UNL     1       5.662  -3.712  19.378  1.00  0.00    -0.550 OA
ATOM      9  O   UNL     1       6.987  -2.671  20.931  1.00  0.00    -0.550 OA
ENDBRANCH   6   7
ENDBRANCH   5   6
ENDBRANCH   4   5
ENDBRANCH   3   4
ENDBRANCH   2   3
ENDBRANCH   1   2
BRANCH   1  10
ATOM     10  C   UNL     1       5.814  -7.261  15.867  1.00  0.00     0.027 C 
BRANCH  10  11
ATOM     11  C   UNL     1       7.059  -6.500  15.476  1.00  0.00    -0.031 C 
ATOM     12  C   UNL     1       7.107  -5.161  15.352  1.00  0.00    -0.031 C 
BRANCH  12  13
ATOM     13  C   UNL     1       5.926  -4.240  15.546  1.00  0.00     0.027 C 
BRANCH  13  14
ATOM     14  C   UNL     1       5.563  -3.509  14.247  1.00  0.00     0.004 C 
BRANCH  14  15
ATOM     15  C   UNL     1       6.764  -3.386  13.294  1.00  0.00     0.000 C 
BRANCH  15  16
ATOM     16  C   UNL     1       6.510  -4.040  11.924  1.00  0.00    -0.000 C 
BRANCH  16  17
ATOM     17  C   UNL     1       5.479  -5.183  11.932  1.00  0.00    -0.003 C 
ATOM     18  C   UNL     1       6.122  -6.569  11.930  1.00  0.00     0.004 C 
ENDBRANCH  16  17
ENDBRANCH  15  16
ENDBRANCH  14  15
ENDBRANCH  13  14
ENDBRANCH  12  13
ENDBRANCH  10  11
ENDBRANCH   1  10
TORSDOF 13
ENDMDL
MODEL 9
REMARK VINA RESULT:    -4.273      4.191      6.865
REMARK INTER + INTRA:          -8.751
REMARK INTER:                  -6.476
REMARK INTRA:                  -2.275
REMARK UNBOUND:                -1.231
REMARK SMILES CCCCCCC=CCCCCCCCC(=O)[O-]
REMARK SMILES IDX 10 1 11 2 12 3 13 4 14 5 15 6 16 7 17 8 18 9 9 10 8 11 7 12
REMARK SMILES IDX 6 13 5 14 4 15 3 16 2 17 1 18
REMARK H PARENT
REMARK Flexibility Score: inf
ROOT
ATOM      1  C   UNL     1      -2.967   0.099  15.564  1.00  0.00     0.004 C 
ENDROOT
BRANCH   1   2
ATOM      2  C   UNL     1      -2.032   0.071  16.786  1.00  0.00     0.000 C 
BRANCH   2   3
ATOM      3  C   UNL     1      -2.557   0.924  17.952  1.00  0.00     0.000 C 
BRANCH   3   4
ATOM      4  C   UNL     1      -4.075   1.153  17.881  1.00  0.00     0.000 C 
BRANCH   4   5
ATOM      5  C   UNL     1      -4.443   2.549  18.407  1.00  0.00     0.006 C 
BRANCH   5   6
ATOM      6  C   UNL     1      -5.596   2.503  19.418  1.00  0.00     0.053 C 
BRANCH   6   7
ATOM      7  C   UNL     1      -5.096   2.509  20.831  1.00  0.00     0.041 C 
ATOM      8  O   UNL     1      -5.909   2.478  21.792  1.00  0.00    -0.550 OA
ATOM      9  O   UNL     1      -3.732   2.581  21.085  1.00  0.00    -0.550 OA
ENDBRANCH   6   7
ENDBRANCH   5   6
ENDBRANCH   4   5
ENDBRANCH   3   4
ENDBRANCH   2   3
ENDBRANCH   1   2
BRANCH   1  10
ATOM     10  C   UNL     1      -2.544   1.164  14.543  1.00  0.00     0.027 C 
BRANCH  10  11
ATOM     11  C   UNL     1      -3.527   2.308  14.468  1.00  0.00    -0.031 C 
ATOM     12  C   UNL     1      -3.185   3.598  14.636  1.00  0.00    -0.031 C 
BRANCH  12  13
ATOM     13  C   UNL     1      -1.790   4.080  14.958  1.00  0.00     0.027 C 
BRANCH  13  14
ATOM     14  C   UNL     1      -1.534   4.095  16.470  1.00  0.00     0.004 C 
BRANCH  14  15
ATOM     15  C   UNL     1      -0.059   3.825  16.813  1.00  0.00     0.000 C 
BRANCH  15  16
ATOM     16  C   UNL     1       0.740   3.268  15.621  1.00  0.00    -0.000 C 
BRANCH  16  17
ATOM     17  C   UNL     1       1.006   1.752  15.670  1.00  0.00    -0.003 C 
ATOM     18  C   UNL     1       2.128   1.311  14.732  1.00  0.00     0.004 C 
ENDBRANCH  16  17
ENDBRANCH  15  16
ENDBRANCH  14  15
ENDBRANCH  13  14
ENDBRANCH  12  13
ENDBRANCH  10  11
ENDBRANCH   1  10
TORSDOF 13
ENDMDL
