MODEL 1
REMARK VINA RESULT:    -6.063      0.000      0.000
REMARK INTER + INTRA:          -7.623
REMARK INTER:                  -7.126
REMARK INTRA:                  -0.496
REMARK UNBOUND:                -0.496
REMARK SMILES CC1(C)CC[C@]2(C(=O)[O-])CC[C@@]3(C)C(=CC[C@@H]4[C@@]5(C)CC[C@@H](O)[C@](C)(CO)[C@H]5CC[C@@]43C)[C@@H]2C1
REMARK SMILES IDX 6 1 5 2 10 3 33 4 4 5 11 6 14 7 34 8 2 9 12 10 15 11 1 12
REMARK SMILES IDX 3 13 13 14 31 15 16 16 17 17 30 18 32 19 18 20 29 21 28 22
REMARK SMILES IDX 20 23 19 24 24 25 21 26 22 27 25 28 7 29 8 30 9 31 26 32
REMARK SMILES IDX 27 33 23 35
REMARK H PARENT 27 34 23 36
REMARK Flexibility Score: inf
ROOT
ATOM      1  C   UNL     1      34.417 -37.475   3.911  1.00  0.00     0.017 C 
ATOM      2  C   UNL     1      33.360 -37.232   2.770  1.00  0.00     0.014 C 
ATOM      3  C   UNL     1      35.520 -36.382   3.844  1.00  0.00     0.014 C 
ATOM      4  C   UNL     1      35.049 -38.906   3.795  1.00  0.00     0.028 C 
ATOM      5  C   UNL     1      32.868 -38.497   2.041  1.00  0.00     0.007 C 
ATOM      6  C   UNL     1      36.526 -36.549   2.689  1.00  0.00     0.013 C 
ATOM      7  C   UNL     1      36.058 -38.973   2.620  1.00  0.00    -0.064 C 
ATOM      8  C   UNL     1      33.929 -40.002   3.847  1.00  0.00     0.015 C 
ATOM      9  C   UNL     1      32.651 -39.712   2.977  1.00  0.00    -0.035 C 
ATOM     10  C   UNL     1      37.208 -37.953   2.592  1.00  0.00    -0.006 C 
ATOM     11  C   UNL     1      35.912 -39.877   1.640  1.00  0.00    -0.027 C 
ATOM     12  C   UNL     1      32.308 -40.946   2.109  1.00  0.00     0.011 C 
ATOM     13  C   UNL     1      31.422 -39.457   3.887  1.00  0.00     0.011 C 
ATOM     14  C   UNL     1      38.068 -38.169   3.878  1.00  0.00     0.017 C 
ATOM     15  C   UNL     1      38.163 -38.065   1.271  1.00  0.00    -0.020 C 
ATOM     16  C   UNL     1      36.559 -39.786   0.304  1.00  0.00     0.032 C 
ATOM     17  C   UNL     1      37.325 -38.458   0.001  1.00  0.00     0.006 C 
ATOM     18  C   UNL     1      39.254 -39.169   1.412  1.00  0.00     0.008 C 
ATOM     19  C   UNL     1      38.893 -36.698   1.082  1.00  0.00     0.012 C 
ATOM     20  C   UNL     1      38.125 -38.564  -1.395  1.00  0.00    -0.025 C 
ATOM     21  C   UNL     1      40.194 -39.285   0.205  1.00  0.00     0.005 C 
ATOM     22  C   UNL     1      39.579 -39.219  -1.243  1.00  0.00     0.006 C 
ATOM     23  C   UNL     1      38.231 -37.174  -2.093  1.00  0.00     0.010 C 
ATOM     24  C   UNL     1      37.235 -39.417  -2.382  1.00  0.00     0.012 C 
ATOM     25  C   UNL     1      40.677 -38.749  -2.326  1.00  0.00     0.020 C 
ATOM     26  C   UNL     1      38.942 -37.201  -3.467  1.00  0.00     0.033 C 
ATOM     27  C   UNL     1      39.980 -38.333  -3.659  1.00  0.00     0.123 C 
ATOM     28  C   UNL     1      41.572 -37.556  -1.862  1.00  0.00     0.017 C 
ENDROOT
BRANCH   1  29
ATOM     29  C   UNL     1      33.763 -37.298   5.284  1.00  0.00     0.048 C 
ATOM     30  O   UNL     1      32.697 -36.633   5.407  1.00  0.00    -0.550 OA
ATOM     31  O   UNL     1      34.402 -37.738   6.440  1.00  0.00    -0.550 OA
ENDBRANCH   1  29
BRANCH  25  32
ATOM     32  C   UNL     1      41.615 -39.965  -2.606  1.00  0.00     0.165 C 
BRANCH  32  33
ATOM     33  O   UNL     1      41.231 -40.674  -3.760  1.00  0.00    -0.396 OA
ATOM     34  H   UNL     1      41.095 -41.619  -3.491  1.00  0.00     0.210 HD
ENDBRANCH  32  33
ENDBRANCH  25  32
BRANCH  27  35
ATOM     35  O   UNL     1      40.924 -37.909  -4.616  1.00  0.00    -0.392 OA
ATOM     36  H   UNL     1      41.538 -37.271  -4.163  1.00  0.00     0.210 HD
ENDBRANCH  27  35
TORSDOF 4
ENDMDL
MODEL 2
REMARK VINA RESULT:    -6.051      3.326      7.903
REMARK INTER + INTRA:          -7.609
REMARK INTER:                  -7.132
REMARK INTRA:                  -0.476
REMARK UNBOUND:                -0.496
REMARK SMILES CC1(C)CC[C@]2(C(=O)[O-])CC[C@@]3(C)C(=CC[C@@H]4[C@@]5(C)CC[C@@H](O)[C@](C)(CO)[C@H]5CC[C@@]43C)[C@@H]2C1
REMARK SMILES IDX 6 1 5 2 10 3 33 4 4 5 11 6 14 7 34 8 2 9 12 10 15 11 1 12
REMARK SMILES IDX 3 13 13 14 31 15 16 16 17 17 30 18 32 19 18 20 29 21 28 22
REMARK SMILES IDX 20 23 19 24 24 25 21 26 22 27 25 28 7 29 8 30 9 31 26 32
REMARK SMILES IDX 27 33 23 35
REMARK H PARENT 27 34 23 36
REMARK Flexibility Score: inf
ROOT
ATOM      1  C   UNL     1      33.380 -41.237  -2.104  1.00  0.00     0.017 C 
ATOM      2  C   UNL     1      34.030 -39.952  -2.741  1.00  0.00     0.014 C 
ATOM      3  C   UNL     1      32.175 -40.827  -1.213  1.00  0.00     0.014 C 
ATOM      4  C   UNL     1      34.435 -42.044  -1.270  1.00  0.00     0.028 C 
ATOM      5  C   UNL     1      35.571 -39.934  -2.772  1.00  0.00     0.007 C 
ATOM      6  C   UNL     1      32.557 -40.184   0.135  1.00  0.00     0.013 C 
ATOM      7  C   UNL     1      34.742 -41.333   0.073  1.00  0.00    -0.064 C 
ATOM      8  C   UNL     1      35.655 -42.441  -2.171  1.00  0.00     0.015 C 
ATOM      9  C   UNL     1      36.205 -41.305  -3.111  1.00  0.00    -0.035 C 
ATOM     10  C   UNL     1      33.565 -41.004   1.006  1.00  0.00    -0.006 C 
ATOM     11  C   UNL     1      35.997 -40.988   0.396  1.00  0.00    -0.027 C 
ATOM     12  C   UNL     1      37.739 -41.188  -2.961  1.00  0.00     0.011 C 
ATOM     13  C   UNL     1      35.932 -41.653  -4.598  1.00  0.00     0.011 C 
ATOM     14  C   UNL     1      32.883 -42.350   1.407  1.00  0.00     0.017 C 
ATOM     15  C   UNL     1      33.994 -40.186   2.354  1.00  0.00    -0.020 C 
ATOM     16  C   UNL     1      36.357 -39.984   1.434  1.00  0.00     0.032 C 
ATOM     17  C   UNL     1      35.168 -39.184   2.056  1.00  0.00     0.006 C 
ATOM     18  C   UNL     1      34.520 -41.124   3.481  1.00  0.00     0.008 C 
ATOM     19  C   UNL     1      32.730 -39.450   2.899  1.00  0.00     0.012 C 
ATOM     20  C   UNL     1      35.673 -38.270   3.284  1.00  0.00    -0.025 C 
ATOM     21  C   UNL     1      34.903 -40.399   4.778  1.00  0.00     0.005 C 
ATOM     22  C   UNL     1      35.712 -39.052   4.681  1.00  0.00     0.006 C 
ATOM     23  C   UNL     1      34.816 -36.974   3.415  1.00  0.00     0.010 C 
ATOM     24  C   UNL     1      37.112 -37.735   2.909  1.00  0.00     0.012 C 
ATOM     25  C   UNL     1      35.503 -38.145   5.998  1.00  0.00     0.020 C 
ATOM     26  C   UNL     1      35.272 -36.016   4.541  1.00  0.00     0.033 C 
ATOM     27  C   UNL     1      35.993 -36.687   5.735  1.00  0.00     0.123 C 
ATOM     28  C   UNL     1      34.028 -38.071   6.504  1.00  0.00     0.017 C 
ENDROOT
BRANCH   1  29
ATOM     29  C   UNL     1      32.783 -42.125  -3.198  1.00  0.00     0.048 C 
ATOM     30  O   UNL     1      32.490 -41.644  -4.328  1.00  0.00    -0.550 OA
ATOM     31  O   UNL     1      32.415 -43.440  -2.927  1.00  0.00    -0.550 OA
ENDBRANCH   1  29
BRANCH  25  32
ATOM     32  C   UNL     1      36.366 -38.767   7.141  1.00  0.00     0.165 C 
BRANCH  32  33
ATOM     33  O   UNL     1      35.998 -38.275   8.408  1.00  0.00    -0.396 OA
ATOM     34  H   UNL     1      36.089 -39.026   9.050  1.00  0.00     0.210 HD
ENDBRANCH  32  33
ENDBRANCH  25  32
BRANCH  27  35
ATOM     35  O   UNL     1      35.808 -35.876   6.874  1.00  0.00    -0.392 OA
ATOM     36  H   UNL     1      36.654 -35.373   7.019  1.00  0.00     0.210 HD
ENDBRANCH  27  35
TORSDOF 4
ENDMDL
MODEL 3
REMARK VINA RESULT:    -6.026      3.823      6.150
REMARK INTER + INTRA:          -7.579
REMARK INTER:                  -7.277
REMARK INTRA:                  -0.302
REMARK UNBOUND:                -0.496
REMARK SMILES CC1(C)CC[C@]2(C(=O)[O-])CC[C@@]3(C)C(=CC[C@@H]4[C@@]5(C)CC[C@@H](O)[C@](C)(CO)[C@H]5CC[C@@]43C)[C@@H]2C1
REMARK SMILES IDX 6 1 5 2 10 3 33 4 4 5 11 6 14 7 34 8 2 9 12 10 15 11 1 12
REMARK SMILES IDX 3 13 13 14 31 15 16 16 17 17 30 18 32 19 18 20 29 21 28 22
REMARK SMILES IDX 20 23 19 24 24 25 21 26 22 27 25 28 7 29 8 30 9 31 26 32
REMARK SMILES IDX 27 33 23 35
REMARK H PARENT 27 34 23 36
REMARK Flexibility Score: inf
ROOT
ATOM      1  C   UNL     1      33.944 -39.369   5.315  1.00  0.00     0.017 C 
ATOM      2  C   UNL     1      35.505 -39.362   5.112  1.00  0.00     0.014 C 
ATOM      3  C   UNL     1      33.414 -40.828   5.248  1.00  0.00     0.014 C 
ATOM      4  C   UNL     1      33.235 -38.474   4.239  1.00  0.00     0.028 C 
ATOM      5  C   UNL     1      36.053 -38.235   4.215  1.00  0.00     0.007 C 
ATOM      6  C   UNL     1      33.370 -41.437   3.834  1.00  0.00     0.013 C 
ATOM      7  C   UNL     1      33.223 -39.173   2.855  1.00  0.00    -0.064 C 
ATOM      8  C   UNL     1      33.786 -37.007   4.300  1.00  0.00     0.015 C 
ATOM      9  C   UNL     1      35.349 -36.872   4.425  1.00  0.00    -0.035 C 
ATOM     10  C   UNL     1      32.617 -40.583   2.760  1.00  0.00    -0.006 C 
ATOM     11  C   UNL     1      33.756 -38.577   1.779  1.00  0.00    -0.027 C 
ATOM     12  C   UNL     1      35.882 -35.875   3.369  1.00  0.00     0.011 C 
ATOM     13  C   UNL     1      35.733 -36.294   5.812  1.00  0.00     0.011 C 
ATOM     14  C   UNL     1      31.115 -40.486   3.178  1.00  0.00     0.017 C 
ATOM     15  C   UNL     1      32.729 -41.256   1.275  1.00  0.00    -0.020 C 
ATOM     16  C   UNL     1      34.149 -39.282   0.530  1.00  0.00     0.032 C 
ATOM     17  C   UNL     1      34.069 -40.842   0.568  1.00  0.00     0.006 C 
ATOM     18  C   UNL     1      31.590 -40.790   0.320  1.00  0.00     0.008 C 
ATOM     19  C   UNL     1      32.612 -42.805   1.433  1.00  0.00     0.012 C 
ATOM     20  C   UNL     1      34.345 -41.465  -0.893  1.00  0.00    -0.025 C 
ATOM     21  C   UNL     1      31.638 -41.424  -1.077  1.00  0.00     0.005 C 
ATOM     22  C   UNL     1      33.030 -41.548  -1.803  1.00  0.00     0.006 C 
ATOM     23  C   UNL     1      35.019 -42.868  -0.792  1.00  0.00     0.010 C 
ATOM     24  C   UNL     1      35.443 -40.567  -1.587  1.00  0.00     0.012 C 
ATOM     25  C   UNL     1      33.013 -42.724  -2.907  1.00  0.00     0.020 C 
ATOM     26  C   UNL     1      35.363 -43.512  -2.156  1.00  0.00     0.033 C 
ATOM     27  C   UNL     1      34.468 -43.079  -3.343  1.00  0.00     0.123 C 
ATOM     28  C   UNL     1      32.320 -44.042  -2.436  1.00  0.00     0.017 C 
ENDROOT
BRANCH   1  29
ATOM     29  C   UNL     1      33.591 -38.879   6.721  1.00  0.00     0.048 C 
ATOM     30  O   UNL     1      34.445 -38.925   7.650  1.00  0.00    -0.550 OA
ATOM     31  O   UNL     1      32.287 -38.512   7.042  1.00  0.00    -0.550 OA
ENDBRANCH   1  29
BRANCH  25  32
ATOM     32  C   UNL     1      32.230 -42.195  -4.150  1.00  0.00     0.165 C 
BRANCH  32  33
ATOM     33  O   UNL     1      32.411 -40.812  -4.339  1.00  0.00    -0.396 OA
ATOM     34  H   UNL     1      31.516 -40.389  -4.276  1.00  0.00     0.210 HD
ENDBRANCH  32  33
ENDBRANCH  25  32
BRANCH  27  35
ATOM     35  O   UNL     1      34.474 -44.113  -4.301  1.00  0.00    -0.392 OA
ATOM     36  H   UNL     1      33.711 -44.715  -4.091  1.00  0.00     0.210 HD
ENDBRANCH  27  35
TORSDOF 4
ENDMDL
MODEL 4
REMARK VINA RESULT:    -5.871      1.784      8.440
REMARK INTER + INTRA:          -7.397
REMARK INTER:                  -6.929
REMARK INTRA:                  -0.467
REMARK UNBOUND:                -0.496
REMARK SMILES CC1(C)CC[C@]2(C(=O)[O-])CC[C@@]3(C)C(=CC[C@@H]4[C@@]5(C)CC[C@@H](O)[C@](C)(CO)[C@H]5CC[C@@]43C)[C@@H]2C1
REMARK SMILES IDX 6 1 5 2 10 3 33 4 4 5 11 6 14 7 34 8 2 9 12 10 15 11 1 12
REMARK SMILES IDX 3 13 13 14 31 15 16 16 17 17 30 18 32 19 18 20 29 21 28 22
REMARK SMILES IDX 20 23 19 24 24 25 21 26 22 27 25 28 7 29 8 30 9 31 26 32
REMARK SMILES IDX 27 33 23 35
REMARK H PARENT 27 34 23 36
REMARK Flexibility Score: inf
ROOT
ATOM      1  C   UNL     1      39.975 -40.310  -2.581  1.00  0.00     0.017 C 
ATOM      2  C   UNL     1      39.224 -39.178  -3.376  1.00  0.00     0.014 C 
ATOM      3  C   UNL     1      38.944 -41.325  -2.015  1.00  0.00     0.014 C 
ATOM      4  C   UNL     1      40.843 -39.702  -1.425  1.00  0.00     0.028 C 
ATOM      5  C   UNL     1      39.756 -37.748  -3.157  1.00  0.00     0.007 C 
ATOM      6  C   UNL     1      38.137 -40.820  -0.804  1.00  0.00     0.013 C 
ATOM      7  C   UNL     1      39.950 -39.239  -0.245  1.00  0.00    -0.064 C 
ATOM      8  C   UNL     1      41.871 -38.667  -2.001  1.00  0.00     0.015 C 
ATOM      9  C   UNL     1      41.300 -37.663  -3.069  1.00  0.00    -0.035 C 
ATOM     10  C   UNL     1      38.990 -40.262   0.383  1.00  0.00    -0.006 C 
ATOM     11  C   UNL     1      39.993 -37.972   0.193  1.00  0.00    -0.027 C 
ATOM     12  C   UNL     1      41.692 -36.213  -2.700  1.00  0.00     0.011 C 
ATOM     13  C   UNL     1      41.918 -37.946  -4.463  1.00  0.00     0.011 C 
ATOM     14  C   UNL     1      39.849 -41.431   0.960  1.00  0.00     0.017 C 
ATOM     15  C   UNL     1      38.042 -39.646   1.563  1.00  0.00    -0.020 C 
ATOM     16  C   UNL     1      38.939 -37.328   1.022  1.00  0.00     0.032 C 
ATOM     17  C   UNL     1      37.636 -38.162   1.244  1.00  0.00     0.006 C 
ATOM     18  C   UNL     1      38.762 -39.596   2.944  1.00  0.00     0.008 C 
ATOM     19  C   UNL     1      36.791 -40.568   1.713  1.00  0.00     0.012 C 
ATOM     20  C   UNL     1      36.661 -37.431   2.299  1.00  0.00    -0.025 C 
ATOM     21  C   UNL     1      37.895 -39.054   4.089  1.00  0.00     0.005 C 
ATOM     22  C   UNL     1      36.998 -37.788   3.823  1.00  0.00     0.006 C 
ATOM     23  C   UNL     1      35.164 -37.737   1.992  1.00  0.00     0.010 C 
ATOM     24  C   UNL     1      36.788 -35.875   2.055  1.00  0.00     0.012 C 
ATOM     25  C   UNL     1      35.755 -37.724   4.850  1.00  0.00     0.020 C 
ATOM     26  C   UNL     1      34.160 -37.027   2.932  1.00  0.00     0.033 C 
ATOM     27  C   UNL     1      34.691 -36.700   4.349  1.00  0.00     0.123 C 
ATOM     28  C   UNL     1      35.034 -39.091   5.077  1.00  0.00     0.017 C 
ENDROOT
BRANCH   1  29
ATOM     29  C   UNL     1      40.858 -41.125  -3.529  1.00  0.00     0.048 C 
ATOM     30  O   UNL     1      40.640 -41.122  -4.773  1.00  0.00    -0.550 OA
ATOM     31  O   UNL     1      41.823 -41.997  -3.032  1.00  0.00    -0.550 OA
ENDBRANCH   1  29
BRANCH  25  32
ATOM     32  C   UNL     1      36.306 -37.244   6.230  1.00  0.00     0.165 C 
BRANCH  32  33
ATOM     33  O   UNL     1      35.934 -35.917   6.514  1.00  0.00    -0.396 OA
ATOM     34  H   UNL     1      35.554 -35.535   5.681  1.00  0.00     0.210 HD
ENDBRANCH  32  33
ENDBRANCH  25  32
BRANCH  27  35
ATOM     35  O   UNL     1      33.591 -36.638   5.229  1.00  0.00    -0.392 OA
ATOM     36  H   UNL     1      33.898 -36.177   6.054  1.00  0.00     0.210 HD
ENDBRANCH  27  35
TORSDOF 4
ENDMDL
MODEL 5
REMARK VINA RESULT:    -5.680      4.146      7.991
REMARK INTER + INTRA:          -7.172
REMARK INTER:                  -7.383
REMARK INTRA:                   0.211
REMARK UNBOUND:                -0.496
REMARK SMILES CC1(C)CC[C@]2(C(=O)[O-])CC[C@@]3(C)C(=CC[C@@H]4[C@@]5(C)CC[C@@H](O)[C@](C)(CO)[C@H]5CC[C@@]43C)[C@@H]2C1
REMARK SMILES IDX 6 1 5 2 10 3 33 4 4 5 11 6 14 7 34 8 2 9 12 10 15 11 1 12
REMARK SMILES IDX 3 13 13 14 31 15 16 16 17 17 30 18 32 19 18 20 29 21 28 22
REMARK SMILES IDX 20 23 19 24 24 25 21 26 22 27 25 28 7 29 8 30 9 31 26 32
REMARK SMILES IDX 27 33 23 35
REMARK H PARENT 27 34 23 36
REMARK Flexibility Score: inf
ROOT
ATOM      1  C   UNL     1      41.032 -38.486  -0.493  1.00  0.00     0.017 C 
ATOM      2  C   UNL     1      41.893 -39.482  -1.356  1.00  0.00     0.014 C 
ATOM      3  C   UNL     1      40.240 -39.277   0.584  1.00  0.00     0.014 C 
ATOM      4  C   UNL     1      40.056 -37.659  -1.401  1.00  0.00     0.028 C 
ATOM      5  C   UNL     1      41.918 -39.198  -2.871  1.00  0.00     0.007 C 
ATOM      6  C   UNL     1      39.034 -40.072   0.047  1.00  0.00     0.013 C 
ATOM      7  C   UNL     1      38.867 -38.532  -1.878  1.00  0.00    -0.064 C 
ATOM      8  C   UNL     1      40.860 -36.876  -2.496  1.00  0.00     0.015 C 
ATOM      9  C   UNL     1      41.992 -37.692  -3.222  1.00  0.00    -0.035 C 
ATOM     10  C   UNL     1      38.019 -39.248  -0.813  1.00  0.00    -0.006 C 
ATOM     11  C   UNL     1      38.607 -38.684  -3.185  1.00  0.00    -0.027 C 
ATOM     12  C   UNL     1      41.857 -37.538  -4.755  1.00  0.00     0.011 C 
ATOM     13  C   UNL     1      43.389 -37.135  -2.843  1.00  0.00     0.011 C 
ATOM     14  C   UNL     1      37.378 -38.155   0.099  1.00  0.00     0.017 C 
ATOM     15  C   UNL     1      36.845 -40.203  -1.430  1.00  0.00    -0.020 C 
ATOM     16  C   UNL     1      37.773 -39.774  -3.759  1.00  0.00     0.032 C 
ATOM     17  C   UNL     1      37.318 -40.887  -2.763  1.00  0.00     0.006 C 
ATOM     18  C   UNL     1      35.559 -39.405  -1.802  1.00  0.00     0.008 C 
ATOM     19  C   UNL     1      36.454 -41.255  -0.346  1.00  0.00     0.012 C 
ATOM     20  C   UNL     1      36.279 -41.898  -3.470  1.00  0.00    -0.025 C 
ATOM     21  C   UNL     1      34.418 -40.270  -2.355  1.00  0.00     0.005 C 
ATOM     22  C   UNL     1      34.761 -41.395  -3.402  1.00  0.00     0.006 C 
ATOM     23  C   UNL     1      36.397 -43.336  -2.878  1.00  0.00     0.010 C 
ATOM     24  C   UNL     1      36.739 -42.068  -4.972  1.00  0.00     0.012 C 
ATOM     25  C   UNL     1      33.637 -42.551  -3.409  1.00  0.00     0.020 C 
ATOM     26  C   UNL     1      35.467 -44.379  -3.542  1.00  0.00     0.033 C 
ATOM     27  C   UNL     1      34.164 -43.814  -4.158  1.00  0.00     0.123 C 
ATOM     28  C   UNL     1      33.162 -43.000  -1.990  1.00  0.00     0.017 C 
ENDROOT
BRANCH   1  29
ATOM     29  C   UNL     1      41.944 -37.543   0.294  1.00  0.00     0.048 C 
ATOM     30  O   UNL     1      43.158 -37.834   0.485  1.00  0.00    -0.550 OA
ATOM     31  O   UNL     1      41.426 -36.423   0.938  1.00  0.00    -0.550 OA
ENDBRANCH   1  29
BRANCH  25  32
ATOM     32  C   UNL     1      32.392 -41.997  -4.172  1.00  0.00     0.165 C 
BRANCH  32  33
ATOM     33  O   UNL     1      32.485 -40.610  -4.396  1.00  0.00    -0.396 OA
ATOM     34  H   UNL     1      31.952 -40.409  -5.209  1.00  0.00     0.210 HD
ENDBRANCH  32  33
ENDBRANCH  25  32
BRANCH  27  35
ATOM     35  O   UNL     1      33.198 -44.841  -4.166  1.00  0.00    -0.392 OA
ATOM     36  H   UNL     1      33.165 -45.210  -5.089  1.00  0.00     0.210 HD
ENDBRANCH  27  35
TORSDOF 4
ENDMDL
MODEL 6
REMARK VINA RESULT:    -5.662      4.304      7.890
REMARK INTER + INTRA:          -7.152
REMARK INTER:                  -6.674
REMARK INTRA:                  -0.478
REMARK UNBOUND:                -0.496
REMARK SMILES CC1(C)CC[C@]2(C(=O)[O-])CC[C@@]3(C)C(=CC[C@@H]4[C@@]5(C)CC[C@@H](O)[C@](C)(CO)[C@H]5CC[C@@]43C)[C@@H]2C1
REMARK SMILES IDX 6 1 5 2 10 3 33 4 4 5 11 6 14 7 34 8 2 9 12 10 15 11 1 12
REMARK SMILES IDX 3 13 13 14 31 15 16 16 17 17 30 18 32 19 18 20 29 21 28 22
REMARK SMILES IDX 20 23 19 24 24 25 21 26 22 27 25 28 7 29 8 30 9 31 26 32
REMARK SMILES IDX 27 33 23 35
REMARK H PARENT 27 34 23 36
REMARK Flexibility Score: inf
ROOT
ATOM      1  C   UNL     1      42.546 -38.486   0.136  1.00  0.00     0.017 C 
ATOM      2  C   UNL     1      43.185 -39.020  -1.200  1.00  0.00     0.014 C 
ATOM      3  C   UNL     1      41.937 -39.672   0.935  1.00  0.00     0.014 C 
ATOM      4  C   UNL     1      41.454 -37.400  -0.159  1.00  0.00     0.028 C 
ATOM      5  C   UNL     1      42.936 -38.151  -2.448  1.00  0.00     0.007 C 
ATOM      6  C   UNL     1      40.617 -40.226   0.365  1.00  0.00     0.013 C 
ATOM      7  C   UNL     1      40.159 -38.050  -0.711  1.00  0.00    -0.064 C 
ATOM      8  C   UNL     1      42.072 -36.215  -0.980  1.00  0.00     0.015 C 
ATOM      9  C   UNL     1      43.009 -36.628  -2.173  1.00  0.00    -0.035 C 
ATOM     10  C   UNL     1      39.496 -39.162   0.117  1.00  0.00    -0.006 C 
ATOM     11  C   UNL     1      39.651 -37.672  -1.894  1.00  0.00    -0.027 C 
ATOM     12  C   UNL     1      42.595 -35.876  -3.459  1.00  0.00     0.011 C 
ATOM     13  C   UNL     1      44.476 -36.221  -1.876  1.00  0.00     0.011 C 
ATOM     14  C   UNL     1      39.087 -38.552   1.495  1.00  0.00     0.017 C 
ATOM     15  C   UNL     1      38.186 -39.830  -0.595  1.00  0.00    -0.020 C 
ATOM     16  C   UNL     1      38.676 -38.468  -2.687  1.00  0.00     0.032 C 
ATOM     17  C   UNL     1      38.368 -39.904  -2.154  1.00  0.00     0.006 C 
ATOM     18  C   UNL     1      36.889 -38.997  -0.364  1.00  0.00     0.008 C 
ATOM     19  C   UNL     1      37.960 -41.243   0.029  1.00  0.00     0.012 C 
ATOM     20  C   UNL     1      37.171 -40.582  -2.995  1.00  0.00    -0.025 C 
ATOM     21  C   UNL     1      35.627 -39.607  -0.989  1.00  0.00     0.005 C 
ATOM     22  C   UNL     1      35.716 -40.203  -2.444  1.00  0.00     0.006 C 
ATOM     23  C   UNL     1      37.335 -42.131  -3.064  1.00  0.00     0.010 C 
ATOM     24  C   UNL     1      37.332 -40.118  -4.497  1.00  0.00     0.012 C 
ATOM     25  C   UNL     1      34.561 -41.299  -2.700  1.00  0.00     0.020 C 
ATOM     26  C   UNL     1      36.250 -42.852  -3.900  1.00  0.00     0.033 C 
ATOM     27  C   UNL     1      34.881 -42.135  -3.978  1.00  0.00     0.123 C 
ATOM     28  C   UNL     1      34.343 -42.296  -1.518  1.00  0.00     0.017 C 
ENDROOT
BRANCH   1  29
ATOM     29  C   UNL     1      43.632 -37.907   1.047  1.00  0.00     0.048 C 
ATOM     30  O   UNL     1      44.850 -38.168   0.840  1.00  0.00    -0.550 OA
ATOM     31  O   UNL     1      43.295 -37.205   2.201  1.00  0.00    -0.550 OA
ENDBRANCH   1  29
BRANCH  25  32
ATOM     32  C   UNL     1      33.221 -40.529  -2.924  1.00  0.00     0.165 C 
BRANCH  32  33
ATOM     33  O   UNL     1      32.926 -40.369  -4.291  1.00  0.00    -0.396 OA
ATOM     34  H   UNL     1      33.272 -39.479  -4.562  1.00  0.00     0.210 HD
ENDBRANCH  32  33
ENDBRANCH  25  32
BRANCH  27  35
ATOM     35  O   UNL     1      33.887 -43.106  -4.213  1.00  0.00    -0.392 OA
ATOM     36  H   UNL     1      33.502 -43.355  -3.330  1.00  0.00     0.210 HD
ENDBRANCH  27  35
TORSDOF 4
ENDMDL
MODEL 7
REMARK VINA RESULT:    -5.624      4.034      6.125
REMARK INTER + INTRA:          -7.106
REMARK INTER:                  -6.640
REMARK INTRA:                  -0.466
REMARK UNBOUND:                -0.496
REMARK SMILES CC1(C)CC[C@]2(C(=O)[O-])CC[C@@]3(C)C(=CC[C@@H]4[C@@]5(C)CC[C@@H](O)[C@](C)(CO)[C@H]5CC[C@@]43C)[C@@H]2C1
REMARK SMILES IDX 6 1 5 2 10 3 33 4 4 5 11 6 14 7 34 8 2 9 12 10 15 11 1 12
REMARK SMILES IDX 3 13 13 14 31 15 16 16 17 17 30 18 32 19 18 20 29 21 28 22
REMARK SMILES IDX 20 23 19 24 24 25 21 26 22 27 25 28 7 29 8 30 9 31 26 32
REMARK SMILES IDX 27 33 23 35
REMARK H PARENT 27 34 23 36
REMARK Flexibility Score: inf
ROOT
ATOM      1  C   UNL     1      34.963 -39.073   6.175  1.00  0.00     0.017 C 
ATOM      2  C   UNL     1      35.926 -40.310   6.318  1.00  0.00     0.014 C 
ATOM      3  C   UNL     1      33.508 -39.566   5.944  1.00  0.00     0.014 C 
ATOM      4  C   UNL     1      35.422 -38.138   5.003  1.00  0.00     0.028 C 
ATOM      5  C   UNL     1      37.285 -40.180   5.603  1.00  0.00     0.007 C 
ATOM      6  C   UNL     1      33.229 -40.120   4.533  1.00  0.00     0.013 C 
ATOM      7  C   UNL     1      35.086 -38.767   3.626  1.00  0.00    -0.064 C 
ATOM      8  C   UNL     1      36.897 -37.657   5.234  1.00  0.00     0.015 C 
ATOM      9  C   UNL     1      37.909 -38.766   5.702  1.00  0.00    -0.035 C 
ATOM     10  C   UNL     1      33.629 -39.175   3.352  1.00  0.00    -0.006 C 
ATOM     11  C   UNL     1      36.046 -38.977   2.714  1.00  0.00    -0.027 C 
ATOM     12  C   UNL     1      39.182 -38.729   4.824  1.00  0.00     0.011 C 
ATOM     13  C   UNL     1      38.370 -38.500   7.159  1.00  0.00     0.011 C 
ATOM     14  C   UNL     1      32.749 -37.888   3.435  1.00  0.00     0.017 C 
ATOM     15  C   UNL     1      33.403 -39.900   1.904  1.00  0.00    -0.020 C 
ATOM     16  C   UNL     1      35.923 -39.904   1.556  1.00  0.00     0.032 C 
ATOM     17  C   UNL     1      34.639 -40.792   1.522  1.00  0.00     0.006 C 
ATOM     18  C   UNL     1      33.251 -38.875   0.740  1.00  0.00     0.008 C 
ATOM     19  C   UNL     1      32.087 -40.735   1.978  1.00  0.00     0.012 C 
ATOM     20  C   UNL     1      34.545 -41.609   0.135  1.00  0.00    -0.025 C 
ATOM     21  C   UNL     1      33.003 -39.513  -0.633  1.00  0.00     0.005 C 
ATOM     22  C   UNL     1      33.848 -40.778  -1.043  1.00  0.00     0.006 C 
ATOM     23  C   UNL     1      33.822 -42.976   0.331  1.00  0.00     0.010 C 
ATOM     24  C   UNL     1      36.017 -42.015  -0.271  1.00  0.00     0.012 C 
ATOM     25  C   UNL     1      33.087 -41.653  -2.164  1.00  0.00     0.020 C 
ATOM     26  C   UNL     1      33.737 -43.845  -0.946  1.00  0.00     0.033 C 
ATOM     27  C   UNL     1      33.739 -43.065  -2.284  1.00  0.00     0.123 C 
ATOM     28  C   UNL     1      31.560 -41.852  -1.902  1.00  0.00     0.017 C 
ENDROOT
BRANCH   1  29
ATOM     29  C   UNL     1      34.914 -38.287   7.487  1.00  0.00     0.048 C 
ATOM     30  O   UNL     1      35.246 -38.832   8.576  1.00  0.00    -0.550 OA
ATOM     31  O   UNL     1      34.367 -37.007   7.531  1.00  0.00    -0.550 OA
ENDBRANCH   1  29
BRANCH  25  32
ATOM     32  C   UNL     1      33.241 -40.910  -3.528  1.00  0.00     0.165 C 
BRANCH  32  33
ATOM     33  O   UNL     1      32.137 -41.125  -4.375  1.00  0.00    -0.396 OA
ATOM     34  H   UNL     1      31.795 -40.233  -4.641  1.00  0.00     0.210 HD
ENDBRANCH  32  33
ENDBRANCH  25  32
BRANCH  27  35
ATOM     35  O   UNL     1      33.081 -43.849  -3.253  1.00  0.00    -0.392 OA
ATOM     36  H   UNL     1      33.398 -44.785  -3.142  1.00  0.00     0.210 HD
ENDBRANCH  27  35
TORSDOF 4
ENDMDL
MODEL 8
REMARK VINA RESULT:    -5.561      1.840      8.370
REMARK INTER + INTRA:          -7.033
REMARK INTER:                  -6.555
REMARK INTRA:                  -0.478
REMARK UNBOUND:                -0.496
REMARK SMILES CC1(C)CC[C@]2(C(=O)[O-])CC[C@@]3(C)C(=CC[C@@H]4[C@@]5(C)CC[C@@H](O)[C@](C)(CO)[C@H]5CC[C@@]43C)[C@@H]2C1
REMARK SMILES IDX 6 1 5 2 10 3 33 4 4 5 11 6 14 7 34 8 2 9 12 10 15 11 1 12
REMARK SMILES IDX 3 13 13 14 31 15 16 16 17 17 30 18 32 19 18 20 29 21 28 22
REMARK SMILES IDX 20 23 19 24 24 25 21 26 22 27 25 28 7 29 8 30 9 31 26 32
REMARK SMILES IDX 27 33 23 35
REMARK H PARENT 27 34 23 36
REMARK Flexibility Score: inf
ROOT
ATOM      1  C   UNL     1      39.803 -39.110   0.865  1.00  0.00     0.017 C 
ATOM      2  C   UNL     1      38.940 -39.481  -0.399  1.00  0.00     0.014 C 
ATOM      3  C   UNL     1      39.559 -40.153   1.990  1.00  0.00     0.014 C 
ATOM      4  C   UNL     1      39.465 -37.664   1.369  1.00  0.00     0.028 C 
ATOM      5  C   UNL     1      38.264 -38.295  -1.112  1.00  0.00     0.007 C 
ATOM      6  C   UNL     1      38.202 -40.024   2.709  1.00  0.00     0.013 C 
ATOM      7  C   UNL     1      38.094 -37.634   2.093  1.00  0.00    -0.064 C 
ATOM      8  C   UNL     1      39.698 -36.618   0.224  1.00  0.00     0.015 C 
ATOM      9  C   UNL     1      39.150 -37.027  -1.193  1.00  0.00    -0.035 C 
ATOM     10  C   UNL     1      37.874 -38.600   3.269  1.00  0.00    -0.006 C 
ATOM     11  C   UNL     1      37.118 -36.811   1.683  1.00  0.00    -0.027 C 
ATOM     12  C   UNL     1      38.308 -35.876  -1.790  1.00  0.00     0.011 C 
ATOM     13  C   UNL     1      40.323 -37.272  -2.177  1.00  0.00     0.011 C 
ATOM     14  C   UNL     1      38.922 -38.255   4.373  1.00  0.00     0.017 C 
ATOM     15  C   UNL     1      36.370 -38.540   3.905  1.00  0.00    -0.020 C 
ATOM     16  C   UNL     1      35.680 -36.967   2.029  1.00  0.00     0.032 C 
ATOM     17  C   UNL     1      35.296 -38.277   2.789  1.00  0.00     0.006 C 
ATOM     18  C   UNL     1      36.200 -37.380   4.932  1.00  0.00     0.008 C 
ATOM     19  C   UNL     1      36.106 -39.883   4.657  1.00  0.00     0.012 C 
ATOM     20  C   UNL     1      33.754 -38.234   3.258  1.00  0.00    -0.025 C 
ATOM     21  C   UNL     1      34.811 -37.308   5.579  1.00  0.00     0.005 C 
ATOM     22  C   UNL     1      33.541 -37.505   4.668  1.00  0.00     0.006 C 
ATOM     23  C   UNL     1      33.133 -39.664   3.292  1.00  0.00     0.010 C 
ATOM     24  C   UNL     1      32.938 -37.495   2.125  1.00  0.00     0.012 C 
ATOM     25  C   UNL     1      32.272 -38.001   5.531  1.00  0.00     0.020 C 
ATOM     26  C   UNL     1      31.637 -39.703   3.685  1.00  0.00     0.033 C 
ATOM     27  C   UNL     1      31.153 -38.542   4.586  1.00  0.00     0.123 C 
ATOM     28  C   UNL     1      32.596 -39.116   6.575  1.00  0.00     0.017 C 
ENDROOT
BRANCH   1  29
ATOM     29  C   UNL     1      41.294 -39.218   0.537  1.00  0.00     0.048 C 
ATOM     30  O   UNL     1      41.683 -39.841  -0.490  1.00  0.00    -0.550 OA
ATOM     31  O   UNL     1      42.256 -38.762   1.434  1.00  0.00    -0.550 OA
ENDBRANCH   1  29
BRANCH  25  32
ATOM     32  C   UNL     1      31.719 -36.766   6.310  1.00  0.00     0.165 C 
BRANCH  32  33
ATOM     33  O   UNL     1      30.620 -36.177   5.657  1.00  0.00    -0.396 OA
ATOM     34  H   UNL     1      30.872 -35.240   5.450  1.00  0.00     0.210 HD
ENDBRANCH  32  33
ENDBRANCH  25  32
BRANCH  27  35
ATOM     35  O   UNL     1      30.038 -38.990   5.324  1.00  0.00    -0.392 OA
ATOM     36  H   UNL     1      29.695 -38.213   5.841  1.00  0.00     0.210 HD
ENDBRANCH  27  35
TORSDOF 4
ENDMDL
MODEL 9
REMARK VINA RESULT:    -5.551      2.656      8.570
REMARK INTER + INTRA:          -7.020
REMARK INTER:                  -6.533
REMARK INTRA:                  -0.487
REMARK UNBOUND:                -0.496
REMARK SMILES CC1(C)CC[C@]2(C(=O)[O-])CC[C@@]3(C)C(=CC[C@@H]4[C@@]5(C)CC[C@@H](O)[C@](C)(CO)[C@H]5CC[C@@]43C)[C@@H]2C1
REMARK SMILES IDX 6 1 5 2 10 3 33 4 4 5 11 6 14 7 34 8 2 9 12 10 15 11 1 12
REMARK SMILES IDX 3 13 13 14 31 15 16 16 17 17 30 18 32 19 18 20 29 21 28 22
REMARK SMILES IDX 20 23 19 24 24 25 21 26 22 27 25 28 7 29 8 30 9 31 26 32
REMARK SMILES IDX 27 33 23 35
REMARK H PARENT 27 34 23 36
REMARK Flexibility Score: inf
ROOT
ATOM      1  C   UNL     1      36.581 -41.306  -1.471  1.00  0.00     0.017 C 
ATOM      2  C   UNL     1      35.665 -42.585  -1.404  1.00  0.00     0.014 C 
ATOM      3  C   UNL     1      37.423 -41.196  -0.170  1.00  0.00     0.014 C 
ATOM      4  C   UNL     1      35.721 -40.011  -1.684  1.00  0.00     0.028 C 
ATOM      5  C   UNL     1      34.229 -42.401  -1.932  1.00  0.00     0.007 C 
ATOM      6  C   UNL     1      36.637 -40.736   1.072  1.00  0.00     0.013 C 
ATOM      7  C   UNL     1      34.983 -39.615  -0.380  1.00  0.00    -0.064 C 
ATOM      8  C   UNL     1      34.862 -40.136  -2.990  1.00  0.00     0.015 C 
ATOM      9  C   UNL     1      34.138 -41.516  -3.199  1.00  0.00    -0.035 C 
ATOM     10  C   UNL     1      35.819 -39.414   0.895  1.00  0.00    -0.006 C 
ATOM     11  C   UNL     1      33.648 -39.483  -0.359  1.00  0.00    -0.027 C 
ATOM     12  C   UNL     1      32.645 -41.288  -3.534  1.00  0.00     0.011 C 
ATOM     13  C   UNL     1      34.751 -42.271  -4.408  1.00  0.00     0.011 C 
ATOM     14  C   UNL     1      36.823 -38.249   0.628  1.00  0.00     0.017 C 
ATOM     15  C   UNL     1      34.932 -39.077   2.226  1.00  0.00    -0.020 C 
ATOM     16  C   UNL     1      32.817 -39.497   0.875  1.00  0.00     0.032 C 
ATOM     17  C   UNL     1      33.564 -39.850   2.201  1.00  0.00     0.006 C 
ATOM     18  C   UNL     1      34.559 -37.568   2.329  1.00  0.00     0.008 C 
ATOM     19  C   UNL     1      35.781 -39.445   3.482  1.00  0.00     0.012 C 
ATOM     20  C   UNL     1      32.594 -39.653   3.474  1.00  0.00    -0.025 C 
ATOM     21  C   UNL     1      33.753 -37.202   3.583  1.00  0.00     0.005 C 
ATOM     22  C   UNL     1      32.579 -38.152   4.031  1.00  0.00     0.006 C 
ATOM     23  C   UNL     1      32.952 -40.649   4.618  1.00  0.00     0.010 C 
ATOM     24  C   UNL     1      31.142 -40.092   3.030  1.00  0.00     0.012 C 
ATOM     25  C   UNL     1      32.262 -37.990   5.604  1.00  0.00     0.020 C 
ATOM     26  C   UNL     1      32.031 -40.557   5.858  1.00  0.00     0.033 C 
ATOM     27  C   UNL     1      31.378 -39.175   6.103  1.00  0.00     0.123 C 
ATOM     28  C   UNL     1      33.530 -37.922   6.515  1.00  0.00     0.017 C 
ENDROOT
BRANCH   1  29
ATOM     29  C   UNL     1      37.606 -41.448  -2.600  1.00  0.00     0.048 C 
ATOM     30  O   UNL     1      37.913 -42.588  -3.049  1.00  0.00    -0.550 OA
ATOM     31  O   UNL     1      38.325 -40.346  -3.052  1.00  0.00    -0.550 OA
ENDBRANCH   1  29
BRANCH  25  32
ATOM     32  C   UNL     1      31.471 -36.657   5.793  1.00  0.00     0.165 C 
BRANCH  32  33
ATOM     33  O   UNL     1      30.085 -36.837   5.621  1.00  0.00    -0.396 OA
ATOM     34  H   UNL     1      29.814 -36.283   4.844  1.00  0.00     0.210 HD
ENDBRANCH  32  33
ENDBRANCH  25  32
BRANCH  27  35
ATOM     35  O   UNL     1      31.099 -39.057   7.480  1.00  0.00    -0.392 OA
ATOM     36  H   UNL     1      31.837 -38.529   7.887  1.00  0.00     0.210 HD
ENDBRANCH  27  35
TORSDOF 4
ENDMDL
