MODEL 1
REMARK VINA RESULT:    -4.749      0.000      0.000
REMARK INTER + INTRA:          -5.177
REMARK INTER:                  -5.027
REMARK INTRA:                  -0.150
REMARK UNBOUND:                -0.150
REMARK SMILES CC1=CC=C(C(C)C)CC1
REMARK SMILES IDX 1 1 2 2 3 3 4 4 5 5 9 6 10 7 6 8 7 9 8 10
REMARK H PARENT
REMARK Flexibility Score: inf
ROOT
ATOM      1  C   UNL     1      50.911  46.900  43.204  1.00  0.00     0.039 C 
ATOM      2  C   UNL     1      52.334  46.450  43.044  1.00  0.00    -0.073 C 
ATOM      3  C   UNL     1      52.640  45.508  42.139  1.00  0.00    -0.001 C 
ATOM      4  C   UNL     1      54.030  45.047  41.970  1.00  0.00    -0.001 C 
ATOM      5  C   UNL     1      54.986  45.384  42.857  1.00  0.00    -0.067 C 
ATOM      6  C   UNL     1      54.597  46.153  44.103  1.00  0.00     0.035 C 
ATOM      7  C   UNL     1      53.439  47.124  43.824  1.00  0.00     0.035 C 
ENDROOT
BRANCH   5   8
ATOM      8  C   UNL     1      56.423  44.930  42.680  1.00  0.00     0.009 C 
ATOM      9  C   UNL     1      57.195  45.883  41.760  1.00  0.00     0.012 C 
ATOM     10  C   UNL     1      56.498  43.486  42.168  1.00  0.00     0.012 C 
ENDBRANCH   5   8
TORSDOF 1
ENDMDL
MODEL 2
REMARK VINA RESULT:    -4.444      1.365      4.999
REMARK INTER + INTRA:          -4.854
REMARK INTER:                  -4.701
REMARK INTRA:                  -0.152
REMARK UNBOUND:                -0.150
REMARK SMILES CC1=CC=C(C(C)C)CC1
REMARK SMILES IDX 1 1 2 2 3 3 4 4 5 5 9 6 10 7 6 8 7 9 8 10
REMARK H PARENT
REMARK Flexibility Score: inf
ROOT
ATOM      1  C   UNL     1      59.647  44.133  40.848  1.00  0.00     0.039 C 
ATOM      2  C   UNL     1      58.283  44.465  41.379  1.00  0.00    -0.073 C 
ATOM      3  C   UNL     1      57.851  45.735  41.364  1.00  0.00    -0.001 C 
ATOM      4  C   UNL     1      56.517  46.085  41.886  1.00  0.00    -0.001 C 
ATOM      5  C   UNL     1      55.792  45.195  42.591  1.00  0.00    -0.067 C 
ATOM      6  C   UNL     1      56.410  43.856  42.943  1.00  0.00     0.035 C 
ATOM      7  C   UNL     1      57.354  43.365  41.835  1.00  0.00     0.035 C 
ENDROOT
BRANCH   5   8
ATOM      8  C   UNL     1      54.411  45.539  43.115  1.00  0.00     0.009 C 
ATOM      9  C   UNL     1      53.328  45.213  42.079  1.00  0.00     0.012 C 
ATOM     10  C   UNL     1      54.327  47.005  43.560  1.00  0.00     0.012 C 
ENDBRANCH   5   8
TORSDOF 1
ENDMDL
MODEL 3
REMARK VINA RESULT:    -4.439      1.784      3.288
REMARK INTER + INTRA:          -4.849
REMARK INTER:                  -4.704
REMARK INTRA:                  -0.145
REMARK UNBOUND:                -0.150
REMARK SMILES CC1=CC=C(C(C)C)CC1
REMARK SMILES IDX 1 1 2 2 3 3 4 4 5 5 9 6 10 7 6 8 7 9 8 10
REMARK H PARENT
REMARK Flexibility Score: inf
ROOT
ATOM      1  C   UNL     1      53.802  45.989  43.213  1.00  0.00     0.039 C 
ATOM      2  C   UNL     1      55.157  45.487  42.803  1.00  0.00    -0.073 C 
ATOM      3  C   UNL     1      56.057  46.337  42.287  1.00  0.00    -0.001 C 
ATOM      4  C   UNL     1      57.391  45.864  41.873  1.00  0.00    -0.001 C 
ATOM      5  C   UNL     1      57.665  44.548  41.787  1.00  0.00    -0.067 C 
ATOM      6  C   UNL     1      56.550  43.547  42.014  1.00  0.00     0.035 C 
ATOM      7  C   UNL     1      55.548  44.050  43.064  1.00  0.00     0.035 C 
ENDROOT
BRANCH   5   8
ATOM      8  C   UNL     1      59.040  44.052  41.381  1.00  0.00     0.009 C 
ATOM      9  C   UNL     1      59.513  44.728  40.089  1.00  0.00     0.012 C 
ATOM     10  C   UNL     1      59.070  42.523  41.249  1.00  0.00     0.012 C 
ENDBRANCH   5   8
TORSDOF 1
ENDMDL
MODEL 4
REMARK VINA RESULT:    -4.378      1.789      3.197
REMARK INTER + INTRA:          -4.784
REMARK INTER:                  -4.639
REMARK INTRA:                  -0.145
REMARK UNBOUND:                -0.150
REMARK SMILES CC1=CC=C(C(C)C)CC1
REMARK SMILES IDX 1 1 2 2 3 3 4 4 5 5 9 6 10 7 6 8 7 9 8 10
REMARK H PARENT
REMARK Flexibility Score: inf
ROOT
ATOM      1  C   UNL     1      53.810  46.052  43.265  1.00  0.00     0.039 C 
ATOM      2  C   UNL     1      55.052  45.396  42.735  1.00  0.00    -0.073 C 
ATOM      3  C   UNL     1      55.102  44.062  42.610  1.00  0.00    -0.001 C 
ATOM      4  C   UNL     1      56.314  43.396  42.097  1.00  0.00    -0.001 C 
ATOM      5  C   UNL     1      57.470  44.072  41.956  1.00  0.00    -0.067 C 
ATOM      6  C   UNL     1      57.548  45.507  42.438  1.00  0.00     0.035 C 
ATOM      7  C   UNL     1      56.209  46.237  42.247  1.00  0.00     0.035 C 
ENDROOT
BRANCH   5   8
ATOM      8  C   UNL     1      58.716  43.401  41.411  1.00  0.00     0.009 C 
ATOM      9  C   UNL     1      59.673  43.006  42.542  1.00  0.00     0.012 C 
ATOM     10  C   UNL     1      59.422  44.283  40.372  1.00  0.00     0.012 C 
ENDBRANCH   5   8
TORSDOF 1
ENDMDL
MODEL 5
REMARK VINA RESULT:    -4.335      1.357      4.885
REMARK INTER + INTRA:          -4.738
REMARK INTER:                  -4.594
REMARK INTRA:                  -0.144
REMARK UNBOUND:                -0.150
REMARK SMILES CC1=CC=C(C(C)C)CC1
REMARK SMILES IDX 1 1 2 2 3 3 4 4 5 5 9 6 10 7 6 8 7 9 8 10
REMARK H PARENT
REMARK Flexibility Score: inf
ROOT
ATOM      1  C   UNL     1      59.655  43.960  41.141  1.00  0.00     0.039 C 
ATOM      2  C   UNL     1      58.302  44.327  41.677  1.00  0.00    -0.073 C 
ATOM      3  C   UNL     1      57.386  43.370  41.892  1.00  0.00    -0.001 C 
ATOM      4  C   UNL     1      56.048  43.709  42.412  1.00  0.00    -0.001 C 
ATOM      5  C   UNL     1      55.630  44.988  42.471  1.00  0.00    -0.067 C 
ATOM      6  C   UNL     1      56.508  46.078  41.889  1.00  0.00     0.035 C 
ATOM      7  C   UNL     1      57.999  45.754  42.070  1.00  0.00     0.035 C 
ENDROOT
BRANCH   5   8
ATOM      8  C   UNL     1      54.263  45.348  43.022  1.00  0.00     0.009 C 
ATOM      9  C   UNL     1      53.196  45.318  41.922  1.00  0.00     0.012 C 
ATOM     10  C   UNL     1      54.284  46.706  43.736  1.00  0.00     0.012 C 
ENDBRANCH   5   8
TORSDOF 1
ENDMDL
MODEL 6
REMARK VINA RESULT:    -4.043      1.987      3.447
REMARK INTER + INTRA:          -4.430
REMARK INTER:                  -4.281
REMARK INTRA:                  -0.148
REMARK UNBOUND:                -0.150
REMARK SMILES CC1=CC=C(C(C)C)CC1
REMARK SMILES IDX 1 1 2 2 3 3 4 4 5 5 9 6 10 7 6 8 7 9 8 10
REMARK H PARENT
REMARK Flexibility Score: inf
ROOT
ATOM      1  C   UNL     1      53.962  42.230  42.624  1.00  0.00     0.039 C 
ATOM      2  C   UNL     1      54.833  43.452  42.606  1.00  0.00    -0.073 C 
ATOM      3  C   UNL     1      54.275  44.670  42.537  1.00  0.00    -0.001 C 
ATOM      4  C   UNL     1      55.112  45.884  42.512  1.00  0.00    -0.001 C 
ATOM      5  C   UNL     1      56.445  45.805  42.331  1.00  0.00    -0.067 C 
ATOM      6  C   UNL     1      57.069  44.455  42.037  1.00  0.00     0.035 C 
ATOM      7  C   UNL     1      56.330  43.324  42.768  1.00  0.00     0.035 C 
ENDROOT
BRANCH   5   8
ATOM      8  C   UNL     1      57.316  47.046  42.323  1.00  0.00     0.009 C 
ATOM      9  C   UNL     1      58.167  47.119  41.050  1.00  0.00     0.012 C 
ATOM     10  C   UNL     1      58.194  47.125  43.579  1.00  0.00     0.012 C 
ENDBRANCH   5   8
TORSDOF 1
ENDMDL
MODEL 7
REMARK VINA RESULT:    -3.961      2.209      5.551
REMARK INTER + INTRA:          -4.343
REMARK INTER:                  -4.198
REMARK INTRA:                  -0.145
REMARK UNBOUND:                -0.150
REMARK SMILES CC1=CC=C(C(C)C)CC1
REMARK SMILES IDX 1 1 2 2 3 3 4 4 5 5 9 6 10 7 6 8 7 9 8 10
REMARK H PARENT
REMARK Flexibility Score: inf
ROOT
ATOM      1  C   UNL     1      60.963  44.049  42.632  1.00  0.00     0.039 C 
ATOM      2  C   UNL     1      59.467  44.065  42.758  1.00  0.00    -0.073 C 
ATOM      3  C   UNL     1      58.828  42.999  43.262  1.00  0.00    -0.001 C 
ATOM      4  C   UNL     1      57.359  42.990  43.389  1.00  0.00    -0.001 C 
ATOM      5  C   UNL     1      56.606  43.941  42.803  1.00  0.00    -0.067 C 
ATOM      6  C   UNL     1      57.277  44.965  41.911  1.00  0.00     0.035 C 
ATOM      7  C   UNL     1      58.686  45.312  42.415  1.00  0.00     0.035 C 
ENDROOT
BRANCH   5   8
ATOM      8  C   UNL     1      55.095  43.951  42.944  1.00  0.00     0.009 C 
ATOM      9  C   UNL     1      54.476  42.676  42.359  1.00  0.00     0.012 C 
ATOM     10  C   UNL     1      54.480  45.206  42.312  1.00  0.00     0.012 C 
ENDBRANCH   5   8
TORSDOF 1
ENDMDL
MODEL 8
REMARK VINA RESULT:    -3.754      2.502      5.765
REMARK INTER + INTRA:          -4.124
REMARK INTER:                  -3.975
REMARK INTRA:                  -0.149
REMARK UNBOUND:                -0.150
REMARK SMILES CC1=CC=C(C(C)C)CC1
REMARK SMILES IDX 1 1 2 2 3 3 4 4 5 5 9 6 10 7 6 8 7 9 8 10
REMARK H PARENT
REMARK Flexibility Score: inf
ROOT
ATOM      1  C   UNL     1      61.083  42.635  43.240  1.00  0.00     0.039 C 
ATOM      2  C   UNL     1      59.633  42.943  43.003  1.00  0.00    -0.073 C 
ATOM      3  C   UNL     1      59.222  43.334  41.787  1.00  0.00    -0.001 C 
ATOM      4  C   UNL     1      57.804  43.648  41.533  1.00  0.00    -0.001 C 
ATOM      5  C   UNL     1      56.929  43.772  42.550  1.00  0.00    -0.067 C 
ATOM      6  C   UNL     1      57.438  43.697  43.975  1.00  0.00     0.035 C 
ATOM      7  C   UNL     1      58.617  42.719  44.099  1.00  0.00     0.035 C 
ENDROOT
BRANCH   5   8
ATOM      8  C   UNL     1      55.464  44.076  42.297  1.00  0.00     0.009 C 
ATOM      9  C   UNL     1      54.951  45.162  43.250  1.00  0.00     0.012 C 
ATOM     10  C   UNL     1      54.603  42.809  42.389  1.00  0.00     0.012 C 
ENDBRANCH   5   8
TORSDOF 1
ENDMDL
MODEL 9
REMARK VINA RESULT:    -3.506     21.979     23.702
REMARK INTER + INTRA:          -3.861
REMARK INTER:                  -3.715
REMARK INTRA:                  -0.147
REMARK UNBOUND:                -0.150
REMARK SMILES CC1=CC=C(C(C)C)CC1
REMARK SMILES IDX 1 1 2 2 3 3 4 4 5 5 9 6 10 7 6 8 7 9 8 10
REMARK H PARENT
REMARK Flexibility Score: inf
ROOT
ATOM      1  C   UNL     1      57.628  26.875  26.183  1.00  0.00     0.039 C 
ATOM      2  C   UNL     1      56.668  28.027  26.110  1.00  0.00    -0.073 C 
ATOM      3  C   UNL     1      56.803  29.064  26.950  1.00  0.00    -0.001 C 
ATOM      4  C   UNL     1      55.868  30.204  26.899  1.00  0.00    -0.001 C 
ATOM      5  C   UNL     1      54.733  30.138  26.176  1.00  0.00    -0.067 C 
ATOM      6  C   UNL     1      54.365  28.833  25.500  1.00  0.00     0.035 C 
ATOM      7  C   UNL     1      55.614  28.073  25.028  1.00  0.00     0.035 C 
ENDROOT
BRANCH   5   8
ATOM      8  C   UNL     1      53.775  31.312  26.102  1.00  0.00     0.009 C 
ATOM      9  C   UNL     1      52.416  30.958  26.717  1.00  0.00     0.012 C 
ATOM     10  C   UNL     1      53.615  31.818  24.662  1.00  0.00     0.012 C 
ENDBRANCH   5   8
TORSDOF 1
ENDMDL
