MODEL 1
REMARK VINA RESULT:    -3.522      0.000      0.000
REMARK INTER + INTRA:          -5.099
REMARK INTER:                  -4.963
REMARK INTRA:                  -0.137
REMARK UNBOUND:                -0.137
REMARK SMILES CCCCCCCCC(=O)[O-]
REMARK SMILES IDX 6 1 7 2 8 3 9 4 10 5 11 6 5 7 4 8 3 9 2 10 1 11
REMARK H PARENT
REMARK Flexibility Score: inf
ROOT
ATOM      1  C   UNL     1       8.406   0.234  45.812  1.00  0.00     0.000 C 
ENDROOT
BRANCH   1   2
ATOM      2  C   UNL     1       7.732   1.138  44.765  1.00  0.00     0.006 C 
BRANCH   2   3
ATOM      3  C   UNL     1       6.245   0.830  44.525  1.00  0.00     0.053 C 
BRANCH   3   4
ATOM      4  C   UNL     1       5.495   2.029  44.033  1.00  0.00     0.041 C 
ATOM      5  O   UNL     1       4.276   1.934  43.732  1.00  0.00    -0.550 OA
ATOM      6  O   UNL     1       6.133   3.259  43.940  1.00  0.00    -0.550 OA
ENDBRANCH   3   4
ENDBRANCH   2   3
ENDBRANCH   1   2
BRANCH   1   7
ATOM      7  C   UNL     1       9.873   0.609  46.068  1.00  0.00     0.000 C 
BRANCH   7   8
ATOM      8  C   UNL     1      10.811  -0.539  45.661  1.00  0.00    -0.000 C 
BRANCH   8   9
ATOM      9  C   UNL     1      12.281  -0.100  45.574  1.00  0.00    -0.000 C 
BRANCH   9  10
ATOM     10  C   UNL     1      13.019  -0.736  44.386  1.00  0.00    -0.003 C 
ATOM     11  C   UNL     1      14.509  -0.417  44.430  1.00  0.00     0.004 C 
ENDBRANCH   9  10
ENDBRANCH   8   9
ENDBRANCH   7   8
ENDBRANCH   1   7
TORSDOF 7
ENDMDL
MODEL 2
REMARK VINA RESULT:    -3.408      9.637     11.644
REMARK INTER + INTRA:          -4.940
REMARK INTER:                  -4.277
REMARK INTRA:                  -0.663
REMARK UNBOUND:                -0.137
REMARK SMILES CCCCCCCCC(=O)[O-]
REMARK SMILES IDX 6 1 7 2 8 3 9 4 10 5 11 6 5 7 4 8 3 9 2 10 1 11
REMARK H PARENT
REMARK Flexibility Score: inf
ROOT
ATOM      1  C   UNL     1      17.205   0.660  36.706  1.00  0.00     0.000 C 
ENDROOT
BRANCH   1   2
ATOM      2  C   UNL     1      16.621  -0.487  35.861  1.00  0.00     0.006 C 
BRANCH   2   3
ATOM      3  C   UNL     1      15.199  -0.228  35.338  1.00  0.00     0.053 C 
BRANCH   3   4
ATOM      4  C   UNL     1      15.119  -0.348  33.848  1.00  0.00     0.041 C 
ATOM      5  O   UNL     1      16.147  -0.633  33.179  1.00  0.00    -0.550 OA
ATOM      6  O   UNL     1      13.901  -0.179  33.201  1.00  0.00    -0.550 OA
ENDBRANCH   3   4
ENDBRANCH   2   3
ENDBRANCH   1   2
BRANCH   1   7
ATOM      7  C   UNL     1      17.206   0.352  38.210  1.00  0.00     0.000 C 
BRANCH   7   8
ATOM      8  C   UNL     1      16.037   1.058  38.915  1.00  0.00    -0.000 C 
BRANCH   8   9
ATOM      9  C   UNL     1      15.545   2.296  38.150  1.00  0.00    -0.000 C 
BRANCH   9  10
ATOM     10  C   UNL     1      14.014   2.413  38.135  1.00  0.00    -0.003 C 
ATOM     11  C   UNL     1      13.358   1.036  38.120  1.00  0.00     0.004 C 
ENDBRANCH   9  10
ENDBRANCH   8   9
ENDBRANCH   7   8
ENDBRANCH   1   7
TORSDOF 7
ENDMDL
MODEL 3
REMARK VINA RESULT:    -3.390      9.667     10.895
REMARK INTER + INTRA:          -4.915
REMARK INTER:                  -4.430
REMARK INTRA:                  -0.485
REMARK UNBOUND:                -0.137
REMARK SMILES CCCCCCCCC(=O)[O-]
REMARK SMILES IDX 6 1 7 2 8 3 9 4 10 5 11 6 5 7 4 8 3 9 2 10 1 11
REMARK H PARENT
REMARK Flexibility Score: inf
ROOT
ATOM      1  C   UNL     1      14.397   0.742  37.581  1.00  0.00     0.000 C 
ENDROOT
BRANCH   1   2
ATOM      2  C   UNL     1      15.336   0.840  36.365  1.00  0.00     0.006 C 
BRANCH   2   3
ATOM      3  C   UNL     1      15.191  -0.313  35.359  1.00  0.00     0.053 C 
BRANCH   3   4
ATOM      4  C   UNL     1      14.969   0.184  33.964  1.00  0.00     0.041 C 
ATOM      5  O   UNL     1      13.985  -0.228  33.294  1.00  0.00    -0.550 OA
ATOM      6  O   UNL     1      15.829   1.127  33.416  1.00  0.00    -0.550 OA
ENDBRANCH   3   4
ENDBRANCH   2   3
ENDBRANCH   1   2
BRANCH   1   7
ATOM      7  C   UNL     1      14.055   2.114  38.182  1.00  0.00     0.000 C 
BRANCH   7   8
ATOM      8  C   UNL     1      15.302   3.008  38.252  1.00  0.00    -0.000 C 
BRANCH   8   9
ATOM      9  C   UNL     1      15.733   3.313  39.696  1.00  0.00    -0.000 C 
BRANCH   9  10
ATOM     10  C   UNL     1      16.257   2.071  40.431  1.00  0.00    -0.003 C 
ATOM     11  C   UNL     1      17.460   1.472  39.710  1.00  0.00     0.004 C 
ENDBRANCH   9  10
ENDBRANCH   8   9
ENDBRANCH   7   8
ENDBRANCH   1   7
TORSDOF 7
ENDMDL
MODEL 4
REMARK VINA RESULT:    -3.306      9.838     11.562
REMARK INTER + INTRA:          -4.796
REMARK INTER:                  -4.045
REMARK INTRA:                  -0.751
REMARK UNBOUND:                -0.137
REMARK SMILES CCCCCCCCC(=O)[O-]
REMARK SMILES IDX 6 1 7 2 8 3 9 4 10 5 11 6 5 7 4 8 3 9 2 10 1 11
REMARK H PARENT
REMARK Flexibility Score: inf
ROOT
ATOM      1  C   UNL     1      14.328   0.620  37.061  1.00  0.00     0.000 C 
ENDROOT
BRANCH   1   2
ATOM      2  C   UNL     1      15.615   0.165  36.352  1.00  0.00     0.006 C 
BRANCH   2   3
ATOM      3  C   UNL     1      15.841   0.810  34.975  1.00  0.00     0.053 C 
BRANCH   3   4
ATOM      4  C   UNL     1      15.450  -0.105  33.855  1.00  0.00     0.041 C 
ATOM      5  O   UNL     1      16.322  -0.805  33.275  1.00  0.00    -0.550 OA
ATOM      6  O   UNL     1      14.118  -0.211  33.475  1.00  0.00    -0.550 OA
ENDBRANCH   3   4
ENDBRANCH   2   3
ENDBRANCH   1   2
BRANCH   1   7
ATOM      7  C   UNL     1      14.554   0.976  38.538  1.00  0.00     0.000 C 
BRANCH   7   8
ATOM      8  C   UNL     1      15.952   1.579  38.748  1.00  0.00    -0.000 C 
BRANCH   8   9
ATOM      9  C   UNL     1      15.927   3.112  38.856  1.00  0.00    -0.000 C 
BRANCH   9  10
ATOM     10  C   UNL     1      16.429   3.804  37.581  1.00  0.00    -0.003 C 
ATOM     11  C   UNL     1      15.265   4.248  36.701  1.00  0.00     0.004 C 
ENDBRANCH   9  10
ENDBRANCH   8   9
ENDBRANCH   7   8
ENDBRANCH   1   7
TORSDOF 7
ENDMDL
MODEL 5
REMARK VINA RESULT:    -3.296      1.854      2.835
REMARK INTER + INTRA:          -4.781
REMARK INTER:                  -4.110
REMARK INTRA:                  -0.671
REMARK UNBOUND:                -0.137
REMARK SMILES CCCCCCCCC(=O)[O-]
REMARK SMILES IDX 6 1 7 2 8 3 9 4 10 5 11 6 5 7 4 8 3 9 2 10 1 11
REMARK H PARENT
REMARK Flexibility Score: inf
ROOT
ATOM      1  C   UNL     1       8.332   1.585  46.063  1.00  0.00     0.000 C 
ENDROOT
BRANCH   1   2
ATOM      2  C   UNL     1       7.802   1.031  44.728  1.00  0.00     0.006 C 
BRANCH   2   3
ATOM      3  C   UNL     1       6.302   0.693  44.735  1.00  0.00     0.053 C 
BRANCH   3   4
ATOM      4  C   UNL     1       5.469   1.827  44.224  1.00  0.00     0.041 C 
ATOM      5  O   UNL     1       6.018   2.822  43.681  1.00  0.00    -0.550 OA
ATOM      6  O   UNL     1       4.084   1.770  44.316  1.00  0.00    -0.550 OA
ENDBRANCH   3   4
ENDBRANCH   2   3
ENDBRANCH   1   2
BRANCH   1   7
ATOM      7  C   UNL     1       9.809   1.240  46.306  1.00  0.00     0.000 C 
BRANCH   7   8
ATOM      8  C   UNL     1      10.206  -0.036  45.549  1.00  0.00    -0.000 C 
BRANCH   8   9
ATOM      9  C   UNL     1      10.465  -1.226  46.488  1.00  0.00    -0.000 C 
BRANCH   9  10
ATOM     10  C   UNL     1       9.422  -2.342  46.330  1.00  0.00    -0.003 C 
ATOM     11  C   UNL     1       8.168  -2.041  47.144  1.00  0.00     0.004 C 
ENDBRANCH   9  10
ENDBRANCH   8   9
ENDBRANCH   7   8
ENDBRANCH   1   7
TORSDOF 7
ENDMDL
MODEL 6
REMARK VINA RESULT:    -3.280      2.340      3.251
REMARK INTER + INTRA:          -4.760
REMARK INTER:                  -4.174
REMARK INTRA:                  -0.585
REMARK UNBOUND:                -0.137
REMARK SMILES CCCCCCCCC(=O)[O-]
REMARK SMILES IDX 6 1 7 2 8 3 9 4 10 5 11 6 5 7 4 8 3 9 2 10 1 11
REMARK H PARENT
REMARK Flexibility Score: inf
ROOT
ATOM      1  C   UNL     1       6.282   0.733  44.379  1.00  0.00     0.000 C 
ENDROOT
BRANCH   1   2
ATOM      2  C   UNL     1       5.422   1.997  44.203  1.00  0.00     0.006 C 
BRANCH   2   3
ATOM      3  C   UNL     1       6.230   3.290  44.007  1.00  0.00     0.053 C 
BRANCH   3   4
ATOM      4  C   UNL     1       6.579   3.937  45.312  1.00  0.00     0.041 C 
ATOM      5  O   UNL     1       5.691   4.122  46.185  1.00  0.00    -0.550 OA
ATOM      6  O   UNL     1       7.893   4.304  45.577  1.00  0.00    -0.550 OA
ENDBRANCH   3   4
ENDBRANCH   2   3
ENDBRANCH   1   2
BRANCH   1   7
ATOM      7  C   UNL     1       6.246   0.181  45.812  1.00  0.00     0.000 C 
BRANCH   7   8
ATOM      8  C   UNL     1       7.667  -0.088  46.331  1.00  0.00    -0.000 C 
BRANCH   8   9
ATOM      9  C   UNL     1       8.718   0.825  45.682  1.00  0.00    -0.000 C 
BRANCH   9  10
ATOM     10  C   UNL     1      10.013   0.080  45.329  1.00  0.00    -0.003 C 
ATOM     11  C   UNL     1      10.160  -1.190  46.161  1.00  0.00     0.004 C 
ENDBRANCH   9  10
ENDBRANCH   8   9
ENDBRANCH   7   8
ENDBRANCH   1   7
TORSDOF 7
ENDMDL
MODEL 7
REMARK VINA RESULT:    -3.236      4.067      6.820
REMARK INTER + INTRA:          -4.697
REMARK INTER:                  -4.519
REMARK INTRA:                  -0.178
REMARK UNBOUND:                -0.137
REMARK SMILES CCCCCCCCC(=O)[O-]
REMARK SMILES IDX 6 1 7 2 8 3 9 4 10 5 11 6 5 7 4 8 3 9 2 10 1 11
REMARK H PARENT
REMARK Flexibility Score: inf
ROOT
ATOM      1  C   UNL     1       9.624  -0.137  45.942  1.00  0.00     0.000 C 
ENDROOT
BRANCH   1   2
ATOM      2  C   UNL     1      10.945  -0.255  45.160  1.00  0.00     0.006 C 
BRANCH   2   3
ATOM      3  C   UNL     1      12.204   0.006  46.001  1.00  0.00     0.053 C 
BRANCH   3   4
ATOM      4  C   UNL     1      13.459  -0.292  45.240  1.00  0.00     0.041 C 
ATOM      5  O   UNL     1      14.446   0.488  45.315  1.00  0.00    -0.550 OA
ATOM      6  O   UNL     1      13.552  -1.448  44.476  1.00  0.00    -0.550 OA
ENDBRANCH   3   4
ENDBRANCH   2   3
ENDBRANCH   1   2
BRANCH   1   7
ATOM      7  C   UNL     1       8.671   0.910  45.348  1.00  0.00     0.000 C 
BRANCH   7   8
ATOM      8  C   UNL     1       7.209   0.564  45.669  1.00  0.00    -0.000 C 
BRANCH   8   9
ATOM      9  C   UNL     1       6.294   0.650  44.437  1.00  0.00    -0.000 C 
BRANCH   9  10
ATOM     10  C   UNL     1       5.366   1.873  44.473  1.00  0.00    -0.003 C 
ATOM     11  C   UNL     1       6.065   3.110  43.918  1.00  0.00     0.004 C 
ENDBRANCH   9  10
ENDBRANCH   8   9
ENDBRANCH   7   8
ENDBRANCH   1   7
TORSDOF 7
ENDMDL
MODEL 8
REMARK VINA RESULT:    -3.221      9.410     11.742
REMARK INTER + INTRA:          -4.677
REMARK INTER:                  -4.131
REMARK INTRA:                  -0.545
REMARK UNBOUND:                -0.137
REMARK SMILES CCCCCCCCC(=O)[O-]
REMARK SMILES IDX 6 1 7 2 8 3 9 4 10 5 11 6 5 7 4 8 3 9 2 10 1 11
REMARK H PARENT
REMARK Flexibility Score: inf
ROOT
ATOM      1  C   UNL     1      17.756   0.331  36.951  1.00  0.00     0.000 C 
ENDROOT
BRANCH   1   2
ATOM      2  C   UNL     1      16.501   0.295  37.841  1.00  0.00     0.006 C 
BRANCH   2   3
ATOM      3  C   UNL     1      15.178   0.477  37.079  1.00  0.00     0.053 C 
BRANCH   3   4
ATOM      4  C   UNL     1      14.176   1.258  37.872  1.00  0.00     0.041 C 
ATOM      5  O   UNL     1      13.156   0.687  38.341  1.00  0.00    -0.550 OA
ATOM      6  O   UNL     1      14.386   2.608  38.121  1.00  0.00    -0.550 OA
ENDBRANCH   3   4
ENDBRANCH   2   3
ENDBRANCH   1   2
BRANCH   1   7
ATOM      7  C   UNL     1      17.722  -0.717  35.829  1.00  0.00     0.000 C 
BRANCH   7   8
ATOM      8  C   UNL     1      17.876  -0.052  34.452  1.00  0.00    -0.000 C 
BRANCH   8   9
ATOM      9  C   UNL     1      16.799  -0.503  33.452  1.00  0.00    -0.000 C 
BRANCH   9  10
ATOM     10  C   UNL     1      15.663   0.520  33.305  1.00  0.00    -0.003 C 
ATOM     11  C   UNL     1      14.300  -0.150  33.438  1.00  0.00     0.004 C 
ENDBRANCH   9  10
ENDBRANCH   8   9
ENDBRANCH   7   8
ENDBRANCH   1   7
TORSDOF 7
ENDMDL
MODEL 9
REMARK VINA RESULT:    -3.221      9.898     11.886
REMARK INTER + INTRA:          -4.675
REMARK INTER:                  -3.897
REMARK INTRA:                  -0.778
REMARK UNBOUND:                -0.137
REMARK SMILES CCCCCCCCC(=O)[O-]
REMARK SMILES IDX 6 1 7 2 8 3 9 4 10 5 11 6 5 7 4 8 3 9 2 10 1 11
REMARK H PARENT
REMARK Flexibility Score: inf
ROOT
ATOM      1  C   UNL     1      16.943   2.128  35.334  1.00  0.00     0.000 C 
ENDROOT
BRANCH   1   2
ATOM      2  C   UNL     1      16.666   0.651  35.666  1.00  0.00     0.006 C 
BRANCH   2   3
ATOM      3  C   UNL     1      15.237   0.186  35.343  1.00  0.00     0.053 C 
BRANCH   3   4
ATOM      4  C   UNL     1      15.096  -0.247  33.917  1.00  0.00     0.041 C 
ATOM      5  O   UNL     1      13.984  -0.153  33.333  1.00  0.00    -0.550 OA
ATOM      6  O   UNL     1      16.201  -0.722  33.221  1.00  0.00    -0.550 OA
ENDBRANCH   3   4
ENDBRANCH   2   3
ENDBRANCH   1   2
BRANCH   1   7
ATOM      7  C   UNL     1      15.820   3.065  35.803  1.00  0.00     0.000 C 
BRANCH   7   8
ATOM      8  C   UNL     1      15.934   3.344  37.310  1.00  0.00    -0.000 C 
BRANCH   8   9
ATOM      9  C   UNL     1      14.723   2.825  38.101  1.00  0.00    -0.000 C 
BRANCH   9  10
ATOM     10  C   UNL     1      15.025   1.524  38.859  1.00  0.00    -0.003 C 
ATOM     11  C   UNL     1      16.454   1.517  39.392  1.00  0.00     0.004 C 
ENDBRANCH   9  10
ENDBRANCH   8   9
ENDBRANCH   7   8
ENDBRANCH   1   7
TORSDOF 7
ENDMDL
