MODEL 1
REMARK VINA RESULT:     5.787      0.000      0.000
REMARK INTER + INTRA:           8.342
REMARK INTER:                   7.986
REMARK INTRA:                   0.356
REMARK UNBOUND:                 0.356
REMARK SMILES CCCCc1cccc(O)c1CCCC
REMARK SMILES IDX 5 1 11 2 9 3 8 4 7 5 6 6 4 7 3 8 2 9 1 10 12 11 13 12 14 13
REMARK SMILES IDX 15 14 10 15
REMARK H PARENT 10 16
REMARK Flexibility Score: inf
ROOT
ATOM      1  C   UNL     1     138.211 129.616 128.132  1.00  0.00    -0.041 A 
ATOM      2  C   UNL     1     138.745 130.384 129.215  1.00  0.00    -0.003 A 
ATOM      3  C   UNL     1     138.075 130.334 130.465  1.00  0.00     0.119 A 
ATOM      4  C   UNL     1     136.824 129.716 130.575  1.00  0.00     0.046 A 
ATOM      5  C   UNL     1     136.254 129.081 129.480  1.00  0.00     0.004 A 
ATOM      6  C   UNL     1     136.951 129.005 128.279  1.00  0.00     0.004 A 
ENDROOT
BRANCH   1   7
ATOM      7  C   UNL     1     138.968 129.303 126.850  1.00  0.00     0.036 C 
BRANCH   7   8
ATOM      8  C   UNL     1     139.806 128.017 126.937  1.00  0.00     0.004 C 
BRANCH   8   9
ATOM      9  C   UNL     1     140.297 127.542 125.568  1.00  0.00    -0.003 C 
ATOM     10  C   UNL     1     139.132 127.130 124.673  1.00  0.00     0.004 C 
ENDBRANCH   8   9
ENDBRANCH   7   8
ENDBRANCH   1   7
BRANCH   2  11
ATOM     11  C   UNL     1     140.051 131.167 129.095  1.00  0.00     0.040 C 
BRANCH  11  12
ATOM     12  C   UNL     1     140.656 131.262 127.673  1.00  0.00     0.005 C 
BRANCH  12  13
ATOM     13  C   UNL     1     141.987 132.029 127.586  1.00  0.00    -0.003 C 
ATOM     14  C   UNL     1     142.125 133.121 128.646  1.00  0.00     0.004 C 
ENDBRANCH  12  13
ENDBRANCH  11  12
ENDBRANCH   2  11
BRANCH   3  15
ATOM     15  O   UNL     1     138.661 130.871 131.611  1.00  0.00    -0.508 OA
ATOM     16  H   UNL     1     138.251 130.746 132.530  1.00  0.00     0.293 HD
ENDBRANCH   3  15
TORSDOF 7
ENDMDL
MODEL 2
REMARK VINA RESULT:     6.332      2.063      5.524
REMARK INTER + INTRA:           9.094
REMARK INTER:                   9.332
REMARK INTRA:                  -0.238
REMARK UNBOUND:                 0.356
REMARK SMILES CCCCc1cccc(O)c1CCCC
REMARK SMILES IDX 5 1 11 2 9 3 8 4 7 5 6 6 4 7 3 8 2 9 1 10 12 11 13 12 14 13
REMARK SMILES IDX 15 14 10 15
REMARK H PARENT 10 16
REMARK Flexibility Score: inf
ROOT
ATOM      1  C   UNL     1     138.943 130.791 129.207  1.00  0.00    -0.041 A 
ATOM      2  C   UNL     1     139.155 130.350 127.862  1.00  0.00    -0.003 A 
ATOM      3  C   UNL     1     140.252 130.895 127.144  1.00  0.00     0.119 A 
ATOM      4  C   UNL     1     140.975 131.974 127.666  1.00  0.00     0.046 A 
ATOM      5  C   UNL     1     140.676 132.479 128.924  1.00  0.00     0.004 A 
ATOM      6  C   UNL     1     139.691 131.877 129.699  1.00  0.00     0.004 A 
ENDROOT
BRANCH   1   7
ATOM      7  C   UNL     1     138.036 130.086 130.205  1.00  0.00     0.036 C 
BRANCH   7   8
ATOM      8  C   UNL     1     138.340 130.452 131.667  1.00  0.00     0.004 C 
BRANCH   8   9
ATOM      9  C   UNL     1     137.120 130.301 132.577  1.00  0.00    -0.003 C 
ATOM     10  C   UNL     1     137.185 131.266 133.757  1.00  0.00     0.004 C 
ENDBRANCH   8   9
ENDBRANCH   7   8
ENDBRANCH   1   7
BRANCH   2  11
ATOM     11  C   UNL     1     138.308 129.254 127.218  1.00  0.00     0.040 C 
BRANCH  11  12
ATOM     12  C   UNL     1     139.007 127.886 127.019  1.00  0.00     0.005 C 
BRANCH  12  13
ATOM     13  C   UNL     1     139.267 127.501 125.553  1.00  0.00    -0.003 C 
ATOM     14  C   UNL     1     140.709 127.072 125.287  1.00  0.00     0.004 C 
ENDBRANCH  12  13
ENDBRANCH  11  12
ENDBRANCH   2  11
BRANCH   3  15
ATOM     15  O   UNL     1     140.648 130.350 125.923  1.00  0.00    -0.508 OA
ATOM     16  H   UNL     1     140.818 129.357 125.812  1.00  0.00     0.293 HD
ENDBRANCH   3  15
TORSDOF 7
ENDMDL
MODEL 3
REMARK VINA RESULT:     6.516      1.492      3.906
REMARK INTER + INTRA:           9.349
REMARK INTER:                   9.580
REMARK INTRA:                  -0.231
REMARK UNBOUND:                 0.356
REMARK SMILES CCCCc1cccc(O)c1CCCC
REMARK SMILES IDX 5 1 11 2 9 3 8 4 7 5 6 6 4 7 3 8 2 9 1 10 12 11 13 12 14 13
REMARK SMILES IDX 15 14 10 15
REMARK H PARENT 10 16
REMARK Flexibility Score: inf
ROOT
ATOM      1  C   UNL     1     139.395 129.789 127.962  1.00  0.00    -0.041 A 
ATOM      2  C   UNL     1     139.007 130.673 129.020  1.00  0.00    -0.003 A 
ATOM      3  C   UNL     1     139.639 131.941 129.097  1.00  0.00     0.119 A 
ATOM      4  C   UNL     1     140.745 132.234 128.290  1.00  0.00     0.046 A 
ATOM      5  C   UNL     1     141.193 131.314 127.351  1.00  0.00     0.004 A 
ATOM      6  C   UNL     1     140.509 130.117 127.168  1.00  0.00     0.004 A 
ENDROOT
BRANCH   1   7
ATOM      7  C   UNL     1     138.606 128.556 127.546  1.00  0.00     0.036 C 
BRANCH   7   8
ATOM      8  C   UNL     1     139.485 127.446 126.950  1.00  0.00     0.004 C 
BRANCH   8   9
ATOM      9  C   UNL     1     139.506 127.469 125.420  1.00  0.00    -0.003 C 
ATOM     10  C   UNL     1     140.885 127.104 124.879  1.00  0.00     0.004 C 
ENDBRANCH   8   9
ENDBRANCH   7   8
ENDBRANCH   1   7
BRANCH   2  11
ATOM     11  C   UNL     1     137.881 130.335 129.995  1.00  0.00     0.040 C 
BRANCH  11  12
ATOM     12  C   UNL     1     138.258 130.347 131.497  1.00  0.00     0.005 C 
BRANCH  12  13
ATOM     13  C   UNL     1     137.063 130.286 132.464  1.00  0.00    -0.003 C 
ATOM     14  C   UNL     1     137.245 131.161 133.704  1.00  0.00     0.004 C 
ENDBRANCH  12  13
ENDBRANCH  11  12
ENDBRANCH   2  11
BRANCH   3  15
ATOM     15  O   UNL     1     139.156 132.928 129.955  1.00  0.00    -0.508 OA
ATOM     16  H   UNL     1     138.512 133.644 129.638  1.00  0.00     0.293 HD
ENDBRANCH   3  15
TORSDOF 7
ENDMDL
MODEL 4
REMARK VINA RESULT:     6.770      1.339      4.387
REMARK INTER + INTRA:           9.698
REMARK INTER:                  10.418
REMARK INTRA:                  -0.720
REMARK UNBOUND:                 0.356
REMARK SMILES CCCCc1cccc(O)c1CCCC
REMARK SMILES IDX 5 1 11 2 9 3 8 4 7 5 6 6 4 7 3 8 2 9 1 10 12 11 13 12 14 13
REMARK SMILES IDX 15 14 10 15
REMARK H PARENT 10 16
REMARK Flexibility Score: inf
ROOT
ATOM      1  C   UNL     1     139.223 130.569 128.409  1.00  0.00    -0.041 A 
ATOM      2  C   UNL     1     138.410 129.407 128.217  1.00  0.00    -0.003 A 
ATOM      3  C   UNL     1     137.438 129.101 129.206  1.00  0.00     0.119 A 
ATOM      4  C   UNL     1     137.417 129.797 130.420  1.00  0.00     0.046 A 
ATOM      5  C   UNL     1     138.300 130.844 130.646  1.00  0.00     0.004 A 
ATOM      6  C   UNL     1     139.174 131.246 129.641  1.00  0.00     0.004 A 
ENDROOT
BRANCH   1   7
ATOM      7  C   UNL     1     140.067 131.211 127.317  1.00  0.00     0.036 C 
BRANCH   7   8
ATOM      8  C   UNL     1     141.565 131.260 127.657  1.00  0.00     0.004 C 
BRANCH   8   9
ATOM      9  C   UNL     1     142.125 132.684 127.644  1.00  0.00    -0.003 C 
ATOM     10  C   UNL     1     141.958 133.357 129.002  1.00  0.00     0.004 C 
ENDBRANCH   8   9
ENDBRANCH   7   8
ENDBRANCH   1   7
BRANCH   2  11
ATOM     11  C   UNL     1     138.488 128.554 126.953  1.00  0.00     0.040 C 
BRANCH  11  12
ATOM     12  C   UNL     1     139.766 127.695 126.792  1.00  0.00     0.005 C 
BRANCH  12  13
ATOM     13  C   UNL     1     140.205 127.455 125.337  1.00  0.00    -0.003 C 
ATOM     14  C   UNL     1     139.068 126.977 124.435  1.00  0.00     0.004 C 
ENDBRANCH  12  13
ENDBRANCH  11  12
ENDBRANCH   2  11
BRANCH   3  15
ATOM     15  O   UNL     1     136.469 128.124 128.976  1.00  0.00    -0.508 OA
ATOM     16  H   UNL     1     135.972 128.061 128.094  1.00  0.00     0.293 HD
ENDBRANCH   3  15
TORSDOF 7
ENDMDL
MODEL 5
REMARK VINA RESULT:     7.342      2.144      5.456
REMARK INTER + INTRA:          10.488
REMARK INTER:                  10.003
REMARK INTRA:                   0.486
REMARK UNBOUND:                 0.356
REMARK SMILES CCCCc1cccc(O)c1CCCC
REMARK SMILES IDX 5 1 11 2 9 3 8 4 7 5 6 6 4 7 3 8 2 9 1 10 12 11 13 12 14 13
REMARK SMILES IDX 15 14 10 15
REMARK H PARENT 10 16
REMARK Flexibility Score: inf
ROOT
ATOM      1  C   UNL     1     139.076 130.882 129.136  1.00  0.00    -0.041 A 
ATOM      2  C   UNL     1     138.945 129.714 128.320  1.00  0.00    -0.003 A 
ATOM      3  C   UNL     1     139.935 129.473 127.332  1.00  0.00     0.119 A 
ATOM      4  C   UNL     1     140.892 130.450 127.033  1.00  0.00     0.046 A 
ATOM      5  C   UNL     1     140.930 131.639 127.749  1.00  0.00     0.004 A 
ATOM      6  C   UNL     1     140.051 131.842 128.808  1.00  0.00     0.004 A 
ENDROOT
BRANCH   1   7
ATOM      7  C   UNL     1     138.305 131.115 130.427  1.00  0.00     0.036 C 
BRANCH   7   8
ATOM      8  C   UNL     1     138.689 130.137 131.548  1.00  0.00     0.004 C 
BRANCH   8   9
ATOM      9  C   UNL     1     138.182 130.587 132.920  1.00  0.00    -0.003 C 
ATOM     10  C   UNL     1     136.662 130.499 133.005  1.00  0.00     0.004 C 
ENDBRANCH   8   9
ENDBRANCH   7   8
ENDBRANCH   1   7
BRANCH   2  11
ATOM     11  C   UNL     1     137.841 128.681 128.542  1.00  0.00     0.040 C 
BRANCH  11  12
ATOM     12  C   UNL     1     136.460 129.245 128.961  1.00  0.00     0.005 C 
BRANCH  12  13
ATOM     13  C   UNL     1     135.697 129.981 127.846  1.00  0.00    -0.003 C 
ATOM     14  C   UNL     1     136.610 130.767 126.907  1.00  0.00     0.004 C 
ENDBRANCH  12  13
ENDBRANCH  11  12
ENDBRANCH   2  11
BRANCH   3  15
ATOM     15  O   UNL     1     139.993 128.251 126.662  1.00  0.00    -0.508 OA
ATOM     16  H   UNL     1     139.647 127.395 127.081  1.00  0.00     0.293 HD
ENDBRANCH   3  15
TORSDOF 7
ENDMDL
MODEL 6
REMARK VINA RESULT:     7.419      2.200      4.502
REMARK INTER + INTRA:          10.595
REMARK INTER:                  11.247
REMARK INTRA:                  -0.652
REMARK UNBOUND:                 0.356
REMARK SMILES CCCCc1cccc(O)c1CCCC
REMARK SMILES IDX 5 1 11 2 9 3 8 4 7 5 6 6 4 7 3 8 2 9 1 10 12 11 13 12 14 13
REMARK SMILES IDX 15 14 10 15
REMARK H PARENT 10 16
REMARK Flexibility Score: inf
ROOT
ATOM      1  C   UNL     1     138.996 130.598 128.550  1.00  0.00    -0.041 A 
ATOM      2  C   UNL     1     138.168 130.011 129.559  1.00  0.00    -0.003 A 
ATOM      3  C   UNL     1     136.877 129.555 129.184  1.00  0.00     0.119 A 
ATOM      4  C   UNL     1     136.359 129.855 127.919  1.00  0.00     0.046 A 
ATOM      5  C   UNL     1     137.128 130.540 126.988  1.00  0.00     0.004 A 
ATOM      6  C   UNL     1     138.442 130.883 127.288  1.00  0.00     0.004 A 
ENDROOT
BRANCH   1   7
ATOM      7  C   UNL     1     140.491 130.835 128.701  1.00  0.00     0.036 C 
BRANCH   7   8
ATOM      8  C   UNL     1     141.189 131.182 127.376  1.00  0.00     0.004 C 
BRANCH   8   9
ATOM      9  C   UNL     1     142.124 132.386 127.502  1.00  0.00    -0.003 C 
ATOM     10  C   UNL     1     141.924 133.107 128.831  1.00  0.00     0.004 C 
ENDBRANCH   8   9
ENDBRANCH   7   8
ENDBRANCH   1   7
BRANCH   2  11
ATOM     11  C   UNL     1     138.661 129.775 130.985  1.00  0.00     0.040 C 
BRANCH  11  12
ATOM     12  C   UNL     1     138.219 130.821 132.038  1.00  0.00     0.005 C 
BRANCH  12  13
ATOM     13  C   UNL     1     136.984 130.423 132.865  1.00  0.00    -0.003 C 
ATOM     14  C   UNL     1     136.831 131.233 134.151  1.00  0.00     0.004 C 
ENDBRANCH  12  13
ENDBRANCH  11  12
ENDBRANCH   2  11
BRANCH   3  15
ATOM     15  O   UNL     1     136.114 128.778 130.054  1.00  0.00    -0.508 OA
ATOM     16  H   UNL     1     135.692 127.904 129.760  1.00  0.00     0.293 HD
ENDBRANCH   3  15
TORSDOF 7
ENDMDL
MODEL 7
REMARK VINA RESULT:     7.487      1.842      4.426
REMARK INTER + INTRA:          10.688
REMARK INTER:                  10.307
REMARK INTRA:                   0.381
REMARK UNBOUND:                 0.356
REMARK SMILES CCCCc1cccc(O)c1CCCC
REMARK SMILES IDX 5 1 11 2 9 3 8 4 7 5 6 6 4 7 3 8 2 9 1 10 12 11 13 12 14 13
REMARK SMILES IDX 15 14 10 15
REMARK H PARENT 10 16
REMARK Flexibility Score: inf
ROOT
ATOM      1  C   UNL     1     138.573 129.220 128.530  1.00  0.00    -0.041 A 
ATOM      2  C   UNL     1     139.227 130.378 129.059  1.00  0.00    -0.003 A 
ATOM      3  C   UNL     1     140.293 130.945 128.312  1.00  0.00     0.119 A 
ATOM      4  C   UNL     1     140.815 130.273 127.201  1.00  0.00     0.046 A 
ATOM      5  C   UNL     1     140.252 129.079 126.771  1.00  0.00     0.004 A 
ATOM      6  C   UNL     1     139.125 128.572 127.409  1.00  0.00     0.004 A 
ENDROOT
BRANCH   1   7
ATOM      7  C   UNL     1     137.234 128.693 129.024  1.00  0.00     0.036 C 
BRANCH   7   8
ATOM      8  C   UNL     1     136.099 129.723 128.917  1.00  0.00     0.004 C 
BRANCH   8   9
ATOM      9  C   UNL     1     135.764 130.080 127.467  1.00  0.00    -0.003 C 
ATOM     10  C   UNL     1     136.832 130.983 126.858  1.00  0.00     0.004 C 
ENDBRANCH   8   9
ENDBRANCH   7   8
ENDBRANCH   1   7
BRANCH   2  11
ATOM     11  C   UNL     1     138.755 131.071 130.336  1.00  0.00     0.040 C 
BRANCH  11  12
ATOM     12  C   UNL     1     138.459 130.144 131.540  1.00  0.00     0.005 C 
BRANCH  12  13
ATOM     13  C   UNL     1     138.033 130.872 132.827  1.00  0.00    -0.003 C 
ATOM     14  C   UNL     1     136.611 130.534 133.271  1.00  0.00     0.004 C 
ENDBRANCH  12  13
ENDBRANCH  11  12
ENDBRANCH   2  11
BRANCH   3  15
ATOM     15  O   UNL     1     140.819 132.191 128.651  1.00  0.00    -0.508 OA
ATOM     16  H   UNL     1     140.741 132.566 129.589  1.00  0.00     0.293 HD
ENDBRANCH   3  15
TORSDOF 7
ENDMDL
MODEL 8
REMARK VINA RESULT:     7.979      1.838      3.575
REMARK INTER + INTRA:          11.367
REMARK INTER:                  11.760
REMARK INTRA:                  -0.392
REMARK UNBOUND:                 0.356
REMARK SMILES CCCCc1cccc(O)c1CCCC
REMARK SMILES IDX 5 1 11 2 9 3 8 4 7 5 6 6 4 7 3 8 2 9 1 10 12 11 13 12 14 13
REMARK SMILES IDX 15 14 10 15
REMARK H PARENT 10 16
REMARK Flexibility Score: inf
ROOT
ATOM      1  C   UNL     1     138.496 130.593 128.156  1.00  0.00    -0.041 A 
ATOM      2  C   UNL     1     137.889 129.986 129.302  1.00  0.00    -0.003 A 
ATOM      3  C   UNL     1     136.544 129.547 129.194  1.00  0.00     0.119 A 
ATOM      4  C   UNL     1     135.777 129.880 128.071  1.00  0.00     0.046 A 
ATOM      5  C   UNL     1     136.343 130.582 127.016  1.00  0.00     0.004 A 
ATOM      6  C   UNL     1     137.695 130.910 127.044  1.00  0.00     0.004 A 
ENDROOT
BRANCH   1   7
ATOM      7  C   UNL     1     139.992 130.817 127.998  1.00  0.00     0.036 C 
BRANCH   7   8
ATOM      8  C   UNL     1     140.703 129.674 127.257  1.00  0.00     0.004 C 
BRANCH   8   9
ATOM      9  C   UNL     1     139.854 128.403 127.182  1.00  0.00    -0.003 C 
ATOM     10  C   UNL     1     139.905 127.784 125.789  1.00  0.00     0.004 C 
ENDBRANCH   8   9
ENDBRANCH   7   8
ENDBRANCH   1   7
BRANCH   2  11
ATOM     11  C   UNL     1     138.666 129.713 130.589  1.00  0.00     0.040 C 
BRANCH  11  12
ATOM     12  C   UNL     1     138.412 130.698 131.756  1.00  0.00     0.005 C 
BRANCH  12  13
ATOM     13  C   UNL     1     137.229 130.329 132.668  1.00  0.00    -0.003 C 
ATOM     14  C   UNL     1     137.086 131.254 133.876  1.00  0.00     0.004 C 
ENDBRANCH  12  13
ENDBRANCH  11  12
ENDBRANCH   2  11
BRANCH   3  15
ATOM     15  O   UNL     1     135.970 128.753 130.186  1.00  0.00    -0.508 OA
ATOM     16  H   UNL     1     136.498 128.444 130.995  1.00  0.00     0.293 HD
ENDBRANCH   3  15
TORSDOF 7
ENDMDL
