MODEL 1
REMARK VINA RESULT:    -5.521      0.000      0.000
REMARK INTER + INTRA:          -6.376
REMARK INTER:                  -6.328
REMARK INTRA:                  -0.047
REMARK UNBOUND:                -0.047
REMARK SMILES O=C([O-])c1cc(O)c(O)c(O)c1
REMARK SMILES IDX 4 1 5 2 12 3 6 4 10 5 8 6 2 7 1 8 3 9 7 10 11 12 9 14
REMARK H PARENT 7 11 11 13 9 15
REMARK Flexibility Score: inf
ROOT
ATOM      1  C   UNL     1      11.059   9.640  13.389  1.00  0.00     0.005 A 
ATOM      2  C   UNL     1      10.763  10.104  14.679  1.00  0.00     0.060 A 
ATOM      3  C   UNL     1      10.017   9.151  12.585  1.00  0.00     0.060 A 
ATOM      4  C   UNL     1       9.452  10.087  15.171  1.00  0.00     0.162 A 
ATOM      5  C   UNL     1       8.701   9.127  13.064  1.00  0.00     0.162 A 
ATOM      6  C   UNL     1       8.408   9.593  14.353  1.00  0.00     0.200 A 
ENDROOT
BRANCH   1   7
ATOM      7  C   UNL     1      12.451   9.665  12.885  1.00  0.00     0.072 C 
ATOM      8  O   UNL     1      12.725  10.211  11.783  1.00  0.00    -0.545 OA
ATOM      9  O   UNL     1      13.478   9.086  13.623  1.00  0.00    -0.545 OA
ENDBRANCH   1   7
BRANCH   4  10
ATOM     10  O   UNL     1       9.236  10.565  16.464  1.00  0.00    -0.504 OA
ATOM     11  H   UNL     1       9.927  10.542  17.200  1.00  0.00     0.293 HD
ENDBRANCH   4  10
BRANCH   5  12
ATOM     12  O   UNL     1       7.672   8.642  12.259  1.00  0.00    -0.504 OA
ATOM     13  H   UNL     1       7.306   7.703  12.372  1.00  0.00     0.293 HD
ENDBRANCH   5  12
BRANCH   6  14
ATOM     14  O   UNL     1       7.079   9.547  14.781  1.00  0.00    -0.502 OA
ATOM     15  H   UNL     1       6.457  10.342  14.785  1.00  0.00     0.293 HD
ENDBRANCH   6  14
TORSDOF 4
ENDMDL
MODEL 2
REMARK VINA RESULT:    -5.338      0.970      2.545
REMARK INTER + INTRA:          -6.165
REMARK INTER:                  -6.118
REMARK INTRA:                  -0.047
REMARK UNBOUND:                -0.047
REMARK SMILES O=C([O-])c1cc(O)c(O)c(O)c1
REMARK SMILES IDX 4 1 5 2 12 3 6 4 10 5 8 6 2 7 1 8 3 9 7 10 11 12 9 14
REMARK H PARENT 7 11 11 13 9 15
REMARK Flexibility Score: inf
ROOT
ATOM      1  C   UNL     1      11.458  10.340  13.868  1.00  0.00     0.005 A 
ATOM      2  C   UNL     1      10.740   9.465  13.039  1.00  0.00     0.060 A 
ATOM      3  C   UNL     1      10.791  10.974  14.929  1.00  0.00     0.060 A 
ATOM      4  C   UNL     1       9.379   9.219  13.254  1.00  0.00     0.162 A 
ATOM      5  C   UNL     1       9.429  10.738  15.156  1.00  0.00     0.162 A 
ATOM      6  C   UNL     1       8.715   9.863  14.326  1.00  0.00     0.200 A 
ENDROOT
BRANCH   1   7
ATOM      7  C   UNL     1      12.897  10.589  13.627  1.00  0.00     0.072 C 
ATOM      8  O   UNL     1      13.305  10.948  12.491  1.00  0.00    -0.545 OA
ATOM      9  O   UNL     1      13.821  10.427  14.654  1.00  0.00    -0.545 OA
ENDBRANCH   1   7
BRANCH   4  10
ATOM     10  O   UNL     1       8.732   8.337  12.388  1.00  0.00    -0.504 OA
ATOM     11  H   UNL     1       7.966   7.736  12.658  1.00  0.00     0.293 HD
ENDBRANCH   4  10
BRANCH   5  12
ATOM     12  O   UNL     1       8.775  11.372  16.211  1.00  0.00    -0.504 OA
ATOM     13  H   UNL     1       8.490  10.864  17.041  1.00  0.00     0.293 HD
ENDBRANCH   5  12
BRANCH   6  14
ATOM     14  O   UNL     1       7.358   9.663  14.596  1.00  0.00    -0.502 OA
ATOM     15  H   UNL     1       6.837   8.849  14.305  1.00  0.00     0.293 HD
ENDBRANCH   6  14
TORSDOF 4
ENDMDL
MODEL 3
REMARK VINA RESULT:    -5.293      1.527      2.296
REMARK INTER + INTRA:          -6.114
REMARK INTER:                  -6.062
REMARK INTRA:                  -0.052
REMARK UNBOUND:                -0.047
REMARK SMILES O=C([O-])c1cc(O)c(O)c(O)c1
REMARK SMILES IDX 4 1 5 2 12 3 6 4 10 5 8 6 2 7 1 8 3 9 7 10 11 12 9 14
REMARK H PARENT 7 11 11 13 9 15
REMARK Flexibility Score: inf
ROOT
ATOM      1  C   UNL     1      11.017   9.895  13.034  1.00  0.00     0.005 A 
ATOM      2  C   UNL     1      11.819  10.525  13.998  1.00  0.00     0.060 A 
ATOM      3  C   UNL     1       9.779   9.358  13.423  1.00  0.00     0.060 A 
ATOM      4  C   UNL     1      11.403  10.623  15.331  1.00  0.00     0.162 A 
ATOM      5  C   UNL     1       9.351   9.449  14.754  1.00  0.00     0.162 A 
ATOM      6  C   UNL     1      10.154  10.079  15.714  1.00  0.00     0.200 A 
ENDROOT
BRANCH   1   7
ATOM      7  C   UNL     1      11.471   9.800  11.629  1.00  0.00     0.072 C 
ATOM      8  O   UNL     1      10.933   8.984  10.834  1.00  0.00    -0.545 OA
ATOM      9  O   UNL     1      12.500  10.613  11.165  1.00  0.00    -0.545 OA
ENDBRANCH   1   7
BRANCH   4  10
ATOM     10  O   UNL     1      12.255  11.263  16.232  1.00  0.00    -0.504 OA
ATOM     11  H   UNL     1      11.980  11.566  17.156  1.00  0.00     0.293 HD
ENDBRANCH   4  10
BRANCH   5  12
ATOM     12  O   UNL     1       8.120   8.914  15.131  1.00  0.00    -0.504 OA
ATOM     13  H   UNL     1       7.688   8.157  14.614  1.00  0.00     0.293 HD
ENDBRANCH   5  12
BRANCH   6  14
ATOM     14  O   UNL     1       9.680  10.142  17.027  1.00  0.00    -0.502 OA
ATOM     15  H   UNL     1       8.989   9.513  17.411  1.00  0.00     0.293 HD
ENDBRANCH   6  14
TORSDOF 4
ENDMDL
MODEL 4
REMARK VINA RESULT:    -5.280      1.332      3.847
REMARK INTER + INTRA:          -6.099
REMARK INTER:                  -6.049
REMARK INTRA:                  -0.050
REMARK UNBOUND:                -0.047
REMARK SMILES O=C([O-])c1cc(O)c(O)c(O)c1
REMARK SMILES IDX 4 1 5 2 12 3 6 4 10 5 8 6 2 7 1 8 3 9 7 10 11 12 9 14
REMARK H PARENT 7 11 11 13 9 15
REMARK Flexibility Score: inf
ROOT
ATOM      1  C   UNL     1       9.995   9.268  13.163  1.00  0.00     0.005 A 
ATOM      2  C   UNL     1       9.819   9.400  14.548  1.00  0.00     0.060 A 
ATOM      3  C   UNL     1      11.189   9.725  12.582  1.00  0.00     0.060 A 
ATOM      4  C   UNL     1      10.810   9.976  15.351  1.00  0.00     0.162 A 
ATOM      5  C   UNL     1      12.189  10.304  13.373  1.00  0.00     0.162 A 
ATOM      6  C   UNL     1      12.010  10.434  14.757  1.00  0.00     0.200 A 
ENDROOT
BRANCH   1   7
ATOM      7  C   UNL     1       8.937   8.656  12.328  1.00  0.00     0.072 C 
ATOM      8  O   UNL     1       7.721   8.816  12.613  1.00  0.00    -0.545 OA
ATOM      9  O   UNL     1       9.273   7.893  11.214  1.00  0.00    -0.545 OA
ENDBRANCH   1   7
BRANCH   4  10
ATOM     10  O   UNL     1      10.562  10.074  16.722  1.00  0.00    -0.504 OA
ATOM     11  H   UNL     1      10.173   9.328  17.282  1.00  0.00     0.293 HD
ENDBRANCH   4  10
BRANCH   5  12
ATOM     12  O   UNL     1      13.372  10.754  12.788  1.00  0.00    -0.504 OA
ATOM     13  H   UNL     1      13.518  11.733  12.569  1.00  0.00     0.293 HD
ENDBRANCH   5  12
BRANCH   6  14
ATOM     14  O   UNL     1      13.039  11.019  15.500  1.00  0.00    -0.502 OA
ATOM     15  H   UNL     1      13.338  11.978  15.397  1.00  0.00     0.293 HD
ENDBRANCH   6  14
TORSDOF 4
ENDMDL
MODEL 5
REMARK VINA RESULT:    -5.263      1.953      2.771
REMARK INTER + INTRA:          -6.079
REMARK INTER:                  -6.033
REMARK INTRA:                  -0.046
REMARK UNBOUND:                -0.047
REMARK SMILES O=C([O-])c1cc(O)c(O)c(O)c1
REMARK SMILES IDX 4 1 5 2 12 3 6 4 10 5 8 6 2 7 1 8 3 9 7 10 11 12 9 14
REMARK H PARENT 7 11 11 13 9 15
REMARK Flexibility Score: inf
ROOT
ATOM      1  C   UNL     1      12.886   9.831  13.885  1.00  0.00     0.005 A 
ATOM      2  C   UNL     1      13.149  10.949  14.689  1.00  0.00     0.060 A 
ATOM      3  C   UNL     1      11.553   9.456  13.654  1.00  0.00     0.060 A 
ATOM      4  C   UNL     1      12.107  11.690  15.260  1.00  0.00     0.162 A 
ATOM      5  C   UNL     1      10.500  10.187  14.220  1.00  0.00     0.162 A 
ATOM      6  C   UNL     1      10.766  11.305  15.023  1.00  0.00     0.200 A 
ENDROOT
BRANCH   1   7
ATOM      7  C   UNL     1      13.999   9.059  13.288  1.00  0.00     0.072 C 
ATOM      8  O   UNL     1      14.851   8.489  14.021  1.00  0.00    -0.545 OA
ATOM      9  O   UNL     1      14.121   8.951  11.907  1.00  0.00    -0.545 OA
ENDBRANCH   1   7
BRANCH   4  10
ATOM     10  O   UNL     1      12.447  12.790  16.049  1.00  0.00    -0.504 OA
ATOM     11  H   UNL     1      11.853  13.177  16.768  1.00  0.00     0.293 HD
ENDBRANCH   4  10
BRANCH   5  12
ATOM     12  O   UNL     1       9.179   9.808  13.985  1.00  0.00    -0.504 OA
ATOM     13  H   UNL     1       8.430  10.076  14.614  1.00  0.00     0.293 HD
ENDBRANCH   5  12
BRANCH   6  14
ATOM     14  O   UNL     1       9.680  11.999  15.562  1.00  0.00    -0.502 OA
ATOM     15  H   UNL     1       8.742  11.629  15.615  1.00  0.00     0.293 HD
ENDBRANCH   6  14
TORSDOF 4
ENDMDL
MODEL 6
REMARK VINA RESULT:    -5.258      1.338      4.201
REMARK INTER + INTRA:          -6.074
REMARK INTER:                  -6.024
REMARK INTRA:                  -0.050
REMARK UNBOUND:                -0.047
REMARK SMILES O=C([O-])c1cc(O)c(O)c(O)c1
REMARK SMILES IDX 4 1 5 2 12 3 6 4 10 5 8 6 2 7 1 8 3 9 7 10 11 12 9 14
REMARK H PARENT 7 11 11 13 9 15
REMARK Flexibility Score: inf
ROOT
ATOM      1  C   UNL     1      10.013   9.259  13.087  1.00  0.00     0.005 A 
ATOM      2  C   UNL     1      11.200   9.715  12.495  1.00  0.00     0.060 A 
ATOM      3  C   UNL     1       9.845   9.401  14.474  1.00  0.00     0.060 A 
ATOM      4  C   UNL     1      12.211  10.305  13.264  1.00  0.00     0.162 A 
ATOM      5  C   UNL     1      10.848   9.988  15.256  1.00  0.00     0.162 A 
ATOM      6  C   UNL     1      12.033  10.444  14.661  1.00  0.00     0.200 A 
ENDROOT
BRANCH   1   7
ATOM      7  C   UNL     1       8.955   8.638  12.260  1.00  0.00     0.072 C 
ATOM      8  O   UNL     1       7.739   8.801  12.544  1.00  0.00    -0.545 OA
ATOM      9  O   UNL     1       9.289   7.864  11.153  1.00  0.00    -0.545 OA
ENDBRANCH   1   7
BRANCH   4  10
ATOM     10  O   UNL     1      13.364  10.735  12.604  1.00  0.00    -0.504 OA
ATOM     11  H   UNL     1      13.879  10.174  11.941  1.00  0.00     0.293 HD
ENDBRANCH   4  10
BRANCH   5  12
ATOM     12  O   UNL     1      10.673  10.126  16.632  1.00  0.00    -0.504 OA
ATOM     13  H   UNL     1       9.753  10.096  17.056  1.00  0.00     0.293 HD
ENDBRANCH   5  12
BRANCH   6  14
ATOM     14  O   UNL     1      13.001  11.022  15.487  1.00  0.00    -0.502 OA
ATOM     15  H   UNL     1      13.023  12.001  15.734  1.00  0.00     0.293 HD
ENDBRANCH   6  14
TORSDOF 4
ENDMDL
MODEL 7
REMARK VINA RESULT:    -5.221      1.962      3.556
REMARK INTER + INTRA:          -6.032
REMARK INTER:                  -5.986
REMARK INTRA:                  -0.045
REMARK UNBOUND:                -0.047
REMARK SMILES O=C([O-])c1cc(O)c(O)c(O)c1
REMARK SMILES IDX 4 1 5 2 12 3 6 4 10 5 8 6 2 7 1 8 3 9 7 10 11 12 9 14
REMARK H PARENT 7 11 11 13 9 15
REMARK Flexibility Score: inf
ROOT
ATOM      1  C   UNL     1      12.944   9.843  13.875  1.00  0.00     0.005 A 
ATOM      2  C   UNL     1      11.624   9.448  13.613  1.00  0.00     0.060 A 
ATOM      3  C   UNL     1      13.171  10.961  14.693  1.00  0.00     0.060 A 
ATOM      4  C   UNL     1      10.539  10.150  14.153  1.00  0.00     0.162 A 
ATOM      5  C   UNL     1      12.095  11.673  15.239  1.00  0.00     0.162 A 
ATOM      6  C   UNL     1      10.777  11.276  14.976  1.00  0.00     0.200 A 
ENDROOT
BRANCH   1   7
ATOM      7  C   UNL     1      14.079   9.090  13.297  1.00  0.00     0.072 C 
ATOM      8  O   UNL     1      14.818   8.379  14.029  1.00  0.00    -0.545 OA
ATOM      9  O   UNL     1      14.348   9.158  11.934  1.00  0.00    -0.545 OA
ENDBRANCH   1   7
BRANCH   4  10
ATOM     10  O   UNL     1       9.254   9.697  13.847  1.00  0.00    -0.504 OA
ATOM     11  H   UNL     1       8.774   9.897  12.981  1.00  0.00     0.293 HD
ENDBRANCH   4  10
BRANCH   5  12
ATOM     12  O   UNL     1      12.329  12.782  16.051  1.00  0.00    -0.504 OA
ATOM     13  H   UNL     1      11.852  13.663  15.898  1.00  0.00     0.293 HD
ENDBRANCH   5  12
BRANCH   6  14
ATOM     14  O   UNL     1       9.741  12.021  15.546  1.00  0.00    -0.502 OA
ATOM     15  H   UNL     1       8.771  11.740  15.540  1.00  0.00     0.293 HD
ENDBRANCH   6  14
TORSDOF 4
ENDMDL
MODEL 8
REMARK VINA RESULT:    -5.196      1.562      3.024
REMARK INTER + INTRA:          -6.003
REMARK INTER:                  -5.952
REMARK INTRA:                  -0.051
REMARK UNBOUND:                -0.047
REMARK SMILES O=C([O-])c1cc(O)c(O)c(O)c1
REMARK SMILES IDX 4 1 5 2 12 3 6 4 10 5 8 6 2 7 1 8 3 9 7 10 11 12 9 14
REMARK H PARENT 7 11 11 13 9 15
REMARK Flexibility Score: inf
ROOT
ATOM      1  C   UNL     1      10.728   9.816  13.000  1.00  0.00     0.005 A 
ATOM      2  C   UNL     1       9.489   9.319  13.431  1.00  0.00     0.060 A 
ATOM      3  C   UNL     1      11.581  10.424  13.935  1.00  0.00     0.060 A 
ATOM      4  C   UNL     1       9.097   9.420  14.771  1.00  0.00     0.162 A 
ATOM      5  C   UNL     1      11.201  10.533  15.278  1.00  0.00     0.162 A 
ATOM      6  C   UNL     1       9.963  10.035  15.707  1.00  0.00     0.200 A 
ENDROOT
BRANCH   1   7
ATOM      7  C   UNL     1      11.128   9.700  11.579  1.00  0.00     0.072 C 
ATOM      8  O   UNL     1      10.687   8.763  10.862  1.00  0.00    -0.545 OA
ATOM      9  O   UNL     1      11.999  10.626  11.015  1.00  0.00    -0.545 OA
ENDBRANCH   1   7
BRANCH   4  10
ATOM     10  O   UNL     1       7.850   8.903  15.125  1.00  0.00    -0.504 OA
ATOM     11  H   UNL     1       7.021   8.979  14.552  1.00  0.00     0.293 HD
ENDBRANCH   4  10
BRANCH   5  12
ATOM     12  O   UNL     1      12.054  11.137  16.201  1.00  0.00    -0.504 OA
ATOM     13  H   UNL     1      12.650  11.916  15.943  1.00  0.00     0.293 HD
ENDBRANCH   5  12
BRANCH   6  14
ATOM     14  O   UNL     1       9.633  10.169  17.058  1.00  0.00    -0.502 OA
ATOM     15  H   UNL     1       9.742   9.436  17.743  1.00  0.00     0.293 HD
ENDBRANCH   6  14
TORSDOF 4
ENDMDL
MODEL 9
REMARK VINA RESULT:    -4.871      1.433      4.755
REMARK INTER + INTRA:          -5.630
REMARK INTER:                  -5.578
REMARK INTRA:                  -0.053
REMARK UNBOUND:                -0.047
REMARK SMILES O=C([O-])c1cc(O)c(O)c(O)c1
REMARK SMILES IDX 4 1 5 2 12 3 6 4 10 5 8 6 2 7 1 8 3 9 7 10 11 12 9 14
REMARK H PARENT 7 11 11 13 9 15
REMARK Flexibility Score: inf
ROOT
ATOM      1  C   UNL     1      10.086   9.821  13.870  1.00  0.00     0.005 A 
ATOM      2  C   UNL     1      11.087   9.384  12.989  1.00  0.00     0.060 A 
ATOM      3  C   UNL     1      10.443  10.633  14.959  1.00  0.00     0.060 A 
ATOM      4  C   UNL     1      12.426   9.746  13.181  1.00  0.00     0.162 A 
ATOM      5  C   UNL     1      11.779  11.001  15.163  1.00  0.00     0.162 A 
ATOM      6  C   UNL     1      12.777  10.564  14.280  1.00  0.00     0.200 A 
ENDROOT
BRANCH   1   7
ATOM      7  C   UNL     1       8.675   9.429  13.653  1.00  0.00     0.072 C 
ATOM      8  O   UNL     1       7.785   9.751  14.484  1.00  0.00    -0.545 OA
ATOM      9  O   UNL     1       8.312   8.699  12.526  1.00  0.00    -0.545 OA
ENDBRANCH   1   7
BRANCH   4  10
ATOM     10  O   UNL     1      13.365   9.273  12.263  1.00  0.00    -0.504 OA
ATOM     11  H   UNL     1      13.635   8.303  12.176  1.00  0.00     0.293 HD
ENDBRANCH   4  10
BRANCH   5  12
ATOM     12  O   UNL     1      12.125  11.809  16.245  1.00  0.00    -0.504 OA
ATOM     13  H   UNL     1      11.796  11.610  17.183  1.00  0.00     0.293 HD
ENDBRANCH   5  12
BRANCH   6  14
ATOM     14  O   UNL     1      14.093  10.961  14.530  1.00  0.00    -0.502 OA
ATOM     15  H   UNL     1      14.777  11.141  13.809  1.00  0.00     0.293 HD
ENDBRANCH   6  14
TORSDOF 4
ENDMDL
