MODEL 1
REMARK VINA RESULT:    -5.051      0.000      0.000
REMARK INTER + INTRA:         -11.495
REMARK INTER:                  -9.186
REMARK INTRA:                  -2.309
REMARK UNBOUND:                -2.309
REMARK SMILES CCCCCCCCCCCCCCCC(=O)[O-]
REMARK SMILES IDX 9 1 10 2 11 3 12 4 13 5 14 6 15 7 16 8 17 9 18 10 8 11 7 12
REMARK SMILES IDX 6 13 5 14 4 15 3 16 2 17 1 18
REMARK H PARENT
REMARK Flexibility Score: inf
ROOT
ATOM      1  C   UNL     1     140.008 139.387 112.900  1.00  0.00     0.000 C 
ENDROOT
BRANCH   1   2
ATOM      2  C   UNL     1     139.285 140.214 113.977  1.00  0.00     0.000 C 
BRANCH   2   3
ATOM      3  C   UNL     1     139.898 140.040 115.376  1.00  0.00     0.000 C 
BRANCH   3   4
ATOM      4  C   UNL     1     141.326 139.473 115.330  1.00  0.00     0.000 C 
BRANCH   4   5
ATOM      5  C   UNL     1     142.144 139.836 116.578  1.00  0.00     0.000 C 
BRANCH   5   6
ATOM      6  C   UNL     1     141.391 140.843 117.457  1.00  0.00     0.006 C 
BRANCH   6   7
ATOM      7  C   UNL     1     141.443 140.432 118.930  1.00  0.00     0.053 C 
BRANCH   7   8
ATOM      8  C   UNL     1     140.146 140.741 119.608  1.00  0.00     0.041 C 
ATOM      9  O   UNL     1     140.066 140.715 120.864  1.00  0.00    -0.550 OA
ATOM     10  O   UNL     1     139.035 141.095 118.854  1.00  0.00    -0.550 OA
ENDBRANCH   7   8
ENDBRANCH   6   7
ENDBRANCH   5   6
ENDBRANCH   4   5
ENDBRANCH   3   4
ENDBRANCH   2   3
ENDBRANCH   1   2
BRANCH   1  11
ATOM     11  C   UNL     1     140.612 140.244 111.767  1.00  0.00     0.000 C 
BRANCH  11  12
ATOM     12  C   UNL     1     142.097 140.556 112.001  1.00  0.00    -0.000 C 
BRANCH  12  13
ATOM     13  C   UNL     1     142.295 142.020 112.420  1.00  0.00    -0.000 C 
BRANCH  13  14
ATOM     14  C   UNL     1     143.099 142.159 113.722  1.00  0.00    -0.000 C 
BRANCH  14  15
ATOM     15  C   UNL     1     142.370 143.011 114.777  1.00  0.00    -0.000 C 
BRANCH  15  16
ATOM     16  C   UNL     1     141.086 143.653 114.231  1.00  0.00    -0.000 C 
BRANCH  16  17
ATOM     17  C   UNL     1     139.918 143.568 115.224  1.00  0.00    -0.003 C 
ATOM     18  C   UNL     1     139.247 144.928 115.404  1.00  0.00     0.004 C 
ENDBRANCH  16  17
ENDBRANCH  15  16
ENDBRANCH  14  15
ENDBRANCH  13  14
ENDBRANCH  12  13
ENDBRANCH  11  12
ENDBRANCH   1  11
TORSDOF 14
ENDMDL
MODEL 2
REMARK VINA RESULT:    -4.836      1.341      2.051
REMARK INTER + INTRA:         -11.104
REMARK INTER:                  -8.956
REMARK INTRA:                  -2.147
REMARK UNBOUND:                -2.309
REMARK SMILES CCCCCCCCCCCCCCCC(=O)[O-]
REMARK SMILES IDX 9 1 10 2 11 3 12 4 13 5 14 6 15 7 16 8 17 9 18 10 8 11 7 12
REMARK SMILES IDX 6 13 5 14 4 15 3 16 2 17 1 18
REMARK H PARENT
REMARK Flexibility Score: inf
ROOT
ATOM      1  C   UNL     1     142.200 139.117 113.001  1.00  0.00     0.000 C 
ENDROOT
BRANCH   1   2
ATOM      2  C   UNL     1     140.925 139.447 112.207  1.00  0.00     0.000 C 
BRANCH   2   3
ATOM      3  C   UNL     1     139.705 139.691 113.111  1.00  0.00     0.000 C 
BRANCH   3   4
ATOM      4  C   UNL     1     139.957 139.275 114.569  1.00  0.00     0.000 C 
BRANCH   4   5
ATOM      5  C   UNL     1     139.197 140.156 115.572  1.00  0.00     0.000 C 
BRANCH   5   6
ATOM      6  C   UNL     1     140.168 140.912 116.487  1.00  0.00     0.006 C 
BRANCH   6   7
ATOM      7  C   UNL     1     139.546 141.159 117.863  1.00  0.00     0.053 C 
BRANCH   7   8
ATOM      8  C   UNL     1     140.446 140.652 118.946  1.00  0.00     0.041 C 
ATOM      9  O   UNL     1     141.614 140.270 118.672  1.00  0.00    -0.550 OA
ATOM     10  O   UNL     1     140.007 140.639 120.264  1.00  0.00    -0.550 OA
ENDBRANCH   7   8
ENDBRANCH   6   7
ENDBRANCH   5   6
ENDBRANCH   4   5
ENDBRANCH   3   4
ENDBRANCH   2   3
ENDBRANCH   1   2
BRANCH   1  11
ATOM     11  C   UNL     1     143.453 139.864 112.494  1.00  0.00     0.000 C 
BRANCH  11  12
ATOM     12  C   UNL     1     144.213 140.564 113.630  1.00  0.00    -0.000 C 
BRANCH  12  13
ATOM     13  C   UNL     1     143.249 141.038 114.729  1.00  0.00    -0.000 C 
BRANCH  13  14
ATOM     14  C   UNL     1     142.825 142.504 114.552  1.00  0.00    -0.000 C 
BRANCH  14  15
ATOM     15  C   UNL     1     141.871 142.703 113.362  1.00  0.00    -0.000 C 
BRANCH  15  16
ATOM     16  C   UNL     1     140.506 143.265 113.787  1.00  0.00    -0.000 C 
BRANCH  16  17
ATOM     17  C   UNL     1     140.611 144.219 114.987  1.00  0.00    -0.003 C 
ATOM     18  C   UNL     1     139.229 144.661 115.461  1.00  0.00     0.004 C 
ENDBRANCH  16  17
ENDBRANCH  15  16
ENDBRANCH  14  15
ENDBRANCH  13  14
ENDBRANCH  12  13
ENDBRANCH  11  12
ENDBRANCH   1  11
TORSDOF 14
ENDMDL
MODEL 3
REMARK VINA RESULT:    -4.793      2.940      4.566
REMARK INTER + INTRA:         -11.024
REMARK INTER:                  -9.024
REMARK INTRA:                  -2.000
REMARK UNBOUND:                -2.309
REMARK SMILES CCCCCCCCCCCCCCCC(=O)[O-]
REMARK SMILES IDX 9 1 10 2 11 3 12 4 13 5 14 6 15 7 16 8 17 9 18 10 8 11 7 12
REMARK SMILES IDX 6 13 5 14 4 15 3 16 2 17 1 18
REMARK H PARENT
REMARK Flexibility Score: inf
ROOT
ATOM      1  C   UNL     1     142.735 140.635 113.307  1.00  0.00     0.000 C 
ENDROOT
BRANCH   1   2
ATOM      2  C   UNL     1     141.748 139.469 113.490  1.00  0.00     0.000 C 
BRANCH   2   3
ATOM      3  C   UNL     1     140.604 139.487 112.463  1.00  0.00     0.000 C 
BRANCH   3   4
ATOM      4  C   UNL     1     139.216 139.499 113.124  1.00  0.00     0.000 C 
BRANCH   4   5
ATOM      5  C   UNL     1     139.064 138.408 114.194  1.00  0.00     0.000 C 
BRANCH   5   6
ATOM      6  C   UNL     1     137.589 138.052 114.412  1.00  0.00     0.006 C 
BRANCH   6   7
ATOM      7  C   UNL     1     137.407 136.541 114.573  1.00  0.00     0.053 C 
BRANCH   7   8
ATOM      8  C   UNL     1     136.489 136.242 115.716  1.00  0.00     0.041 C 
ATOM      9  O   UNL     1     136.899 135.569 116.699  1.00  0.00    -0.550 OA
ATOM     10  O   UNL     1     135.191 136.737 115.714  1.00  0.00    -0.550 OA
ENDBRANCH   7   8
ENDBRANCH   6   7
ENDBRANCH   5   6
ENDBRANCH   4   5
ENDBRANCH   3   4
ENDBRANCH   2   3
ENDBRANCH   1   2
BRANCH   1  11
ATOM     11  C   UNL     1     143.337 141.147 114.633  1.00  0.00     0.000 C 
BRANCH  11  12
ATOM     12  C   UNL     1     142.749 142.503 115.054  1.00  0.00    -0.000 C 
BRANCH  12  13
ATOM     13  C   UNL     1     141.828 143.068 113.962  1.00  0.00    -0.000 C 
BRANCH  13  14
ATOM     14  C   UNL     1     140.345 143.039 114.364  1.00  0.00    -0.000 C 
BRANCH  14  15
ATOM     15  C   UNL     1     140.149 142.823 115.875  1.00  0.00    -0.000 C 
BRANCH  15  16
ATOM     16  C   UNL     1     139.496 141.471 116.198  1.00  0.00    -0.000 C 
BRANCH  16  17
ATOM     17  C   UNL     1     140.334 140.631 117.172  1.00  0.00    -0.003 C 
ATOM     18  C   UNL     1     140.876 141.488 118.313  1.00  0.00     0.004 C 
ENDBRANCH  16  17
ENDBRANCH  15  16
ENDBRANCH  14  15
ENDBRANCH  13  14
ENDBRANCH  12  13
ENDBRANCH  11  12
ENDBRANCH   1  11
TORSDOF 14
ENDMDL
MODEL 4
REMARK VINA RESULT:    -4.750      6.702      8.997
REMARK INTER + INTRA:         -10.948
REMARK INTER:                  -8.686
REMARK INTRA:                  -2.262
REMARK UNBOUND:                -2.309
REMARK SMILES CCCCCCCCCCCCCCCC(=O)[O-]
REMARK SMILES IDX 9 1 10 2 11 3 12 4 13 5 14 6 15 7 16 8 17 9 18 10 8 11 7 12
REMARK SMILES IDX 6 13 5 14 4 15 3 16 2 17 1 18
REMARK H PARENT
REMARK Flexibility Score: inf
ROOT
ATOM      1  C   UNL     1     134.437 137.252 112.999  1.00  0.00     0.000 C 
ENDROOT
BRANCH   1   2
ATOM      2  C   UNL     1     135.517 137.050 111.924  1.00  0.00     0.000 C 
BRANCH   2   3
ATOM      3  C   UNL     1     136.944 137.082 112.496  1.00  0.00     0.000 C 
BRANCH   3   4
ATOM      4  C   UNL     1     136.989 137.592 113.945  1.00  0.00     0.000 C 
BRANCH   4   5
ATOM      5  C   UNL     1     137.414 136.503 114.940  1.00  0.00     0.000 C 
BRANCH   5   6
ATOM      6  C   UNL     1     136.428 136.410 116.110  1.00  0.00     0.006 C 
BRANCH   6   7
ATOM      7  C   UNL     1     137.060 135.695 117.306  1.00  0.00     0.053 C 
BRANCH   7   8
ATOM      8  C   UNL     1     136.017 135.339 118.318  1.00  0.00     0.041 C 
ATOM      9  O   UNL     1     135.817 136.087 119.311  1.00  0.00    -0.550 OA
ATOM     10  O   UNL     1     135.240 134.201 118.144  1.00  0.00    -0.550 OA
ENDBRANCH   7   8
ENDBRANCH   6   7
ENDBRANCH   5   6
ENDBRANCH   4   5
ENDBRANCH   3   4
ENDBRANCH   2   3
ENDBRANCH   1   2
BRANCH   1  11
ATOM     11  C   UNL     1     133.024 136.826 112.543  1.00  0.00     0.000 C 
BRANCH  11  12
ATOM     12  C   UNL     1     132.339 135.901 113.560  1.00  0.00    -0.000 C 
BRANCH  12  13
ATOM     13  C   UNL     1     133.190 135.748 114.829  1.00  0.00    -0.000 C 
BRANCH  13  14
ATOM     14  C   UNL     1     133.551 134.284 115.127  1.00  0.00    -0.000 C 
BRANCH  14  15
ATOM     15  C   UNL     1     134.125 133.557 113.898  1.00  0.00    -0.000 C 
BRANCH  15  16
ATOM     16  C   UNL     1     135.659 133.481 113.921  1.00  0.00    -0.000 C 
BRANCH  16  17
ATOM     17  C   UNL     1     136.174 132.214 114.618  1.00  0.00    -0.003 C 
ATOM     18  C   UNL     1     137.167 132.559 115.725  1.00  0.00     0.004 C 
ENDBRANCH  16  17
ENDBRANCH  15  16
ENDBRANCH  14  15
ENDBRANCH  13  14
ENDBRANCH  12  13
ENDBRANCH  11  12
ENDBRANCH   1  11
TORSDOF 14
ENDMDL
MODEL 5
REMARK VINA RESULT:    -4.693      5.209      7.561
REMARK INTER + INTRA:         -10.844
REMARK INTER:                  -9.269
REMARK INTRA:                  -1.575
REMARK UNBOUND:                -2.309
REMARK SMILES CCCCCCCCCCCCCCCC(=O)[O-]
REMARK SMILES IDX 9 1 10 2 11 3 12 4 13 5 14 6 15 7 16 8 17 9 18 10 8 11 7 12
REMARK SMILES IDX 6 13 5 14 4 15 3 16 2 17 1 18
REMARK H PARENT
REMARK Flexibility Score: inf
ROOT
ATOM      1  C   UNL     1     136.524 136.183 112.711  1.00  0.00     0.000 C 
ENDROOT
BRANCH   1   2
ATOM      2  C   UNL     1     137.226 136.223 114.079  1.00  0.00     0.000 C 
BRANCH   2   3
ATOM      3  C   UNL     1     137.949 137.555 114.340  1.00  0.00     0.000 C 
BRANCH   3   4
ATOM      4  C   UNL     1     138.290 138.307 113.044  1.00  0.00     0.000 C 
BRANCH   4   5
ATOM      5  C   UNL     1     139.183 139.532 113.292  1.00  0.00     0.000 C 
BRANCH   5   6
ATOM      6  C   UNL     1     139.071 140.011 114.744  1.00  0.00     0.006 C 
BRANCH   6   7
ATOM      7  C   UNL     1     139.835 141.320 114.951  1.00  0.00     0.053 C 
BRANCH   7   8
ATOM      8  C   UNL     1     140.481 141.345 116.300  1.00  0.00     0.041 C 
ATOM      9  O   UNL     1     140.078 142.150 117.181  1.00  0.00    -0.550 OA
ATOM     10  O   UNL     1     141.502 140.452 116.598  1.00  0.00    -0.550 OA
ENDBRANCH   7   8
ENDBRANCH   6   7
ENDBRANCH   5   6
ENDBRANCH   4   5
ENDBRANCH   3   4
ENDBRANCH   2   3
ENDBRANCH   1   2
BRANCH   1  11
ATOM     11  C   UNL     1     135.708 134.893 112.474  1.00  0.00     0.000 C 
BRANCH  11  12
ATOM     12  C   UNL     1     135.693 133.979 113.709  1.00  0.00    -0.000 C 
BRANCH  12  13
ATOM     13  C   UNL     1     134.265 133.517 114.035  1.00  0.00    -0.000 C 
BRANCH  13  14
ATOM     14  C   UNL     1     133.733 134.120 115.345  1.00  0.00    -0.000 C 
BRANCH  14  15
ATOM     15  C   UNL     1     133.799 135.658 115.356  1.00  0.00    -0.000 C 
BRANCH  15  16
ATOM     16  C   UNL     1     134.583 136.205 116.558  1.00  0.00    -0.000 C 
BRANCH  16  17
ATOM     17  C   UNL     1     135.199 135.090 117.415  1.00  0.00    -0.003 C 
ATOM     18  C   UNL     1     136.701 135.300 117.595  1.00  0.00     0.004 C 
ENDBRANCH  16  17
ENDBRANCH  15  16
ENDBRANCH  14  15
ENDBRANCH  13  14
ENDBRANCH  12  13
ENDBRANCH  11  12
ENDBRANCH   1  11
TORSDOF 14
ENDMDL
MODEL 6
REMARK VINA RESULT:    -4.686      3.860      5.120
REMARK INTER + INTRA:         -10.830
REMARK INTER:                  -9.360
REMARK INTRA:                  -1.470
REMARK UNBOUND:                -2.309
REMARK SMILES CCCCCCCCCCCCCCCC(=O)[O-]
REMARK SMILES IDX 9 1 10 2 11 3 12 4 13 5 14 6 15 7 16 8 17 9 18 10 8 11 7 12
REMARK SMILES IDX 6 13 5 14 4 15 3 16 2 17 1 18
REMARK H PARENT
REMARK Flexibility Score: inf
ROOT
ATOM      1  C   UNL     1     139.163 139.542 112.807  1.00  0.00     0.000 C 
ENDROOT
BRANCH   1   2
ATOM      2  C   UNL     1     138.341 138.366 112.255  1.00  0.00     0.000 C 
BRANCH   2   3
ATOM      3  C   UNL     1     137.879 137.392 113.352  1.00  0.00     0.000 C 
BRANCH   3   4
ATOM      4  C   UNL     1     136.370 137.487 113.631  1.00  0.00     0.000 C 
BRANCH   4   5
ATOM      5  C   UNL     1     135.974 136.827 114.959  1.00  0.00     0.000 C 
BRANCH   5   6
ATOM      6  C   UNL     1     137.148 136.040 115.555  1.00  0.00     0.006 C 
BRANCH   6   7
ATOM      7  C   UNL     1     136.690 134.670 116.060  1.00  0.00     0.053 C 
BRANCH   7   8
ATOM      8  C   UNL     1     136.338 134.736 117.513  1.00  0.00     0.041 C 
ATOM      9  O   UNL     1     135.404 134.026 117.971  1.00  0.00    -0.550 OA
ATOM     10  O   UNL     1     137.065 135.554 118.367  1.00  0.00    -0.550 OA
ENDBRANCH   7   8
ENDBRANCH   6   7
ENDBRANCH   5   6
ENDBRANCH   4   5
ENDBRANCH   3   4
ENDBRANCH   2   3
ENDBRANCH   1   2
BRANCH   1  11
ATOM     11  C   UNL     1     140.446 139.104 113.547  1.00  0.00     0.000 C 
BRANCH  11  12
ATOM     12  C   UNL     1     140.474 139.592 115.003  1.00  0.00    -0.000 C 
BRANCH  12  13
ATOM     13  C   UNL     1     139.391 140.653 115.250  1.00  0.00    -0.000 C 
BRANCH  13  14
ATOM     14  C   UNL     1     139.978 142.051 115.500  1.00  0.00    -0.000 C 
BRANCH  14  15
ATOM     15  C   UNL     1     140.458 142.729 114.205  1.00  0.00    -0.000 C 
BRANCH  15  16
ATOM     16  C   UNL     1     141.846 143.371 114.354  1.00  0.00    -0.000 C 
BRANCH  16  17
ATOM     17  C   UNL     1     142.817 142.491 115.154  1.00  0.00    -0.003 C 
ATOM     18  C   UNL     1     143.572 141.530 114.239  1.00  0.00     0.004 C 
ENDBRANCH  16  17
ENDBRANCH  15  16
ENDBRANCH  14  15
ENDBRANCH  13  14
ENDBRANCH  12  13
ENDBRANCH  11  12
ENDBRANCH   1  11
TORSDOF 14
ENDMDL
MODEL 7
REMARK VINA RESULT:    -4.686      5.530      8.032
REMARK INTER + INTRA:         -10.830
REMARK INTER:                  -9.296
REMARK INTRA:                  -1.534
REMARK UNBOUND:                -2.309
REMARK SMILES CCCCCCCCCCCCCCCC(=O)[O-]
REMARK SMILES IDX 9 1 10 2 11 3 12 4 13 5 14 6 15 7 16 8 17 9 18 10 8 11 7 12
REMARK SMILES IDX 6 13 5 14 4 15 3 16 2 17 1 18
REMARK H PARENT
REMARK Flexibility Score: inf
ROOT
ATOM      1  C   UNL     1     135.827 137.076 113.061  1.00  0.00     0.000 C 
ENDROOT
BRANCH   1   2
ATOM      2  C   UNL     1     136.402 137.184 114.483  1.00  0.00     0.000 C 
BRANCH   2   3
ATOM      3  C   UNL     1     137.938 137.264 114.503  1.00  0.00     0.000 C 
BRANCH   3   4
ATOM      4  C   UNL     1     138.500 138.131 113.364  1.00  0.00     0.000 C 
BRANCH   4   5
ATOM      5  C   UNL     1     139.651 139.035 113.827  1.00  0.00     0.000 C 
BRANCH   5   6
ATOM      6  C   UNL     1     139.122 140.252 114.594  1.00  0.00     0.006 C 
BRANCH   6   7
ATOM      7  C   UNL     1     140.258 141.214 114.949  1.00  0.00     0.053 C 
BRANCH   7   8
ATOM      8  C   UNL     1     139.808 142.202 115.978  1.00  0.00     0.041 C 
ATOM      9  O   UNL     1     139.503 143.377 115.640  1.00  0.00    -0.550 OA
ATOM     10  O   UNL     1     139.689 141.815 117.307  1.00  0.00    -0.550 OA
ENDBRANCH   7   8
ENDBRANCH   6   7
ENDBRANCH   5   6
ENDBRANCH   4   5
ENDBRANCH   3   4
ENDBRANCH   2   3
ENDBRANCH   1   2
BRANCH   1  11
ATOM     11  C   UNL     1     134.284 137.025 113.022  1.00  0.00     0.000 C 
BRANCH  11  12
ATOM     12  C   UNL     1     133.763 135.891 112.127  1.00  0.00    -0.000 C 
BRANCH  12  13
ATOM     13  C   UNL     1     133.063 134.807 112.961  1.00  0.00    -0.000 C 
BRANCH  13  14
ATOM     14  C   UNL     1     133.102 135.103 114.468  1.00  0.00    -0.000 C 
BRANCH  14  15
ATOM     15  C   UNL     1     133.730 133.955 115.278  1.00  0.00    -0.000 C 
BRANCH  15  16
ATOM     16  C   UNL     1     134.591 133.024 114.412  1.00  0.00    -0.000 C 
BRANCH  16  17
ATOM     17  C   UNL     1     136.082 133.392 114.456  1.00  0.00    -0.003 C 
ATOM     18  C   UNL     1     136.524 133.727 115.878  1.00  0.00     0.004 C 
ENDBRANCH  16  17
ENDBRANCH  15  16
ENDBRANCH  14  15
ENDBRANCH  13  14
ENDBRANCH  12  13
ENDBRANCH  11  12
ENDBRANCH   1  11
TORSDOF 14
ENDMDL
MODEL 8
REMARK VINA RESULT:    -4.669      4.899      7.351
REMARK INTER + INTRA:         -10.799
REMARK INTER:                  -9.550
REMARK INTRA:                  -1.248
REMARK UNBOUND:                -2.309
REMARK SMILES CCCCCCCCCCCCCCCC(=O)[O-]
REMARK SMILES IDX 9 1 10 2 11 3 12 4 13 5 14 6 15 7 16 8 17 9 18 10 8 11 7 12
REMARK SMILES IDX 6 13 5 14 4 15 3 16 2 17 1 18
REMARK H PARENT
REMARK Flexibility Score: inf
ROOT
ATOM      1  C   UNL     1     138.625 137.996 114.084  1.00  0.00     0.000 C 
ENDROOT
BRANCH   1   2
ATOM      2  C   UNL     1     139.242 139.402 113.995  1.00  0.00     0.000 C 
BRANCH   2   3
ATOM      3  C   UNL     1     139.161 140.176 115.321  1.00  0.00     0.000 C 
BRANCH   3   4
ATOM      4  C   UNL     1     140.527 140.311 116.011  1.00  0.00     0.000 C 
BRANCH   4   5
ATOM      5  C   UNL     1     141.696 139.961 115.078  1.00  0.00     0.000 C 
BRANCH   5   6
ATOM      6  C   UNL     1     142.855 140.949 115.252  1.00  0.00     0.006 C 
BRANCH   6   7
ATOM      7  C   UNL     1     143.190 141.641 113.929  1.00  0.00     0.053 C 
BRANCH   7   8
ATOM      8  C   UNL     1     142.090 142.574 113.531  1.00  0.00     0.041 C 
ATOM      9  O   UNL     1     141.446 142.376 112.467  1.00  0.00    -0.550 OA
ATOM     10  O   UNL     1     141.751 143.640 114.354  1.00  0.00    -0.550 OA
ENDBRANCH   7   8
ENDBRANCH   6   7
ENDBRANCH   5   6
ENDBRANCH   4   5
ENDBRANCH   3   4
ENDBRANCH   2   3
ENDBRANCH   1   2
BRANCH   1  11
ATOM     11  C   UNL     1     137.139 137.947 113.667  1.00  0.00     0.000 C 
BRANCH  11  12
ATOM     12  C   UNL     1     136.301 137.062 114.601  1.00  0.00    -0.000 C 
BRANCH  12  13
ATOM     13  C   UNL     1     137.195 136.109 115.408  1.00  0.00    -0.000 C 
BRANCH  13  14
ATOM     14  C   UNL     1     136.765 134.640 115.277  1.00  0.00    -0.000 C 
BRANCH  14  15
ATOM     15  C   UNL     1     135.896 134.389 114.031  1.00  0.00    -0.000 C 
BRANCH  15  16
ATOM     16  C   UNL     1     134.773 133.374 114.291  1.00  0.00    -0.000 C 
BRANCH  16  17
ATOM     17  C   UNL     1     133.621 133.969 115.115  1.00  0.00    -0.003 C 
ATOM     18  C   UNL     1     132.993 135.163 114.401  1.00  0.00     0.004 C 
ENDBRANCH  16  17
ENDBRANCH  15  16
ENDBRANCH  14  15
ENDBRANCH  13  14
ENDBRANCH  12  13
ENDBRANCH  11  12
ENDBRANCH   1  11
TORSDOF 14
ENDMDL
MODEL 9
REMARK VINA RESULT:    -4.578      5.339      7.611
REMARK INTER + INTRA:         -10.633
REMARK INTER:                  -8.834
REMARK INTRA:                  -1.799
REMARK UNBOUND:                -2.309
REMARK SMILES CCCCCCCCCCCCCCCC(=O)[O-]
REMARK SMILES IDX 9 1 10 2 11 3 12 4 13 5 14 6 15 7 16 8 17 9 18 10 8 11 7 12
REMARK SMILES IDX 6 13 5 14 4 15 3 16 2 17 1 18
REMARK H PARENT
REMARK Flexibility Score: inf
ROOT
ATOM      1  C   UNL     1     134.676 137.229 113.188  1.00  0.00     0.000 C 
ENDROOT
BRANCH   1   2
ATOM      2  C   UNL     1     135.678 137.164 112.023  1.00  0.00     0.000 C 
BRANCH   2   3
ATOM      3  C   UNL     1     137.112 137.522 112.446  1.00  0.00     0.000 C 
BRANCH   3   4
ATOM      4  C   UNL     1     137.259 137.671 113.969  1.00  0.00     0.000 C 
BRANCH   4   5
ATOM      5  C   UNL     1     138.683 138.067 114.388  1.00  0.00     0.000 C 
BRANCH   5   6
ATOM      6  C   UNL     1     138.845 139.591 114.415  1.00  0.00     0.006 C 
BRANCH   6   7
ATOM      7  C   UNL     1     140.016 140.002 115.311  1.00  0.00     0.053 C 
BRANCH   7   8
ATOM      8  C   UNL     1     139.658 141.206 116.125  1.00  0.00     0.041 C 
ATOM      9  O   UNL     1     139.422 141.090 117.357  1.00  0.00    -0.550 OA
ATOM     10  O   UNL     1     139.622 142.460 115.531  1.00  0.00    -0.550 OA
ENDBRANCH   7   8
ENDBRANCH   6   7
ENDBRANCH   5   6
ENDBRANCH   4   5
ENDBRANCH   3   4
ENDBRANCH   2   3
ENDBRANCH   1   2
BRANCH   1  11
ATOM     11  C   UNL     1     133.468 136.282 113.017  1.00  0.00     0.000 C 
BRANCH  11  12
ATOM     12  C   UNL     1     133.874 134.920 112.435  1.00  0.00    -0.000 C 
BRANCH  12  13
ATOM     13  C   UNL     1     134.239 133.930 113.552  1.00  0.00    -0.000 C 
BRANCH  13  14
ATOM     14  C   UNL     1     135.753 133.856 113.805  1.00  0.00    -0.000 C 
BRANCH  14  15
ATOM     15  C   UNL     1     136.134 134.288 115.232  1.00  0.00    -0.000 C 
BRANCH  15  16
ATOM     16  C   UNL     1     134.908 134.632 116.091  1.00  0.00    -0.000 C 
BRANCH  16  17
ATOM     17  C   UNL     1     134.954 136.067 116.634  1.00  0.00    -0.003 C 
ATOM     18  C   UNL     1     134.968 136.079 118.161  1.00  0.00     0.004 C 
ENDBRANCH  16  17
ENDBRANCH  15  16
ENDBRANCH  14  15
ENDBRANCH  13  14
ENDBRANCH  12  13
ENDBRANCH  11  12
ENDBRANCH   1  11
TORSDOF 14
ENDMDL
