MODEL 1
REMARK VINA RESULT:    -4.560      0.000      0.000
REMARK INTER + INTRA:          -4.850
REMARK INTER:                  -4.827
REMARK INTRA:                  -0.024
REMARK UNBOUND:                -0.024
REMARK SMILES O=C([O-])c1cccnc1
REMARK SMILES IDX 4 1 5 2 9 3 6 4 8 5 7 6 2 7 1 8 3 9
REMARK H PARENT
REMARK Flexibility Score: inf
ROOT
ATOM      1  C   UNL     1     -21.514   0.683   8.710  1.00  0.00     0.016 A 
ATOM      2  C   UNL     1     -21.407   1.014   7.349  1.00  0.00     0.013 A 
ATOM      3  C   UNL     1     -21.184  -0.623   9.108  1.00  0.00     0.120 A 
ATOM      4  C   UNL     1     -20.982   0.055   6.427  1.00  0.00     0.021 A 
ATOM      5  N   UNL     1     -20.772  -1.538   8.190  1.00  0.00    -0.264 NA
ATOM      6  C   UNL     1     -20.665  -1.229   6.871  1.00  0.00     0.111 A 
ENDROOT
BRANCH   1   7
ATOM      7  C   UNL     1     -21.963   1.690   9.696  1.00  0.00     0.073 C 
ATOM      8  O   UNL     1     -21.947   1.430  10.929  1.00  0.00    -0.545 OA
ATOM      9  O   UNL     1     -22.410   2.937   9.275  1.00  0.00    -0.545 OA
ENDBRANCH   1   7
TORSDOF 1
ENDMDL
MODEL 2
REMARK VINA RESULT:    -4.552      2.469      3.261
REMARK INTER + INTRA:          -4.841
REMARK INTER:                  -4.818
REMARK INTRA:                  -0.024
REMARK UNBOUND:                -0.024
REMARK SMILES O=C([O-])c1cccnc1
REMARK SMILES IDX 4 1 5 2 9 3 6 4 8 5 7 6 2 7 1 8 3 9
REMARK H PARENT
REMARK Flexibility Score: inf
ROOT
ATOM      1  C   UNL     1     -20.939  -0.782   8.557  1.00  0.00     0.016 A 
ATOM      2  C   UNL     1     -20.826  -0.839   7.158  1.00  0.00     0.013 A 
ATOM      3  C   UNL     1     -21.335   0.431   9.146  1.00  0.00     0.120 A 
ATOM      4  C   UNL     1     -21.104   0.291   6.386  1.00  0.00     0.021 A 
ATOM      5  N   UNL     1     -21.601   1.517   8.372  1.00  0.00    -0.264 NA
ATOM      6  C   UNL     1     -21.494   1.472   7.018  1.00  0.00     0.111 A 
ENDROOT
BRANCH   1   7
ATOM      7  C   UNL     1     -20.648  -1.972   9.385  1.00  0.00     0.073 C 
ATOM      8  O   UNL     1     -20.811  -1.939  10.634  1.00  0.00    -0.545 OA
ATOM      9  O   UNL     1     -20.188  -3.144   8.796  1.00  0.00    -0.545 OA
ENDBRANCH   1   7
TORSDOF 1
ENDMDL
MODEL 3
REMARK VINA RESULT:    -4.481      0.250      1.102
REMARK INTER + INTRA:          -4.767
REMARK INTER:                  -4.743
REMARK INTRA:                  -0.024
REMARK UNBOUND:                -0.024
REMARK SMILES O=C([O-])c1cccnc1
REMARK SMILES IDX 4 1 5 2 9 3 6 4 8 5 7 6 2 7 1 8 3 9
REMARK H PARENT
REMARK Flexibility Score: inf
ROOT
ATOM      1  C   UNL     1     -21.492   0.497   8.726  1.00  0.00     0.016 A 
ATOM      2  C   UNL     1     -21.432   0.733   7.343  1.00  0.00     0.013 A 
ATOM      3  C   UNL     1     -21.136  -0.776   9.203  1.00  0.00     0.120 A 
ATOM      4  C   UNL     1     -21.026  -0.283   6.476  1.00  0.00     0.021 A 
ATOM      5  N   UNL     1     -20.743  -1.748   8.337  1.00  0.00    -0.264 NA
ATOM      6  C   UNL     1     -20.681  -1.531   6.997  1.00  0.00     0.111 A 
ENDROOT
BRANCH   1   7
ATOM      7  C   UNL     1     -21.921   1.566   9.654  1.00  0.00     0.073 C 
ATOM      8  O   UNL     1     -22.316   2.678   9.212  1.00  0.00    -0.545 OA
ATOM      9  O   UNL     1     -21.892   1.359  11.028  1.00  0.00    -0.545 OA
ENDBRANCH   1   7
TORSDOF 1
ENDMDL
MODEL 4
REMARK VINA RESULT:    -4.238      0.998      1.945
REMARK INTER + INTRA:          -4.509
REMARK INTER:                  -4.486
REMARK INTRA:                  -0.023
REMARK UNBOUND:                -0.024
REMARK SMILES O=C([O-])c1cccnc1
REMARK SMILES IDX 4 1 5 2 9 3 6 4 8 5 7 6 2 7 1 8 3 9
REMARK H PARENT
REMARK Flexibility Score: inf
ROOT
ATOM      1  C   UNL     1     -21.532   0.827   8.501  1.00  0.00     0.016 A 
ATOM      2  C   UNL     1     -21.283  -0.513   8.837  1.00  0.00     0.013 A 
ATOM      3  C   UNL     1     -21.338   1.230   7.169  1.00  0.00     0.120 A 
ATOM      4  C   UNL     1     -20.854  -1.412   7.860  1.00  0.00     0.021 A 
ATOM      5  N   UNL     1     -20.919   0.334   6.236  1.00  0.00    -0.264 NA
ATOM      6  C   UNL     1     -20.675  -0.965   6.550  1.00  0.00     0.111 A 
ENDROOT
BRANCH   1   7
ATOM      7  C   UNL     1     -21.989   1.789   9.529  1.00  0.00     0.073 C 
ATOM      8  O   UNL     1     -22.419   2.925   9.196  1.00  0.00    -0.545 OA
ATOM      9  O   UNL     1     -21.948   1.451  10.877  1.00  0.00    -0.545 OA
ENDBRANCH   1   7
TORSDOF 1
ENDMDL
MODEL 5
REMARK VINA RESULT:    -4.182      2.383      3.329
REMARK INTER + INTRA:          -4.450
REMARK INTER:                  -4.426
REMARK INTRA:                  -0.024
REMARK UNBOUND:                -0.024
REMARK SMILES O=C([O-])c1cccnc1
REMARK SMILES IDX 4 1 5 2 9 3 6 4 8 5 7 6 2 7 1 8 3 9
REMARK H PARENT
REMARK Flexibility Score: inf
ROOT
ATOM      1  C   UNL     1     -20.960  -0.733   8.616  1.00  0.00     0.016 A 
ATOM      2  C   UNL     1     -21.347   0.478   9.213  1.00  0.00     0.013 A 
ATOM      3  C   UNL     1     -20.882  -0.792   7.214  1.00  0.00     0.120 A 
ATOM      4  C   UNL     1     -21.644   1.587   8.419  1.00  0.00     0.021 A 
ATOM      5  N   UNL     1     -21.176   0.303   6.463  1.00  0.00    -0.264 NA
ATOM      6  C   UNL     1     -21.551   1.480   7.030  1.00  0.00     0.111 A 
ENDROOT
BRANCH   1   7
ATOM      7  C   UNL     1     -20.643  -1.914   9.447  1.00  0.00     0.073 C 
ATOM      8  O   UNL     1     -20.748  -1.862  10.702  1.00  0.00    -0.545 OA
ATOM      9  O   UNL     1     -20.223  -3.100   8.855  1.00  0.00    -0.545 OA
ENDBRANCH   1   7
TORSDOF 1
ENDMDL
MODEL 6
REMARK VINA RESULT:    -4.091      2.605      3.590
REMARK INTER + INTRA:          -4.354
REMARK INTER:                  -4.331
REMARK INTRA:                  -0.023
REMARK UNBOUND:                -0.024
REMARK SMILES O=C([O-])c1cccnc1
REMARK SMILES IDX 4 1 5 2 9 3 6 4 8 5 7 6 2 7 1 8 3 9
REMARK H PARENT
REMARK Flexibility Score: inf
ROOT
ATOM      1  C   UNL     1     -21.163  -0.037   8.694  1.00  0.00     0.016 A 
ATOM      2  C   UNL     1     -21.702   0.698   9.763  1.00  0.00     0.013 A 
ATOM      3  C   UNL     1     -21.046   0.592   7.443  1.00  0.00     0.120 A 
ATOM      4  C   UNL     1     -22.106   2.020   9.571  1.00  0.00     0.021 A 
ATOM      5  N   UNL     1     -21.446   1.881   7.283  1.00  0.00    -0.264 NA
ATOM      6  C   UNL     1     -21.969   2.601   8.310  1.00  0.00     0.111 A 
ENDROOT
BRANCH   1   7
ATOM      7  C   UNL     1     -20.731  -1.439   8.886  1.00  0.00     0.073 C 
ATOM      8  O   UNL     1     -20.482  -1.879  10.040  1.00  0.00    -0.545 OA
ATOM      9  O   UNL     1     -20.592  -2.288   7.795  1.00  0.00    -0.545 OA
ENDBRANCH   1   7
TORSDOF 1
ENDMDL
MODEL 7
REMARK VINA RESULT:    -4.071      1.167      2.186
REMARK INTER + INTRA:          -4.333
REMARK INTER:                  -4.309
REMARK INTRA:                  -0.024
REMARK UNBOUND:                -0.024
REMARK SMILES O=C([O-])c1cccnc1
REMARK SMILES IDX 4 1 5 2 9 3 6 4 8 5 7 6 2 7 1 8 3 9
REMARK H PARENT
REMARK Flexibility Score: inf
ROOT
ATOM      1  C   UNL     1     -21.315  -0.027   8.725  1.00  0.00     0.016 A 
ATOM      2  C   UNL     1     -20.927  -0.969   9.692  1.00  0.00     0.013 A 
ATOM      3  C   UNL     1     -21.281  -0.406   7.372  1.00  0.00     0.120 A 
ATOM      4  C   UNL     1     -20.519  -2.246   9.302  1.00  0.00     0.021 A 
ATOM      5  N   UNL     1     -20.881  -1.656   7.019  1.00  0.00    -0.264 NA
ATOM      6  C   UNL     1     -20.503  -2.575   7.946  1.00  0.00     0.111 A 
ENDROOT
BRANCH   1   7
ATOM      7  C   UNL     1     -21.749   1.329   9.126  1.00  0.00     0.073 C 
ATOM      8  O   UNL     1     -21.957   2.218   8.258  1.00  0.00    -0.545 OA
ATOM      9  O   UNL     1     -21.932   1.641  10.468  1.00  0.00    -0.545 OA
ENDBRANCH   1   7
TORSDOF 1
ENDMDL
MODEL 8
REMARK VINA RESULT:    -4.001      2.749      3.536
REMARK INTER + INTRA:          -4.259
REMARK INTER:                  -4.236
REMARK INTRA:                  -0.023
REMARK UNBOUND:                -0.024
REMARK SMILES O=C([O-])c1cccnc1
REMARK SMILES IDX 4 1 5 2 9 3 6 4 8 5 7 6 2 7 1 8 3 9
REMARK H PARENT
REMARK Flexibility Score: inf
ROOT
ATOM      1  C   UNL     1     -21.195   0.034   8.460  1.00  0.00     0.016 A 
ATOM      2  C   UNL     1     -21.126   0.864   7.330  1.00  0.00     0.013 A 
ATOM      3  C   UNL     1     -21.715   0.567   9.651  1.00  0.00     0.120 A 
ATOM      4  C   UNL     1     -21.569   2.186   7.404  1.00  0.00     0.021 A 
ATOM      5  N   UNL     1     -22.140   1.858   9.697  1.00  0.00    -0.264 NA
ATOM      6  C   UNL     1     -22.079   2.670   8.609  1.00  0.00     0.111 A 
ENDROOT
BRANCH   1   7
ATOM      7  C   UNL     1     -20.729  -1.369   8.393  1.00  0.00     0.073 C 
ATOM      8  O   UNL     1     -20.685  -1.977   7.291  1.00  0.00    -0.545 OA
ATOM      9  O   UNL     1     -20.335  -2.036   9.548  1.00  0.00    -0.545 OA
ENDBRANCH   1   7
TORSDOF 1
ENDMDL
MODEL 9
REMARK VINA RESULT:    -3.073      2.601      3.555
REMARK INTER + INTRA:          -3.277
REMARK INTER:                  -3.255
REMARK INTRA:                  -0.022
REMARK UNBOUND:                -0.024
REMARK SMILES O=C([O-])c1cccnc1
REMARK SMILES IDX 4 1 5 2 9 3 6 4 8 5 7 6 2 7 1 8 3 9
REMARK H PARENT
REMARK Flexibility Score: inf
ROOT
ATOM      1  C   UNL     1     -20.895  -0.611   7.826  1.00  0.00     0.016 A 
ATOM      2  C   UNL     1     -20.538  -1.961   7.975  1.00  0.00     0.013 A 
ATOM      3  C   UNL     1     -21.206   0.129   8.979  1.00  0.00     0.120 A 
ATOM      4  C   UNL     1     -20.497  -2.538   9.246  1.00  0.00     0.021 A 
ATOM      5  N   UNL     1     -21.157  -0.457  10.205  1.00  0.00    -0.264 NA
ATOM      6  C   UNL     1     -20.813  -1.762  10.361  1.00  0.00     0.111 A 
ENDROOT
BRANCH   1   7
ATOM      7  C   UNL     1     -20.942   0.011   6.485  1.00  0.00     0.073 C 
ATOM      8  O   UNL     1     -21.731   0.965   6.249  1.00  0.00    -0.545 OA
ATOM      9  O   UNL     1     -20.117  -0.450   5.466  1.00  0.00    -0.545 OA
ENDBRANCH   1   7
TORSDOF 1
ENDMDL
