MODEL 1
REMARK VINA RESULT:    -3.351      0.000      0.000
REMARK INTER + INTRA:          -3.623
REMARK INTER:                  -4.135
REMARK INTRA:                   0.512
REMARK UNBOUND:                 0.512
REMARK SMILES C=C1[C@H]2CC[C@@H]3[C@@H]2C(C)(C)CCC[C@]13C
REMARK SMILES IDX 14 1 6 2 7 3 3 4 2 5 1 6 4 7 5 8 15 9 8 10 9 11 10 12 11 13
REMARK SMILES IDX 13 15 12 16
REMARK H PARENT
REMARK Flexibility Score: 80.00
ROOT
ATOM      1  C   UNL     1      50.200  33.029  29.805  1.00  0.00    -0.008 C 
ATOM      2  C   UNL     1      50.819  32.802  28.434  1.00  0.00     0.003 C 
ATOM      3  C   UNL     1      49.614  32.147  27.733  1.00  0.00     0.006 C 
ATOM      4  C   UNL     1      48.746  33.391  27.816  1.00  0.00     0.019 C 
ATOM      5  C   UNL     1      48.846  33.592  29.346  1.00  0.00    -0.068 C 
ATOM      6  C   UNL     1      47.887  34.097  30.128  1.00  0.00     0.009 C 
ATOM      7  C   UNL     1      49.602  34.464  27.156  1.00  0.00     0.008 C 
ATOM      8  C   UNL     1      51.020  34.085  27.590  1.00  0.00     0.005 C 
ATOM      9  C   UNL     1      50.968  34.064  30.656  1.00  0.00     0.016 C 
ENDROOT
BRANCH   3  10
ATOM     10  C   UNL     1      50.009  30.772  27.148  1.00  0.00    -0.032 C 
ATOM     11  C   UNL     1      48.793  30.053  26.501  1.00  0.00     0.011 C 
ATOM     12  C   UNL     1      51.088  30.923  26.054  1.00  0.00     0.011 C 
BRANCH  10  13
ATOM     13  C   UNL     1      50.567  29.925  28.383  1.00  0.00     0.007 CG0
ATOM     14  G   UNL     1      49.936  30.236  29.809  1.00  0.00     0.000 G0
ENDBRANCH  10  13
ENDBRANCH   3  10
BRANCH   1  15
ATOM     15  C   UNL     1      50.199  31.617  30.551  1.00  0.00     0.011 C 
BRANCH  15  16
ATOM     16  C   UNL     1      49.933  30.227  29.809  1.00  0.00     0.001 CG0
ATOM     17  G   UNL     1      50.559  29.928  28.378  1.00  0.00     0.000 G0
ENDBRANCH  15  16
ENDBRANCH   1  15
TORSDOF 0
ENDMDL
MODEL 2
REMARK VINA RESULT:    -3.309      1.582      3.283
REMARK INTER + INTRA:          -3.571
REMARK INTER:                  -4.095
REMARK INTRA:                   0.524
REMARK UNBOUND:                 0.512
REMARK SMILES C=C1[C@H]2CC[C@@H]3[C@@H]2C(C)(C)CCC[C@]13C
REMARK SMILES IDX 14 1 6 2 7 3 3 4 2 5 1 6 4 7 5 8 15 9 8 10 9 11 10 12 11 13
REMARK SMILES IDX 13 15 12 16
REMARK H PARENT
REMARK Flexibility Score: 80.00
ROOT
ATOM      1  C   UNL     1      48.905  33.564  29.238  1.00  0.00    -0.008 C 
ATOM      2  C   UNL     1      48.502  32.109  29.048  1.00  0.00     0.003 C 
ATOM      3  C   UNL     1      49.876  31.527  28.666  1.00  0.00     0.006 C 
ATOM      4  C   UNL     1      50.501  31.819  30.019  1.00  0.00     0.019 C 
ATOM      5  C   UNL     1      50.187  33.333  30.053  1.00  0.00    -0.068 C 
ATOM      6  C   UNL     1      50.946  34.272  30.627  1.00  0.00     0.009 C 
ATOM      7  C   UNL     1      49.559  31.134  30.999  1.00  0.00     0.008 C 
ATOM      8  C   UNL     1      48.186  31.345  30.357  1.00  0.00     0.005 C 
ATOM      9  C   UNL     1      47.875  34.379  30.050  1.00  0.00     0.016 C 
ENDROOT
BRANCH   3  10
ATOM     10  C   UNL     1      49.794  30.794  27.308  1.00  0.00    -0.032 C 
ATOM     11  C   UNL     1      51.191  30.297  26.840  1.00  0.00     0.011 C 
ATOM     12  C   UNL     1      48.873  29.558  27.398  1.00  0.00     0.011 C 
BRANCH  10  13
ATOM     13  C   UNL     1      49.209  31.864  26.275  1.00  0.00     0.007 CG0
ATOM     14  G   UNL     1      49.611  33.384  26.513  1.00  0.00     0.000 G0
ENDBRANCH  10  13
ENDBRANCH   3  10
BRANCH   1  15
ATOM     15  C   UNL     1      49.059  34.194  27.779  1.00  0.00     0.011 C 
BRANCH  15  16
ATOM     16  C   UNL     1      49.613  33.382  26.520  1.00  0.00     0.001 CG0
ATOM     17  G   UNL     1      49.212  31.861  26.283  1.00  0.00     0.000 G0
ENDBRANCH  15  16
ENDBRANCH   1  15
TORSDOF 0
ENDMDL
MODEL 3
REMARK VINA RESULT:    -3.209      4.364      6.578
REMARK INTER + INTRA:          -3.447
REMARK INTER:                  -3.966
REMARK INTRA:                   0.518
REMARK UNBOUND:                 0.512
REMARK SMILES C=C1[C@H]2CC[C@@H]3[C@@H]2C(C)(C)CCC[C@]13C
REMARK SMILES IDX 14 1 6 2 7 3 3 4 2 5 1 6 4 7 5 8 15 9 8 10 9 11 10 12 11 13
REMARK SMILES IDX 13 15 12 16
REMARK H PARENT
REMARK Flexibility Score: 80.00
ROOT
ATOM      1  C   UNL     1      55.548  28.065  26.627  1.00  0.00    -0.008 C 
ATOM      2  C   UNL     1      54.846  28.334  25.303  1.00  0.00     0.003 C 
ATOM      3  C   UNL     1      54.122  29.641  25.677  1.00  0.00     0.006 C 
ATOM      4  C   UNL     1      55.406  30.431  25.863  1.00  0.00     0.019 C 
ATOM      5  C   UNL     1      56.065  29.487  26.896  1.00  0.00    -0.068 C 
ATOM      6  C   UNL     1      56.876  29.865  27.887  1.00  0.00     0.009 C 
ATOM      7  C   UNL     1      56.133  30.240  24.539  1.00  0.00     0.008 C 
ATOM      8  C   UNL     1      55.776  28.801  24.157  1.00  0.00     0.005 C 
ATOM      9  C   UNL     1      56.719  27.067  26.503  1.00  0.00     0.016 C 
ENDROOT
BRANCH   3  10
ATOM     10  C   UNL     1      52.603  29.508  25.430  1.00  0.00    -0.032 C 
ATOM     11  C   UNL     1      51.833  30.778  25.888  1.00  0.00     0.011 C 
ATOM     12  C   UNL     1      52.300  29.304  23.929  1.00  0.00     0.011 C 
BRANCH  10  13
ATOM     13  C   UNL     1      52.138  28.237  26.280  1.00  0.00     0.007 CG0
ATOM     14  G   UNL     1      52.917  27.960  27.638  1.00  0.00     0.000 G0
ENDBRANCH  10  13
ENDBRANCH   3  10
BRANCH   1  15
ATOM     15  C   UNL     1      54.446  27.478  27.622  1.00  0.00     0.011 C 
BRANCH  15  16
ATOM     16  C   UNL     1      52.923  27.959  27.636  1.00  0.00     0.001 CG0
ATOM     17  G   UNL     1      52.140  28.244  26.281  1.00  0.00     0.000 G0
ENDBRANCH  15  16
ENDBRANCH   1  15
TORSDOF 0
ENDMDL
MODEL 4
REMARK VINA RESULT:    -3.190      1.332      2.431
REMARK INTER + INTRA:          -3.424
REMARK INTER:                  -3.931
REMARK INTRA:                   0.507
REMARK UNBOUND:                 0.512
REMARK SMILES C=C1[C@H]2CC[C@@H]3[C@@H]2C(C)(C)CCC[C@]13C
REMARK SMILES IDX 14 1 6 2 7 3 3 4 2 5 1 6 4 7 5 8 15 9 8 10 9 11 10 12 11 13
REMARK SMILES IDX 13 15 12 16
REMARK H PARENT
REMARK Flexibility Score: 80.00
ROOT
ATOM      1  C   UNL     1      50.048  31.418  30.082  1.00  0.00    -0.008 C 
ATOM      2  C   UNL     1      50.153  32.695  29.260  1.00  0.00     0.003 C 
ATOM      3  C   UNL     1      48.878  32.539  28.411  1.00  0.00     0.006 C 
ATOM      4  C   UNL     1      47.938  32.649  29.599  1.00  0.00     0.019 C 
ATOM      5  C   UNL     1      48.557  31.508  30.440  1.00  0.00    -0.068 C 
ATOM      6  C   UNL     1      47.886  30.701  31.268  1.00  0.00     0.009 C 
ATOM      7  C   UNL     1      48.341  33.966  30.248  1.00  0.00     0.008 C 
ATOM      8  C   UNL     1      49.858  33.998  30.043  1.00  0.00     0.005 C 
ATOM      9  C   UNL     1      50.923  31.440  31.354  1.00  0.00     0.016 C 
ENDROOT
BRANCH   3  10
ATOM     10  C   UNL     1      49.219  32.606  26.906  1.00  0.00    -0.032 C 
ATOM     11  C   UNL     1      47.959  32.386  26.022  1.00  0.00     0.011 C 
ATOM     12  C   UNL     1      49.808  33.983  26.530  1.00  0.00     0.011 C 
BRANCH  10  13
ATOM     13  C   UNL     1      50.286  31.444  26.654  1.00  0.00     0.007 CG0
ATOM     14  G   UNL     1      50.177  30.157  27.582  1.00  0.00     0.000 G0
ENDBRANCH  10  13
ENDBRANCH   3  10
BRANCH   1  15
ATOM     15  C   UNL     1      50.511  30.220  29.134  1.00  0.00     0.011 C 
BRANCH  15  16
ATOM     16  C   UNL     1      50.177  30.150  27.573  1.00  0.00     0.001 CG0
ATOM     17  G   UNL     1      50.289  31.442  26.651  1.00  0.00     0.000 G0
ENDBRANCH  15  16
ENDBRANCH   1  15
TORSDOF 0
ENDMDL
MODEL 5
REMARK VINA RESULT:    -3.096      1.705      3.181
REMARK INTER + INTRA:          -3.308
REMARK INTER:                  -3.826
REMARK INTRA:                   0.518
REMARK UNBOUND:                 0.512
REMARK SMILES C=C1[C@H]2CC[C@@H]3[C@@H]2C(C)(C)CCC[C@]13C
REMARK SMILES IDX 14 1 6 2 7 3 3 4 2 5 1 6 4 7 5 8 15 9 8 10 9 11 10 12 11 13
REMARK SMILES IDX 13 15 12 16
REMARK H PARENT
REMARK Flexibility Score: 80.00
ROOT
ATOM      1  C   UNL     1      49.747  33.038  29.295  1.00  0.00    -0.008 C 
ATOM      2  C   UNL     1      49.064  32.140  28.274  1.00  0.00     0.003 C 
ATOM      3  C   UNL     1      50.174  31.086  28.101  1.00  0.00     0.006 C 
ATOM      4  C   UNL     1      50.072  30.580  29.529  1.00  0.00     0.019 C 
ATOM      5  C   UNL     1      50.281  31.942  30.231  1.00  0.00    -0.068 C 
ATOM      6  C   UNL     1      50.889  32.126  31.407  1.00  0.00     0.009 C 
ATOM      7  C   UNL     1      48.601  30.213  29.670  1.00  0.00     0.008 C 
ATOM      8  C   UNL     1      47.899  31.287  28.834  1.00  0.00     0.005 C 
ATOM      9  C   UNL     1      48.766  33.969  30.039  1.00  0.00     0.016 C 
ENDROOT
BRANCH   3  10
ATOM     10  C   UNL     1      50.573  30.961  26.613  1.00  0.00    -0.032 C 
ATOM     11  C   UNL     1      51.758  29.973  26.419  1.00  0.00     0.011 C 
ATOM     12  C   UNL     1      49.395  30.436  25.764  1.00  0.00     0.011 C 
BRANCH  10  13
ATOM     13  C   UNL     1      50.992  32.433  26.154  1.00  0.00     0.007 CG0
ATOM     14  G   UNL     1      51.665  33.362  27.256  1.00  0.00     0.000 G0
ENDBRANCH  10  13
ENDBRANCH   3  10
BRANCH   1  15
ATOM     15  C   UNL     1      50.817  33.914  28.496  1.00  0.00     0.011 C 
BRANCH  15  16
ATOM     16  C   UNL     1      51.653  33.366  27.249  1.00  0.00     0.001 CG0
ATOM     17  G   UNL     1      50.975  32.435  26.152  1.00  0.00     0.000 G0
ENDBRANCH  15  16
ENDBRANCH   1  15
TORSDOF 0
ENDMDL
MODEL 6
REMARK VINA RESULT:    -2.860      1.023      3.768
REMARK INTER + INTRA:          -3.017
REMARK INTER:                  -3.535
REMARK INTRA:                   0.518
REMARK UNBOUND:                 0.512
REMARK SMILES C=C1[C@H]2CC[C@@H]3[C@@H]2C(C)(C)CCC[C@]13C
REMARK SMILES IDX 14 1 6 2 7 3 3 4 2 5 1 6 4 7 5 8 15 9 8 10 9 11 10 12 11 13
REMARK SMILES IDX 13 15 12 16
REMARK H PARENT
REMARK Flexibility Score: 80.00
ROOT
ATOM      1  C   UNL     1      50.293  30.620  27.528  1.00  0.00    -0.008 C 
ATOM      2  C   UNL     1      49.355  31.788  27.796  1.00  0.00     0.003 C 
ATOM      3  C   UNL     1      50.351  32.744  28.480  1.00  0.00     0.006 C 
ATOM      4  C   UNL     1      51.210  32.918  27.239  1.00  0.00     0.019 C 
ATOM      5  C   UNL     1      51.491  31.418  26.988  1.00  0.00    -0.068 C 
ATOM      6  C   UNL     1      52.612  30.914  26.464  1.00  0.00     0.009 C 
ATOM      7  C   UNL     1      50.215  33.380  26.184  1.00  0.00     0.008 C 
ATOM      8  C   UNL     1      48.949  32.598  26.540  1.00  0.00     0.005 C 
ATOM      9  C   UNL     1      49.757  29.641  26.462  1.00  0.00     0.016 C 
ENDROOT
BRANCH   3  10
ATOM     10  C   UNL     1      49.827  33.166  29.871  1.00  0.00    -0.032 C 
ATOM     11  C   UNL     1      50.855  34.055  30.625  1.00  0.00     0.011 C 
ATOM     12  C   UNL     1      48.520  33.980  29.749  1.00  0.00     0.011 C 
BRANCH  10  13
ATOM     13  C   UNL     1      49.575  31.805  30.668  1.00  0.00     0.007 CG0
ATOM     14  G   UNL     1      50.535  30.584  30.322  1.00  0.00     0.000 G0
ENDBRANCH  10  13
ENDBRANCH   3  10
BRANCH   1  15
ATOM     15  C   UNL     1      50.481  29.852  28.915  1.00  0.00     0.011 C 
BRANCH  15  16
ATOM     16  C   UNL     1      50.531  30.588  30.332  1.00  0.00     0.001 CG0
ATOM     17  G   UNL     1      49.567  31.811  30.656  1.00  0.00     0.000 G0
ENDBRANCH  15  16
ENDBRANCH   1  15
TORSDOF 0
ENDMDL
MODEL 7
REMARK VINA RESULT:    -2.704      4.011      6.527
REMARK INTER + INTRA:          -2.825
REMARK INTER:                  -3.343
REMARK INTRA:                   0.519
REMARK UNBOUND:                 0.512
REMARK SMILES C=C1[C@H]2CC[C@@H]3[C@@H]2C(C)(C)CCC[C@]13C
REMARK SMILES IDX 14 1 6 2 7 3 3 4 2 5 1 6 4 7 5 8 15 9 8 10 9 11 10 12 11 13
REMARK SMILES IDX 13 15 12 16
REMARK H PARENT
REMARK Flexibility Score: 80.00
ROOT
ATOM      1  C   UNL     1      55.237  29.814  26.470  1.00  0.00    -0.008 C 
ATOM      2  C   UNL     1      54.227  28.758  26.893  1.00  0.00     0.003 C 
ATOM      3  C   UNL     1      53.435  28.643  25.577  1.00  0.00     0.006 C 
ATOM      4  C   UNL     1      54.608  28.089  24.788  1.00  0.00     0.019 C 
ATOM      5  C   UNL     1      55.604  29.232  25.096  1.00  0.00    -0.068 C 
ATOM      6  C   UNL     1      56.558  29.675  24.272  1.00  0.00     0.009 C 
ATOM      7  C   UNL     1      55.039  26.875  25.600  1.00  0.00     0.008 C 
ATOM      8  C   UNL     1      54.804  27.329  27.043  1.00  0.00     0.005 C 
ATOM      9  C   UNL     1      56.475  29.876  27.391  1.00  0.00     0.016 C 
ENDROOT
BRANCH   3  10
ATOM     10  C   UNL     1      51.931  28.896  25.826  1.00  0.00    -0.032 C 
ATOM     11  C   UNL     1      51.120  28.883  24.501  1.00  0.00     0.011 C 
ATOM     12  C   UNL     1      51.329  27.808  26.743  1.00  0.00     0.011 C 
BRANCH  10  13
ATOM     13  C   UNL     1      51.845  30.333  26.519  1.00  0.00     0.007 CG0
ATOM     14  G   UNL     1      52.941  31.403  26.088  1.00  0.00     0.000 G0
ENDBRANCH  10  13
ENDBRANCH   3  10
BRANCH   1  15
ATOM     15  C   UNL     1      54.476  31.218  26.500  1.00  0.00     0.011 C 
BRANCH  15  16
ATOM     16  C   UNL     1      52.942  31.399  26.095  1.00  0.00     0.001 CG0
ATOM     17  G   UNL     1      51.846  30.332  26.533  1.00  0.00     0.000 G0
ENDBRANCH  15  16
ENDBRANCH   1  15
TORSDOF 0
ENDMDL
MODEL 8
REMARK VINA RESULT:    -2.698      1.761      4.306
REMARK INTER + INTRA:          -2.817
REMARK INTER:                  -3.315
REMARK INTRA:                   0.498
REMARK UNBOUND:                 0.512
REMARK SMILES C=C1[C@H]2CC[C@@H]3[C@@H]2C(C)(C)CCC[C@]13C
REMARK SMILES IDX 14 1 6 2 7 3 3 4 2 5 1 6 4 7 5 8 15 9 8 10 9 11 10 12 11 13
REMARK SMILES IDX 13 15 12 16
REMARK H PARENT
REMARK Flexibility Score: 80.00
ROOT
ATOM      1  C   UNL     1      50.306  31.158  26.902  1.00  0.00    -0.008 C 
ATOM      2  C   UNL     1      50.627  31.128  28.389  1.00  0.00     0.003 C 
ATOM      3  C   UNL     1      49.422  31.933  28.911  1.00  0.00     0.006 C 
ATOM      4  C   UNL     1      48.399  30.896  28.482  1.00  0.00     0.019 C 
ATOM      5  C   UNL     1      48.808  30.827  26.992  1.00  0.00    -0.068 C 
ATOM      6  C   UNL     1      47.981  30.596  25.969  1.00  0.00     0.009 C 
ATOM      7  C   UNL     1      48.890  29.619  29.151  1.00  0.00     0.008 C 
ATOM      8  C   UNL     1      50.412  29.755  29.073  1.00  0.00     0.005 C 
ATOM      9  C   UNL     1      51.062  30.080  26.095  1.00  0.00     0.016 C 
ENDROOT
BRANCH   3  10
ATOM     10  C   UNL     1      49.901  33.143  29.746  1.00  0.00    -0.032 C 
ATOM     11  C   UNL     1      48.706  34.000  30.249  1.00  0.00     0.011 C 
ATOM     12  C   UNL     1      50.691  32.682  30.990  1.00  0.00     0.011 C 
BRANCH  10  13
ATOM     13  C   UNL     1      50.830  34.000  28.768  1.00  0.00     0.007 CG0
ATOM     14  G   UNL     1      50.491  33.933  27.216  1.00  0.00     0.000 G0
ENDBRANCH  10  13
ENDBRANCH   3  10
BRANCH   1  15
ATOM     15  C   UNL     1      50.713  32.609  26.372  1.00  0.00     0.011 C 
BRANCH  15  16
ATOM     16  C   UNL     1      50.508  33.948  27.219  1.00  0.00     0.001 CG0
ATOM     17  G   UNL     1      50.838  33.993  28.775  1.00  0.00     0.000 G0
ENDBRANCH  15  16
ENDBRANCH   1  15
TORSDOF 0
ENDMDL
MODEL 9
REMARK VINA RESULT:    -2.683      1.274      3.227
REMARK INTER + INTRA:          -2.799
REMARK INTER:                  -3.317
REMARK INTRA:                   0.518
REMARK UNBOUND:                 0.512
REMARK SMILES C=C1[C@H]2CC[C@@H]3[C@@H]2C(C)(C)CCC[C@]13C
REMARK SMILES IDX 14 1 6 2 7 3 3 4 2 5 1 6 4 7 5 8 15 9 8 10 9 11 10 12 11 13
REMARK SMILES IDX 13 15 12 16
REMARK H PARENT
REMARK Flexibility Score: 80.00
ROOT
ATOM      1  C   UNL     1      49.730  33.503  27.179  1.00  0.00    -0.008 C 
ATOM      2  C   UNL     1      48.867  32.632  28.079  1.00  0.00     0.003 C 
ATOM      3  C   UNL     1      49.978  31.793  28.739  1.00  0.00     0.006 C 
ATOM      4  C   UNL     1      50.606  32.979  29.451  1.00  0.00     0.019 C 
ATOM      5  C   UNL     1      50.822  33.861  28.199  1.00  0.00    -0.068 C 
ATOM      6  C   UNL     1      51.828  34.723  28.020  1.00  0.00     0.009 C 
ATOM      7  C   UNL     1      49.445  33.574  30.236  1.00  0.00     0.008 C 
ATOM      8  C   UNL     1      48.254  33.363  29.298  1.00  0.00     0.005 C 
ATOM      9  C   UNL     1      49.004  34.771  26.680  1.00  0.00     0.016 C 
ENDROOT
BRANCH   3  10
ATOM     10  C   UNL     1      49.712  30.285  28.532  1.00  0.00    -0.032 C 
ATOM     11  C   UNL     1      50.866  29.416  29.106  1.00  0.00     0.011 C 
ATOM     12  C   UNL     1      48.412  29.848  29.242  1.00  0.00     0.011 C 
BRANCH  10  13
ATOM     13  C   UNL     1      49.592  30.081  26.952  1.00  0.00     0.007 CG0
ATOM     14  G   UNL     1      50.471  31.040  26.037  1.00  0.00     0.000 G0
ENDBRANCH  10  13
ENDBRANCH   3  10
BRANCH   1  15
ATOM     15  C   UNL     1      50.152  32.601  25.931  1.00  0.00     0.011 C 
BRANCH  15  16
ATOM     16  C   UNL     1      50.463  31.037  26.036  1.00  0.00     0.001 CG0
ATOM     17  G   UNL     1      49.582  30.086  26.958  1.00  0.00     0.000 G0
ENDBRANCH  15  16
ENDBRANCH   1  15
TORSDOF 0
ENDMDL
