MODEL 1
REMARK VINA RESULT:    -4.340      0.000      0.000
REMARK INTER + INTRA:          -4.862
REMARK INTER:                  -4.593
REMARK INTRA:                  -0.269
REMARK UNBOUND:                -0.269
REMARK SMILES CC1=CC[C@@]23[C@@H]([C@H](C(C)C)CC[C@H]2C)[C@H]13
REMARK SMILES IDX 14 1 13 2 12 3 11 4 7 5 6 6 5 7 15 8 2 9 3 10 4 11 1 12 8 13
REMARK SMILES IDX 9 14 10 15
REMARK H PARENT
REMARK Flexibility Score: inf
ROOT
ATOM      1  C   UNL     1      59.565  42.127  43.688  1.00  0.00     0.008 C 
ATOM      2  C   UNL     1      58.518  43.244  43.548  1.00  0.00    -0.007 C 
ATOM      3  C   UNL     1      57.185  42.744  44.125  1.00  0.00     0.004 C 
ATOM      4  C   UNL     1      56.092  43.799  43.985  1.00  0.00     0.004 C 
ATOM      5  C   UNL     1      55.713  44.029  42.505  1.00  0.00    -0.004 C 
ATOM      6  C   UNL     1      56.945  44.121  41.565  1.00  0.00     0.007 C 
ATOM      7  C   UNL     1      58.347  43.734  42.076  1.00  0.00    -0.013 C 
ATOM      8  C   UNL     1      57.945  45.210  41.932  1.00  0.00     0.025 C 
ATOM      9  C   UNL     1      58.767  45.724  40.803  1.00  0.00    -0.073 C 
ATOM     10  C   UNL     1      59.572  44.801  40.297  1.00  0.00    -0.027 C 
ATOM     11  C   UNL     1      59.432  43.494  40.999  1.00  0.00     0.035 C 
ATOM     12  C   UNL     1      58.675  47.122  40.277  1.00  0.00     0.039 C 
ENDROOT
BRANCH   5  13
ATOM     13  C   UNL     1      54.777  45.270  42.334  1.00  0.00    -0.014 C 
ATOM     14  C   UNL     1      54.877  46.233  43.530  1.00  0.00     0.007 C 
ATOM     15  C   UNL     1      53.305  44.857  42.147  1.00  0.00     0.007 C 
ENDBRANCH   5  13
TORSDOF 1
ENDMDL
MODEL 2
REMARK VINA RESULT:    -3.719     19.097     20.066
REMARK INTER + INTRA:          -4.206
REMARK INTER:                  -3.913
REMARK INTRA:                  -0.292
REMARK UNBOUND:                -0.269
REMARK SMILES CC1=CC[C@@]23[C@@H]([C@H](C(C)C)CC[C@H]2C)[C@H]13
REMARK SMILES IDX 14 1 13 2 12 3 11 4 7 5 6 6 5 7 15 8 2 9 3 10 4 11 1 12 8 13
REMARK SMILES IDX 9 14 10 15
REMARK H PARENT
REMARK Flexibility Score: inf
ROOT
ATOM      1  C   UNL     1      52.380  35.144  28.463  1.00  0.00     0.008 C 
ATOM      2  C   UNL     1      51.117  34.276  28.582  1.00  0.00    -0.007 C 
ATOM      3  C   UNL     1      50.834  34.021  30.071  1.00  0.00     0.004 C 
ATOM      4  C   UNL     1      49.607  33.135  30.256  1.00  0.00     0.004 C 
ATOM      5  C   UNL     1      49.865  31.698  29.749  1.00  0.00    -0.004 C 
ATOM      6  C   UNL     1      50.601  31.655  28.382  1.00  0.00     0.007 C 
ATOM      7  C   UNL     1      51.227  32.934  27.793  1.00  0.00    -0.013 C 
ATOM      8  C   UNL     1      49.892  32.394  27.254  1.00  0.00     0.025 C 
ATOM      9  C   UNL     1      50.201  31.905  25.883  1.00  0.00    -0.073 C 
ATOM     10  C   UNL     1      51.470  32.089  25.549  1.00  0.00    -0.027 C 
ATOM     11  C   UNL     1      52.246  32.738  26.644  1.00  0.00     0.035 C 
ATOM     12  C   UNL     1      49.195  31.251  24.989  1.00  0.00     0.039 C 
ENDROOT
BRANCH   5  13
ATOM     13  C   UNL     1      48.549  30.854  29.709  1.00  0.00    -0.014 C 
ATOM     14  C   UNL     1      47.875  30.775  31.090  1.00  0.00     0.007 C 
ATOM     15  C   UNL     1      48.801  29.425  29.194  1.00  0.00     0.007 C 
ENDBRANCH   5  13
TORSDOF 1
ENDMDL
MODEL 3
REMARK VINA RESULT:    -3.682     18.500     19.682
REMARK INTER + INTRA:          -4.166
REMARK INTER:                  -3.877
REMARK INTRA:                  -0.289
REMARK UNBOUND:                -0.269
REMARK SMILES CC1=CC[C@@]23[C@@H]([C@H](C(C)C)CC[C@H]2C)[C@H]13
REMARK SMILES IDX 14 1 13 2 12 3 11 4 7 5 6 6 5 7 15 8 2 9 3 10 4 11 1 12 8 13
REMARK SMILES IDX 9 14 10 15
REMARK H PARENT
REMARK Flexibility Score: inf
ROOT
ATOM      1  C   UNL     1      47.875  33.621  29.914  1.00  0.00     0.008 C 
ATOM      2  C   UNL     1      48.763  33.668  28.660  1.00  0.00    -0.007 C 
ATOM      3  C   UNL     1      48.362  32.512  27.730  1.00  0.00     0.004 C 
ATOM      4  C   UNL     1      49.232  32.485  26.477  1.00  0.00     0.004 C 
ATOM      5  C   UNL     1      50.693  32.110  26.810  1.00  0.00    -0.004 C 
ATOM      6  C   UNL     1      51.240  32.841  28.067  1.00  0.00     0.007 C 
ATOM      7  C   UNL     1      50.287  33.621  28.992  1.00  0.00    -0.013 C 
ATOM      8  C   UNL     1      51.187  34.361  27.991  1.00  0.00     0.025 C 
ATOM      9  C   UNL     1      52.189  35.075  28.830  1.00  0.00    -0.073 C 
ATOM     10  C   UNL     1      52.002  34.878  30.126  1.00  0.00    -0.027 C 
ATOM     11  C   UNL     1      50.833  33.992  30.392  1.00  0.00     0.035 C 
ATOM     12  C   UNL     1      53.304  35.900  28.269  1.00  0.00     0.039 C 
ENDROOT
BRANCH   5  13
ATOM     13  C   UNL     1      51.638  32.315  25.581  1.00  0.00    -0.014 C 
ATOM     14  C   UNL     1      51.240  31.417  24.396  1.00  0.00     0.007 C 
ATOM     15  C   UNL     1      53.111  32.046  25.939  1.00  0.00     0.007 C 
ENDBRANCH   5  13
TORSDOF 1
ENDMDL
MODEL 4
REMARK VINA RESULT:    -3.680      1.136      3.911
REMARK INTER + INTRA:          -4.165
REMARK INTER:                  -4.272
REMARK INTRA:                   0.107
REMARK UNBOUND:                -0.269
REMARK SMILES CC1=CC[C@@]23[C@@H]([C@H](C(C)C)CC[C@H]2C)[C@H]13
REMARK SMILES IDX 14 1 13 2 12 3 11 4 7 5 6 6 5 7 15 8 2 9 3 10 4 11 1 12 8 13
REMARK SMILES IDX 9 14 10 15
REMARK H PARENT
REMARK Flexibility Score: inf
ROOT
ATOM      1  C   UNL     1      54.666  45.357  43.274  1.00  0.00     0.008 C 
ATOM      2  C   UNL     1      55.911  44.518  42.942  1.00  0.00    -0.007 C 
ATOM      3  C   UNL     1      56.202  43.581  44.124  1.00  0.00     0.004 C 
ATOM      4  C   UNL     1      57.449  42.741  43.870  1.00  0.00     0.004 C 
ATOM      5  C   UNL     1      58.725  43.613  43.857  1.00  0.00    -0.004 C 
ATOM      6  C   UNL     1      58.554  44.934  43.059  1.00  0.00     0.007 C 
ATOM      7  C   UNL     1      57.157  45.392  42.597  1.00  0.00    -0.013 C 
ATOM      8  C   UNL     1      58.139  44.749  41.605  1.00  0.00     0.025 C 
ATOM      9  C   UNL     1      58.533  45.851  40.686  1.00  0.00    -0.073 C 
ATOM     10  C   UNL     1      57.935  46.997  40.977  1.00  0.00    -0.027 C 
ATOM     11  C   UNL     1      57.027  46.868  42.152  1.00  0.00     0.035 C 
ATOM     12  C   UNL     1      59.520  45.691  39.573  1.00  0.00     0.039 C 
ENDROOT
BRANCH   5  13
ATOM     13  C   UNL     1      59.970  42.809  43.360  1.00  0.00    -0.014 C 
ATOM     14  C   UNL     1      61.266  43.632  43.467  1.00  0.00     0.007 C 
ATOM     15  C   UNL     1      59.800  42.331  41.905  1.00  0.00     0.007 C 
ENDBRANCH   5  13
TORSDOF 1
ENDMDL
MODEL 5
REMARK VINA RESULT:    -3.556     19.291     20.710
REMARK INTER + INTRA:          -4.033
REMARK INTER:                  -3.761
REMARK INTRA:                  -0.272
REMARK UNBOUND:                -0.269
REMARK SMILES CC1=CC[C@@]23[C@@H]([C@H](C(C)C)CC[C@H]2C)[C@H]13
REMARK SMILES IDX 14 1 13 2 12 3 11 4 7 5 6 6 5 7 15 8 2 9 3 10 4 11 1 12 8 13
REMARK SMILES IDX 9 14 10 15
REMARK H PARENT
REMARK Flexibility Score: inf
ROOT
ATOM      1  C   UNL     1      47.876  35.500  26.325  1.00  0.00     0.008 C 
ATOM      2  C   UNL     1      49.036  34.517  26.552  1.00  0.00    -0.007 C 
ATOM      3  C   UNL     1      49.188  33.638  25.301  1.00  0.00     0.004 C 
ATOM      4  C   UNL     1      50.307  32.616  25.476  1.00  0.00     0.004 C 
ATOM      5  C   UNL     1      49.945  31.559  26.544  1.00  0.00    -0.004 C 
ATOM      6  C   UNL     1      49.306  32.173  27.819  1.00  0.00     0.007 C 
ATOM      7  C   UNL     1      48.852  33.645  27.833  1.00  0.00    -0.013 C 
ATOM      8  C   UNL     1      50.162  33.223  28.517  1.00  0.00     0.025 C 
ATOM      9  C   UNL     1      49.904  33.386  29.974  1.00  0.00    -0.073 C 
ATOM     10  C   UNL     1      48.686  33.840  30.229  1.00  0.00    -0.027 C 
ATOM     11  C   UNL     1      47.902  34.064  28.981  1.00  0.00     0.035 C 
ATOM     12  C   UNL     1      50.901  33.046  31.036  1.00  0.00     0.039 C 
ENDROOT
BRANCH   5  13
ATOM     13  C   UNL     1      51.172  30.659  26.904  1.00  0.00    -0.014 C 
ATOM     14  C   UNL     1      52.505  31.322  26.515  1.00  0.00     0.007 C 
ATOM     15  C   UNL     1      51.086  29.277  26.228  1.00  0.00     0.007 C 
ENDBRANCH   5  13
TORSDOF 1
ENDMDL
MODEL 6
REMARK VINA RESULT:    -3.530     19.654     20.761
REMARK INTER + INTRA:          -4.006
REMARK INTER:                  -3.749
REMARK INTRA:                  -0.257
REMARK UNBOUND:                -0.269
REMARK SMILES CC1=CC[C@@]23[C@@H]([C@H](C(C)C)CC[C@H]2C)[C@H]13
REMARK SMILES IDX 14 1 13 2 12 3 11 4 7 5 6 6 5 7 15 8 2 9 3 10 4 11 1 12 8 13
REMARK SMILES IDX 9 14 10 15
REMARK H PARENT
REMARK Flexibility Score: inf
ROOT
ATOM      1  C   UNL     1      49.836  32.681  23.959  1.00  0.00     0.008 C 
ATOM      2  C   UNL     1      49.518  32.619  25.462  1.00  0.00    -0.007 C 
ATOM      3  C   UNL     1      49.214  34.041  25.959  1.00  0.00     0.004 C 
ATOM      4  C   UNL     1      48.922  34.052  27.456  1.00  0.00     0.004 C 
ATOM      5  C   UNL     1      50.182  33.707  28.282  1.00  0.00    -0.004 C 
ATOM      6  C   UNL     1      50.986  32.512  27.700  1.00  0.00     0.007 C 
ATOM      7  C   UNL     1      50.661  31.962  26.298  1.00  0.00    -0.013 C 
ATOM      8  C   UNL     1      50.191  31.220  27.558  1.00  0.00     0.025 C 
ATOM      9  C   UNL     1      50.999  29.970  27.592  1.00  0.00    -0.073 C 
ATOM     10  C   UNL     1      51.829  29.872  26.565  1.00  0.00    -0.027 C 
ATOM     11  C   UNL     1      51.728  31.045  25.652  1.00  0.00     0.035 C 
ATOM     12  C   UNL     1      50.905  28.950  28.683  1.00  0.00     0.039 C 
ENDROOT
BRANCH   5  13
ATOM     13  C   UNL     1      49.840  33.477  29.790  1.00  0.00    -0.014 C 
ATOM     14  C   UNL     1      48.453  34.036  30.156  1.00  0.00     0.007 C 
ATOM     15  C   UNL     1      50.893  34.109  30.719  1.00  0.00     0.007 C 
ENDBRANCH   5  13
TORSDOF 1
ENDMDL
MODEL 7
REMARK VINA RESULT:    -3.467     21.896     22.854
REMARK INTER + INTRA:          -3.939
REMARK INTER:                  -3.646
REMARK INTRA:                  -0.292
REMARK UNBOUND:                -0.269
REMARK SMILES CC1=CC[C@@]23[C@@H]([C@H](C(C)C)CC[C@H]2C)[C@H]13
REMARK SMILES IDX 14 1 13 2 12 3 11 4 7 5 6 6 5 7 15 8 2 9 3 10 4 11 1 12 8 13
REMARK SMILES IDX 9 14 10 15
REMARK H PARENT
REMARK Flexibility Score: inf
ROOT
ATOM      1  C   UNL     1      57.252  27.862  26.746  1.00  0.00     0.008 C 
ATOM      2  C   UNL     1      56.103  28.449  25.910  1.00  0.00    -0.007 C 
ATOM      3  C   UNL     1      56.483  29.877  25.486  1.00  0.00     0.004 C 
ATOM      4  C   UNL     1      55.366  30.528  24.677  1.00  0.00     0.004 C 
ATOM      5  C   UNL     1      54.119  30.796  25.548  1.00  0.00    -0.004 C 
ATOM      6  C   UNL     1      53.754  29.605  26.475  1.00  0.00     0.007 C 
ATOM      7  C   UNL     1      54.735  28.431  26.660  1.00  0.00    -0.013 C 
ATOM      8  C   UNL     1      53.505  28.288  25.750  1.00  0.00     0.025 C 
ATOM      9  C   UNL     1      52.611  27.331  26.459  1.00  0.00    -0.073 C 
ATOM     10  C   UNL     1      53.129  26.900  27.600  1.00  0.00    -0.027 C 
ATOM     11  C   UNL     1      54.470  27.493  27.863  1.00  0.00     0.035 C 
ATOM     12  C   UNL     1      51.263  26.924  25.954  1.00  0.00     0.039 C 
ENDROOT
BRANCH   5  13
ATOM     13  C   UNL     1      52.893  31.235  24.683  1.00  0.00    -0.014 C 
ATOM     14  C   UNL     1      53.188  32.511  23.875  1.00  0.00     0.007 C 
ATOM     15  C   UNL     1      51.637  31.468  25.544  1.00  0.00     0.007 C 
ENDBRANCH   5  13
TORSDOF 1
ENDMDL
MODEL 8
REMARK VINA RESULT:    -3.458     19.242     20.279
REMARK INTER + INTRA:          -3.929
REMARK INTER:                  -3.671
REMARK INTRA:                  -0.258
REMARK UNBOUND:                -0.269
REMARK SMILES CC1=CC[C@@]23[C@@H]([C@H](C(C)C)CC[C@H]2C)[C@H]13
REMARK SMILES IDX 14 1 13 2 12 3 11 4 7 5 6 6 5 7 15 8 2 9 3 10 4 11 1 12 8 13
REMARK SMILES IDX 9 14 10 15
REMARK H PARENT
REMARK Flexibility Score: inf
ROOT
ATOM      1  C   UNL     1      51.233  34.376  30.626  1.00  0.00     0.008 C 
ATOM      2  C   UNL     1      50.198  33.331  30.180  1.00  0.00    -0.007 C 
ATOM      3  C   UNL     1      50.365  32.072  31.045  1.00  0.00     0.004 C 
ATOM      4  C   UNL     1      49.383  30.981  30.628  1.00  0.00     0.004 C 
ATOM      5  C   UNL     1      49.715  30.428  29.225  1.00  0.00    -0.004 C 
ATOM      6  C   UNL     1      50.057  31.538  28.194  1.00  0.00     0.007 C 
ATOM      7  C   UNL     1      50.297  32.987  28.660  1.00  0.00    -0.013 C 
ATOM      8  C   UNL     1      48.967  32.586  28.003  1.00  0.00     0.025 C 
ATOM      9  C   UNL     1      48.970  33.271  26.682  1.00  0.00    -0.073 C 
ATOM     10  C   UNL     1      50.059  33.999  26.486  1.00  0.00    -0.027 C 
ATOM     11  C   UNL     1      50.990  33.932  27.649  1.00  0.00     0.035 C 
ATOM     12  C   UNL     1      47.875  33.130  25.672  1.00  0.00     0.039 C 
ENDROOT
BRANCH   5  13
ATOM     13  C   UNL     1      48.582  29.491  28.690  1.00  0.00    -0.014 C 
ATOM     14  C   UNL     1      47.876  28.737  29.831  1.00  0.00     0.007 C 
ATOM     15  C   UNL     1      49.118  28.467  27.672  1.00  0.00     0.007 C 
ENDBRANCH   5  13
TORSDOF 1
ENDMDL
MODEL 9
REMARK VINA RESULT:    -3.438     19.378     20.483
REMARK INTER + INTRA:          -3.907
REMARK INTER:                  -3.622
REMARK INTRA:                  -0.285
REMARK UNBOUND:                -0.269
REMARK SMILES CC1=CC[C@@]23[C@@H]([C@H](C(C)C)CC[C@H]2C)[C@H]13
REMARK SMILES IDX 14 1 13 2 12 3 11 4 7 5 6 6 5 7 15 8 2 9 3 10 4 11 1 12 8 13
REMARK SMILES IDX 9 14 10 15
REMARK H PARENT
REMARK Flexibility Score: inf
ROOT
ATOM      1  C   UNL     1      47.875  30.945  31.375  1.00  0.00     0.008 C 
ATOM      2  C   UNL     1      48.426  31.012  29.941  1.00  0.00    -0.007 C 
ATOM      3  C   UNL     1      48.417  29.596  29.344  1.00  0.00     0.004 C 
ATOM      4  C   UNL     1      48.984  29.590  27.928  1.00  0.00     0.004 C 
ATOM      5  C   UNL     1      50.496  29.909  27.923  1.00  0.00    -0.004 C 
ATOM      6  C   UNL     1      50.875  31.088  28.860  1.00  0.00     0.007 C 
ATOM      7  C   UNL     1      49.850  31.645  29.867  1.00  0.00    -0.013 C 
ATOM      8  C   UNL     1      50.153  32.396  28.561  1.00  0.00     0.025 C 
ATOM      9  C   UNL     1      50.871  33.629  28.984  1.00  0.00    -0.073 C 
ATOM     10  C   UNL     1      51.012  33.712  30.298  1.00  0.00    -0.027 C 
ATOM     11  C   UNL     1      50.411  32.541  30.998  1.00  0.00     0.035 C 
ATOM     12  C   UNL     1      51.402  34.650  28.027  1.00  0.00     0.039 C 
ENDROOT
BRANCH   5  13
ATOM     13  C   UNL     1      51.032  30.144  26.473  1.00  0.00    -0.014 C 
ATOM     14  C   UNL     1      50.912  28.879  25.604  1.00  0.00     0.007 C 
ATOM     15  C   UNL     1      52.500  30.612  26.474  1.00  0.00     0.007 C 
ENDBRANCH   5  13
TORSDOF 1
ENDMDL
