MODEL 1
REMARK VINA RESULT:    -3.680      0.000      0.000
REMARK INTER + INTRA:          -4.664
REMARK INTER:                  -4.541
REMARK INTRA:                  -0.123
REMARK UNBOUND:                -0.123
REMARK SMILES CCCCCC(=O)[O-]
REMARK SMILES IDX 4 1 5 2 6 3 7 4 8 5 3 6 2 7 1 8
REMARK H PARENT
REMARK Flexibility Score: inf
ROOT
ATOM      1  C   UNL     1       5.363 -29.043  -0.935  1.00  0.00     0.006 C 
ENDROOT
BRANCH   1   2
ATOM      2  C   UNL     1       5.457 -29.198  -2.459  1.00  0.00     0.053 C 
BRANCH   2   3
ATOM      3  C   UNL     1       4.963 -30.536  -2.915  1.00  0.00     0.041 C 
ATOM      4  O   UNL     1       4.216 -31.222  -2.170  1.00  0.00    -0.550 OA
ATOM      5  O   UNL     1       5.300 -31.010  -4.176  1.00  0.00    -0.550 OA
ENDBRANCH   2   3
ENDBRANCH   1   2
BRANCH   1   6
ATOM      6  C   UNL     1       6.673 -28.530  -0.320  1.00  0.00     0.000 C 
BRANCH   6   7
ATOM      7  C   UNL     1       7.540 -27.837  -1.376  1.00  0.00    -0.003 C 
ATOM      8  C   UNL     1       8.995 -27.747  -0.923  1.00  0.00     0.004 C 
ENDBRANCH   6   7
ENDBRANCH   1   6
TORSDOF 4
ENDMDL
MODEL 2
REMARK VINA RESULT:    -3.481     17.833     18.826
REMARK INTER + INTRA:          -4.418
REMARK INTER:                  -4.206
REMARK INTRA:                  -0.212
REMARK UNBOUND:                -0.123
REMARK SMILES CCCCCC(=O)[O-]
REMARK SMILES IDX 4 1 5 2 6 3 7 4 8 5 3 6 2 7 1 8
REMARK H PARENT
REMARK Flexibility Score: inf
ROOT
ATOM      1  C   UNL     1      12.226 -17.328 -13.325  1.00  0.00     0.006 C 
ENDROOT
BRANCH   1   2
ATOM      2  C   UNL     1      13.685 -17.055 -12.935  1.00  0.00     0.053 C 
BRANCH   2   3
ATOM      3  C   UNL     1      14.512 -16.651 -14.117  1.00  0.00     0.041 C 
ATOM      4  O   UNL     1      13.962 -16.422 -15.226  1.00  0.00    -0.550 OA
ATOM      5  O   UNL     1      15.886 -16.495 -13.985  1.00  0.00    -0.550 OA
ENDBRANCH   2   3
ENDBRANCH   1   2
BRANCH   1   6
ATOM      6  C   UNL     1      11.918 -18.830 -13.411  1.00  0.00     0.000 C 
BRANCH   6   7
ATOM      7  C   UNL     1      11.178 -19.165 -14.710  1.00  0.00    -0.003 C 
ATOM      8  C   UNL     1      12.156 -19.494 -15.834  1.00  0.00     0.004 C 
ENDBRANCH   6   7
ENDBRANCH   1   6
TORSDOF 4
ENDMDL
MODEL 3
REMARK VINA RESULT:    -3.479     16.433     17.314
REMARK INTER + INTRA:          -4.416
REMARK INTER:                  -4.346
REMARK INTRA:                  -0.070
REMARK UNBOUND:                -0.123
REMARK SMILES CCCCCC(=O)[O-]
REMARK SMILES IDX 4 1 5 2 6 3 7 4 8 5 3 6 2 7 1 8
REMARK H PARENT
REMARK Flexibility Score: inf
ROOT
ATOM      1  C   UNL     1      11.219 -18.833 -14.206  1.00  0.00     0.006 C 
ENDROOT
BRANCH   1   2
ATOM      2  C   UNL     1      11.556 -19.873 -15.283  1.00  0.00     0.053 C 
BRANCH   2   3
ATOM      3  C   UNL     1      12.542 -19.345 -16.279  1.00  0.00     0.041 C 
ATOM      4  O   UNL     1      12.609 -19.847 -17.431  1.00  0.00    -0.550 OA
ATOM      5  O   UNL     1      13.364 -18.276 -15.946  1.00  0.00    -0.550 OA
ENDBRANCH   2   3
ENDBRANCH   1   2
BRANCH   1   6
ATOM      6  C   UNL     1      11.486 -19.356 -12.788  1.00  0.00     0.000 C 
BRANCH   6   7
ATOM      7  C   UNL     1      10.845 -18.444 -11.737  1.00  0.00    -0.003 C 
ATOM      8  C   UNL     1      10.532 -19.212 -10.456  1.00  0.00     0.004 C 
ENDBRANCH   6   7
ENDBRANCH   1   6
TORSDOF 4
ENDMDL
MODEL 4
REMARK VINA RESULT:    -3.473     17.913     18.966
REMARK INTER + INTRA:          -4.408
REMARK INTER:                  -4.172
REMARK INTRA:                  -0.236
REMARK UNBOUND:                -0.123
REMARK SMILES CCCCCC(=O)[O-]
REMARK SMILES IDX 4 1 5 2 6 3 7 4 8 5 3 6 2 7 1 8
REMARK H PARENT
REMARK Flexibility Score: inf
ROOT
ATOM      1  C   UNL     1      13.519 -18.989 -15.088  1.00  0.00     0.006 C 
ENDROOT
BRANCH   1   2
ATOM      2  C   UNL     1      14.031 -17.638 -15.607  1.00  0.00     0.053 C 
BRANCH   2   3
ATOM      3  C   UNL     1      14.276 -16.669 -14.491  1.00  0.00     0.041 C 
ATOM      4  O   UNL     1      15.450 -16.428 -14.109  1.00  0.00    -0.550 OA
ATOM      5  O   UNL     1      13.209 -16.008 -13.897  1.00  0.00    -0.550 OA
ENDBRANCH   2   3
ENDBRANCH   1   2
BRANCH   1   6
ATOM      6  C   UNL     1      12.135 -19.342 -15.652  1.00  0.00     0.000 C 
BRANCH   6   7
ATOM      7  C   UNL     1      11.031 -19.010 -14.644  1.00  0.00    -0.003 C 
ATOM      8  C   UNL     1      11.537 -19.136 -13.210  1.00  0.00     0.004 C 
ENDBRANCH   6   7
ENDBRANCH   1   6
TORSDOF 4
ENDMDL
MODEL 5
REMARK VINA RESULT:    -3.461     14.434     15.027
REMARK INTER + INTRA:          -4.393
REMARK INTER:                  -4.306
REMARK INTRA:                  -0.087
REMARK UNBOUND:                -0.123
REMARK SMILES CCCCCC(=O)[O-]
REMARK SMILES IDX 4 1 5 2 6 3 7 4 8 5 3 6 2 7 1 8
REMARK H PARENT
REMARK Flexibility Score: inf
ROOT
ATOM      1  C   UNL     1      12.788 -25.501 -14.049  1.00  0.00     0.006 C 
ENDROOT
BRANCH   1   2
ATOM      2  C   UNL     1      12.855 -26.997 -14.382  1.00  0.00     0.053 C 
BRANCH   2   3
ATOM      3  C   UNL     1      14.256 -27.441 -14.673  1.00  0.00     0.041 C 
ATOM      4  O   UNL     1      15.025 -26.708 -15.346  1.00  0.00    -0.550 OA
ATOM      5  O   UNL     1      14.722 -28.650 -14.171  1.00  0.00    -0.550 OA
ENDBRANCH   2   3
ENDBRANCH   1   2
BRANCH   1   6
ATOM      6  C   UNL     1      11.355 -24.952 -14.125  1.00  0.00     0.000 C 
BRANCH   6   7
ATOM      7  C   UNL     1      11.353 -23.420 -14.104  1.00  0.00    -0.003 C 
ATOM      8  C   UNL     1      12.750 -22.870 -13.830  1.00  0.00     0.004 C 
ENDBRANCH   6   7
ENDBRANCH   1   6
TORSDOF 4
ENDMDL
MODEL 6
REMARK VINA RESULT:    -3.448     17.391     18.355
REMARK INTER + INTRA:          -4.378
REMARK INTER:                  -4.132
REMARK INTRA:                  -0.246
REMARK UNBOUND:                -0.123
REMARK SMILES CCCCCC(=O)[O-]
REMARK SMILES IDX 4 1 5 2 6 3 7 4 8 5 3 6 2 7 1 8
REMARK H PARENT
REMARK Flexibility Score: inf
ROOT
ATOM      1  C   UNL     1      11.492 -18.870 -13.458  1.00  0.00     0.006 C 
ENDROOT
BRANCH   1   2
ATOM      2  C   UNL     1      12.178 -17.513 -13.248  1.00  0.00     0.053 C 
BRANCH   2   3
ATOM      3  C   UNL     1      13.488 -17.433 -13.970  1.00  0.00     0.041 C 
ATOM      4  O   UNL     1      14.369 -18.311 -13.783  1.00  0.00    -0.550 OA
ATOM      5  O   UNL     1      13.721 -16.406 -14.877  1.00  0.00    -0.550 OA
ENDBRANCH   2   3
ENDBRANCH   1   2
BRANCH   1   6
ATOM      6  C   UNL     1      11.026 -19.067 -14.908  1.00  0.00     0.000 C 
BRANCH   6   7
ATOM      7  C   UNL     1      11.789 -20.214 -15.578  1.00  0.00    -0.003 C 
ATOM      8  C   UNL     1      12.467 -19.749 -16.864  1.00  0.00     0.004 C 
ENDBRANCH   6   7
ENDBRANCH   1   6
TORSDOF 4
ENDMDL
MODEL 7
REMARK VINA RESULT:    -3.446     15.704     16.610
REMARK INTER + INTRA:          -4.375
REMARK INTER:                  -4.261
REMARK INTRA:                  -0.113
REMARK UNBOUND:                -0.123
REMARK SMILES CCCCCC(=O)[O-]
REMARK SMILES IDX 4 1 5 2 6 3 7 4 8 5 3 6 2 7 1 8
REMARK H PARENT
REMARK Flexibility Score: inf
ROOT
ATOM      1  C   UNL     1      12.964 -21.734 -14.568  1.00  0.00     0.006 C 
ENDROOT
BRANCH   1   2
ATOM      2  C   UNL     1      11.668 -21.159 -15.156  1.00  0.00     0.053 C 
BRANCH   2   3
ATOM      3  C   UNL     1      11.734 -19.669 -15.297  1.00  0.00     0.041 C 
ATOM      4  O   UNL     1      12.512 -19.146 -16.136  1.00  0.00    -0.550 OA
ATOM      5  O   UNL     1      10.911 -18.860 -14.523  1.00  0.00    -0.550 OA
ENDBRANCH   2   3
ENDBRANCH   1   2
BRANCH   1   6
ATOM      6  C   UNL     1      12.727 -23.056 -13.822  1.00  0.00     0.000 C 
BRANCH   6   7
ATOM      7  C   UNL     1      11.301 -23.567 -14.050  1.00  0.00    -0.003 C 
ATOM      8  C   UNL     1      11.284 -25.077 -14.272  1.00  0.00     0.004 C 
ENDBRANCH   6   7
ENDBRANCH   1   6
TORSDOF 4
ENDMDL
MODEL 8
REMARK VINA RESULT:    -3.441     15.063     15.675
REMARK INTER + INTRA:          -4.369
REMARK INTER:                  -4.258
REMARK INTRA:                  -0.111
REMARK UNBOUND:                -0.123
REMARK SMILES CCCCCC(=O)[O-]
REMARK SMILES IDX 4 1 5 2 6 3 7 4 8 5 3 6 2 7 1 8
REMARK H PARENT
REMARK Flexibility Score: inf
ROOT
ATOM      1  C   UNL     1      11.310 -23.519 -14.163  1.00  0.00     0.006 C 
ENDROOT
BRANCH   1   2
ATOM      2  C   UNL     1      12.680 -22.864 -13.942  1.00  0.00     0.053 C 
BRANCH   2   3
ATOM      3  C   UNL     1      12.711 -21.453 -14.442  1.00  0.00     0.041 C 
ATOM      4  O   UNL     1      13.326 -20.565 -13.796  1.00  0.00    -0.550 OA
ATOM      5  O   UNL     1      12.087 -21.125 -15.639  1.00  0.00    -0.550 OA
ENDBRANCH   2   3
ENDBRANCH   1   2
BRANCH   1   6
ATOM      6  C   UNL     1      11.394 -25.052 -14.178  1.00  0.00     0.000 C 
BRANCH   6   7
ATOM      7  C   UNL     1      12.845 -25.524 -14.038  1.00  0.00    -0.003 C 
ATOM      8  C   UNL     1      12.983 -27.000 -14.400  1.00  0.00     0.004 C 
ENDBRANCH   6   7
ENDBRANCH   1   6
TORSDOF 4
ENDMDL
MODEL 9
REMARK VINA RESULT:    -3.428     17.146     18.097
REMARK INTER + INTRA:          -4.353
REMARK INTER:                  -4.199
REMARK INTRA:                  -0.154
REMARK UNBOUND:                -0.123
REMARK SMILES CCCCCC(=O)[O-]
REMARK SMILES IDX 4 1 5 2 6 3 7 4 8 5 3 6 2 7 1 8
REMARK H PARENT
REMARK Flexibility Score: inf
ROOT
ATOM      1  C   UNL     1      11.901 -19.623 -15.237  1.00  0.00     0.006 C 
ENDROOT
BRANCH   1   2
ATOM      2  C   UNL     1      12.844 -18.800 -16.125  1.00  0.00     0.053 C 
BRANCH   2   3
ATOM      3  C   UNL     1      13.932 -18.148 -15.329  1.00  0.00     0.041 C 
ATOM      4  O   UNL     1      14.824 -18.849 -14.784  1.00  0.00    -0.550 OA
ATOM      5  O   UNL     1      13.981 -16.765 -15.217  1.00  0.00    -0.550 OA
ENDBRANCH   2   3
ENDBRANCH   1   2
BRANCH   1   6
ATOM      6  C   UNL     1      11.285 -18.784 -14.108  1.00  0.00     0.000 C 
BRANCH   6   7
ATOM      7  C   UNL     1      11.592 -19.399 -12.738  1.00  0.00    -0.003 C 
ATOM      8  C   UNL     1      10.729 -18.771 -11.646  1.00  0.00     0.004 C 
ENDBRANCH   6   7
ENDBRANCH   1   6
TORSDOF 4
ENDMDL
