MODEL 1
REMARK VINA RESULT:    -2.767      0.000      0.000
REMARK INTER + INTRA:          -4.624
REMARK INTER:                  -3.899
REMARK INTRA:                  -0.724
REMARK UNBOUND:                -0.724
REMARK SMILES CCCCCCCCC(=O)[O-]
REMARK SMILES IDX 6 1 7 2 8 3 9 4 10 5 11 6 5 7 4 8 3 9 2 10 1 11
REMARK H PARENT
REMARK Flexibility Score: inf
ROOT
ATOM      1  C   UNL     1     143.174 139.943 148.209  1.00  0.00     0.000 C 
ENDROOT
BRANCH   1   2
ATOM      2  C   UNL     1     142.906 141.155 149.109  1.00  0.00     0.006 C 
BRANCH   2   3
ATOM      3  C   UNL     1     141.404 141.350 149.334  1.00  0.00     0.053 C 
BRANCH   3   4
ATOM      4  C   UNL     1     141.147 141.929 150.689  1.00  0.00     0.041 C 
ATOM      5  O   UNL     1     140.004 141.841 151.210  1.00  0.00    -0.550 OA
ATOM      6  O   UNL     1     142.184 142.522 151.399  1.00  0.00    -0.550 OA
ENDBRANCH   3   4
ENDBRANCH   2   3
ENDBRANCH   1   2
BRANCH   1   7
ATOM      7  C   UNL     1     144.135 140.309 147.067  1.00  0.00     0.000 C 
BRANCH   7   8
ATOM      8  C   UNL     1     143.429 141.023 145.903  1.00  0.00    -0.000 C 
BRANCH   8   9
ATOM      9  C   UNL     1     142.108 140.342 145.506  1.00  0.00    -0.000 C 
BRANCH   9  10
ATOM     10  C   UNL     1     140.911 141.303 145.565  1.00  0.00    -0.003 C 
ATOM     11  C   UNL     1     141.309 142.725 145.964  1.00  0.00     0.004 C 
ENDBRANCH   9  10
ENDBRANCH   8   9
ENDBRANCH   7   8
ENDBRANCH   1   7
TORSDOF 7
ENDMDL
MODEL 2
REMARK VINA RESULT:    -2.672      5.772      7.189
REMARK INTER + INTRA:          -4.490
REMARK INTER:                  -4.175
REMARK INTRA:                  -0.315
REMARK UNBOUND:                -0.724
REMARK SMILES CCCCCCCCC(=O)[O-]
REMARK SMILES IDX 6 1 7 2 8 3 9 4 10 5 11 6 5 7 4 8 3 9 2 10 1 11
REMARK H PARENT
REMARK Flexibility Score: inf
ROOT
ATOM      1  C   UNL     1     144.331 142.629 143.963  1.00  0.00     0.000 C 
ENDROOT
BRANCH   1   2
ATOM      2  C   UNL     1     145.722 142.767 143.330  1.00  0.00     0.006 C 
BRANCH   2   3
ATOM      3  C   UNL     1     145.846 144.085 142.559  1.00  0.00     0.053 C 
BRANCH   3   4
ATOM      4  C   UNL     1     146.014 143.821 141.096  1.00  0.00     0.041 C 
ATOM      5  O   UNL     1     146.734 142.865 140.703  1.00  0.00    -0.550 OA
ATOM      6  O   UNL     1     145.338 144.601 140.167  1.00  0.00    -0.550 OA
ENDBRANCH   3   4
ENDBRANCH   2   3
ENDBRANCH   1   2
BRANCH   1   7
ATOM      7  C   UNL     1     144.333 141.557 145.064  1.00  0.00     0.000 C 
BRANCH   7   8
ATOM      8  C   UNL     1     143.452 140.347 144.716  1.00  0.00    -0.000 C 
BRANCH   8   9
ATOM      9  C   UNL     1     142.306 140.141 145.722  1.00  0.00    -0.000 C 
BRANCH   9  10
ATOM     10  C   UNL     1     141.110 141.066 145.446  1.00  0.00    -0.003 C 
ATOM     11  C   UNL     1     140.943 142.154 146.508  1.00  0.00     0.004 C 
ENDBRANCH   9  10
ENDBRANCH   8   9
ENDBRANCH   7   8
ENDBRANCH   1   7
TORSDOF 7
ENDMDL
MODEL 3
REMARK VINA RESULT:    -2.650     16.899     18.263
REMARK INTER + INTRA:          -4.458
REMARK INTER:                  -4.046
REMARK INTRA:                  -0.412
REMARK UNBOUND:                -0.724
REMARK SMILES CCCCCCCCC(=O)[O-]
REMARK SMILES IDX 6 1 7 2 8 3 9 4 10 5 11 6 5 7 4 8 3 9 2 10 1 11
REMARK H PARENT
REMARK Flexibility Score: inf
ROOT
ATOM      1  C   UNL     1     142.426 160.065 153.168  1.00  0.00     0.000 C 
ENDROOT
BRANCH   1   2
ATOM      2  C   UNL     1     143.183 160.106 154.501  1.00  0.00     0.006 C 
BRANCH   2   3
ATOM      3  C   UNL     1     144.490 159.313 154.415  1.00  0.00     0.053 C 
BRANCH   3   4
ATOM      4  C   UNL     1     144.582 158.330 155.540  1.00  0.00     0.041 C 
ATOM      5  O   UNL     1     143.629 157.540 155.770  1.00  0.00    -0.550 OA
ATOM      6  O   UNL     1     145.740 158.254 156.303  1.00  0.00    -0.550 OA
ENDBRANCH   3   4
ENDBRANCH   2   3
ENDBRANCH   1   2
BRANCH   1   7
ATOM      7  C   UNL     1     140.925 159.821 153.396  1.00  0.00     0.000 C 
BRANCH   7   8
ATOM      8  C   UNL     1     140.498 158.385 153.050  1.00  0.00    -0.000 C 
BRANCH   8   9
ATOM      9  C   UNL     1     141.532 157.656 152.175  1.00  0.00    -0.000 C 
BRANCH   9  10
ATOM     10  C   UNL     1     141.049 157.467 150.728  1.00  0.00    -0.003 C 
ATOM     11  C   UNL     1     140.478 156.072 150.470  1.00  0.00     0.004 C 
ENDBRANCH   9  10
ENDBRANCH   8   9
ENDBRANCH   7   8
ENDBRANCH   1   7
TORSDOF 7
ENDMDL
MODEL 4
REMARK VINA RESULT:    -2.641     17.466     18.719
REMARK INTER + INTRA:          -4.446
REMARK INTER:                  -4.096
REMARK INTRA:                  -0.350
REMARK UNBOUND:                -0.724
REMARK SMILES CCCCCCCCC(=O)[O-]
REMARK SMILES IDX 6 1 7 2 8 3 9 4 10 5 11 6 5 7 4 8 3 9 2 10 1 11
REMARK H PARENT
REMARK Flexibility Score: inf
ROOT
ATOM      1  C   UNL     1     144.435 156.746 155.204  1.00  0.00     0.000 C 
ENDROOT
BRANCH   1   2
ATOM      2  C   UNL     1     144.367 157.108 156.693  1.00  0.00     0.006 C 
BRANCH   2   3
ATOM      3  C   UNL     1     145.770 157.224 157.296  1.00  0.00     0.053 C 
BRANCH   3   4
ATOM      4  C   UNL     1     145.738 156.918 158.760  1.00  0.00     0.041 C 
ATOM      5  O   UNL     1     145.587 155.732 159.157  1.00  0.00    -0.550 OA
ATOM      6  O   UNL     1     145.925 157.936 159.687  1.00  0.00    -0.550 OA
ENDBRANCH   3   4
ENDBRANCH   2   3
ENDBRANCH   1   2
BRANCH   1   7
ATOM      7  C   UNL     1     143.547 157.683 154.370  1.00  0.00     0.000 C 
BRANCH   7   8
ATOM      8  C   UNL     1     143.788 159.168 154.687  1.00  0.00    -0.000 C 
BRANCH   8   9
ATOM      9  C   UNL     1     142.613 160.062 154.256  1.00  0.00    -0.000 C 
BRANCH   9  10
ATOM     10  C   UNL     1     141.660 159.352 153.281  1.00  0.00    -0.003 C 
ATOM     11  C   UNL     1     140.195 159.445 153.709  1.00  0.00     0.004 C 
ENDBRANCH   9  10
ENDBRANCH   8   9
ENDBRANCH   7   8
ENDBRANCH   1   7
TORSDOF 7
ENDMDL
MODEL 5
REMARK VINA RESULT:    -2.628      2.818      3.801
REMARK INTER + INTRA:          -4.427
REMARK INTER:                  -3.938
REMARK INTRA:                  -0.490
REMARK UNBOUND:                -0.724
REMARK SMILES CCCCCCCCC(=O)[O-]
REMARK SMILES IDX 6 1 7 2 8 3 9 4 10 5 11 6 5 7 4 8 3 9 2 10 1 11
REMARK H PARENT
REMARK Flexibility Score: inf
ROOT
ATOM      1  C   UNL     1     142.850 140.043 146.264  1.00  0.00     0.000 C 
ENDROOT
BRANCH   1   2
ATOM      2  C   UNL     1     141.953 140.608 145.156  1.00  0.00     0.006 C 
BRANCH   2   3
ATOM      3  C   UNL     1     140.714 141.289 145.745  1.00  0.00     0.053 C 
BRANCH   3   4
ATOM      4  C   UNL     1     141.105 142.504 146.525  1.00  0.00     0.041 C 
ATOM      5  O   UNL     1     140.992 142.515 147.779  1.00  0.00    -0.550 OA
ATOM      6  O   UNL     1     141.640 143.607 145.872  1.00  0.00    -0.550 OA
ENDBRANCH   3   4
ENDBRANCH   2   3
ENDBRANCH   1   2
BRANCH   1   7
ATOM      7  C   UNL     1     144.319 140.005 145.816  1.00  0.00     0.000 C 
BRANCH   7   8
ATOM      8  C   UNL     1     144.519 140.540 144.389  1.00  0.00    -0.000 C 
BRANCH   8   9
ATOM      9  C   UNL     1     145.377 141.816 144.352  1.00  0.00    -0.000 C 
BRANCH   9  10
ATOM     10  C   UNL     1     144.544 143.076 144.068  1.00  0.00    -0.003 C 
ATOM     11  C   UNL     1     144.777 143.639 142.665  1.00  0.00     0.004 C 
ENDBRANCH   9  10
ENDBRANCH   8   9
ENDBRANCH   7   8
ENDBRANCH   1   7
TORSDOF 7
ENDMDL
MODEL 6
REMARK VINA RESULT:    -2.566     17.601     18.298
REMARK INTER + INTRA:          -4.341
REMARK INTER:                  -3.683
REMARK INTRA:                  -0.658
REMARK UNBOUND:                -0.724
REMARK SMILES CCCCCCCCC(=O)[O-]
REMARK SMILES IDX 6 1 7 2 8 3 9 4 10 5 11 6 5 7 4 8 3 9 2 10 1 11
REMARK H PARENT
REMARK Flexibility Score: inf
ROOT
ATOM      1  C   UNL     1     144.230 158.365 152.181  1.00  0.00     0.000 C 
ENDROOT
BRANCH   1   2
ATOM      2  C   UNL     1     144.894 158.126 153.543  1.00  0.00     0.006 C 
BRANCH   2   3
ATOM      3  C   UNL     1     143.877 158.255 154.680  1.00  0.00     0.053 C 
BRANCH   3   4
ATOM      4  C   UNL     1     144.491 157.842 155.981  1.00  0.00     0.041 C 
ATOM      5  O   UNL     1     143.938 156.963 156.692  1.00  0.00    -0.550 OA
ATOM      6  O   UNL     1     145.701 158.394 156.384  1.00  0.00    -0.550 OA
ENDBRANCH   3   4
ENDBRANCH   2   3
ENDBRANCH   1   2
BRANCH   1   7
ATOM      7  C   UNL     1     143.652 159.786 152.093  1.00  0.00     0.000 C 
BRANCH   7   8
ATOM      8  C   UNL     1     142.167 159.800 151.699  1.00  0.00    -0.000 C 
BRANCH   8   9
ATOM      9  C   UNL     1     141.537 158.397 151.719  1.00  0.00    -0.000 C 
BRANCH   9  10
ATOM     10  C   UNL     1     140.547 158.213 152.880  1.00  0.00    -0.003 C 
ATOM     11  C   UNL     1     140.304 159.504 153.663  1.00  0.00     0.004 C 
ENDBRANCH   9  10
ENDBRANCH   8   9
ENDBRANCH   7   8
ENDBRANCH   1   7
TORSDOF 7
ENDMDL
MODEL 7
REMARK VINA RESULT:    -2.236      3.319      5.251
REMARK INTER + INTRA:          -3.875
REMARK INTER:                  -3.301
REMARK INTRA:                  -0.574
REMARK UNBOUND:                -0.724
REMARK SMILES CCCCCCCCC(=O)[O-]
REMARK SMILES IDX 6 1 7 2 8 3 9 4 10 5 11 6 5 7 4 8 3 9 2 10 1 11
REMARK H PARENT
REMARK Flexibility Score: inf
ROOT
ATOM      1  C   UNL     1     141.362 140.972 145.461  1.00  0.00     0.000 C 
ENDROOT
BRANCH   1   2
ATOM      2  C   UNL     1     142.465 139.961 145.802  1.00  0.00     0.006 C 
BRANCH   2   3
ATOM      3  C   UNL     1     143.499 139.875 144.676  1.00  0.00     0.053 C 
BRANCH   3   4
ATOM      4  C   UNL     1     144.445 141.032 144.744  1.00  0.00     0.041 C 
ATOM      5  O   UNL     1     145.048 141.295 145.818  1.00  0.00    -0.550 OA
ATOM      6  O   UNL     1     144.700 141.789 143.607  1.00  0.00    -0.550 OA
ENDBRANCH   3   4
ENDBRANCH   2   3
ENDBRANCH   1   2
BRANCH   1   7
ATOM      7  C   UNL     1     141.094 141.913 146.646  1.00  0.00     0.000 C 
BRANCH   7   8
ATOM      8  C   UNL     1     142.094 141.719 147.797  1.00  0.00    -0.000 C 
BRANCH   8   9
ATOM      9  C   UNL     1     141.399 141.510 149.154  1.00  0.00    -0.000 C 
BRANCH   9  10
ATOM     10  C   UNL     1     142.357 140.970 150.227  1.00  0.00    -0.003 C 
ATOM     11  C   UNL     1     143.696 140.507 149.650  1.00  0.00     0.004 C 
ENDBRANCH   9  10
ENDBRANCH   8   9
ENDBRANCH   7   8
ENDBRANCH   1   7
TORSDOF 7
ENDMDL
MODEL 8
REMARK VINA RESULT:    -1.049      1.466      2.894
REMARK INTER + INTRA:          -2.202
REMARK INTER:                  -1.434
REMARK INTRA:                  -0.768
REMARK UNBOUND:                -0.724
REMARK SMILES CCCCCCCCC(=O)[O-]
REMARK SMILES IDX 6 1 7 2 8 3 9 4 10 5 11 6 5 7 4 8 3 9 2 10 1 11
REMARK H PARENT
REMARK Flexibility Score: inf
ROOT
ATOM      1  C   UNL     1     142.039 142.157 145.941  1.00  0.00     0.000 C 
ENDROOT
BRANCH   1   2
ATOM      2  C   UNL     1     141.007 142.173 147.076  1.00  0.00     0.006 C 
BRANCH   2   3
ATOM      3  C   UNL     1     141.672 142.494 148.418  1.00  0.00     0.053 C 
BRANCH   3   4
ATOM      4  C   UNL     1     141.482 141.364 149.380  1.00  0.00     0.041 C 
ATOM      5  O   UNL     1     140.610 141.442 150.285  1.00  0.00    -0.550 OA
ATOM      6  O   UNL     1     142.235 140.204 149.246  1.00  0.00    -0.550 OA
ENDBRANCH   3   4
ENDBRANCH   2   3
ENDBRANCH   1   2
BRANCH   1   7
ATOM      7  C   UNL     1     141.963 140.843 145.148  1.00  0.00     0.000 C 
BRANCH   7   8
ATOM      8  C   UNL     1     143.106 139.875 145.492  1.00  0.00    -0.000 C 
BRANCH   8   9
ATOM      9  C   UNL     1     144.446 140.597 145.711  1.00  0.00    -0.000 C 
BRANCH   9  10
ATOM     10  C   UNL     1     145.002 140.389 147.128  1.00  0.00    -0.003 C 
ATOM     11  C   UNL     1     145.284 141.704 147.855  1.00  0.00     0.004 C 
ENDBRANCH   9  10
ENDBRANCH   8   9
ENDBRANCH   7   8
ENDBRANCH   1   7
TORSDOF 7
ENDMDL
