MODEL 1
REMARK VINA RESULT:    34.426      0.000      0.000
REMARK INTER + INTRA:          37.445
REMARK INTER:                  37.445
REMARK INTRA:                   0.000
REMARK UNBOUND:                 0.000
REMARK SMILES Cc1cc(O)c2c(c1)C(=O)c1cc(O)cc(O)c1C2=O
REMARK SMILES IDX 1 1 2 2 8 3 7 4 6 5 4 6 3 7 19 8 20 9 18 10 11 11 9 12 10 13
REMARK SMILES IDX 12 14 13 15 15 16 16 17 5 18 17 20 14 22
REMARK H PARENT 5 19 17 21 14 23
REMARK Flexibility Score: inf
ROOT
ATOM      1  C   UNL     1      -3.485   5.127  -3.689  1.00  0.00     0.044 C 
ATOM      2  C   UNL     1      -2.251   4.317  -3.966  1.00  0.00    -0.047 A 
ATOM      3  C   UNL     1      -2.225   3.416  -5.035  1.00  0.00     0.016 A 
ATOM      4  C   UNL     1      -1.091   2.622  -5.276  1.00  0.00     0.038 A 
ATOM      5  C   UNL     1       0.026   2.713  -4.416  1.00  0.00     0.076 A 
ATOM      6  C   UNL     1       0.012   3.662  -3.361  1.00  0.00     0.127 A 
ATOM      7  C   UNL     1      -1.136   4.427  -3.129  1.00  0.00     0.050 A 
ATOM      8  C   UNL     1       1.144   1.754  -4.614  1.00  0.00     0.201 C 
ATOM      9  O   UNL     1       1.841   1.390  -3.629  1.00  0.00    -0.288 OA
ATOM     10  C   UNL     1       1.319   1.086  -5.930  1.00  0.00     0.076 A 
ATOM     11  C   UNL     1       0.198   0.998  -6.787  1.00  0.00     0.041 A 
ATOM     12  C   UNL     1      -1.061   1.693  -6.430  1.00  0.00     0.194 C 
ATOM     13  O   UNL     1      -2.100   1.513  -7.124  1.00  0.00    -0.289 OA
ATOM     14  C   UNL     1       0.285   0.255  -7.977  1.00  0.00     0.059 A 
ATOM     15  C   UNL     1       1.474  -0.384  -8.328  1.00  0.00     0.120 A 
ATOM     16  C   UNL     1       2.596  -0.266  -7.505  1.00  0.00     0.093 A 
ATOM     17  C   UNL     1       2.541   0.484  -6.325  1.00  0.00     0.131 A 
ENDROOT
BRANCH   6  18
ATOM     18  O   UNL     1       1.121   3.900  -2.544  1.00  0.00    -0.507 OA
ATOM     19  H   UNL     1       2.064   3.639  -2.793  1.00  0.00     0.293 HD
ENDBRANCH   6  18
BRANCH  17  20
ATOM     20  O   UNL     1       3.727   0.632  -5.600  1.00  0.00    -0.507 OA
ATOM     21  H   UNL     1       4.590   0.968  -6.004  1.00  0.00     0.293 HD
ENDBRANCH  17  20
BRANCH  15  22
ATOM     22  O   UNL     1       1.532  -1.126  -9.506  1.00  0.00    -0.508 OA
ATOM     23  H   UNL     1       2.419  -1.393  -9.920  1.00  0.00     0.293 HD
ENDBRANCH  15  22
TORSDOF 3
ENDMDL
MODEL 2
REMARK VINA RESULT:    36.115      1.571      5.576
REMARK INTER + INTRA:          39.282
REMARK INTER:                  39.282
REMARK INTRA:                   0.000
REMARK UNBOUND:                 0.000
REMARK SMILES Cc1cc(O)c2c(c1)C(=O)c1cc(O)cc(O)c1C2=O
REMARK SMILES IDX 1 1 2 2 8 3 7 4 6 5 4 6 3 7 19 8 20 9 18 10 11 11 9 12 10 13
REMARK SMILES IDX 12 14 13 15 15 16 16 17 5 18 17 20 14 22
REMARK H PARENT 5 19 17 21 14 23
REMARK Flexibility Score: inf
ROOT
ATOM      1  C   UNL     1       1.703  -1.025  -8.231  1.00  0.00     0.044 C 
ATOM      2  C   UNL     1       1.504  -0.055  -7.103  1.00  0.00    -0.047 A 
ATOM      3  C   UNL     1       0.341   0.720  -7.037  1.00  0.00     0.016 A 
ATOM      4  C   UNL     1       0.165   1.662  -6.009  1.00  0.00     0.038 A 
ATOM      5  C   UNL     1       1.181   1.849  -5.046  1.00  0.00     0.076 A 
ATOM      6  C   UNL     1       2.338   1.028  -5.092  1.00  0.00     0.127 A 
ATOM      7  C   UNL     1       2.500   0.112  -6.135  1.00  0.00     0.050 A 
ATOM      8  C   UNL     1       1.023   2.954  -4.065  1.00  0.00     0.201 C 
ATOM      9  O   UNL     1       2.042   3.532  -3.600  1.00  0.00    -0.288 OA
ATOM     10  C   UNL     1      -0.330   3.500  -3.779  1.00  0.00     0.076 A 
ATOM     11  C   UNL     1      -1.343   3.308  -4.746  1.00  0.00     0.041 A 
ATOM     12  C   UNL     1      -1.084   2.455  -5.929  1.00  0.00     0.194 C 
ATOM     13  O   UNL     1      -1.937   2.385  -6.856  1.00  0.00    -0.289 OA
ATOM     14  C   UNL     1      -2.595   3.925  -4.577  1.00  0.00     0.059 A 
ATOM     15  C   UNL     1      -2.852   4.713  -3.455  1.00  0.00     0.120 A 
ATOM     16  C   UNL     1      -1.867   4.871  -2.477  1.00  0.00     0.093 A 
ATOM     17  C   UNL     1      -0.620   4.251  -2.612  1.00  0.00     0.131 A 
ENDROOT
BRANCH   6  18
ATOM     18  O   UNL     1       3.330   1.066  -4.108  1.00  0.00    -0.507 OA
ATOM     19  H   UNL     1       3.844   1.902  -3.864  1.00  0.00     0.293 HD
ENDBRANCH   6  18
BRANCH  17  20
ATOM     20  O   UNL     1       0.282   4.380  -1.551  1.00  0.00    -0.507 OA
ATOM     21  H   UNL     1       0.216   3.847  -0.695  1.00  0.00     0.293 HD
ENDBRANCH  17  20
BRANCH  15  22
ATOM     22  O   UNL     1      -4.095   5.325  -3.316  1.00  0.00    -0.508 OA
ATOM     23  H   UNL     1      -4.944   4.780  -3.207  1.00  0.00     0.293 HD
ENDBRANCH  15  22
TORSDOF 3
ENDMDL
MODEL 3
REMARK VINA RESULT:    36.133      1.312      6.216
REMARK INTER + INTRA:          39.302
REMARK INTER:                  39.302
REMARK INTRA:                   0.000
REMARK UNBOUND:                 0.000
REMARK SMILES Cc1cc(O)c2c(c1)C(=O)c1cc(O)cc(O)c1C2=O
REMARK SMILES IDX 1 1 2 2 8 3 7 4 6 5 4 6 3 7 19 8 20 9 18 10 11 11 9 12 10 13
REMARK SMILES IDX 12 14 13 15 15 16 16 17 5 18 17 20 14 22
REMARK H PARENT 5 19 17 21 14 23
REMARK Flexibility Score: inf
ROOT
ATOM      1  C   UNL     1       5.083  -0.466  -6.504  1.00  0.00     0.044 C 
ATOM      2  C   UNL     1       3.656  -0.005  -6.563  1.00  0.00    -0.047 A 
ATOM      3  C   UNL     1       3.134   0.802  -5.546  1.00  0.00     0.016 A 
ATOM      4  C   UNL     1       1.788   1.204  -5.569  1.00  0.00     0.038 A 
ATOM      5  C   UNL     1       0.943   0.769  -6.615  1.00  0.00     0.076 A 
ATOM      6  C   UNL     1       1.489  -0.012  -7.667  1.00  0.00     0.127 A 
ATOM      7  C   UNL     1       2.826  -0.415  -7.611  1.00  0.00     0.050 A 
ATOM      8  C   UNL     1      -0.505   1.090  -6.526  1.00  0.00     0.201 C 
ATOM      9  O   UNL     1      -1.354   0.313  -7.039  1.00  0.00    -0.288 OA
ATOM     10  C   UNL     1      -0.960   2.221  -5.675  1.00  0.00     0.076 A 
ATOM     11  C   UNL     1      -0.110   2.653  -4.632  1.00  0.00     0.041 A 
ATOM     12  C   UNL     1       1.252   2.084  -4.504  1.00  0.00     0.194 C 
ATOM     13  O   UNL     1       1.965   2.370  -3.503  1.00  0.00    -0.289 OA
ATOM     14  C   UNL     1      -0.561   3.624  -3.721  1.00  0.00     0.059 A 
ATOM     15  C   UNL     1      -1.834   4.178  -3.847  1.00  0.00     0.120 A 
ATOM     16  C   UNL     1      -2.662   3.785  -4.902  1.00  0.00     0.093 A 
ATOM     17  C   UNL     1      -2.229   2.834  -5.832  1.00  0.00     0.131 A 
ENDROOT
BRANCH   6  18
ATOM     18  O   UNL     1       0.751  -0.378  -8.796  1.00  0.00    -0.507 OA
ATOM     19  H   UNL     1      -0.230  -0.618  -8.769  1.00  0.00     0.293 HD
ENDBRANCH   6  18
BRANCH  17  20
ATOM     20  O   UNL     1      -3.075   2.557  -6.911  1.00  0.00    -0.507 OA
ATOM     21  H   UNL     1      -3.093   1.668  -7.392  1.00  0.00     0.293 HD
ENDBRANCH  17  20
BRANCH  15  22
ATOM     22  O   UNL     1      -2.264   5.130  -2.925  1.00  0.00    -0.508 OA
ATOM     23  H   UNL     1      -1.606   5.639  -2.344  1.00  0.00     0.293 HD
ENDBRANCH  15  22
TORSDOF 3
ENDMDL
