MODEL 1
REMARK VINA RESULT:    12.249      0.000      0.000
REMARK INTER + INTRA:          25.588
REMARK INTER:                  26.571
REMARK INTRA:                  -0.983
REMARK UNBOUND:                -0.983
REMARK SMILES CCCCCCCCCCCCCCCCCCCCCC(=O)[O-]
REMARK SMILES IDX 12 1 11 2 10 3 9 4 8 5 7 6 6 7 5 8 4 9 3 10 2 11 1 12 13 13
REMARK SMILES IDX 14 14 15 15 16 16 17 17 18 18 19 19 20 20 21 21 22 22 23 23
REMARK SMILES IDX 24 24
REMARK H PARENT
REMARK Flexibility Score: inf
ROOT
ATOM      1  C   UNL     1      80.605  64.791 102.805  1.00  0.00     0.000 C 
ENDROOT
BRANCH   1   2
ATOM      2  C   UNL     1      79.283  65.043 102.060  1.00  0.00     0.000 C 
BRANCH   2   3
ATOM      3  C   UNL     1      78.363  63.808 102.045  1.00  0.00     0.000 C 
BRANCH   3   4
ATOM      4  C   UNL     1      76.932  64.068 101.540  1.00  0.00    -0.000 C 
BRANCH   4   5
ATOM      5  C   UNL     1      76.751  63.726 100.053  1.00  0.00    -0.000 C 
BRANCH   5   6
ATOM      6  C   UNL     1      75.299  63.333  99.750  1.00  0.00    -0.000 C 
BRANCH   6   7
ATOM      7  C   UNL     1      74.686  64.266  98.700  1.00  0.00    -0.000 C 
BRANCH   7   8
ATOM      8  C   UNL     1      75.226  63.950  97.298  1.00  0.00    -0.000 C 
BRANCH   8   9
ATOM      9  C   UNL     1      74.908  62.514  96.844  1.00  0.00    -0.000 C 
BRANCH   9  10
ATOM     10  C   UNL     1      76.127  61.760  96.275  1.00  0.00    -0.000 C 
BRANCH  10  11
ATOM     11  C   UNL     1      76.097  60.262  96.618  1.00  0.00    -0.003 C 
ATOM     12  C   UNL     1      75.175  59.986  97.803  1.00  0.00     0.004 C 
ENDBRANCH  10  11
ENDBRANCH   9  10
ENDBRANCH   8   9
ENDBRANCH   7   8
ENDBRANCH   6   7
ENDBRANCH   5   6
ENDBRANCH   4   5
ENDBRANCH   3   4
ENDBRANCH   2   3
ENDBRANCH   1   2
BRANCH   1  13
ATOM     13  C   UNL     1      81.357  66.089 103.156  1.00  0.00     0.000 C 
BRANCH  13  14
ATOM     14  C   UNL     1      82.579  65.915 104.076  1.00  0.00     0.000 C 
BRANCH  14  15
ATOM     15  C   UNL     1      82.777  67.092 105.046  1.00  0.00     0.000 C 
BRANCH  15  16
ATOM     16  C   UNL     1      84.132  67.034 105.772  1.00  0.00     0.000 C 
BRANCH  16  17
ATOM     17  C   UNL     1      84.239  65.828 106.723  1.00  0.00     0.000 C 
BRANCH  17  18
ATOM     18  C   UNL     1      85.660  65.653 107.283  1.00  0.00     0.000 C 
BRANCH  18  19
ATOM     19  C   UNL     1      85.730  65.929 108.795  1.00  0.00     0.000 C 
BRANCH  19  20
ATOM     20  C   UNL     1      87.178  66.037 109.309  1.00  0.00     0.006 C 
BRANCH  20  21
ATOM     21  C   UNL     1      87.499  65.089 110.477  1.00  0.00     0.053 C 
BRANCH  21  22
ATOM     22  C   UNL     1      87.445  63.650 110.065  1.00  0.00     0.041 C 
ATOM     23  O   UNL     1      87.024  62.776 110.869  1.00  0.00    -0.550 OA
ATOM     24  O   UNL     1      87.816  63.279 108.779  1.00  0.00    -0.550 OA
ENDBRANCH  21  22
ENDBRANCH  20  21
ENDBRANCH  19  20
ENDBRANCH  18  19
ENDBRANCH  17  18
ENDBRANCH  16  17
ENDBRANCH  15  16
ENDBRANCH  14  15
ENDBRANCH  13  14
ENDBRANCH   1  13
TORSDOF 20
ENDMDL
MODEL 2
REMARK VINA RESULT:    12.425      1.829      2.051
REMARK INTER + INTRA:          25.968
REMARK INTER:                  26.808
REMARK INTRA:                  -0.840
REMARK UNBOUND:                -0.983
REMARK SMILES CCCCCCCCCCCCCCCCCCCCCC(=O)[O-]
REMARK SMILES IDX 12 1 11 2 10 3 9 4 8 5 7 6 6 7 5 8 4 9 3 10 2 11 1 12 13 13
REMARK SMILES IDX 14 14 15 15 16 16 17 17 18 18 19 19 20 20 21 21 22 22 23 23
REMARK SMILES IDX 24 24
REMARK H PARENT
REMARK Flexibility Score: inf
ROOT
ATOM      1  C   UNL     1      81.182  65.285 102.845  1.00  0.00     0.000 C 
ENDROOT
BRANCH   1   2
ATOM      2  C   UNL     1      79.820  65.432 102.143  1.00  0.00     0.000 C 
BRANCH   2   3
ATOM      3  C   UNL     1      79.224  64.080 101.712  1.00  0.00     0.000 C 
BRANCH   3   4
ATOM      4  C   UNL     1      77.863  63.736 102.345  1.00  0.00    -0.000 C 
BRANCH   4   5
ATOM      5  C   UNL     1      76.675  64.302 101.552  1.00  0.00    -0.000 C 
BRANCH   5   6
ATOM      6  C   UNL     1      76.430  63.492 100.272  1.00  0.00    -0.000 C 
BRANCH   6   7
ATOM      7  C   UNL     1      75.097  63.882  99.622  1.00  0.00    -0.000 C 
BRANCH   7   8
ATOM      8  C   UNL     1      75.187  63.805  98.091  1.00  0.00    -0.000 C 
BRANCH   8   9
ATOM      9  C   UNL     1      76.034  62.618  97.601  1.00  0.00    -0.000 C 
BRANCH   9  10
ATOM     10  C   UNL     1      75.388  61.832  96.442  1.00  0.00    -0.000 C 
BRANCH  10  11
ATOM     11  C   UNL     1      75.761  60.341  96.470  1.00  0.00    -0.003 C 
ATOM     12  C   UNL     1      76.958  60.090  97.382  1.00  0.00     0.004 C 
ENDBRANCH  10  11
ENDBRANCH   9  10
ENDBRANCH   8   9
ENDBRANCH   7   8
ENDBRANCH   6   7
ENDBRANCH   5   6
ENDBRANCH   4   5
ENDBRANCH   3   4
ENDBRANCH   2   3
ENDBRANCH   1   2
BRANCH   1  13
ATOM     13  C   UNL     1      81.378  66.288 103.998  1.00  0.00     0.000 C 
BRANCH  13  14
ATOM     14  C   UNL     1      82.758  66.969 104.052  1.00  0.00     0.000 C 
BRANCH  14  15
ATOM     15  C   UNL     1      83.243  67.236 105.487  1.00  0.00     0.000 C 
BRANCH  15  16
ATOM     16  C   UNL     1      83.809  65.974 106.160  1.00  0.00     0.000 C 
BRANCH  16  17
ATOM     17  C   UNL     1      84.930  66.293 107.165  1.00  0.00     0.000 C 
BRANCH  17  18
ATOM     18  C   UNL     1      85.745  65.046 107.544  1.00  0.00     0.000 C 
BRANCH  18  19
ATOM     19  C   UNL     1      86.896  65.372 108.510  1.00  0.00     0.000 C 
BRANCH  19  20
ATOM     20  C   UNL     1      86.491  65.214 109.988  1.00  0.00     0.006 C 
BRANCH  20  21
ATOM     21  C   UNL     1      87.301  66.094 110.956  1.00  0.00     0.053 C 
BRANCH  21  22
ATOM     22  C   UNL     1      86.756  67.487 111.039  1.00  0.00     0.041 C 
ATOM     23  O   UNL     1      85.514  67.677 111.123  1.00  0.00    -0.550 OA
ATOM     24  O   UNL     1      87.622  68.573 111.069  1.00  0.00    -0.550 OA
ENDBRANCH  21  22
ENDBRANCH  20  21
ENDBRANCH  19  20
ENDBRANCH  18  19
ENDBRANCH  17  18
ENDBRANCH  16  17
ENDBRANCH  15  16
ENDBRANCH  14  15
ENDBRANCH  13  14
ENDBRANCH   1  13
TORSDOF 20
ENDMDL
MODEL 3
REMARK VINA RESULT:    12.648      5.028     13.653
REMARK INTER + INTRA:          26.452
REMARK INTER:                  26.250
REMARK INTRA:                   0.201
REMARK UNBOUND:                -0.983
REMARK SMILES CCCCCCCCCCCCCCCCCCCCCC(=O)[O-]
REMARK SMILES IDX 12 1 11 2 10 3 9 4 8 5 7 6 6 7 5 8 4 9 3 10 2 11 1 12 13 13
REMARK SMILES IDX 14 14 15 15 16 16 17 17 18 18 19 19 20 20 21 21 22 22 23 23
REMARK SMILES IDX 24 24
REMARK H PARENT
REMARK Flexibility Score: inf
ROOT
ATOM      1  C   UNL     1      81.035  65.980 103.256  1.00  0.00     0.000 C 
ENDROOT
BRANCH   1   2
ATOM      2  C   UNL     1      82.511  66.028 103.686  1.00  0.00     0.000 C 
BRANCH   2   3
ATOM      3  C   UNL     1      82.732  66.859 104.964  1.00  0.00     0.000 C 
BRANCH   3   4
ATOM      4  C   UNL     1      84.182  66.883 105.483  1.00  0.00    -0.000 C 
BRANCH   4   5
ATOM      5  C   UNL     1      84.301  66.422 106.944  1.00  0.00    -0.000 C 
BRANCH   5   6
ATOM      6  C   UNL     1      85.439  65.406 107.110  1.00  0.00    -0.000 C 
BRANCH   6   7
ATOM      7  C   UNL     1      86.411  65.846 108.211  1.00  0.00    -0.000 C 
BRANCH   7   8
ATOM      8  C   UNL     1      86.637  64.720 109.229  1.00  0.00    -0.000 C 
BRANCH   8   9
ATOM      9  C   UNL     1      87.210  65.227 110.564  1.00  0.00    -0.000 C 
BRANCH   9  10
ATOM     10  C   UNL     1      87.496  66.742 110.581  1.00  0.00    -0.000 C 
BRANCH  10  11
ATOM     11  C   UNL     1      86.209  67.577 110.676  1.00  0.00    -0.003 C 
ATOM     12  C   UNL     1      85.028  66.720 111.124  1.00  0.00     0.004 C 
ENDBRANCH  10  11
ENDBRANCH   9  10
ENDBRANCH   8   9
ENDBRANCH   7   8
ENDBRANCH   6   7
ENDBRANCH   5   6
ENDBRANCH   4   5
ENDBRANCH   3   4
ENDBRANCH   2   3
ENDBRANCH   1   2
BRANCH   1  13
ATOM     13  C   UNL     1      80.678  64.705 102.468  1.00  0.00     0.000 C 
BRANCH  13  14
ATOM     14  C   UNL     1      79.273  64.691 101.838  1.00  0.00     0.000 C 
BRANCH  14  15
ATOM     15  C   UNL     1      78.203  64.083 102.760  1.00  0.00     0.000 C 
BRANCH  15  16
ATOM     16  C   UNL     1      76.836  63.953 102.068  1.00  0.00     0.000 C 
BRANCH  16  17
ATOM     17  C   UNL     1      76.960  63.829 100.538  1.00  0.00     0.000 C 
BRANCH  17  18
ATOM     18  C   UNL     1      75.645  63.376  99.882  1.00  0.00     0.000 C 
BRANCH  18  19
ATOM     19  C   UNL     1      75.327  64.169  98.603  1.00  0.00     0.000 C 
BRANCH  19  20
ATOM     20  C   UNL     1      74.459  63.368  97.613  1.00  0.00     0.006 C 
BRANCH  20  21
ATOM     21  C   UNL     1      75.266  62.631  96.530  1.00  0.00     0.053 C 
BRANCH  21  22
ATOM     22  C   UNL     1      75.588  61.224  96.929  1.00  0.00     0.041 C 
ATOM     23  O   UNL     1      75.294  60.809  98.082  1.00  0.00    -0.550 OA
ATOM     24  O   UNL     1      76.172  60.356  96.014  1.00  0.00    -0.550 OA
ENDBRANCH  21  22
ENDBRANCH  20  21
ENDBRANCH  19  20
ENDBRANCH  18  19
ENDBRANCH  17  18
ENDBRANCH  16  17
ENDBRANCH  15  16
ENDBRANCH  14  15
ENDBRANCH  13  14
ENDBRANCH   1  13
TORSDOF 20
ENDMDL
MODEL 4
REMARK VINA RESULT:    13.292      5.274     13.536
REMARK INTER + INTRA:          27.849
REMARK INTER:                  28.851
REMARK INTRA:                  -1.002
REMARK UNBOUND:                -0.983
REMARK SMILES CCCCCCCCCCCCCCCCCCCCCC(=O)[O-]
REMARK SMILES IDX 12 1 11 2 10 3 9 4 8 5 7 6 6 7 5 8 4 9 3 10 2 11 1 12 13 13
REMARK SMILES IDX 14 14 15 15 16 16 17 17 18 18 19 19 20 20 21 21 22 22 23 23
REMARK SMILES IDX 24 24
REMARK H PARENT
REMARK Flexibility Score: inf
ROOT
ATOM      1  C   UNL     1      82.389  67.325 104.643  1.00  0.00     0.000 C 
ENDROOT
BRANCH   1   2
ATOM      2  C   UNL     1      83.893  67.603 104.809  1.00  0.00     0.000 C 
BRANCH   2   3
ATOM      3  C   UNL     1      84.384  67.380 106.251  1.00  0.00     0.000 C 
BRANCH   3   4
ATOM      4  C   UNL     1      84.622  65.908 106.638  1.00  0.00    -0.000 C 
BRANCH   4   5
ATOM      5  C   UNL     1      85.655  65.746 107.764  1.00  0.00    -0.000 C 
BRANCH   5   6
ATOM      6  C   UNL     1      86.165  64.301 107.840  1.00  0.00    -0.000 C 
BRANCH   6   7
ATOM      7  C   UNL     1      87.400  64.202 108.743  1.00  0.00    -0.000 C 
BRANCH   7   8
ATOM      8  C   UNL     1      87.069  64.629 110.180  1.00  0.00    -0.000 C 
BRANCH   8   9
ATOM      9  C   UNL     1      87.752  65.948 110.583  1.00  0.00    -0.000 C 
BRANCH   9  10
ATOM     10  C   UNL     1      86.771  67.026 111.086  1.00  0.00    -0.000 C 
BRANCH  10  11
ATOM     11  C   UNL     1      85.320  66.522 111.125  1.00  0.00    -0.003 C 
ATOM     12  C   UNL     1      84.332  67.684 111.106  1.00  0.00     0.004 C 
ENDBRANCH  10  11
ENDBRANCH   9  10
ENDBRANCH   8   9
ENDBRANCH   7   8
ENDBRANCH   6   7
ENDBRANCH   5   6
ENDBRANCH   4   5
ENDBRANCH   3   4
ENDBRANCH   2   3
ENDBRANCH   1   2
BRANCH   1  13
ATOM     13  C   UNL     1      82.094  65.939 104.039  1.00  0.00     0.000 C 
BRANCH  13  14
ATOM     14  C   UNL     1      80.714  65.791 103.371  1.00  0.00     0.000 C 
BRANCH  14  15
ATOM     15  C   UNL     1      80.619  64.563 102.449  1.00  0.00     0.000 C 
BRANCH  15  16
ATOM     16  C   UNL     1      79.344  64.573 101.589  1.00  0.00     0.000 C 
BRANCH  16  17
ATOM     17  C   UNL     1      78.125  63.998 102.334  1.00  0.00     0.000 C 
BRANCH  17  18
ATOM     18  C   UNL     1      76.809  64.257 101.584  1.00  0.00     0.000 C 
BRANCH  18  19
ATOM     19  C   UNL     1      76.808  63.638 100.175  1.00  0.00     0.000 C 
BRANCH  19  20
ATOM     20  C   UNL     1      75.405  63.182  99.731  1.00  0.00     0.006 C 
BRANCH  20  21
ATOM     21  C   UNL     1      75.309  62.821  98.239  1.00  0.00     0.053 C 
BRANCH  21  22
ATOM     22  C   UNL     1      74.908  63.995  97.400  1.00  0.00     0.041 C 
ATOM     23  O   UNL     1      74.399  65.013  97.939  1.00  0.00    -0.550 OA
ATOM     24  O   UNL     1      75.138  63.984  96.030  1.00  0.00    -0.550 OA
ENDBRANCH  21  22
ENDBRANCH  20  21
ENDBRANCH  19  20
ENDBRANCH  18  19
ENDBRANCH  17  18
ENDBRANCH  16  17
ENDBRANCH  15  16
ENDBRANCH  14  15
ENDBRANCH  13  14
ENDBRANCH   1  13
TORSDOF 20
ENDMDL
MODEL 5
REMARK VINA RESULT:    13.499      5.052     13.574
REMARK INTER + INTRA:          28.299
REMARK INTER:                  29.274
REMARK INTRA:                  -0.975
REMARK UNBOUND:                -0.983
REMARK SMILES CCCCCCCCCCCCCCCCCCCCCC(=O)[O-]
REMARK SMILES IDX 12 1 11 2 10 3 9 4 8 5 7 6 6 7 5 8 4 9 3 10 2 11 1 12 13 13
REMARK SMILES IDX 14 14 15 15 16 16 17 17 18 18 19 19 20 20 21 21 22 22 23 23
REMARK SMILES IDX 24 24
REMARK H PARENT
REMARK Flexibility Score: inf
ROOT
ATOM      1  C   UNL     1      81.027  65.763 103.219  1.00  0.00     0.000 C 
ENDROOT
BRANCH   1   2
ATOM      2  C   UNL     1      82.261  65.595 104.122  1.00  0.00     0.000 C 
BRANCH   2   3
ATOM      3  C   UNL     1      82.701  66.916 104.780  1.00  0.00     0.000 C 
BRANCH   3   4
ATOM      4  C   UNL     1      84.161  66.947 105.269  1.00  0.00    -0.000 C 
BRANCH   4   5
ATOM      5  C   UNL     1      84.287  66.742 106.787  1.00  0.00    -0.000 C 
BRANCH   5   6
ATOM      6  C   UNL     1      85.357  65.693 107.114  1.00  0.00    -0.000 C 
BRANCH   6   7
ATOM      7  C   UNL     1      85.528  65.537 108.630  1.00  0.00    -0.000 C 
BRANCH   7   8
ATOM      8  C   UNL     1      86.654  66.439 109.154  1.00  0.00    -0.000 C 
BRANCH   8   9
ATOM      9  C   UNL     1      87.446  65.798 110.308  1.00  0.00    -0.000 C 
BRANCH   9  10
ATOM     10  C   UNL     1      87.006  64.356 110.636  1.00  0.00    -0.000 C 
BRANCH  10  11
ATOM     11  C   UNL     1      88.125  63.334 110.383  1.00  0.00    -0.003 C 
ATOM     12  C   UNL     1      88.122  62.862 108.932  1.00  0.00     0.004 C 
ENDBRANCH  10  11
ENDBRANCH   9  10
ENDBRANCH   8   9
ENDBRANCH   7   8
ENDBRANCH   6   7
ENDBRANCH   5   6
ENDBRANCH   4   5
ENDBRANCH   3   4
ENDBRANCH   2   3
ENDBRANCH   1   2
BRANCH   1  13
ATOM     13  C   UNL     1      80.695  64.494 102.410  1.00  0.00     0.000 C 
BRANCH  13  14
ATOM     14  C   UNL     1      79.362  64.532 101.641  1.00  0.00     0.000 C 
BRANCH  14  15
ATOM     15  C   UNL     1      78.167  64.043 102.478  1.00  0.00     0.000 C 
BRANCH  15  16
ATOM     16  C   UNL     1      76.850  64.059 101.686  1.00  0.00     0.000 C 
BRANCH  16  17
ATOM     17  C   UNL     1      76.931  63.235 100.388  1.00  0.00     0.000 C 
BRANCH  17  18
ATOM     18  C   UNL     1      76.275  63.954  99.199  1.00  0.00     0.000 C 
BRANCH  18  19
ATOM     19  C   UNL     1      74.756  63.720  99.142  1.00  0.00     0.000 C 
BRANCH  19  20
ATOM     20  C   UNL     1      74.275  63.301  97.739  1.00  0.00     0.006 C 
BRANCH  20  21
ATOM     21  C   UNL     1      75.390  62.743  96.837  1.00  0.00     0.053 C 
BRANCH  21  22
ATOM     22  C   UNL     1      75.523  61.256  96.962  1.00  0.00     0.041 C 
ATOM     23  O   UNL     1      76.147  60.601  96.086  1.00  0.00    -0.550 OA
ATOM     24  O   UNL     1      74.996  60.600  98.068  1.00  0.00    -0.550 OA
ENDBRANCH  21  22
ENDBRANCH  20  21
ENDBRANCH  19  20
ENDBRANCH  18  19
ENDBRANCH  17  18
ENDBRANCH  16  17
ENDBRANCH  15  16
ENDBRANCH  14  15
ENDBRANCH  13  14
ENDBRANCH   1  13
TORSDOF 20
ENDMDL
MODEL 6
REMARK VINA RESULT:    13.654      5.797     11.623
REMARK INTER + INTRA:          28.636
REMARK INTER:                  28.922
REMARK INTRA:                  -0.286
REMARK UNBOUND:                -0.983
REMARK SMILES CCCCCCCCCCCCCCCCCCCCCC(=O)[O-]
REMARK SMILES IDX 12 1 11 2 10 3 9 4 8 5 7 6 6 7 5 8 4 9 3 10 2 11 1 12 13 13
REMARK SMILES IDX 14 14 15 15 16 16 17 17 18 18 19 19 20 20 21 21 22 22 23 23
REMARK SMILES IDX 24 24
REMARK H PARENT
REMARK Flexibility Score: inf
ROOT
ATOM      1  C   UNL     1      80.250  65.553 101.941  1.00  0.00     0.000 C 
ENDROOT
BRANCH   1   2
ATOM      2  C   UNL     1      80.665  65.673 103.418  1.00  0.00     0.000 C 
BRANCH   2   3
ATOM      3  C   UNL     1      81.738  66.752 103.649  1.00  0.00     0.000 C 
BRANCH   3   4
ATOM      4  C   UNL     1      82.850  66.364 104.642  1.00  0.00    -0.000 C 
BRANCH   4   5
ATOM      5  C   UNL     1      83.138  64.854 104.656  1.00  0.00    -0.000 C 
BRANCH   5   6
ATOM      6  C   UNL     1      83.187  64.289 103.231  1.00  0.00    -0.000 C 
BRANCH   6   7
ATOM      7  C   UNL     1      83.696  62.843 103.231  1.00  0.00    -0.000 C 
BRANCH   7   8
ATOM      8  C   UNL     1      83.872  62.321 101.797  1.00  0.00    -0.000 C 
BRANCH   8   9
ATOM      9  C   UNL     1      85.051  62.981 101.062  1.00  0.00    -0.000 C 
BRANCH   9  10
ATOM     10  C   UNL     1      85.425  62.283  99.738  1.00  0.00    -0.000 C 
BRANCH  10  11
ATOM     11  C   UNL     1      85.927  63.276  98.677  1.00  0.00    -0.003 C 
ATOM     12  C   UNL     1      85.779  64.717  99.157  1.00  0.00     0.004 C 
ENDBRANCH  10  11
ENDBRANCH   9  10
ENDBRANCH   8   9
ENDBRANCH   7   8
ENDBRANCH   6   7
ENDBRANCH   5   6
ENDBRANCH   4   5
ENDBRANCH   3   4
ENDBRANCH   2   3
ENDBRANCH   1   2
BRANCH   1  13
ATOM     13  C   UNL     1      79.296  64.373 101.676  1.00  0.00     0.000 C 
BRANCH  13  14
ATOM     14  C   UNL     1      78.021  64.348 102.538  1.00  0.00     0.000 C 
BRANCH  14  15
ATOM     15  C   UNL     1      76.845  63.627 101.857  1.00  0.00     0.000 C 
BRANCH  15  16
ATOM     16  C   UNL     1      76.737  63.963 100.360  1.00  0.00     0.000 C 
BRANCH  16  17
ATOM     17  C   UNL     1      75.482  63.356  99.708  1.00  0.00     0.000 C 
BRANCH  17  18
ATOM     18  C   UNL     1      74.587  64.426  99.060  1.00  0.00     0.000 C 
BRANCH  18  19
ATOM     19  C   UNL     1      74.868  64.589  97.557  1.00  0.00     0.000 C 
BRANCH  19  20
ATOM     20  C   UNL     1      74.482  63.337  96.745  1.00  0.00     0.006 C 
BRANCH  20  21
ATOM     21  C   UNL     1      75.684  62.487  96.298  1.00  0.00     0.053 C 
BRANCH  21  22
ATOM     22  C   UNL     1      75.673  61.125  96.920  1.00  0.00     0.041 C 
ATOM     23  O   UNL     1      74.952  60.896  97.928  1.00  0.00    -0.550 OA
ATOM     24  O   UNL     1      76.423  60.098  96.363  1.00  0.00    -0.550 OA
ENDBRANCH  21  22
ENDBRANCH  20  21
ENDBRANCH  19  20
ENDBRANCH  18  19
ENDBRANCH  17  18
ENDBRANCH  16  17
ENDBRANCH  15  16
ENDBRANCH  14  15
ENDBRANCH  13  14
ENDBRANCH   1  13
TORSDOF 20
ENDMDL
MODEL 7
REMARK VINA RESULT:    13.676      0.772      1.809
REMARK INTER + INTRA:          28.682
REMARK INTER:                  29.723
REMARK INTRA:                  -1.041
REMARK UNBOUND:                -0.983
REMARK SMILES CCCCCCCCCCCCCCCCCCCCCC(=O)[O-]
REMARK SMILES IDX 12 1 11 2 10 3 9 4 8 5 7 6 6 7 5 8 4 9 3 10 2 11 1 12 13 13
REMARK SMILES IDX 14 14 15 15 16 16 17 17 18 18 19 19 20 20 21 21 22 22 23 23
REMARK SMILES IDX 24 24
REMARK H PARENT
REMARK Flexibility Score: inf
ROOT
ATOM      1  C   UNL     1      82.354  65.409 103.277  1.00  0.00     0.000 C 
ENDROOT
BRANCH   1   2
ATOM      2  C   UNL     1      80.917  65.641 102.781  1.00  0.00     0.000 C 
BRANCH   2   3
ATOM      3  C   UNL     1      80.213  64.336 102.363  1.00  0.00     0.000 C 
BRANCH   3   4
ATOM      4  C   UNL     1      79.011  64.518 101.418  1.00  0.00    -0.000 C 
BRANCH   4   5
ATOM      5  C   UNL     1      77.660  64.366 102.133  1.00  0.00    -0.000 C 
BRANCH   5   6
ATOM      6  C   UNL     1      76.739  63.404 101.371  1.00  0.00    -0.000 C 
BRANCH   6   7
ATOM      7  C   UNL     1      76.288  64.015 100.039  1.00  0.00    -0.000 C 
BRANCH   7   8
ATOM      8  C   UNL     1      74.807  63.715  99.767  1.00  0.00    -0.000 C 
BRANCH   8   9
ATOM      9  C   UNL     1      74.406  63.960  98.302  1.00  0.00    -0.000 C 
BRANCH   9  10
ATOM     10  C   UNL     1      75.561  63.757  97.301  1.00  0.00    -0.000 C 
BRANCH  10  11
ATOM     11  C   UNL     1      75.392  62.478  96.466  1.00  0.00    -0.003 C 
ATOM     12  C   UNL     1      75.659  61.232  97.305  1.00  0.00     0.004 C 
ENDBRANCH  10  11
ENDBRANCH   9  10
ENDBRANCH   8   9
ENDBRANCH   7   8
ENDBRANCH   6   7
ENDBRANCH   5   6
ENDBRANCH   4   5
ENDBRANCH   3   4
ENDBRANCH   2   3
ENDBRANCH   1   2
BRANCH   1  13
ATOM     13  C   UNL     1      82.556  65.808 104.751  1.00  0.00     0.000 C 
BRANCH  13  14
ATOM     14  C   UNL     1      83.343  67.112 104.980  1.00  0.00     0.000 C 
BRANCH  14  15
ATOM     15  C   UNL     1      84.205  67.082 106.254  1.00  0.00     0.000 C 
BRANCH  15  16
ATOM     16  C   UNL     1      84.591  65.652 106.668  1.00  0.00     0.000 C 
BRANCH  16  17
ATOM     17  C   UNL     1      85.198  65.592 108.082  1.00  0.00     0.000 C 
BRANCH  17  18
ATOM     18  C   UNL     1      86.660  66.065 108.108  1.00  0.00     0.000 C 
BRANCH  18  19
ATOM     19  C   UNL     1      87.104  66.511 109.512  1.00  0.00     0.000 C 
BRANCH  19  20
ATOM     20  C   UNL     1      86.831  65.441 110.586  1.00  0.00     0.006 C 
BRANCH  20  21
ATOM     21  C   UNL     1      87.992  64.452 110.792  1.00  0.00     0.053 C 
BRANCH  21  22
ATOM     22  C   UNL     1      87.668  63.087 110.265  1.00  0.00     0.041 C 
ATOM     23  O   UNL     1      87.261  62.187 111.046  1.00  0.00    -0.550 OA
ATOM     24  O   UNL     1      87.774  62.822 108.906  1.00  0.00    -0.550 OA
ENDBRANCH  21  22
ENDBRANCH  20  21
ENDBRANCH  19  20
ENDBRANCH  18  19
ENDBRANCH  17  18
ENDBRANCH  16  17
ENDBRANCH  15  16
ENDBRANCH  14  15
ENDBRANCH  13  14
ENDBRANCH   1  13
TORSDOF 20
ENDMDL
MODEL 8
REMARK VINA RESULT:    13.688      5.400     13.788
REMARK INTER + INTRA:          28.708
REMARK INTER:                  29.432
REMARK INTRA:                  -0.724
REMARK UNBOUND:                -0.983
REMARK SMILES CCCCCCCCCCCCCCCCCCCCCC(=O)[O-]
REMARK SMILES IDX 12 1 11 2 10 3 9 4 8 5 7 6 6 7 5 8 4 9 3 10 2 11 1 12 13 13
REMARK SMILES IDX 14 14 15 15 16 16 17 17 18 18 19 19 20 20 21 21 22 22 23 23
REMARK SMILES IDX 24 24
REMARK H PARENT
REMARK Flexibility Score: inf
ROOT
ATOM      1  C   UNL     1      82.591  64.184 102.777  1.00  0.00     0.000 C 
ENDROOT
BRANCH   1   2
ATOM      2  C   UNL     1      83.617  63.054 102.973  1.00  0.00     0.000 C 
BRANCH   2   3
ATOM      3  C   UNL     1      83.797  62.664 104.451  1.00  0.00     0.000 C 
BRANCH   3   4
ATOM      4  C   UNL     1      84.125  63.833 105.398  1.00  0.00    -0.000 C 
BRANCH   4   5
ATOM      5  C   UNL     1      84.991  63.409 106.595  1.00  0.00    -0.000 C 
BRANCH   5   6
ATOM      6  C   UNL     1      85.635  64.627 107.268  1.00  0.00    -0.000 C 
BRANCH   6   7
ATOM      7  C   UNL     1      86.653  64.194 108.330  1.00  0.00    -0.000 C 
BRANCH   7   8
ATOM      8  C   UNL     1      87.215  65.408 109.083  1.00  0.00    -0.000 C 
BRANCH   8   9
ATOM      9  C   UNL     1      86.114  66.326 109.641  1.00  0.00    -0.000 C 
BRANCH   9  10
ATOM     10  C   UNL     1      86.460  66.949 111.009  1.00  0.00    -0.000 C 
BRANCH  10  11
ATOM     11  C   UNL     1      87.873  67.554 111.034  1.00  0.00    -0.003 C 
ATOM     12  C   UNL     1      87.836  69.050 110.737  1.00  0.00     0.004 C 
ENDBRANCH  10  11
ENDBRANCH   9  10
ENDBRANCH   8   9
ENDBRANCH   7   8
ENDBRANCH   6   7
ENDBRANCH   5   6
ENDBRANCH   4   5
ENDBRANCH   3   4
ENDBRANCH   2   3
ENDBRANCH   1   2
BRANCH   1  13
ATOM     13  C   UNL     1      81.220  63.677 102.290  1.00  0.00     0.000 C 
BRANCH  13  14
ATOM     14  C   UNL     1      80.262  64.764 101.770  1.00  0.00     0.000 C 
BRANCH  14  15
ATOM     15  C   UNL     1      78.900  64.762 102.486  1.00  0.00     0.000 C 
BRANCH  15  16
ATOM     16  C   UNL     1      78.014  63.579 102.059  1.00  0.00     0.000 C 
BRANCH  16  17
ATOM     17  C   UNL     1      76.629  64.030 101.562  1.00  0.00     0.000 C 
BRANCH  17  18
ATOM     18  C   UNL     1      76.398  63.678 100.083  1.00  0.00     0.000 C 
BRANCH  18  19
ATOM     19  C   UNL     1      74.907  63.698  99.704  1.00  0.00     0.000 C 
BRANCH  19  20
ATOM     20  C   UNL     1      74.615  64.625  98.509  1.00  0.00     0.006 C 
BRANCH  20  21
ATOM     21  C   UNL     1      74.025  63.900  97.286  1.00  0.00     0.053 C 
BRANCH  21  22
ATOM     22  C   UNL     1      75.065  63.124  96.538  1.00  0.00     0.041 C 
ATOM     23  O   UNL     1      75.393  61.970  96.923  1.00  0.00    -0.550 OA
ATOM     24  O   UNL     1      75.639  63.655  95.390  1.00  0.00    -0.550 OA
ENDBRANCH  21  22
ENDBRANCH  20  21
ENDBRANCH  19  20
ENDBRANCH  18  19
ENDBRANCH  17  18
ENDBRANCH  16  17
ENDBRANCH  15  16
ENDBRANCH  14  15
ENDBRANCH  13  14
ENDBRANCH   1  13
TORSDOF 20
ENDMDL
MODEL 9
REMARK VINA RESULT:    14.471     16.862     20.728
REMARK INTER + INTRA:          30.406
REMARK INTER:                  31.103
REMARK INTRA:                  -0.697
REMARK UNBOUND:                -0.983
REMARK SMILES CCCCCCCCCCCCCCCCCCCCCC(=O)[O-]
REMARK SMILES IDX 12 1 11 2 10 3 9 4 8 5 7 6 6 7 5 8 4 9 3 10 2 11 1 12 13 13
REMARK SMILES IDX 14 14 15 15 16 16 17 17 18 18 19 19 20 20 21 21 22 22 23 23
REMARK SMILES IDX 24 24
REMARK H PARENT
REMARK Flexibility Score: inf
ROOT
ATOM      1  C   UNL     1      73.586  74.578  96.577  1.00  0.00     0.000 C 
ENDROOT
BRANCH   1   2
ATOM      2  C   UNL     1      73.272  75.989  97.105  1.00  0.00     0.000 C 
BRANCH   2   3
ATOM      3  C   UNL     1      72.105  76.003  98.109  1.00  0.00     0.000 C 
BRANCH   3   4
ATOM      4  C   UNL     1      71.777  77.383  98.708  1.00  0.00    -0.000 C 
BRANCH   4   5
ATOM      5  C   UNL     1      70.286  77.551  99.040  1.00  0.00    -0.000 C 
BRANCH   5   6
ATOM      6  C   UNL     1      70.020  78.905  99.711  1.00  0.00    -0.000 C 
BRANCH   6   7
ATOM      7  C   UNL     1      68.516  79.152  99.872  1.00  0.00    -0.000 C 
BRANCH   7   8
ATOM      8  C   UNL     1      68.237  80.125 101.027  1.00  0.00    -0.000 C 
BRANCH   8   9
ATOM      9  C   UNL     1      69.259  80.004 102.170  1.00  0.00    -0.000 C 
BRANCH   9  10
ATOM     10  C   UNL     1      68.847  79.002 103.267  1.00  0.00    -0.000 C 
BRANCH  10  11
ATOM     11  C   UNL     1      68.621  77.588 102.710  1.00  0.00    -0.003 C 
ATOM     12  C   UNL     1      69.046  76.524 103.718  1.00  0.00     0.004 C 
ENDBRANCH  10  11
ENDBRANCH   9  10
ENDBRANCH   8   9
ENDBRANCH   7   8
ENDBRANCH   6   7
ENDBRANCH   5   6
ENDBRANCH   4   5
ENDBRANCH   3   4
ENDBRANCH   2   3
ENDBRANCH   1   2
BRANCH   1  13
ATOM     13  C   UNL     1      74.227  74.587  95.176  1.00  0.00     0.000 C 
BRANCH  13  14
ATOM     14  C   UNL     1      73.310  74.124  94.029  1.00  0.00     0.000 C 
BRANCH  14  15
ATOM     15  C   UNL     1      73.266  75.114  92.853  1.00  0.00     0.000 C 
BRANCH  15  16
ATOM     16  C   UNL     1      71.861  75.236  92.239  1.00  0.00     0.000 C 
BRANCH  16  17
ATOM     17  C   UNL     1      70.926  74.094  92.677  1.00  0.00     0.000 C 
BRANCH  17  18
ATOM     18  C   UNL     1      70.626  73.115  91.530  1.00  0.00     0.000 C 
BRANCH  18  19
ATOM     19  C   UNL     1      69.243  73.359  90.902  1.00  0.00     0.000 C 
BRANCH  19  20
ATOM     20  C   UNL     1      68.854  74.850  90.889  1.00  0.00     0.006 C 
BRANCH  20  21
ATOM     21  C   UNL     1      67.904  75.257  92.029  1.00  0.00     0.053 C 
BRANCH  21  22
ATOM     22  C   UNL     1      68.111  76.678  92.454  1.00  0.00     0.041 C 
ATOM     23  O   UNL     1      67.879  77.024  93.642  1.00  0.00    -0.550 OA
ATOM     24  O   UNL     1      68.603  77.611  91.549  1.00  0.00    -0.550 OA
ENDBRANCH  21  22
ENDBRANCH  20  21
ENDBRANCH  19  20
ENDBRANCH  18  19
ENDBRANCH  17  18
ENDBRANCH  16  17
ENDBRANCH  15  16
ENDBRANCH  14  15
ENDBRANCH  13  14
ENDBRANCH   1  13
TORSDOF 20
ENDMDL
