MODEL 1
REMARK VINA RESULT:    -7.521      0.000      0.000
REMARK INTER + INTRA:          -9.420
REMARK INTER:                  -9.060
REMARK INTRA:                  -0.360
REMARK UNBOUND:                -0.360
REMARK SMILES Oc1cc(O)c2c(c1)O[C@@H](c1ccc(O)c(O)c1)[C@@H](O)C2
REMARK SMILES IDX 21 1 19 2 10 3 9 4 7 5 8 6 2 7 3 8 4 9 6 10 20 11 11 13
REMARK SMILES IDX 18 14 12 15 16 16 13 17 14 18 17 19 15 21 5 23 1 25
REMARK H PARENT 20 12 17 20 15 22 5 24 1 26
REMARK Flexibility Score: inf
ROOT
ATOM      1  C   UNL     1      12.416  -0.868  19.168  1.00  0.00     0.079 C 
ATOM      2  C   UNL     1      12.060  -2.356  19.009  1.00  0.00     0.164 C 
ATOM      3  C   UNL     1      10.905  -2.713  19.964  1.00  0.00     0.232 C 
ATOM      4  O   UNL     1       9.779  -1.876  19.698  1.00  0.00    -0.482 OA
ATOM      5  C   UNL     1       9.920  -0.519  19.384  1.00  0.00     0.131 A 
ATOM      6  C   UNL     1       8.779   0.285  19.317  1.00  0.00     0.093 A 
ATOM      7  C   UNL     1       8.893   1.647  19.020  1.00  0.00     0.122 A 
ATOM      8  C   UNL     1      10.153   2.206  18.797  1.00  0.00     0.092 A 
ATOM      9  C   UNL     1      11.307   1.417  18.859  1.00  0.00     0.126 A 
ATOM     10  C   UNL     1      11.195   0.030  19.119  1.00  0.00     0.039 A 
ENDROOT
BRANCH   2  11
ATOM     11  O   UNL     1      11.690  -2.599  17.673  1.00  0.00    -0.389 OA
ATOM     12  H   UNL     1      10.971  -1.953  17.449  1.00  0.00     0.211 HD
ENDBRANCH   2  11
BRANCH   3  13
ATOM     13  C   UNL     1      10.526  -4.172  19.856  1.00  0.00    -0.001 A 
ATOM     14  C   UNL     1       9.173  -4.534  19.767  1.00  0.00     0.057 A 
ATOM     15  C   UNL     1      11.503  -5.182  19.922  1.00  0.00     0.012 A 
ATOM     16  C   UNL     1       8.796  -5.881  19.725  1.00  0.00     0.157 A 
ATOM     17  C   UNL     1      11.130  -6.528  19.879  1.00  0.00     0.050 A 
ATOM     18  C   UNL     1       9.778  -6.884  19.786  1.00  0.00     0.157 A 
BRANCH  16  19
ATOM     19  O   UNL     1       7.442  -6.204  19.629  1.00  0.00    -0.504 OA
ATOM     20  H   UNL     1       7.091  -6.851  18.934  1.00  0.00     0.293 HD
ENDBRANCH  16  19
BRANCH  18  21
ATOM     21  O   UNL     1       9.407  -8.228  19.765  1.00  0.00    -0.504 OA
ATOM     22  H   UNL     1      10.090  -8.969  19.879  1.00  0.00     0.293 HD
ENDBRANCH  18  21
ENDBRANCH   3  13
BRANCH   9  23
ATOM     23  O   UNL     1      12.541   2.044  18.670  1.00  0.00    -0.507 OA
ATOM     24  H   UNL     1      13.133   1.874  17.867  1.00  0.00     0.293 HD
ENDBRANCH   9  23
BRANCH   7  25
ATOM     25  O   UNL     1       7.759   2.455  18.950  1.00  0.00    -0.508 OA
ATOM     26  H   UNL     1       6.898   2.126  18.530  1.00  0.00     0.293 HD
ENDBRANCH   7  25
TORSDOF 6
ENDMDL
