MODEL 1
REMARK VINA RESULT:    -4.021      0.000      0.000
REMARK INTER + INTRA:          -8.138
REMARK INTER:                  -6.842
REMARK INTRA:                  -1.296
REMARK UNBOUND:                -1.296
REMARK SMILES CCCCCCCCCCCCCC(=O)[O-]
REMARK SMILES IDX 8 1 9 2 10 3 11 4 12 5 13 6 14 7 15 8 16 9 7 10 6 11 5 12
REMARK SMILES IDX 4 13 3 14 2 15 1 16
REMARK H PARENT
REMARK Flexibility Score: inf
ROOT
ATOM      1  C   UNL     1       0.763   1.717  56.592  1.00  0.00     0.000 C 
ENDROOT
BRANCH   1   2
ATOM      2  C   UNL     1       1.922   0.952  55.942  1.00  0.00     0.000 C 
BRANCH   2   3
ATOM      3  C   UNL     1       2.089   1.354  54.469  1.00  0.00     0.000 C 
BRANCH   3   4
ATOM      4  C   UNL     1       2.785   0.271  53.625  1.00  0.00     0.000 C 
BRANCH   4   5
ATOM      5  C   UNL     1       3.045  -1.058  54.360  1.00  0.00     0.006 C 
BRANCH   5   6
ATOM      6  C   UNL     1       2.369  -2.257  53.683  1.00  0.00     0.053 C 
BRANCH   6   7
ATOM      7  C   UNL     1       0.881  -2.147  53.793  1.00  0.00     0.041 C 
ATOM      8  O   UNL     1       0.336  -2.029  54.922  1.00  0.00    -0.550 OA
ATOM      9  O   UNL     1       0.092  -2.224  52.652  1.00  0.00    -0.550 OA
ENDBRANCH   6   7
ENDBRANCH   5   6
ENDBRANCH   4   5
ENDBRANCH   3   4
ENDBRANCH   2   3
ENDBRANCH   1   2
BRANCH   1  10
ATOM     10  C   UNL     1      -0.421   0.779  56.879  1.00  0.00     0.000 C 
BRANCH  10  11
ATOM     11  C   UNL     1      -1.639   1.520  57.456  1.00  0.00    -0.000 C 
BRANCH  11  12
ATOM     12  C   UNL     1      -1.689   1.465  58.993  1.00  0.00    -0.000 C 
BRANCH  12  13
ATOM     13  C   UNL     1      -1.175   0.126  59.552  1.00  0.00    -0.000 C 
BRANCH  13  14
ATOM     14  C   UNL     1       0.090   0.291  60.410  1.00  0.00    -0.000 C 
BRANCH  14  15
ATOM     15  C   UNL     1       0.353   1.755  60.797  1.00  0.00    -0.003 C 
ATOM     16  C   UNL     1       1.707   2.265  60.305  1.00  0.00     0.004 C 
ENDBRANCH  14  15
ENDBRANCH  13  14
ENDBRANCH  12  13
ENDBRANCH  11  12
ENDBRANCH  10  11
ENDBRANCH   1  10
TORSDOF 12
ENDMDL
MODEL 2
REMARK VINA RESULT:    -4.017      3.048      6.647
REMARK INTER + INTRA:          -8.131
REMARK INTER:                  -6.768
REMARK INTRA:                  -1.363
REMARK UNBOUND:                -1.296
REMARK SMILES CCCCCCCCCCCCCC(=O)[O-]
REMARK SMILES IDX 8 1 9 2 10 3 11 4 12 5 13 6 14 7 15 8 16 9 7 10 6 11 5 12
REMARK SMILES IDX 4 13 3 14 2 15 1 16
REMARK H PARENT
REMARK Flexibility Score: inf
ROOT
ATOM      1  C   UNL     1       2.555   0.889  55.426  1.00  0.00     0.000 C 
ENDROOT
BRANCH   1   2
ATOM      2  C   UNL     1       1.095   0.893  55.895  1.00  0.00     0.000 C 
BRANCH   2   3
ATOM      3  C   UNL     1       0.898  -0.050  57.091  1.00  0.00     0.000 C 
BRANCH   3   4
ATOM      4  C   UNL     1       2.209  -0.359  57.836  1.00  0.00     0.000 C 
BRANCH   4   5
ATOM      5  C   UNL     1       2.297   0.215  59.262  1.00  0.00     0.006 C 
BRANCH   5   6
ATOM      6  C   UNL     1       0.923   0.540  59.862  1.00  0.00     0.053 C 
BRANCH   6   7
ATOM      7  C   UNL     1       0.842   1.989  60.224  1.00  0.00     0.041 C 
ATOM      8  O   UNL     1       0.438   2.335  61.365  1.00  0.00    -0.550 OA
ATOM      9  O   UNL     1       1.166   2.960  59.284  1.00  0.00    -0.550 OA
ENDBRANCH   6   7
ENDBRANCH   5   6
ENDBRANCH   4   5
ENDBRANCH   3   4
ENDBRANCH   2   3
ENDBRANCH   1   2
BRANCH   1  10
ATOM     10  C   UNL     1       2.640   0.997  53.896  1.00  0.00     0.000 C 
BRANCH  10  11
ATOM     11  C   UNL     1       2.076  -0.242  53.180  1.00  0.00    -0.000 C 
BRANCH  11  12
ATOM     12  C   UNL     1       2.793  -1.539  53.593  1.00  0.00    -0.000 C 
BRANCH  12  13
ATOM     13  C   UNL     1       1.812  -2.650  54.005  1.00  0.00    -0.000 C 
BRANCH  13  14
ATOM     14  C   UNL     1       0.350  -2.295  53.686  1.00  0.00    -0.000 C 
BRANCH  14  15
ATOM     15  C   UNL     1      -0.205  -3.095  52.498  1.00  0.00    -0.003 C 
ATOM     16  C   UNL     1      -1.528  -2.538  51.974  1.00  0.00     0.004 C 
ENDBRANCH  14  15
ENDBRANCH  13  14
ENDBRANCH  12  13
ENDBRANCH  11  12
ENDBRANCH  10  11
ENDBRANCH   1  10
TORSDOF 12
ENDMDL
MODEL 3
REMARK VINA RESULT:    -3.992      8.265     11.094
REMARK INTER + INTRA:          -8.088
REMARK INTER:                  -6.463
REMARK INTRA:                  -1.626
REMARK UNBOUND:                -1.296
REMARK SMILES CCCCCCCCCCCCCC(=O)[O-]
REMARK SMILES IDX 8 1 9 2 10 3 11 4 12 5 13 6 14 7 15 8 16 9 7 10 6 11 5 12
REMARK SMILES IDX 4 13 3 14 2 15 1 16
REMARK H PARENT
REMARK Flexibility Score: inf
ROOT
ATOM      1  C   UNL     1      -6.216   2.994  53.389  1.00  0.00     0.000 C 
ENDROOT
BRANCH   1   2
ATOM      2  C   UNL     1      -6.097   4.067  54.477  1.00  0.00     0.000 C 
BRANCH   2   3
ATOM      3  C   UNL     1      -7.480   4.466  55.012  1.00  0.00     0.000 C 
BRANCH   3   4
ATOM      4  C   UNL     1      -7.460   5.784  55.807  1.00  0.00     0.000 C 
BRANCH   4   5
ATOM      5  C   UNL     1      -6.246   5.964  56.737  1.00  0.00     0.006 C 
BRANCH   5   6
ATOM      6  C   UNL     1      -6.417   5.254  58.087  1.00  0.00     0.053 C 
BRANCH   6   7
ATOM      7  C   UNL     1      -5.151   4.555  58.472  1.00  0.00     0.041 C 
ATOM      8  O   UNL     1      -4.764   3.546  57.828  1.00  0.00    -0.550 OA
ATOM      9  O   UNL     1      -4.424   4.989  59.574  1.00  0.00    -0.550 OA
ENDBRANCH   6   7
ENDBRANCH   5   6
ENDBRANCH   4   5
ENDBRANCH   3   4
ENDBRANCH   2   3
ENDBRANCH   1   2
BRANCH   1  10
ATOM     10  C   UNL     1      -7.659   2.897  52.869  1.00  0.00     0.000 C 
BRANCH  10  11
ATOM     11  C   UNL     1      -7.767   3.170  51.359  1.00  0.00    -0.000 C 
BRANCH  11  12
ATOM     12  C   UNL     1      -7.102   4.496  50.951  1.00  0.00    -0.000 C 
BRANCH  12  13
ATOM     13  C   UNL     1      -7.808   5.721  51.558  1.00  0.00    -0.000 C 
BRANCH  13  14
ATOM     14  C   UNL     1      -9.318   5.739  51.266  1.00  0.00    -0.000 C 
BRANCH  14  15
ATOM     15  C   UNL     1     -10.155   6.070  52.510  1.00  0.00    -0.003 C 
ATOM     16  C   UNL     1     -10.822   4.838  53.122  1.00  0.00     0.004 C 
ENDBRANCH  14  15
ENDBRANCH  13  14
ENDBRANCH  12  13
ENDBRANCH  11  12
ENDBRANCH  10  11
ENDBRANCH   1  10
TORSDOF 12
ENDMDL
MODEL 4
REMARK VINA RESULT:    -3.985      8.594     11.310
REMARK INTER + INTRA:          -8.077
REMARK INTER:                  -6.404
REMARK INTRA:                  -1.674
REMARK UNBOUND:                -1.296
REMARK SMILES CCCCCCCCCCCCCC(=O)[O-]
REMARK SMILES IDX 8 1 9 2 10 3 11 4 12 5 13 6 14 7 15 8 16 9 7 10 6 11 5 12
REMARK SMILES IDX 4 13 3 14 2 15 1 16
REMARK H PARENT
REMARK Flexibility Score: inf
ROOT
ATOM      1  C   UNL     1      -6.121   3.850  53.200  1.00  0.00     0.000 C 
ENDROOT
BRANCH   1   2
ATOM      2  C   UNL     1      -6.321   2.998  54.459  1.00  0.00     0.000 C 
BRANCH   2   3
ATOM      3  C   UNL     1      -6.201   3.854  55.728  1.00  0.00     0.000 C 
BRANCH   3   4
ATOM      4  C   UNL     1      -6.497   5.344  55.478  1.00  0.00     0.000 C 
BRANCH   4   5
ATOM      5  C   UNL     1      -6.969   6.130  56.716  1.00  0.00     0.006 C 
BRANCH   5   6
ATOM      6  C   UNL     1      -6.996   5.276  57.991  1.00  0.00     0.053 C 
BRANCH   6   7
ATOM      7  C   UNL     1      -6.029   5.813  58.999  1.00  0.00     0.041 C 
ATOM      8  O   UNL     1      -4.800   5.868  58.730  1.00  0.00    -0.550 OA
ATOM      9  O   UNL     1      -6.479   6.205  60.253  1.00  0.00    -0.550 OA
ENDBRANCH   6   7
ENDBRANCH   5   6
ENDBRANCH   4   5
ENDBRANCH   3   4
ENDBRANCH   2   3
ENDBRANCH   1   2
BRANCH   1  10
ATOM     10  C   UNL     1      -7.064   3.396  52.074  1.00  0.00     0.000 C 
BRANCH  10  11
ATOM     11  C   UNL     1      -7.305   4.492  51.023  1.00  0.00    -0.000 C 
BRANCH  11  12
ATOM     12  C   UNL     1      -8.016   5.725  51.609  1.00  0.00    -0.000 C 
BRANCH  12  13
ATOM     13  C   UNL     1      -9.506   5.782  51.229  1.00  0.00    -0.000 C 
BRANCH  13  14
ATOM     14  C   UNL     1     -10.429   5.817  52.458  1.00  0.00    -0.000 C 
BRANCH  14  15
ATOM     15  C   UNL     1      -9.662   5.622  53.775  1.00  0.00    -0.003 C 
ATOM     16  C   UNL     1      -9.946   4.271  54.433  1.00  0.00     0.004 C 
ENDBRANCH  14  15
ENDBRANCH  13  14
ENDBRANCH  12  13
ENDBRANCH  11  12
ENDBRANCH  10  11
ENDBRANCH   1  10
TORSDOF 12
ENDMDL
MODEL 5
REMARK VINA RESULT:    -3.974      8.741      9.862
REMARK INTER + INTRA:          -8.058
REMARK INTER:                  -7.137
REMARK INTRA:                  -0.922
REMARK UNBOUND:                -1.296
REMARK SMILES CCCCCCCCCCCCCC(=O)[O-]
REMARK SMILES IDX 8 1 9 2 10 3 11 4 12 5 13 6 14 7 15 8 16 9 7 10 6 11 5 12
REMARK SMILES IDX 4 13 3 14 2 15 1 16
REMARK H PARENT
REMARK Flexibility Score: inf
ROOT
ATOM      1  C   UNL     1      -7.065   4.943  55.058  1.00  0.00     0.000 C 
ENDROOT
BRANCH   1   2
ATOM      2  C   UNL     1      -5.961   3.928  54.741  1.00  0.00     0.000 C 
BRANCH   2   3
ATOM      3  C   UNL     1      -5.871   3.667  53.230  1.00  0.00     0.000 C 
BRANCH   3   4
ATOM      4  C   UNL     1      -7.206   3.205  52.619  1.00  0.00     0.000 C 
BRANCH   4   5
ATOM      5  C   UNL     1      -7.569   3.866  51.276  1.00  0.00     0.006 C 
BRANCH   5   6
ATOM      6  C   UNL     1      -7.644   5.396  51.363  1.00  0.00     0.053 C 
BRANCH   6   7
ATOM      7  C   UNL     1      -9.050   5.835  51.626  1.00  0.00     0.041 C 
ATOM      8  O   UNL     1      -9.422   6.101  52.799  1.00  0.00    -0.550 OA
ATOM      9  O   UNL     1      -9.964   5.903  50.581  1.00  0.00    -0.550 OA
ENDBRANCH   6   7
ENDBRANCH   5   6
ENDBRANCH   4   5
ENDBRANCH   3   4
ENDBRANCH   2   3
ENDBRANCH   1   2
BRANCH   1  10
ATOM     10  C   UNL     1      -6.691   5.796  56.280  1.00  0.00     0.000 C 
BRANCH  10  11
ATOM     11  C   UNL     1      -5.946   4.994  57.360  1.00  0.00    -0.000 C 
BRANCH  11  12
ATOM     12  C   UNL     1      -5.067   5.885  58.256  1.00  0.00    -0.000 C 
BRANCH  12  13
ATOM     13  C   UNL     1      -5.383   5.711  59.752  1.00  0.00    -0.000 C 
BRANCH  13  14
ATOM     14  C   UNL     1      -6.810   6.159  60.111  1.00  0.00    -0.000 C 
BRANCH  14  15
ATOM     15  C   UNL     1      -7.497   5.203  61.097  1.00  0.00    -0.003 C 
ATOM     16  C   UNL     1      -7.290   3.732  60.739  1.00  0.00     0.004 C 
ENDBRANCH  14  15
ENDBRANCH  13  14
ENDBRANCH  12  13
ENDBRANCH  11  12
ENDBRANCH  10  11
ENDBRANCH   1  10
TORSDOF 12
ENDMDL
MODEL 6
REMARK VINA RESULT:    -3.957      2.729      6.445
REMARK INTER + INTRA:          -8.029
REMARK INTER:                  -6.566
REMARK INTRA:                  -1.463
REMARK UNBOUND:                -1.296
REMARK SMILES CCCCCCCCCCCCCC(=O)[O-]
REMARK SMILES IDX 8 1 9 2 10 3 11 4 12 5 13 6 14 7 15 8 16 9 7 10 6 11 5 12
REMARK SMILES IDX 4 13 3 14 2 15 1 16
REMARK H PARENT
REMARK Flexibility Score: inf
ROOT
ATOM      1  C   UNL     1       0.786   0.998  55.916  1.00  0.00     0.000 C 
ENDROOT
BRANCH   1   2
ATOM      2  C   UNL     1       0.700   0.032  57.104  1.00  0.00     0.000 C 
BRANCH   2   3
ATOM      3  C   UNL     1       2.094  -0.258  57.680  1.00  0.00     0.000 C 
BRANCH   3   4
ATOM      4  C   UNL     1       2.245   0.191  59.144  1.00  0.00     0.000 C 
BRANCH   4   5
ATOM      5  C   UNL     1       1.427   1.438  59.529  1.00  0.00     0.006 C 
BRANCH   5   6
ATOM      6  C   UNL     1       0.611   1.245  60.814  1.00  0.00     0.053 C 
BRANCH   6   7
ATOM      7  C   UNL     1       0.033  -0.135  60.862  1.00  0.00     0.041 C 
ATOM      8  O   UNL     1      -0.976  -0.423  60.167  1.00  0.00    -0.550 OA
ATOM      9  O   UNL     1       0.580  -1.088  61.712  1.00  0.00    -0.550 OA
ENDBRANCH   6   7
ENDBRANCH   5   6
ENDBRANCH   4   5
ENDBRANCH   3   4
ENDBRANCH   2   3
ENDBRANCH   1   2
BRANCH   1  10
ATOM     10  C   UNL     1       2.243   1.185  55.465  1.00  0.00     0.000 C 
BRANCH  10  11
ATOM     11  C   UNL     1       2.380   1.325  53.939  1.00  0.00    -0.000 C 
BRANCH  11  12
ATOM     12  C   UNL     1       2.172  -0.011  53.203  1.00  0.00    -0.000 C 
BRANCH  12  13
ATOM     13  C   UNL     1       2.960  -1.166  53.845  1.00  0.00    -0.000 C 
BRANCH  13  14
ATOM     14  C   UNL     1       2.153  -2.475  53.896  1.00  0.00    -0.000 C 
BRANCH  14  15
ATOM     15  C   UNL     1       0.637  -2.231  53.916  1.00  0.00    -0.003 C 
ATOM     16  C   UNL     1      -0.088  -2.907  52.753  1.00  0.00     0.004 C 
ENDBRANCH  14  15
ENDBRANCH  13  14
ENDBRANCH  12  13
ENDBRANCH  11  12
ENDBRANCH  10  11
ENDBRANCH   1  10
TORSDOF 12
ENDMDL
MODEL 7
REMARK VINA RESULT:    -3.957      2.875      6.349
REMARK INTER + INTRA:          -8.029
REMARK INTER:                  -6.276
REMARK INTRA:                  -1.753
REMARK UNBOUND:                -1.296
REMARK SMILES CCCCCCCCCCCCCC(=O)[O-]
REMARK SMILES IDX 8 1 9 2 10 3 11 4 12 5 13 6 14 7 15 8 16 9 7 10 6 11 5 12
REMARK SMILES IDX 4 13 3 14 2 15 1 16
REMARK H PARENT
REMARK Flexibility Score: inf
ROOT
ATOM      1  C   UNL     1       1.606   0.852  56.083  1.00  0.00     0.000 C 
ENDROOT
BRANCH   1   2
ATOM      2  C   UNL     1       2.079  -0.035  57.240  1.00  0.00     0.000 C 
BRANCH   2   3
ATOM      3  C   UNL     1       0.991  -1.042  57.642  1.00  0.00     0.000 C 
BRANCH   3   4
ATOM      4  C   UNL     1      -0.432  -0.464  57.539  1.00  0.00     0.000 C 
BRANCH   4   5
ATOM      5  C   UNL     1      -1.016   0.065  58.862  1.00  0.00     0.006 C 
BRANCH   5   6
ATOM      6  C   UNL     1      -0.946   1.593  58.979  1.00  0.00     0.053 C 
BRANCH   6   7
ATOM      7  C   UNL     1       0.224   1.998  59.819  1.00  0.00     0.041 C 
ATOM      8  O   UNL     1       1.117   2.748  59.343  1.00  0.00    -0.550 OA
ATOM      9  O   UNL     1       0.354   1.508  61.113  1.00  0.00    -0.550 OA
ENDBRANCH   6   7
ENDBRANCH   5   6
ENDBRANCH   4   5
ENDBRANCH   3   4
ENDBRANCH   2   3
ENDBRANCH   1   2
BRANCH   1  10
ATOM     10  C   UNL     1       2.716   1.025  55.034  1.00  0.00     0.000 C 
BRANCH  10  11
ATOM     11  C   UNL     1       2.259   0.641  53.616  1.00  0.00    -0.000 C 
BRANCH  11  12
ATOM     12  C   UNL     1       2.700  -0.778  53.218  1.00  0.00    -0.000 C 
BRANCH  12  13
ATOM     13  C   UNL     1       1.648  -1.844  53.574  1.00  0.00    -0.000 C 
BRANCH  13  14
ATOM     14  C   UNL     1       2.206  -2.939  54.498  1.00  0.00    -0.000 C 
BRANCH  14  15
ATOM     15  C   UNL     1       3.742  -2.972  54.512  1.00  0.00    -0.003 C 
ATOM     16  C   UNL     1       4.330  -2.637  55.883  1.00  0.00     0.004 C 
ENDBRANCH  14  15
ENDBRANCH  13  14
ENDBRANCH  12  13
ENDBRANCH  11  12
ENDBRANCH  10  11
ENDBRANCH   1  10
TORSDOF 12
ENDMDL
MODEL 8
REMARK VINA RESULT:    -3.950      8.621     11.262
REMARK INTER + INTRA:          -8.017
REMARK INTER:                  -6.224
REMARK INTRA:                  -1.793
REMARK UNBOUND:                -1.296
REMARK SMILES CCCCCCCCCCCCCC(=O)[O-]
REMARK SMILES IDX 8 1 9 2 10 3 11 4 12 5 13 6 14 7 15 8 16 9 7 10 6 11 5 12
REMARK SMILES IDX 4 13 3 14 2 15 1 16
REMARK H PARENT
REMARK Flexibility Score: inf
ROOT
ATOM      1  C   UNL     1      -7.653   2.814  54.652  1.00  0.00     0.000 C 
ENDROOT
BRANCH   1   2
ATOM      2  C   UNL     1      -6.292   3.432  54.311  1.00  0.00     0.000 C 
BRANCH   2   3
ATOM      3  C   UNL     1      -5.951   4.579  55.272  1.00  0.00     0.000 C 
BRANCH   3   4
ATOM      4  C   UNL     1      -7.100   5.591  55.432  1.00  0.00     0.000 C 
BRANCH   4   5
ATOM      5  C   UNL     1      -7.148   6.311  56.794  1.00  0.00     0.006 C 
BRANCH   5   6
ATOM      6  C   UNL     1      -7.059   5.345  57.983  1.00  0.00     0.053 C 
BRANCH   6   7
ATOM      7  C   UNL     1      -5.959   5.759  58.909  1.00  0.00     0.041 C 
ATOM      8  O   UNL     1      -4.760   5.718  58.526  1.00  0.00    -0.550 OA
ATOM      9  O   UNL     1      -6.253   6.142  60.211  1.00  0.00    -0.550 OA
ENDBRANCH   6   7
ENDBRANCH   5   6
ENDBRANCH   4   5
ENDBRANCH   3   4
ENDBRANCH   2   3
ENDBRANCH   1   2
BRANCH   1  10
ATOM     10  C   UNL     1      -8.428   2.454  53.375  1.00  0.00     0.000 C 
BRANCH  10  11
ATOM     11  C   UNL     1      -7.530   2.411  52.127  1.00  0.00    -0.000 C 
BRANCH  11  12
ATOM     12  C   UNL     1      -7.997   3.386  51.031  1.00  0.00    -0.000 C 
BRANCH  12  13
ATOM     13  C   UNL     1      -7.167   4.681  51.002  1.00  0.00    -0.000 C 
BRANCH  13  14
ATOM     14  C   UNL     1      -7.825   5.823  51.795  1.00  0.00    -0.000 C 
BRANCH  14  15
ATOM     15  C   UNL     1      -9.359   5.769  51.742  1.00  0.00    -0.003 C 
ATOM     16  C   UNL     1     -10.004   5.847  53.126  1.00  0.00     0.004 C 
ENDBRANCH  14  15
ENDBRANCH  13  14
ENDBRANCH  12  13
ENDBRANCH  11  12
ENDBRANCH  10  11
ENDBRANCH   1  10
TORSDOF 12
ENDMDL
MODEL 9
REMARK VINA RESULT:    -3.921      8.334      9.918
REMARK INTER + INTRA:          -7.969
REMARK INTER:                  -6.921
REMARK INTRA:                  -1.048
REMARK UNBOUND:                -1.296
REMARK SMILES CCCCCCCCCCCCCC(=O)[O-]
REMARK SMILES IDX 8 1 9 2 10 3 11 4 12 5 13 6 14 7 15 8 16 9 7 10 6 11 5 12
REMARK SMILES IDX 4 13 3 14 2 15 1 16
REMARK H PARENT
REMARK Flexibility Score: inf
ROOT
ATOM      1  C   UNL     1      -7.556   4.214  55.138  1.00  0.00     0.000 C 
ENDROOT
BRANCH   1   2
ATOM      2  C   UNL     1      -6.311   3.498  54.600  1.00  0.00     0.000 C 
BRANCH   2   3
ATOM      3  C   UNL     1      -6.149   3.733  53.091  1.00  0.00     0.000 C 
BRANCH   3   4
ATOM      4  C   UNL     1      -7.248   3.053  52.255  1.00  0.00     0.000 C 
BRANCH   4   5
ATOM      5  C   UNL     1      -7.718   3.852  51.025  1.00  0.00     0.006 C 
BRANCH   5   6
ATOM      6  C   UNL     1      -7.886   5.349  51.314  1.00  0.00     0.053 C 
BRANCH   6   7
ATOM      7  C   UNL     1      -9.334   5.691  51.472  1.00  0.00     0.041 C 
ATOM      8  O   UNL     1     -10.173   5.307  50.616  1.00  0.00    -0.550 OA
ATOM      9  O   UNL     1      -9.750   6.476  52.541  1.00  0.00    -0.550 OA
ENDBRANCH   6   7
ENDBRANCH   5   6
ENDBRANCH   4   5
ENDBRANCH   3   4
ENDBRANCH   2   3
ENDBRANCH   1   2
BRANCH   1  10
ATOM     10  C   UNL     1      -7.370   5.739  55.100  1.00  0.00     0.000 C 
BRANCH  10  11
ATOM     11  C   UNL     1      -7.374   6.374  56.501  1.00  0.00    -0.000 C 
BRANCH  11  12
ATOM     12  C   UNL     1      -7.140   5.340  57.617  1.00  0.00    -0.000 C 
BRANCH  12  13
ATOM     13  C   UNL     1      -6.852   5.998  58.978  1.00  0.00    -0.000 C 
BRANCH  13  14
ATOM     14  C   UNL     1      -5.387   5.832  59.416  1.00  0.00    -0.000 C 
BRANCH  14  15
ATOM     15  C   UNL     1      -4.726   4.589  58.802  1.00  0.00    -0.003 C 
ATOM     16  C   UNL     1      -4.642   3.417  59.780  1.00  0.00     0.004 C 
ENDBRANCH  14  15
ENDBRANCH  13  14
ENDBRANCH  12  13
ENDBRANCH  11  12
ENDBRANCH  10  11
ENDBRANCH   1  10
TORSDOF 12
ENDMDL
