MODEL 1
REMARK VINA RESULT:    -4.342      0.000      0.000
REMARK INTER + INTRA:         -12.126
REMARK INTER:                  -9.418
REMARK INTRA:                  -2.707
REMARK UNBOUND:                -2.707
REMARK SMILES CCCCCCCCCCCCCCCCCCCCCC(=O)[O-]
REMARK SMILES IDX 12 1 11 2 10 3 9 4 8 5 7 6 6 7 5 8 4 9 3 10 2 11 1 12 13 13
REMARK SMILES IDX 14 14 15 15 16 16 17 17 18 18 19 19 20 20 21 21 22 22 23 23
REMARK SMILES IDX 24 24
REMARK H PARENT
REMARK Flexibility Score: inf
ROOT
ATOM      1  C   UNL     1     -23.819  90.272 -30.949  1.00  0.00     0.000 C 
ENDROOT
BRANCH   1   2
ATOM      2  C   UNL     1     -24.165  91.318 -32.024  1.00  0.00     0.000 C 
BRANCH   2   3
ATOM      3  C   UNL     1     -23.463  92.682 -31.859  1.00  0.00     0.000 C 
BRANCH   3   4
ATOM      4  C   UNL     1     -24.362  93.914 -32.062  1.00  0.00    -0.000 C 
BRANCH   4   5
ATOM      5  C   UNL     1     -23.563  95.217 -32.232  1.00  0.00    -0.000 C 
BRANCH   5   6
ATOM      6  C   UNL     1     -23.454  96.026 -30.927  1.00  0.00    -0.000 C 
BRANCH   6   7
ATOM      7  C   UNL     1     -24.704  95.988 -30.024  1.00  0.00    -0.000 C 
BRANCH   7   8
ATOM      8  C   UNL     1     -24.423  95.757 -28.526  1.00  0.00    -0.000 C 
BRANCH   8   9
ATOM      9  C   UNL     1     -25.329  94.709 -27.846  1.00  0.00    -0.000 C 
BRANCH   9  10
ATOM     10  C   UNL     1     -24.926  93.245 -28.098  1.00  0.00    -0.000 C 
BRANCH  10  11
ATOM     11  C   UNL     1     -25.937  92.492 -28.975  1.00  0.00    -0.003 C 
ATOM     12  C   UNL     1     -26.336  91.165 -28.339  1.00  0.00     0.004 C 
ENDBRANCH  10  11
ENDBRANCH   9  10
ENDBRANCH   8   9
ENDBRANCH   7   8
ENDBRANCH   6   7
ENDBRANCH   5   6
ENDBRANCH   4   5
ENDBRANCH   3   4
ENDBRANCH   2   3
ENDBRANCH   1   2
BRANCH   1  13
ATOM     13  C   UNL     1     -22.634  90.693 -30.068  1.00  0.00     0.000 C 
BRANCH  13  14
ATOM     14  C   UNL     1     -22.741  90.070 -28.669  1.00  0.00     0.000 C 
BRANCH  14  15
ATOM     15  C   UNL     1     -23.418  88.690 -28.677  1.00  0.00     0.000 C 
BRANCH  15  16
ATOM     16  C   UNL     1     -23.797  88.178 -27.271  1.00  0.00     0.000 C 
BRANCH  16  17
ATOM     17  C   UNL     1     -23.904  89.321 -26.247  1.00  0.00     0.000 C 
BRANCH  17  18
ATOM     18  C   UNL     1     -23.149  89.023 -24.942  1.00  0.00     0.000 C 
BRANCH  18  19
ATOM     19  C   UNL     1     -22.322  87.728 -25.021  1.00  0.00     0.000 C 
BRANCH  19  20
ATOM     20  C   UNL     1     -22.776  86.665 -24.003  1.00  0.00     0.006 C 
BRANCH  20  21
ATOM     21  C   UNL     1     -21.628  85.889 -23.335  1.00  0.00     0.053 C 
BRANCH  21  22
ATOM     22  C   UNL     1     -22.098  84.607 -22.719  1.00  0.00     0.041 C 
ATOM     23  O   UNL     1     -23.329  84.347 -22.659  1.00  0.00    -0.550 OA
ATOM     24  O   UNL     1     -21.180  83.723 -22.167  1.00  0.00    -0.550 OA
ENDBRANCH  21  22
ENDBRANCH  20  21
ENDBRANCH  19  20
ENDBRANCH  18  19
ENDBRANCH  17  18
ENDBRANCH  16  17
ENDBRANCH  15  16
ENDBRANCH  14  15
ENDBRANCH  13  14
ENDBRANCH   1  13
TORSDOF 20
ENDMDL
MODEL 2
REMARK VINA RESULT:    -4.331     12.187     15.974
REMARK INTER + INTRA:         -12.103
REMARK INTER:                  -8.517
REMARK INTRA:                  -3.586
REMARK UNBOUND:                -2.707
REMARK SMILES CCCCCCCCCCCCCCCCCCCCCC(=O)[O-]
REMARK SMILES IDX 12 1 11 2 10 3 9 4 8 5 7 6 6 7 5 8 4 9 3 10 2 11 1 12 13 13
REMARK SMILES IDX 14 14 15 15 16 16 17 17 18 18 19 19 20 20 21 21 22 22 23 23
REMARK SMILES IDX 24 24
REMARK H PARENT
REMARK Flexibility Score: inf
ROOT
ATOM      1  C   UNL     1     -33.648  83.324 -20.501  1.00  0.00     0.000 C 
ENDROOT
BRANCH   1   2
ATOM      2  C   UNL     1     -33.703  84.024 -19.132  1.00  0.00     0.000 C 
BRANCH   2   3
ATOM      3  C   UNL     1     -34.910  84.962 -18.924  1.00  0.00     0.000 C 
BRANCH   3   4
ATOM      4  C   UNL     1     -35.666  84.777 -17.596  1.00  0.00    -0.000 C 
BRANCH   4   5
ATOM      5  C   UNL     1     -36.785  83.725 -17.686  1.00  0.00    -0.000 C 
BRANCH   5   6
ATOM      6  C   UNL     1     -36.258  82.282 -17.592  1.00  0.00    -0.000 C 
BRANCH   6   7
ATOM      7  C   UNL     1     -36.536  81.399 -18.827  1.00  0.00    -0.000 C 
BRANCH   7   8
ATOM      8  C   UNL     1     -37.615  81.937 -19.787  1.00  0.00    -0.000 C 
BRANCH   8   9
ATOM      9  C   UNL     1     -37.082  82.474 -21.132  1.00  0.00    -0.000 C 
BRANCH   9  10
ATOM     10  C   UNL     1     -37.440  83.940 -21.431  1.00  0.00    -0.000 C 
BRANCH  10  11
ATOM     11  C   UNL     1     -36.770  84.468 -22.708  1.00  0.00    -0.003 C 
ATOM     12  C   UNL     1     -35.868  85.660 -22.404  1.00  0.00     0.004 C 
ENDBRANCH  10  11
ENDBRANCH   9  10
ENDBRANCH   8   9
ENDBRANCH   7   8
ENDBRANCH   6   7
ENDBRANCH   5   6
ENDBRANCH   4   5
ENDBRANCH   3   4
ENDBRANCH   2   3
ENDBRANCH   1   2
BRANCH   1  13
ATOM     13  C   UNL     1     -33.382  81.816 -20.390  1.00  0.00     0.000 C 
BRANCH  13  14
ATOM     14  C   UNL     1     -32.603  81.488 -19.109  1.00  0.00     0.000 C 
BRANCH  14  15
ATOM     15  C   UNL     1     -32.386  79.979 -18.909  1.00  0.00     0.000 C 
BRANCH  15  16
ATOM     16  C   UNL     1     -30.921  79.534 -19.097  1.00  0.00     0.000 C 
BRANCH  16  17
ATOM     17  C   UNL     1     -30.666  78.951 -20.498  1.00  0.00     0.000 C 
BRANCH  17  18
ATOM     18  C   UNL     1     -30.022  79.965 -21.456  1.00  0.00     0.000 C 
BRANCH  18  19
ATOM     19  C   UNL     1     -30.954  80.358 -22.615  1.00  0.00     0.000 C 
BRANCH  19  20
ATOM     20  C   UNL     1     -30.408  81.531 -23.451  1.00  0.00     0.006 C 
BRANCH  20  21
ATOM     21  C   UNL     1     -30.916  82.916 -23.016  1.00  0.00     0.053 C 
BRANCH  21  22
ATOM     22  C   UNL     1     -29.958  83.601 -22.090  1.00  0.00     0.041 C 
ATOM     23  O   UNL     1     -28.923  84.155 -22.545  1.00  0.00    -0.550 OA
ATOM     24  O   UNL     1     -30.183  83.582 -20.719  1.00  0.00    -0.550 OA
ENDBRANCH  21  22
ENDBRANCH  20  21
ENDBRANCH  19  20
ENDBRANCH  18  19
ENDBRANCH  17  18
ENDBRANCH  16  17
ENDBRANCH  15  16
ENDBRANCH  14  15
ENDBRANCH  13  14
ENDBRANCH   1  13
TORSDOF 20
ENDMDL
MODEL 3
REMARK VINA RESULT:    -4.308      5.309      8.730
REMARK INTER + INTRA:         -12.053
REMARK INTER:                  -8.544
REMARK INTRA:                  -3.509
REMARK UNBOUND:                -2.707
REMARK SMILES CCCCCCCCCCCCCCCCCCCCCC(=O)[O-]
REMARK SMILES IDX 12 1 11 2 10 3 9 4 8 5 7 6 6 7 5 8 4 9 3 10 2 11 1 12 13 13
REMARK SMILES IDX 14 14 15 15 16 16 17 17 18 18 19 19 20 20 21 21 22 22 23 23
REMARK SMILES IDX 24 24
REMARK H PARENT
REMARK Flexibility Score: inf
ROOT
ATOM      1  C   UNL     1     -28.060  92.512 -27.385  1.00  0.00     0.000 C 
ENDROOT
BRANCH   1   2
ATOM      2  C   UNL     1     -28.757  92.263 -28.735  1.00  0.00     0.000 C 
BRANCH   2   3
ATOM      3  C   UNL     1     -27.851  91.690 -29.844  1.00  0.00     0.000 C 
BRANCH   3   4
ATOM      4  C   UNL     1     -27.248  92.731 -30.804  1.00  0.00    -0.000 C 
BRANCH   4   5
ATOM      5  C   UNL     1     -25.833  92.359 -31.279  1.00  0.00    -0.000 C 
BRANCH   5   6
ATOM      6  C   UNL     1     -25.509  90.867 -31.082  1.00  0.00    -0.000 C 
BRANCH   6   7
ATOM      7  C   UNL     1     -24.024  90.488 -31.266  1.00  0.00    -0.000 C 
BRANCH   7   8
ATOM      8  C   UNL     1     -23.048  91.171 -30.288  1.00  0.00    -0.000 C 
BRANCH   8   9
ATOM      9  C   UNL     1     -22.865  90.448 -28.937  1.00  0.00    -0.000 C 
BRANCH   9  10
ATOM     10  C   UNL     1     -23.423  89.015 -28.891  1.00  0.00    -0.000 C 
BRANCH  10  11
ATOM     11  C   UNL     1     -24.331  88.769 -27.676  1.00  0.00    -0.003 C 
ATOM     12  C   UNL     1     -25.355  89.889 -27.520  1.00  0.00     0.004 C 
ENDBRANCH  10  11
ENDBRANCH   9  10
ENDBRANCH   8   9
ENDBRANCH   7   8
ENDBRANCH   6   7
ENDBRANCH   5   6
ENDBRANCH   4   5
ENDBRANCH   3   4
ENDBRANCH   2   3
ENDBRANCH   1   2
BRANCH   1  13
ATOM     13  C   UNL     1     -28.033  93.997 -26.994  1.00  0.00     0.000 C 
BRANCH  13  14
ATOM     14  C   UNL     1     -26.592  94.499 -26.838  1.00  0.00     0.000 C 
BRANCH  14  15
ATOM     15  C   UNL     1     -25.556  93.552 -27.464  1.00  0.00     0.000 C 
BRANCH  15  16
ATOM     16  C   UNL     1     -24.658  94.228 -28.522  1.00  0.00     0.000 C 
BRANCH  16  17
ATOM     17  C   UNL     1     -24.887  95.748 -28.592  1.00  0.00     0.000 C 
BRANCH  17  18
ATOM     18  C   UNL     1     -24.441  96.356 -29.932  1.00  0.00     0.000 C 
BRANCH  18  19
ATOM     19  C   UNL     1     -23.710  95.340 -30.827  1.00  0.00     0.000 C 
BRANCH  19  20
ATOM     20  C   UNL     1     -23.417  95.886 -32.237  1.00  0.00     0.006 C 
BRANCH  20  21
ATOM     21  C   UNL     1     -24.174  95.170 -33.368  1.00  0.00     0.053 C 
BRANCH  21  22
ATOM     22  C   UNL     1     -25.549  95.729 -33.568  1.00  0.00     0.041 C 
ATOM     23  O   UNL     1     -26.544  94.959 -33.623  1.00  0.00    -0.550 OA
ATOM     24  O   UNL     1     -25.726  97.096 -33.743  1.00  0.00    -0.550 OA
ENDBRANCH  21  22
ENDBRANCH  20  21
ENDBRANCH  19  20
ENDBRANCH  18  19
ENDBRANCH  17  18
ENDBRANCH  16  17
ENDBRANCH  15  16
ENDBRANCH  14  15
ENDBRANCH  13  14
ENDBRANCH   1  13
TORSDOF 20
ENDMDL
MODEL 4
REMARK VINA RESULT:    -4.307     13.112     15.885
REMARK INTER + INTRA:         -12.050
REMARK INTER:                  -8.389
REMARK INTRA:                  -3.661
REMARK UNBOUND:                -2.707
REMARK SMILES CCCCCCCCCCCCCCCCCCCCCC(=O)[O-]
REMARK SMILES IDX 12 1 11 2 10 3 9 4 8 5 7 6 6 7 5 8 4 9 3 10 2 11 1 12 13 13
REMARK SMILES IDX 14 14 15 15 16 16 17 17 18 18 19 19 20 20 21 21 22 22 23 23
REMARK SMILES IDX 24 24
REMARK H PARENT
REMARK Flexibility Score: inf
ROOT
ATOM      1  C   UNL     1     -37.863  81.428 -19.502  1.00  0.00     0.000 C 
ENDROOT
BRANCH   1   2
ATOM      2  C   UNL     1     -37.416  81.394 -20.974  1.00  0.00     0.000 C 
BRANCH   2   3
ATOM      3  C   UNL     1     -37.499  82.745 -21.714  1.00  0.00     0.000 C 
BRANCH   3   4
ATOM      4  C   UNL     1     -37.864  82.656 -23.207  1.00  0.00    -0.000 C 
BRANCH   4   5
ATOM      5  C   UNL     1     -38.525  83.938 -23.739  1.00  0.00    -0.000 C 
BRANCH   5   6
ATOM      6  C   UNL     1     -38.285  85.157 -22.830  1.00  0.00    -0.000 C 
BRANCH   6   7
ATOM      7  C   UNL     1     -37.176  86.121 -23.304  1.00  0.00    -0.000 C 
BRANCH   7   8
ATOM      8  C   UNL     1     -35.789  85.883 -22.674  1.00  0.00    -0.000 C 
BRANCH   8   9
ATOM      9  C   UNL     1     -34.624  85.787 -23.681  1.00  0.00    -0.000 C 
BRANCH   9  10
ATOM     10  C   UNL     1     -34.812  84.734 -24.788  1.00  0.00    -0.000 C 
BRANCH  10  11
ATOM     11  C   UNL     1     -33.817  83.569 -24.676  1.00  0.00    -0.003 C 
ATOM     12  C   UNL     1     -34.530  82.270 -24.313  1.00  0.00     0.004 C 
ENDBRANCH  10  11
ENDBRANCH   9  10
ENDBRANCH   8   9
ENDBRANCH   7   8
ENDBRANCH   6   7
ENDBRANCH   5   6
ENDBRANCH   4   5
ENDBRANCH   3   4
ENDBRANCH   2   3
ENDBRANCH   1   2
BRANCH   1  13
ATOM     13  C   UNL     1     -36.760  81.922 -18.555  1.00  0.00     0.000 C 
BRANCH  13  14
ATOM     14  C   UNL     1     -37.047  83.350 -18.074  1.00  0.00     0.000 C 
BRANCH  14  15
ATOM     15  C   UNL     1     -35.783  84.222 -17.995  1.00  0.00     0.000 C 
BRANCH  15  16
ATOM     16  C   UNL     1     -35.125  84.483 -19.367  1.00  0.00     0.000 C 
BRANCH  16  17
ATOM     17  C   UNL     1     -33.794  83.728 -19.526  1.00  0.00     0.000 C 
BRANCH  17  18
ATOM     18  C   UNL     1     -33.778  82.802 -20.753  1.00  0.00     0.000 C 
BRANCH  18  19
ATOM     19  C   UNL     1     -33.773  81.312 -20.369  1.00  0.00     0.000 C 
BRANCH  19  20
ATOM     20  C   UNL     1     -33.274  81.066 -18.933  1.00  0.00     0.006 C 
BRANCH  20  21
ATOM     21  C   UNL     1     -31.986  80.231 -18.839  1.00  0.00     0.053 C 
BRANCH  21  22
ATOM     22  C   UNL     1     -30.868  80.828 -19.638  1.00  0.00     0.041 C 
ATOM     23  O   UNL     1     -30.302  80.152 -20.537  1.00  0.00    -0.550 OA
ATOM     24  O   UNL     1     -30.420  82.111 -19.355  1.00  0.00    -0.550 OA
ENDBRANCH  21  22
ENDBRANCH  20  21
ENDBRANCH  19  20
ENDBRANCH  18  19
ENDBRANCH  17  18
ENDBRANCH  16  17
ENDBRANCH  15  16
ENDBRANCH  14  15
ENDBRANCH  13  14
ENDBRANCH   1  13
TORSDOF 20
ENDMDL
MODEL 5
REMARK VINA RESULT:    -4.274      2.193      4.208
REMARK INTER + INTRA:         -11.979
REMARK INTER:                  -8.609
REMARK INTRA:                  -3.371
REMARK UNBOUND:                -2.707
REMARK SMILES CCCCCCCCCCCCCCCCCCCCCC(=O)[O-]
REMARK SMILES IDX 12 1 11 2 10 3 9 4 8 5 7 6 6 7 5 8 4 9 3 10 2 11 1 12 13 13
REMARK SMILES IDX 14 14 15 15 16 16 17 17 18 18 19 19 20 20 21 21 22 22 23 23
REMARK SMILES IDX 24 24
REMARK H PARENT
REMARK Flexibility Score: inf
ROOT
ATOM      1  C   UNL     1     -26.092  94.043 -28.501  1.00  0.00     0.000 C 
ENDROOT
BRANCH   1   2
ATOM      2  C   UNL     1     -25.787  95.325 -27.706  1.00  0.00     0.000 C 
BRANCH   2   3
ATOM      3  C   UNL     1     -25.082  96.440 -28.507  1.00  0.00     0.000 C 
BRANCH   3   4
ATOM      4  C   UNL     1     -23.977  95.962 -29.467  1.00  0.00    -0.000 C 
BRANCH   4   5
ATOM      5  C   UNL     1     -24.249  96.347 -30.931  1.00  0.00    -0.000 C 
BRANCH   5   6
ATOM      6  C   UNL     1     -23.511  95.442 -31.934  1.00  0.00    -0.000 C 
BRANCH   6   7
ATOM      7  C   UNL     1     -23.282  93.990 -31.464  1.00  0.00    -0.000 C 
BRANCH   7   8
ATOM      8  C   UNL     1     -23.286  92.931 -32.584  1.00  0.00    -0.000 C 
BRANCH   8   9
ATOM      9  C   UNL     1     -24.623  92.184 -32.770  1.00  0.00    -0.000 C 
BRANCH   9  10
ATOM     10  C   UNL     1     -25.603  92.307 -31.590  1.00  0.00    -0.000 C 
BRANCH  10  11
ATOM     11  C   UNL     1     -26.995  92.790 -32.021  1.00  0.00    -0.003 C 
ATOM     12  C   UNL     1     -26.968  94.262 -32.419  1.00  0.00     0.004 C 
ENDBRANCH  10  11
ENDBRANCH   9  10
ENDBRANCH   8   9
ENDBRANCH   7   8
ENDBRANCH   6   7
ENDBRANCH   5   6
ENDBRANCH   4   5
ENDBRANCH   3   4
ENDBRANCH   2   3
ENDBRANCH   1   2
BRANCH   1  13
ATOM     13  C   UNL     1     -25.458  92.791 -27.878  1.00  0.00     0.000 C 
BRANCH  13  14
ATOM     14  C   UNL     1     -23.958  92.719 -28.193  1.00  0.00     0.000 C 
BRANCH  14  15
ATOM     15  C   UNL     1     -23.390  91.295 -28.084  1.00  0.00     0.000 C 
BRANCH  15  16
ATOM     16  C   UNL     1     -23.209  90.595 -29.448  1.00  0.00     0.000 C 
BRANCH  16  17
ATOM     17  C   UNL     1     -23.939  89.242 -29.508  1.00  0.00     0.000 C 
BRANCH  17  18
ATOM     18  C   UNL     1     -23.562  88.310 -28.345  1.00  0.00     0.000 C 
BRANCH  18  19
ATOM     19  C   UNL     1     -24.770  87.530 -27.798  1.00  0.00     0.000 C 
BRANCH  19  20
ATOM     20  C   UNL     1     -25.711  88.403 -26.946  1.00  0.00     0.006 C 
BRANCH  20  21
ATOM     21  C   UNL     1     -25.025  89.125 -25.774  1.00  0.00     0.053 C 
BRANCH  21  22
ATOM     22  C   UNL     1     -24.489  88.165 -24.757  1.00  0.00     0.041 C 
ATOM     23  O   UNL     1     -23.283  88.230 -24.398  1.00  0.00    -0.550 OA
ATOM     24  O   UNL     1     -25.307  87.167 -24.244  1.00  0.00    -0.550 OA
ENDBRANCH  21  22
ENDBRANCH  20  21
ENDBRANCH  19  20
ENDBRANCH  18  19
ENDBRANCH  17  18
ENDBRANCH  16  17
ENDBRANCH  15  16
ENDBRANCH  14  15
ENDBRANCH  13  14
ENDBRANCH   1  13
TORSDOF 20
ENDMDL
MODEL 6
REMARK VINA RESULT:    -4.248      1.108      2.124
REMARK INTER + INTRA:         -11.921
REMARK INTER:                  -9.240
REMARK INTRA:                  -2.681
REMARK UNBOUND:                -2.707
REMARK SMILES CCCCCCCCCCCCCCCCCCCCCC(=O)[O-]
REMARK SMILES IDX 12 1 11 2 10 3 9 4 8 5 7 6 6 7 5 8 4 9 3 10 2 11 1 12 13 13
REMARK SMILES IDX 14 14 15 15 16 16 17 17 18 18 19 19 20 20 21 21 22 22 23 23
REMARK SMILES IDX 24 24
REMARK H PARENT
REMARK Flexibility Score: inf
ROOT
ATOM      1  C   UNL     1     -22.706  90.039 -28.882  1.00  0.00     0.000 C 
ENDROOT
BRANCH   1   2
ATOM      2  C   UNL     1     -22.701  90.689 -30.277  1.00  0.00     0.000 C 
BRANCH   2   3
ATOM      3  C   UNL     1     -24.076  90.748 -30.976  1.00  0.00     0.000 C 
BRANCH   3   4
ATOM      4  C   UNL     1     -24.381  92.062 -31.717  1.00  0.00    -0.000 C 
BRANCH   4   5
ATOM      5  C   UNL     1     -23.168  93.007 -31.783  1.00  0.00    -0.000 C 
BRANCH   5   6
ATOM      6  C   UNL     1     -23.547  94.438 -32.205  1.00  0.00    -0.000 C 
BRANCH   6   7
ATOM      7  C   UNL     1     -24.590  95.134 -31.305  1.00  0.00    -0.000 C 
BRANCH   7   8
ATOM      8  C   UNL     1     -24.060  95.616 -29.941  1.00  0.00    -0.000 C 
BRANCH   8   9
ATOM      9  C   UNL     1     -24.765  95.002 -28.714  1.00  0.00    -0.000 C 
BRANCH   9  10
ATOM     10  C   UNL     1     -24.239  93.619 -28.291  1.00  0.00    -0.000 C 
BRANCH  10  11
ATOM     11  C   UNL     1     -25.366  92.608 -28.030  1.00  0.00    -0.003 C 
ATOM     12  C   UNL     1     -26.634  92.992 -28.785  1.00  0.00     0.004 C 
ENDBRANCH  10  11
ENDBRANCH   9  10
ENDBRANCH   8   9
ENDBRANCH   7   8
ENDBRANCH   6   7
ENDBRANCH   5   6
ENDBRANCH   4   5
ENDBRANCH   3   4
ENDBRANCH   2   3
ENDBRANCH   1   2
BRANCH   1  13
ATOM     13  C   UNL     1     -23.923  89.131 -28.651  1.00  0.00     0.000 C 
BRANCH  13  14
ATOM     14  C   UNL     1     -24.304  89.090 -27.166  1.00  0.00     0.000 C 
BRANCH  14  15
ATOM     15  C   UNL     1     -23.235  89.714 -26.255  1.00  0.00     0.000 C 
BRANCH  15  16
ATOM     16  C   UNL     1     -22.828  88.812 -25.070  1.00  0.00     0.000 C 
BRANCH  16  17
ATOM     17  C   UNL     1     -23.904  87.762 -24.742  1.00  0.00     0.000 C 
BRANCH  17  18
ATOM     18  C   UNL     1     -23.326  86.348 -24.579  1.00  0.00     0.000 C 
BRANCH  18  19
ATOM     19  C   UNL     1     -22.116  86.310 -23.628  1.00  0.00     0.000 C 
BRANCH  19  20
ATOM     20  C   UNL     1     -21.796  84.891 -23.123  1.00  0.00     0.006 C 
BRANCH  20  21
ATOM     21  C   UNL     1     -22.060  84.672 -21.624  1.00  0.00     0.053 C 
BRANCH  21  22
ATOM     22  C   UNL     1     -22.565  83.291 -21.338  1.00  0.00     0.041 C 
ATOM     23  O   UNL     1     -22.394  82.367 -22.177  1.00  0.00    -0.550 OA
ATOM     24  O   UNL     1     -23.267  83.036 -20.167  1.00  0.00    -0.550 OA
ENDBRANCH  21  22
ENDBRANCH  20  21
ENDBRANCH  19  20
ENDBRANCH  18  19
ENDBRANCH  17  18
ENDBRANCH  16  17
ENDBRANCH  15  16
ENDBRANCH  14  15
ENDBRANCH  13  14
ENDBRANCH   1  13
TORSDOF 20
ENDMDL
MODEL 7
REMARK VINA RESULT:    -4.229      3.367      9.118
REMARK INTER + INTRA:         -11.882
REMARK INTER:                 -10.175
REMARK INTRA:                  -1.707
REMARK UNBOUND:                -2.707
REMARK SMILES CCCCCCCCCCCCCCCCCCCCCC(=O)[O-]
REMARK SMILES IDX 12 1 11 2 10 3 9 4 8 5 7 6 6 7 5 8 4 9 3 10 2 11 1 12 13 13
REMARK SMILES IDX 14 14 15 15 16 16 17 17 18 18 19 19 20 20 21 21 22 22 23 23
REMARK SMILES IDX 24 24
REMARK H PARENT
REMARK Flexibility Score: inf
ROOT
ATOM      1  C   UNL     1     -24.413  88.693 -28.825  1.00  0.00     0.000 C 
ENDROOT
BRANCH   1   2
ATOM      2  C   UNL     1     -23.831  89.268 -27.522  1.00  0.00     0.000 C 
BRANCH   2   3
ATOM      3  C   UNL     1     -24.808  89.306 -26.329  1.00  0.00     0.000 C 
BRANCH   3   4
ATOM      4  C   UNL     1     -24.220  88.851 -24.982  1.00  0.00    -0.000 C 
BRANCH   4   5
ATOM      5  C   UNL     1     -22.764  89.304 -24.781  1.00  0.00    -0.000 C 
BRANCH   5   6
ATOM      6  C   UNL     1     -21.844  88.169 -24.298  1.00  0.00    -0.000 C 
BRANCH   6   7
ATOM      7  C   UNL     1     -22.464  86.756 -24.348  1.00  0.00    -0.000 C 
BRANCH   7   8
ATOM      8  C   UNL     1     -21.985  85.791 -23.245  1.00  0.00    -0.000 C 
BRANCH   8   9
ATOM      9  C   UNL     1     -22.970  84.655 -22.900  1.00  0.00    -0.000 C 
BRANCH   9  10
ATOM     10  C   UNL     1     -22.442  83.626 -21.885  1.00  0.00    -0.000 C 
BRANCH  10  11
ATOM     11  C   UNL     1     -22.258  84.218 -20.480  1.00  0.00    -0.003 C 
ATOM     12  C   UNL     1     -21.644  83.196 -19.528  1.00  0.00     0.004 C 
ENDBRANCH  10  11
ENDBRANCH   9  10
ENDBRANCH   8   9
ENDBRANCH   7   8
ENDBRANCH   6   7
ENDBRANCH   5   6
ENDBRANCH   4   5
ENDBRANCH   3   4
ENDBRANCH   2   3
ENDBRANCH   1   2
BRANCH   1  13
ATOM     13  C   UNL     1     -24.258  89.648 -30.019  1.00  0.00     0.000 C 
BRANCH  13  14
ATOM     14  C   UNL     1     -22.989  90.498 -29.882  1.00  0.00     0.000 C 
BRANCH  14  15
ATOM     15  C   UNL     1     -22.587  91.192 -31.193  1.00  0.00     0.000 C 
BRANCH  15  16
ATOM     16  C   UNL     1     -23.662  92.157 -31.737  1.00  0.00     0.000 C 
BRANCH  16  17
ATOM     17  C   UNL     1     -23.090  93.553 -32.039  1.00  0.00     0.000 C 
BRANCH  17  18
ATOM     18  C   UNL     1     -23.600  94.628 -31.066  1.00  0.00     0.000 C 
BRANCH  18  19
ATOM     19  C   UNL     1     -24.825  94.162 -30.260  1.00  0.00     0.000 C 
BRANCH  19  20
ATOM     20  C   UNL     1     -24.670  94.399 -28.746  1.00  0.00     0.006 C 
BRANCH  20  21
ATOM     21  C   UNL     1     -25.051  93.194 -27.869  1.00  0.00     0.053 C 
BRANCH  21  22
ATOM     22  C   UNL     1     -26.256  93.471 -27.023  1.00  0.00     0.041 C 
ATOM     23  O   UNL     1     -27.201  92.639 -26.974  1.00  0.00    -0.550 OA
ATOM     24  O   UNL     1     -26.358  94.670 -26.329  1.00  0.00    -0.550 OA
ENDBRANCH  21  22
ENDBRANCH  20  21
ENDBRANCH  19  20
ENDBRANCH  18  19
ENDBRANCH  17  18
ENDBRANCH  16  17
ENDBRANCH  15  16
ENDBRANCH  14  15
ENDBRANCH  13  14
ENDBRANCH   1  13
TORSDOF 20
ENDMDL
MODEL 8
REMARK VINA RESULT:    -4.215      2.009      4.017
REMARK INTER + INTRA:         -11.852
REMARK INTER:                  -8.576
REMARK INTRA:                  -3.276
REMARK UNBOUND:                -2.707
REMARK SMILES CCCCCCCCCCCCCCCCCCCCCC(=O)[O-]
REMARK SMILES IDX 12 1 11 2 10 3 9 4 8 5 7 6 6 7 5 8 4 9 3 10 2 11 1 12 13 13
REMARK SMILES IDX 14 14 15 15 16 16 17 17 18 18 19 19 20 20 21 21 22 22 23 23
REMARK SMILES IDX 24 24
REMARK H PARENT
REMARK Flexibility Score: inf
ROOT
ATOM      1  C   UNL     1     -24.433  94.781 -28.697  1.00  0.00     0.000 C 
ENDROOT
BRANCH   1   2
ATOM      2  C   UNL     1     -24.814  96.238 -29.016  1.00  0.00     0.000 C 
BRANCH   2   3
ATOM      3  C   UNL     1     -24.387  96.735 -30.412  1.00  0.00     0.000 C 
BRANCH   3   4
ATOM      4  C   UNL     1     -23.348  95.859 -31.133  1.00  0.00    -0.000 C 
BRANCH   4   5
ATOM      5  C   UNL     1     -23.590  95.767 -32.650  1.00  0.00    -0.000 C 
BRANCH   5   6
ATOM      6  C   UNL     1     -25.072  95.935 -33.030  1.00  0.00    -0.000 C 
BRANCH   6   7
ATOM      7  C   UNL     1     -25.860  94.619 -33.200  1.00  0.00    -0.000 C 
BRANCH   7   8
ATOM      8  C   UNL     1     -26.585  94.121 -31.934  1.00  0.00    -0.000 C 
BRANCH   8   9
ATOM      9  C   UNL     1     -26.168  92.714 -31.456  1.00  0.00    -0.000 C 
BRANCH   9  10
ATOM     10  C   UNL     1     -24.659  92.424 -31.537  1.00  0.00    -0.000 C 
BRANCH  10  11
ATOM     11  C   UNL     1     -24.346  91.100 -32.250  1.00  0.00    -0.003 C 
ATOM     12  C   UNL     1     -22.841  90.873 -32.354  1.00  0.00     0.004 C 
ENDBRANCH  10  11
ENDBRANCH   9  10
ENDBRANCH   8   9
ENDBRANCH   7   8
ENDBRANCH   6   7
ENDBRANCH   5   6
ENDBRANCH   4   5
ENDBRANCH   3   4
ENDBRANCH   2   3
ENDBRANCH   1   2
BRANCH   1  13
ATOM     13  C   UNL     1     -25.573  94.001 -28.027  1.00  0.00     0.000 C 
BRANCH  13  14
ATOM     14  C   UNL     1     -25.159  92.549 -27.752  1.00  0.00     0.000 C 
BRANCH  14  15
ATOM     15  C   UNL     1     -23.747  92.222 -28.264  1.00  0.00     0.000 C 
BRANCH  15  16
ATOM     16  C   UNL     1     -23.150  90.936 -27.654  1.00  0.00     0.000 C 
BRANCH  16  17
ATOM     17  C   UNL     1     -22.990  89.817 -28.699  1.00  0.00     0.000 C 
BRANCH  17  18
ATOM     18  C   UNL     1     -24.239  88.929 -28.815  1.00  0.00     0.000 C 
BRANCH  18  19
ATOM     19  C   UNL     1     -24.160  87.679 -27.921  1.00  0.00     0.000 C 
BRANCH  19  20
ATOM     20  C   UNL     1     -25.109  87.749 -26.709  1.00  0.00     0.006 C 
BRANCH  20  21
ATOM     21  C   UNL     1     -24.508  87.221 -25.396  1.00  0.00     0.053 C 
BRANCH  21  22
ATOM     22  C   UNL     1     -23.308  88.009 -24.969  1.00  0.00     0.041 C 
ATOM     23  O   UNL     1     -23.435  89.206 -24.597  1.00  0.00    -0.550 OA
ATOM     24  O   UNL     1     -22.043  87.437 -25.030  1.00  0.00    -0.550 OA
ENDBRANCH  21  22
ENDBRANCH  20  21
ENDBRANCH  19  20
ENDBRANCH  18  19
ENDBRANCH  17  18
ENDBRANCH  16  17
ENDBRANCH  15  16
ENDBRANCH  14  15
ENDBRANCH  13  14
ENDBRANCH   1  13
TORSDOF 20
ENDMDL
MODEL 9
REMARK VINA RESULT:    -4.196      2.238      4.259
REMARK INTER + INTRA:         -11.809
REMARK INTER:                  -8.483
REMARK INTRA:                  -3.327
REMARK UNBOUND:                -2.707
REMARK SMILES CCCCCCCCCCCCCCCCCCCCCC(=O)[O-]
REMARK SMILES IDX 12 1 11 2 10 3 9 4 8 5 7 6 6 7 5 8 4 9 3 10 2 11 1 12 13 13
REMARK SMILES IDX 14 14 15 15 16 16 17 17 18 18 19 19 20 20 21 21 22 22 23 23
REMARK SMILES IDX 24 24
REMARK H PARENT
REMARK Flexibility Score: inf
ROOT
ATOM      1  C   UNL     1     -25.268  94.960 -29.477  1.00  0.00     0.000 C 
ENDROOT
BRANCH   1   2
ATOM      2  C   UNL     1     -24.349  96.128 -29.875  1.00  0.00     0.000 C 
BRANCH   2   3
ATOM      3  C   UNL     1     -23.529  95.907 -31.163  1.00  0.00     0.000 C 
BRANCH   3   4
ATOM      4  C   UNL     1     -24.093  94.849 -32.128  1.00  0.00    -0.000 C 
BRANCH   4   5
ATOM      5  C   UNL     1     -23.062  93.770 -32.501  1.00  0.00    -0.000 C 
BRANCH   5   6
ATOM      6  C   UNL     1     -22.989  92.630 -31.470  1.00  0.00    -0.000 C 
BRANCH   6   7
ATOM      7  C   UNL     1     -23.037  91.205 -32.061  1.00  0.00    -0.000 C 
BRANCH   7   8
ATOM      8  C   UNL     1     -24.311  90.402 -31.733  1.00  0.00    -0.000 C 
BRANCH   8   9
ATOM      9  C   UNL     1     -25.626  91.030 -32.240  1.00  0.00    -0.000 C 
BRANCH   9  10
ATOM     10  C   UNL     1     -26.625  91.417 -31.135  1.00  0.00    -0.000 C 
BRANCH  10  11
ATOM     11  C   UNL     1     -27.337  92.749 -31.417  1.00  0.00    -0.003 C 
ATOM     12  C   UNL     1     -27.916  92.774 -32.828  1.00  0.00     0.004 C 
ENDBRANCH  10  11
ENDBRANCH   9  10
ENDBRANCH   8   9
ENDBRANCH   7   8
ENDBRANCH   6   7
ENDBRANCH   5   6
ENDBRANCH   4   5
ENDBRANCH   3   4
ENDBRANCH   2   3
ENDBRANCH   1   2
BRANCH   1  13
ATOM     13  C   UNL     1     -24.939  94.388 -28.091  1.00  0.00     0.000 C 
BRANCH  13  14
ATOM     14  C   UNL     1     -25.038  92.857 -28.090  1.00  0.00     0.000 C 
BRANCH  14  15
ATOM     15  C   UNL     1     -23.668  92.168 -28.186  1.00  0.00     0.000 C 
BRANCH  15  16
ATOM     16  C   UNL     1     -23.686  90.689 -27.746  1.00  0.00     0.000 C 
BRANCH  16  17
ATOM     17  C   UNL     1     -25.060  90.033 -27.972  1.00  0.00     0.000 C 
BRANCH  17  18
ATOM     18  C   UNL     1     -24.953  88.606 -28.534  1.00  0.00     0.000 C 
BRANCH  18  19
ATOM     19  C   UNL     1     -23.747  87.837 -27.966  1.00  0.00     0.000 C 
BRANCH  19  20
ATOM     20  C   UNL     1     -24.050  87.165 -26.613  1.00  0.00     0.006 C 
BRANCH  20  21
ATOM     21  C   UNL     1     -23.019  87.458 -25.510  1.00  0.00     0.053 C 
BRANCH  21  22
ATOM     22  C   UNL     1     -23.287  88.761 -24.821  1.00  0.00     0.041 C 
ATOM     23  O   UNL     1     -22.353  89.587 -24.643  1.00  0.00    -0.550 OA
ATOM     24  O   UNL     1     -24.556  89.040 -24.330  1.00  0.00    -0.550 OA
ENDBRANCH  21  22
ENDBRANCH  20  21
ENDBRANCH  19  20
ENDBRANCH  18  19
ENDBRANCH  17  18
ENDBRANCH  16  17
ENDBRANCH  15  16
ENDBRANCH  14  15
ENDBRANCH  13  14
ENDBRANCH   1  13
TORSDOF 20
ENDMDL
