MODEL 1
REMARK VINA RESULT:    -3.580      0.000      0.000
REMARK INTER + INTRA:         -14.297
REMARK INTER:                  -9.021
REMARK INTRA:                  -5.276
REMARK UNBOUND:                -5.276
REMARK SMILES CCCCCCCCCCCCCCCCCCCCCCCCCCCC(=O)[O-]
REMARK SMILES IDX 15 1 16 2 17 3 18 4 19 5 20 6 21 7 22 8 23 9 24 10 25 11
REMARK SMILES IDX 26 12 27 13 28 14 29 15 30 16 14 17 13 18 12 19 11 20 10 21
REMARK SMILES IDX 9 22 8 23 7 24 6 25 5 26 4 27 3 28 2 29 1 30
REMARK H PARENT
REMARK Flexibility Score: inf
ROOT
ATOM      1  C   UNL     1      39.456 -49.798 -19.098  1.00  0.00     0.000 C 
ENDROOT
BRANCH   1   2
ATOM      2  C   UNL     1      38.850 -51.203 -18.895  1.00  0.00     0.000 C 
BRANCH   2   3
ATOM      3  C   UNL     1      38.472 -51.517 -17.434  1.00  0.00     0.000 C 
BRANCH   3   4
ATOM      4  C   UNL     1      36.969 -51.722 -17.175  1.00  0.00     0.000 C 
BRANCH   4   5
ATOM      5  C   UNL     1      36.470 -51.275 -15.783  1.00  0.00     0.000 C 
BRANCH   5   6
ATOM      6  C   UNL     1      35.490 -50.088 -15.788  1.00  0.00     0.000 C 
BRANCH   6   7
ATOM      7  C   UNL     1      35.000 -49.721 -17.199  1.00  0.00     0.000 C 
BRANCH   7   8
ATOM      8  C   UNL     1      35.306 -48.261 -17.580  1.00  0.00     0.000 C 
BRANCH   8   9
ATOM      9  C   UNL     1      35.759 -47.362 -16.415  1.00  0.00     0.000 C 
BRANCH   9  10
ATOM     10  C   UNL     1      36.773 -46.289 -16.846  1.00  0.00     0.000 C 
BRANCH  10  11
ATOM     11  C   UNL     1      36.753 -46.026 -18.363  1.00  0.00     0.000 C 
BRANCH  11  12
ATOM     12  C   UNL     1      38.032 -45.375 -18.928  1.00  0.00     0.006 C 
BRANCH  12  13
ATOM     13  C   UNL     1      38.279 -43.934 -18.454  1.00  0.00     0.053 C 
BRANCH  13  14
ATOM     14  C   UNL     1      37.463 -42.943 -19.225  1.00  0.00     0.041 C 
ATOM     15  O   UNL     1      36.240 -42.787 -18.963  1.00  0.00    -0.550 OA
ATOM     16  O   UNL     1      38.044 -42.218 -20.257  1.00  0.00    -0.550 OA
ENDBRANCH  13  14
ENDBRANCH  12  13
ENDBRANCH  11  12
ENDBRANCH  10  11
ENDBRANCH   9  10
ENDBRANCH   8   9
ENDBRANCH   7   8
ENDBRANCH   6   7
ENDBRANCH   5   6
ENDBRANCH   4   5
ENDBRANCH   3   4
ENDBRANCH   2   3
ENDBRANCH   1   2
BRANCH   1  17
ATOM     17  C   UNL     1      39.000 -48.790 -18.028  1.00  0.00     0.000 C 
BRANCH  17  18
ATOM     18  C   UNL     1      40.178 -48.002 -17.427  1.00  0.00     0.000 C 
BRANCH  18  19
ATOM     19  C   UNL     1      39.993 -47.736 -15.922  1.00  0.00     0.000 C 
BRANCH  19  20
ATOM     20  C   UNL     1      39.445 -48.965 -15.164  1.00  0.00     0.000 C 
BRANCH  20  21
ATOM     21  C   UNL     1      38.374 -48.624 -14.110  1.00  0.00     0.000 C 
BRANCH  21  22
ATOM     22  C   UNL     1      38.638 -49.195 -12.704  1.00  0.00    -0.000 C 
BRANCH  22  23
ATOM     23  C   UNL     1      39.474 -48.290 -11.773  1.00  0.00    -0.000 C 
BRANCH  23  24
ATOM     24  C   UNL     1      40.878 -48.820 -11.426  1.00  0.00    -0.000 C 
BRANCH  24  25
ATOM     25  C   UNL     1      42.002 -47.863 -11.855  1.00  0.00    -0.000 C 
BRANCH  25  26
ATOM     26  C   UNL     1      42.531 -48.156 -13.271  1.00  0.00    -0.000 C 
BRANCH  26  27
ATOM     27  C   UNL     1      43.384 -49.432 -13.400  1.00  0.00    -0.000 C 
BRANCH  27  28
ATOM     28  C   UNL     1      42.745 -50.488 -14.318  1.00  0.00    -0.000 C 
BRANCH  28  29
ATOM     29  C   UNL     1      42.875 -50.130 -15.807  1.00  0.00    -0.003 C 
ATOM     30  C   UNL     1      42.117 -51.099 -16.714  1.00  0.00     0.004 C 
ENDBRANCH  28  29
ENDBRANCH  27  28
ENDBRANCH  26  27
ENDBRANCH  25  26
ENDBRANCH  24  25
ENDBRANCH  23  24
ENDBRANCH  22  23
ENDBRANCH  21  22
ENDBRANCH  20  21
ENDBRANCH  19  20
ENDBRANCH  18  19
ENDBRANCH  17  18
ENDBRANCH   1  17
TORSDOF 26
ENDMDL
MODEL 2
REMARK VINA RESULT:    -3.534      3.045      6.151
REMARK INTER + INTRA:         -14.180
REMARK INTER:                  -8.670
REMARK INTRA:                  -5.510
REMARK UNBOUND:                -5.276
REMARK SMILES CCCCCCCCCCCCCCCCCCCCCCCCCCCC(=O)[O-]
REMARK SMILES IDX 15 1 16 2 17 3 18 4 19 5 20 6 21 7 22 8 23 9 24 10 25 11
REMARK SMILES IDX 26 12 27 13 28 14 29 15 30 16 14 17 13 18 12 19 11 20 10 21
REMARK SMILES IDX 9 22 8 23 7 24 6 25 5 26 4 27 3 28 2 29 1 30
REMARK H PARENT
REMARK Flexibility Score: inf
ROOT
ATOM      1  C   UNL     1      39.448 -49.072 -20.671  1.00  0.00     0.000 C 
ENDROOT
BRANCH   1   2
ATOM      2  C   UNL     1      38.901 -48.322 -21.904  1.00  0.00     0.000 C 
BRANCH   2   3
ATOM      3  C   UNL     1      37.932 -47.174 -21.560  1.00  0.00     0.000 C 
BRANCH   3   4
ATOM      4  C   UNL     1      38.045 -46.629 -20.124  1.00  0.00     0.000 C 
BRANCH   4   5
ATOM      5  C   UNL     1      36.814 -46.872 -19.225  1.00  0.00     0.000 C 
BRANCH   5   6
ATOM      6  C   UNL     1      37.008 -47.925 -18.118  1.00  0.00     0.000 C 
BRANCH   6   7
ATOM      7  C   UNL     1      35.859 -47.937 -17.095  1.00  0.00     0.000 C 
BRANCH   7   8
ATOM      8  C   UNL     1      36.344 -48.171 -15.652  1.00  0.00     0.000 C 
BRANCH   8   9
ATOM      9  C   UNL     1      37.073 -49.505 -15.415  1.00  0.00     0.000 C 
BRANCH   9  10
ATOM     10  C   UNL     1      37.410 -49.748 -13.934  1.00  0.00     0.000 C 
BRANCH  10  11
ATOM     11  C   UNL     1      38.602 -48.903 -13.448  1.00  0.00     0.000 C 
BRANCH  11  12
ATOM     12  C   UNL     1      39.206 -49.344 -12.099  1.00  0.00     0.006 C 
BRANCH  12  13
ATOM     13  C   UNL     1      40.497 -48.608 -11.705  1.00  0.00     0.053 C 
BRANCH  13  14
ATOM     14  C   UNL     1      41.471 -48.542 -12.840  1.00  0.00     0.041 C 
ATOM     15  O   UNL     1      41.818 -47.428 -13.315  1.00  0.00    -0.550 OA
ATOM     16  O   UNL     1      41.969 -49.713 -13.398  1.00  0.00    -0.550 OA
ENDBRANCH  13  14
ENDBRANCH  12  13
ENDBRANCH  11  12
ENDBRANCH  10  11
ENDBRANCH   9  10
ENDBRANCH   8   9
ENDBRANCH   7   8
ENDBRANCH   6   7
ENDBRANCH   5   6
ENDBRANCH   4   5
ENDBRANCH   3   4
ENDBRANCH   2   3
ENDBRANCH   1   2
BRANCH   1  17
ATOM     17  C   UNL     1      40.196 -50.365 -21.040  1.00  0.00     0.000 C 
BRANCH  17  18
ATOM     18  C   UNL     1      40.005 -51.473 -19.988  1.00  0.00     0.000 C 
BRANCH  18  19
ATOM     19  C   UNL     1      38.903 -51.127 -18.971  1.00  0.00     0.000 C 
BRANCH  19  20
ATOM     20  C   UNL     1      39.390 -51.227 -17.509  1.00  0.00     0.000 C 
BRANCH  20  21
ATOM     21  C   UNL     1      40.923 -51.217 -17.357  1.00  0.00     0.000 C 
BRANCH  21  22
ATOM     22  C   UNL     1      41.505 -49.959 -16.687  1.00  0.00    -0.000 C 
BRANCH  22  23
ATOM     23  C   UNL     1      40.519 -48.781 -16.532  1.00  0.00    -0.000 C 
BRANCH  23  24
ATOM     24  C   UNL     1      40.659 -47.662 -17.581  1.00  0.00    -0.000 C 
BRANCH  24  25
ATOM     25  C   UNL     1      40.418 -46.259 -16.999  1.00  0.00    -0.000 C 
BRANCH  25  26
ATOM     26  C   UNL     1      39.464 -46.267 -15.791  1.00  0.00    -0.000 C 
BRANCH  26  27
ATOM     27  C   UNL     1      38.697 -44.953 -15.555  1.00  0.00    -0.000 C 
BRANCH  27  28
ATOM     28  C   UNL     1      38.080 -44.381 -16.843  1.00  0.00    -0.000 C 
BRANCH  28  29
ATOM     29  C   UNL     1      36.555 -44.225 -16.746  1.00  0.00    -0.003 C 
ATOM     30  C   UNL     1      36.036 -44.376 -15.317  1.00  0.00     0.004 C 
ENDBRANCH  28  29
ENDBRANCH  27  28
ENDBRANCH  26  27
ENDBRANCH  25  26
ENDBRANCH  24  25
ENDBRANCH  23  24
ENDBRANCH  22  23
ENDBRANCH  21  22
ENDBRANCH  20  21
ENDBRANCH  19  20
ENDBRANCH  18  19
ENDBRANCH  17  18
ENDBRANCH   1  17
TORSDOF 26
ENDMDL
MODEL 3
REMARK VINA RESULT:    -3.512      1.383      3.106
REMARK INTER + INTRA:         -14.126
REMARK INTER:                  -8.485
REMARK INTRA:                  -5.641
REMARK UNBOUND:                -5.276
REMARK SMILES CCCCCCCCCCCCCCCCCCCCCCCCCCCC(=O)[O-]
REMARK SMILES IDX 15 1 16 2 17 3 18 4 19 5 20 6 21 7 22 8 23 9 24 10 25 11
REMARK SMILES IDX 26 12 27 13 28 14 29 15 30 16 14 17 13 18 12 19 11 20 10 21
REMARK SMILES IDX 9 22 8 23 7 24 6 25 5 26 4 27 3 28 2 29 1 30
REMARK H PARENT
REMARK Flexibility Score: inf
ROOT
ATOM      1  C   UNL     1      39.348 -47.484 -15.484  1.00  0.00     0.000 C 
ENDROOT
BRANCH   1   2
ATOM      2  C   UNL     1      39.714 -48.854 -16.094  1.00  0.00     0.000 C 
BRANCH   2   3
ATOM      3  C   UNL     1      39.762 -48.860 -17.635  1.00  0.00     0.000 C 
BRANCH   3   4
ATOM      4  C   UNL     1      39.009 -50.022 -18.309  1.00  0.00     0.000 C 
BRANCH   4   5
ATOM      5  C   UNL     1      38.661 -51.209 -17.386  1.00  0.00     0.000 C 
BRANCH   5   6
ATOM      6  C   UNL     1      37.160 -51.405 -17.107  1.00  0.00     0.000 C 
BRANCH   6   7
ATOM      7  C   UNL     1      36.738 -50.901 -15.717  1.00  0.00     0.000 C 
BRANCH   7   8
ATOM      8  C   UNL     1      35.921 -49.597 -15.774  1.00  0.00     0.000 C 
BRANCH   8   9
ATOM      9  C   UNL     1      35.716 -49.015 -17.184  1.00  0.00     0.000 C 
BRANCH   9  10
ATOM     10  C   UNL     1      35.675 -47.478 -17.197  1.00  0.00     0.000 C 
BRANCH  10  11
ATOM     11  C   UNL     1      36.880 -46.856 -17.927  1.00  0.00     0.000 C 
BRANCH  11  12
ATOM     12  C   UNL     1      36.781 -46.859 -19.467  1.00  0.00     0.006 C 
BRANCH  12  13
ATOM     13  C   UNL     1      38.113 -46.615 -20.193  1.00  0.00     0.053 C 
BRANCH  13  14
ATOM     14  C   UNL     1      38.873 -45.470 -19.599  1.00  0.00     0.041 C 
ATOM     15  O   UNL     1      39.970 -45.671 -19.012  1.00  0.00    -0.550 OA
ATOM     16  O   UNL     1      38.352 -44.183 -19.661  1.00  0.00    -0.550 OA
ENDBRANCH  13  14
ENDBRANCH  12  13
ENDBRANCH  11  12
ENDBRANCH  10  11
ENDBRANCH   9  10
ENDBRANCH   8   9
ENDBRANCH   7   8
ENDBRANCH   6   7
ENDBRANCH   5   6
ENDBRANCH   4   5
ENDBRANCH   3   4
ENDBRANCH   2   3
ENDBRANCH   1   2
BRANCH   1  17
ATOM     17  C   UNL     1      38.737 -47.599 -14.076  1.00  0.00     0.000 C 
BRANCH  17  18
ATOM     18  C   UNL     1      38.910 -49.007 -13.477  1.00  0.00     0.000 C 
BRANCH  18  19
ATOM     19  C   UNL     1      39.472 -48.965 -12.045  1.00  0.00     0.000 C 
BRANCH  19  20
ATOM     20  C   UNL     1      39.326 -47.575 -11.389  1.00  0.00     0.000 C 
BRANCH  20  21
ATOM     21  C   UNL     1      40.663 -46.946 -10.950  1.00  0.00     0.000 C 
BRANCH  21  22
ATOM     22  C   UNL     1      41.420 -46.186 -12.054  1.00  0.00    -0.000 C 
BRANCH  22  23
ATOM     23  C   UNL     1      42.745 -46.836 -12.510  1.00  0.00    -0.000 C 
BRANCH  23  24
ATOM     24  C   UNL     1      42.629 -47.803 -13.703  1.00  0.00    -0.000 C 
BRANCH  24  25
ATOM     25  C   UNL     1      42.968 -49.256 -13.333  1.00  0.00    -0.000 C 
BRANCH  25  26
ATOM     26  C   UNL     1      42.408 -50.278 -14.338  1.00  0.00    -0.000 C 
BRANCH  26  27
ATOM     27  C   UNL     1      43.428 -51.304 -14.866  1.00  0.00    -0.000 C 
BRANCH  27  28
ATOM     28  C   UNL     1      44.098 -50.861 -16.178  1.00  0.00    -0.000 C 
BRANCH  28  29
ATOM     29  C   UNL     1      43.106 -50.215 -17.157  1.00  0.00    -0.003 C 
ATOM     30  C   UNL     1      43.481 -48.777 -17.512  1.00  0.00     0.004 C 
ENDBRANCH  28  29
ENDBRANCH  27  28
ENDBRANCH  26  27
ENDBRANCH  25  26
ENDBRANCH  24  25
ENDBRANCH  23  24
ENDBRANCH  22  23
ENDBRANCH  21  22
ENDBRANCH  20  21
ENDBRANCH  19  20
ENDBRANCH  18  19
ENDBRANCH  17  18
ENDBRANCH   1  17
TORSDOF 26
ENDMDL
MODEL 4
REMARK VINA RESULT:    -3.510      3.933      7.485
REMARK INTER + INTRA:         -14.121
REMARK INTER:                  -9.527
REMARK INTRA:                  -4.595
REMARK UNBOUND:                -5.276
REMARK SMILES CCCCCCCCCCCCCCCCCCCCCCCCCCCC(=O)[O-]
REMARK SMILES IDX 15 1 16 2 17 3 18 4 19 5 20 6 21 7 22 8 23 9 24 10 25 11
REMARK SMILES IDX 26 12 27 13 28 14 29 15 30 16 14 17 13 18 12 19 11 20 10 21
REMARK SMILES IDX 9 22 8 23 7 24 6 25 5 26 4 27 3 28 2 29 1 30
REMARK H PARENT
REMARK Flexibility Score: inf
ROOT
ATOM      1  C   UNL     1      39.475 -48.166 -15.661  1.00  0.00     0.000 C 
ENDROOT
BRANCH   1   2
ATOM      2  C   UNL     1      39.548 -49.164 -14.485  1.00  0.00     0.000 C 
BRANCH   2   3
ATOM      3  C   UNL     1      38.620 -48.811 -13.306  1.00  0.00     0.000 C 
BRANCH   3   4
ATOM      4  C   UNL     1      39.268 -48.900 -11.912  1.00  0.00     0.000 C 
BRANCH   4   5
ATOM      5  C   UNL     1      40.808 -49.013 -11.905  1.00  0.00     0.000 C 
BRANCH   5   6
ATOM      6  C   UNL     1      41.558 -47.717 -11.547  1.00  0.00     0.000 C 
BRANCH   6   7
ATOM      7  C   UNL     1      41.876 -46.849 -12.778  1.00  0.00     0.000 C 
BRANCH   7   8
ATOM      8  C   UNL     1      41.265 -45.439 -12.691  1.00  0.00     0.000 C 
BRANCH   8   9
ATOM      9  C   UNL     1      39.850 -45.301 -13.281  1.00  0.00     0.000 C 
BRANCH   9  10
ATOM     10  C   UNL     1      38.855 -44.652 -12.305  1.00  0.00     0.000 C 
BRANCH  10  11
ATOM     11  C   UNL     1      38.553 -45.539 -11.084  1.00  0.00     0.000 C 
BRANCH  11  12
ATOM     12  C   UNL     1      38.999 -44.955  -9.728  1.00  0.00     0.006 C 
BRANCH  12  13
ATOM     13  C   UNL     1      39.852 -45.906  -8.872  1.00  0.00     0.053 C 
BRANCH  13  14
ATOM     14  C   UNL     1      40.552 -45.184  -7.763  1.00  0.00     0.041 C 
ATOM     15  O   UNL     1      41.342 -44.237  -8.021  1.00  0.00    -0.550 OA
ATOM     16  O   UNL     1      40.359 -45.580  -6.445  1.00  0.00    -0.550 OA
ENDBRANCH  13  14
ENDBRANCH  12  13
ENDBRANCH  11  12
ENDBRANCH  10  11
ENDBRANCH   9  10
ENDBRANCH   8   9
ENDBRANCH   7   8
ENDBRANCH   6   7
ENDBRANCH   5   6
ENDBRANCH   4   5
ENDBRANCH   3   4
ENDBRANCH   2   3
ENDBRANCH   1   2
BRANCH   1  17
ATOM     17  C   UNL     1      39.911 -48.786 -17.000  1.00  0.00     0.000 C 
BRANCH  17  18
ATOM     18  C   UNL     1      40.500 -50.197 -16.827  1.00  0.00     0.000 C 
BRANCH  18  19
ATOM     19  C   UNL     1      39.850 -51.220 -17.776  1.00  0.00     0.000 C 
BRANCH  19  20
ATOM     20  C   UNL     1      38.367 -50.904 -18.065  1.00  0.00     0.000 C 
BRANCH  20  21
ATOM     21  C   UNL     1      37.375 -51.838 -17.344  1.00  0.00     0.000 C 
BRANCH  21  22
ATOM     22  C   UNL     1      36.839 -51.309 -16.001  1.00  0.00    -0.000 C 
BRANCH  22  23
ATOM     23  C   UNL     1      35.603 -50.389 -16.102  1.00  0.00    -0.000 C 
BRANCH  23  24
ATOM     24  C   UNL     1      35.780 -48.980 -15.507  1.00  0.00    -0.000 C 
BRANCH  24  25
ATOM     25  C   UNL     1      35.147 -47.878 -16.373  1.00  0.00    -0.000 C 
BRANCH  25  26
ATOM     26  C   UNL     1      36.189 -47.048 -17.144  1.00  0.00    -0.000 C 
BRANCH  26  27
ATOM     27  C   UNL     1      36.833 -47.761 -18.348  1.00  0.00    -0.000 C 
BRANCH  27  28
ATOM     28  C   UNL     1      36.878 -46.882 -19.609  1.00  0.00    -0.000 C 
BRANCH  28  29
ATOM     29  C   UNL     1      38.218 -46.989 -20.354  1.00  0.00    -0.003 C 
ATOM     30  C   UNL     1      38.052 -47.436 -21.805  1.00  0.00     0.004 C 
ENDBRANCH  28  29
ENDBRANCH  27  28
ENDBRANCH  26  27
ENDBRANCH  25  26
ENDBRANCH  24  25
ENDBRANCH  23  24
ENDBRANCH  22  23
ENDBRANCH  21  22
ENDBRANCH  20  21
ENDBRANCH  19  20
ENDBRANCH  18  19
ENDBRANCH  17  18
ENDBRANCH   1  17
TORSDOF 26
ENDMDL
MODEL 5
REMARK VINA RESULT:    -3.504      3.002      6.635
REMARK INTER + INTRA:         -14.106
REMARK INTER:                  -8.312
REMARK INTRA:                  -5.794
REMARK UNBOUND:                -5.276
REMARK SMILES CCCCCCCCCCCCCCCCCCCCCCCCCCCC(=O)[O-]
REMARK SMILES IDX 15 1 16 2 17 3 18 4 19 5 20 6 21 7 22 8 23 9 24 10 25 11
REMARK SMILES IDX 26 12 27 13 28 14 29 15 30 16 14 17 13 18 12 19 11 20 10 21
REMARK SMILES IDX 9 22 8 23 7 24 6 25 5 26 4 27 3 28 2 29 1 30
REMARK H PARENT
REMARK Flexibility Score: inf
ROOT
ATOM      1  C   UNL     1      35.229 -48.364 -16.560  1.00  0.00     0.000 C 
ENDROOT
BRANCH   1   2
ATOM      2  C   UNL     1      36.504 -48.376 -15.689  1.00  0.00     0.000 C 
BRANCH   2   3
ATOM      3  C   UNL     1      36.930 -49.781 -15.222  1.00  0.00     0.000 C 
BRANCH   3   4
ATOM      4  C   UNL     1      36.049 -50.937 -15.731  1.00  0.00     0.000 C 
BRANCH   4   5
ATOM      5  C   UNL     1      36.672 -51.801 -16.848  1.00  0.00     0.000 C 
BRANCH   5   6
ATOM      6  C   UNL     1      38.147 -51.495 -17.168  1.00  0.00     0.000 C 
BRANCH   6   7
ATOM      7  C   UNL     1      38.340 -50.867 -18.559  1.00  0.00     0.000 C 
BRANCH   7   8
ATOM      8  C   UNL     1      39.223 -49.606 -18.530  1.00  0.00     0.000 C 
BRANCH   8   9
ATOM      9  C   UNL     1      40.059 -49.422 -17.251  1.00  0.00     0.000 C 
BRANCH   9  10
ATOM     10  C   UNL     1      40.024 -47.981 -16.715  1.00  0.00     0.000 C 
BRANCH  10  11
ATOM     11  C   UNL     1      40.744 -47.831 -15.362  1.00  0.00     0.000 C 
BRANCH  11  12
ATOM     12  C   UNL     1      40.476 -48.966 -14.352  1.00  0.00     0.006 C 
BRANCH  12  13
ATOM     13  C   UNL     1      40.992 -48.690 -12.930  1.00  0.00     0.053 C 
BRANCH  13  14
ATOM     14  C   UNL     1      39.871 -48.502 -11.956  1.00  0.00     0.041 C 
ATOM     15  O   UNL     1      38.788 -49.131 -12.104  1.00  0.00    -0.550 OA
ATOM     16  O   UNL     1      40.007 -47.606 -10.903  1.00  0.00    -0.550 OA
ENDBRANCH  13  14
ENDBRANCH  12  13
ENDBRANCH  11  12
ENDBRANCH  10  11
ENDBRANCH   9  10
ENDBRANCH   8   9
ENDBRANCH   7   8
ENDBRANCH   6   7
ENDBRANCH   5   6
ENDBRANCH   4   5
ENDBRANCH   3   4
ENDBRANCH   2   3
ENDBRANCH   1   2
BRANCH   1  17
ATOM     17  C   UNL     1      35.527 -48.139 -18.053  1.00  0.00     0.000 C 
BRANCH  17  18
ATOM     18  C   UNL     1      36.593 -47.052 -18.280  1.00  0.00     0.000 C 
BRANCH  18  19
ATOM     19  C   UNL     1      36.750 -46.691 -19.768  1.00  0.00     0.000 C 
BRANCH  19  20
ATOM     20  C   UNL     1      38.227 -46.573 -20.200  1.00  0.00     0.000 C 
BRANCH  20  21
ATOM     21  C   UNL     1      39.047 -45.573 -19.362  1.00  0.00     0.000 C 
BRANCH  21  22
ATOM     22  C   UNL     1      38.970 -44.110 -19.832  1.00  0.00    -0.000 C 
BRANCH  22  23
ATOM     23  C   UNL     1      37.907 -43.245 -19.122  1.00  0.00    -0.000 C 
BRANCH  23  24
ATOM     24  C   UNL     1      38.454 -42.255 -18.076  1.00  0.00    -0.000 C 
BRANCH  24  25
ATOM     25  C   UNL     1      38.010 -42.591 -16.643  1.00  0.00    -0.000 C 
BRANCH  25  26
ATOM     26  C   UNL     1      36.655 -43.320 -16.589  1.00  0.00    -0.000 C 
BRANCH  26  27
ATOM     27  C   UNL     1      36.635 -44.602 -15.736  1.00  0.00    -0.000 C 
BRANCH  27  28
ATOM     28  C   UNL     1      38.044 -45.148 -15.443  1.00  0.00    -0.000 C 
BRANCH  28  29
ATOM     29  C   UNL     1      38.209 -45.598 -13.984  1.00  0.00    -0.003 C 
ATOM     30  C   UNL     1      39.261 -44.784 -13.231  1.00  0.00     0.004 C 
ENDBRANCH  28  29
ENDBRANCH  27  28
ENDBRANCH  26  27
ENDBRANCH  25  26
ENDBRANCH  24  25
ENDBRANCH  23  24
ENDBRANCH  22  23
ENDBRANCH  21  22
ENDBRANCH  20  21
ENDBRANCH  19  20
ENDBRANCH  18  19
ENDBRANCH  17  18
ENDBRANCH   1  17
TORSDOF 26
ENDMDL
MODEL 6
REMARK VINA RESULT:    -3.445      1.493      3.161
REMARK INTER + INTRA:         -13.957
REMARK INTER:                  -8.519
REMARK INTRA:                  -5.437
REMARK UNBOUND:                -5.276
REMARK SMILES CCCCCCCCCCCCCCCCCCCCCCCCCCCC(=O)[O-]
REMARK SMILES IDX 15 1 16 2 17 3 18 4 19 5 20 6 21 7 22 8 23 9 24 10 25 11
REMARK SMILES IDX 26 12 27 13 28 14 29 15 30 16 14 17 13 18 12 19 11 20 10 21
REMARK SMILES IDX 9 22 8 23 7 24 6 25 5 26 4 27 3 28 2 29 1 30
REMARK H PARENT
REMARK Flexibility Score: inf
ROOT
ATOM      1  C   UNL     1      40.657 -48.925 -18.097  1.00  0.00     0.000 C 
ENDROOT
BRANCH   1   2
ATOM      2  C   UNL     1      39.269 -49.325 -17.554  1.00  0.00     0.000 C 
BRANCH   2   3
ATOM      3  C   UNL     1      38.592 -50.464 -18.341  1.00  0.00     0.000 C 
BRANCH   3   4
ATOM      4  C   UNL     1      38.287 -51.734 -17.526  1.00  0.00     0.000 C 
BRANCH   4   5
ATOM      5  C   UNL     1      36.814 -51.904 -17.093  1.00  0.00     0.000 C 
BRANCH   5   6
ATOM      6  C   UNL     1      36.474 -51.354 -15.696  1.00  0.00     0.000 C 
BRANCH   6   7
ATOM      7  C   UNL     1      35.252 -50.419 -15.701  1.00  0.00     0.000 C 
BRANCH   7   8
ATOM      8  C   UNL     1      35.631 -48.940 -15.899  1.00  0.00     0.000 C 
BRANCH   8   9
ATOM      9  C   UNL     1      35.411 -48.393 -17.321  1.00  0.00     0.000 C 
BRANCH   9  10
ATOM     10  C   UNL     1      36.360 -47.233 -17.669  1.00  0.00     0.000 C 
BRANCH  10  11
ATOM     11  C   UNL     1      36.641 -47.127 -19.179  1.00  0.00     0.000 C 
BRANCH  11  12
ATOM     12  C   UNL     1      37.449 -45.884 -19.605  1.00  0.00     0.006 C 
BRANCH  12  13
ATOM     13  C   UNL     1      38.870 -45.815 -19.024  1.00  0.00     0.053 C 
BRANCH  13  14
ATOM     14  C   UNL     1      39.580 -44.561 -19.428  1.00  0.00     0.041 C 
ATOM     15  O   UNL     1      40.777 -44.369 -19.086  1.00  0.00    -0.550 OA
ATOM     16  O   UNL     1      38.907 -43.585 -20.154  1.00  0.00    -0.550 OA
ENDBRANCH  13  14
ENDBRANCH  12  13
ENDBRANCH  11  12
ENDBRANCH  10  11
ENDBRANCH   9  10
ENDBRANCH   8   9
ENDBRANCH   7   8
ENDBRANCH   6   7
ENDBRANCH   5   6
ENDBRANCH   4   5
ENDBRANCH   3   4
ENDBRANCH   2   3
ENDBRANCH   1   2
BRANCH   1  17
ATOM     17  C   UNL     1      41.804 -49.295 -17.139  1.00  0.00     0.000 C 
BRANCH  17  18
ATOM     18  C   UNL     1      41.312 -50.096 -15.920  1.00  0.00     0.000 C 
BRANCH  18  19
ATOM     19  C   UNL     1      42.303 -50.034 -14.744  1.00  0.00     0.000 C 
BRANCH  19  20
ATOM     20  C   UNL     1      42.451 -48.610 -14.165  1.00  0.00     0.000 C 
BRANCH  20  21
ATOM     21  C   UNL     1      42.653 -48.572 -12.638  1.00  0.00     0.000 C 
BRANCH  21  22
ATOM     22  C   UNL     1      41.418 -48.140 -11.826  1.00  0.00    -0.000 C 
BRANCH  22  23
ATOM     23  C   UNL     1      40.294 -49.195 -11.727  1.00  0.00    -0.000 C 
BRANCH  23  24
ATOM     24  C   UNL     1      38.924 -48.750 -12.273  1.00  0.00    -0.000 C 
BRANCH  24  25
ATOM     25  C   UNL     1      38.796 -48.933 -13.794  1.00  0.00    -0.000 C 
BRANCH  25  26
ATOM     26  C   UNL     1      38.559 -47.608 -14.540  1.00  0.00    -0.000 C 
BRANCH  26  27
ATOM     27  C   UNL     1      38.695 -46.339 -13.677  1.00  0.00    -0.000 C 
BRANCH  27  28
ATOM     28  C   UNL     1      39.967 -45.534 -13.993  1.00  0.00    -0.000 C 
BRANCH  28  29
ATOM     29  C   UNL     1      40.120 -45.239 -15.493  1.00  0.00    -0.003 C 
ATOM     30  C   UNL     1      41.409 -45.812 -16.079  1.00  0.00     0.004 C 
ENDBRANCH  28  29
ENDBRANCH  27  28
ENDBRANCH  26  27
ENDBRANCH  25  26
ENDBRANCH  24  25
ENDBRANCH  23  24
ENDBRANCH  22  23
ENDBRANCH  21  22
ENDBRANCH  20  21
ENDBRANCH  19  20
ENDBRANCH  18  19
ENDBRANCH  17  18
ENDBRANCH   1  17
TORSDOF 26
ENDMDL
MODEL 7
REMARK VINA RESULT:    -3.435      3.009      7.378
REMARK INTER + INTRA:         -13.932
REMARK INTER:                  -9.694
REMARK INTRA:                  -4.238
REMARK UNBOUND:                -5.276
REMARK SMILES CCCCCCCCCCCCCCCCCCCCCCCCCCCC(=O)[O-]
REMARK SMILES IDX 15 1 16 2 17 3 18 4 19 5 20 6 21 7 22 8 23 9 24 10 25 11
REMARK SMILES IDX 26 12 27 13 28 14 29 15 30 16 14 17 13 18 12 19 11 20 10 21
REMARK SMILES IDX 9 22 8 23 7 24 6 25 5 26 4 27 3 28 2 29 1 30
REMARK H PARENT
REMARK Flexibility Score: inf
ROOT
ATOM      1  C   UNL     1      35.209 -48.779 -17.368  1.00  0.00     0.000 C 
ENDROOT
BRANCH   1   2
ATOM      2  C   UNL     1      35.936 -47.418 -17.420  1.00  0.00     0.000 C 
BRANCH   2   3
ATOM      3  C   UNL     1      36.281 -46.839 -16.034  1.00  0.00     0.000 C 
BRANCH   3   4
ATOM      4  C   UNL     1      37.785 -46.740 -15.720  1.00  0.00     0.000 C 
BRANCH   4   5
ATOM      5  C   UNL     1      38.213 -47.306 -14.349  1.00  0.00     0.000 C 
BRANCH   5   6
ATOM      6  C   UNL     1      38.568 -48.805 -14.340  1.00  0.00     0.000 C 
BRANCH   6   7
ATOM      7  C   UNL     1      38.340 -49.466 -12.970  1.00  0.00     0.000 C 
BRANCH   7   8
ATOM      8  C   UNL     1      39.424 -49.100 -11.939  1.00  0.00     0.000 C 
BRANCH   8   9
ATOM      9  C   UNL     1      40.862 -49.069 -12.486  1.00  0.00     0.000 C 
BRANCH   9  10
ATOM     10  C   UNL     1      41.805 -48.197 -11.639  1.00  0.00     0.000 C 
BRANCH  10  11
ATOM     11  C   UNL     1      42.112 -46.839 -12.297  1.00  0.00     0.000 C 
BRANCH  11  12
ATOM     12  C   UNL     1      40.957 -45.818 -12.252  1.00  0.00     0.006 C 
BRANCH  12  13
ATOM     13  C   UNL     1      40.751 -45.146 -10.884  1.00  0.00     0.053 C 
BRANCH  13  14
ATOM     14  C   UNL     1      39.602 -45.746 -10.134  1.00  0.00     0.041 C 
ATOM     15  O   UNL     1      38.479 -45.876 -10.690  1.00  0.00    -0.550 OA
ATOM     16  O   UNL     1      39.762 -46.130  -8.808  1.00  0.00    -0.550 OA
ENDBRANCH  13  14
ENDBRANCH  12  13
ENDBRANCH  11  12
ENDBRANCH  10  11
ENDBRANCH   9  10
ENDBRANCH   8   9
ENDBRANCH   7   8
ENDBRANCH   6   7
ENDBRANCH   5   6
ENDBRANCH   4   5
ENDBRANCH   3   4
ENDBRANCH   2   3
ENDBRANCH   1   2
BRANCH   1  17
ATOM     17  C   UNL     1      35.135 -49.364 -15.947  1.00  0.00     0.000 C 
BRANCH  17  18
ATOM     18  C   UNL     1      35.960 -50.656 -15.801  1.00  0.00     0.000 C 
BRANCH  18  19
ATOM     19  C   UNL     1      36.459 -51.184 -17.158  1.00  0.00     0.000 C 
BRANCH  19  20
ATOM     20  C   UNL     1      37.998 -51.299 -17.222  1.00  0.00     0.000 C 
BRANCH  20  21
ATOM     21  C   UNL     1      38.629 -50.591 -18.437  1.00  0.00     0.000 C 
BRANCH  21  22
ATOM     22  C   UNL     1      39.118 -49.155 -18.174  1.00  0.00    -0.000 C 
BRANCH  22  23
ATOM     23  C   UNL     1      39.694 -48.421 -19.405  1.00  0.00    -0.000 C 
BRANCH  23  24
ATOM     24  C   UNL     1      39.041 -48.782 -20.752  1.00  0.00    -0.000 C 
BRANCH  24  25
ATOM     25  C   UNL     1      38.330 -47.590 -21.414  1.00  0.00    -0.000 C 
BRANCH  25  26
ATOM     26  C   UNL     1      37.681 -46.637 -20.393  1.00  0.00    -0.000 C 
BRANCH  26  27
ATOM     27  C   UNL     1      38.459 -45.335 -20.128  1.00  0.00    -0.000 C 
BRANCH  27  28
ATOM     28  C   UNL     1      38.340 -44.852 -18.672  1.00  0.00    -0.000 C 
BRANCH  28  29
ATOM     29  C   UNL     1      37.167 -43.881 -18.468  1.00  0.00    -0.003 C 
ATOM     30  C   UNL     1      37.168 -42.735 -19.479  1.00  0.00     0.004 C 
ENDBRANCH  28  29
ENDBRANCH  27  28
ENDBRANCH  26  27
ENDBRANCH  25  26
ENDBRANCH  24  25
ENDBRANCH  23  24
ENDBRANCH  22  23
ENDBRANCH  21  22
ENDBRANCH  20  21
ENDBRANCH  19  20
ENDBRANCH  18  19
ENDBRANCH  17  18
ENDBRANCH   1  17
TORSDOF 26
ENDMDL
MODEL 8
REMARK VINA RESULT:    -3.430      1.959      5.746
REMARK INTER + INTRA:         -13.920
REMARK INTER:                  -8.087
REMARK INTRA:                  -5.833
REMARK UNBOUND:                -5.276
REMARK SMILES CCCCCCCCCCCCCCCCCCCCCCCCCCCC(=O)[O-]
REMARK SMILES IDX 15 1 16 2 17 3 18 4 19 5 20 6 21 7 22 8 23 9 24 10 25 11
REMARK SMILES IDX 26 12 27 13 28 14 29 15 30 16 14 17 13 18 12 19 11 20 10 21
REMARK SMILES IDX 9 22 8 23 7 24 6 25 5 26 4 27 3 28 2 29 1 30
REMARK H PARENT
REMARK Flexibility Score: inf
ROOT
ATOM      1  C   UNL     1      40.827 -48.367 -15.767  1.00  0.00     0.000 C 
ENDROOT
BRANCH   1   2
ATOM      2  C   UNL     1      40.553 -48.959 -14.368  1.00  0.00     0.000 C 
BRANCH   2   3
ATOM      3  C   UNL     1      39.056 -49.119 -14.037  1.00  0.00     0.000 C 
BRANCH   3   4
ATOM      4  C   UNL     1      38.716 -49.152 -12.536  1.00  0.00     0.000 C 
BRANCH   4   5
ATOM      5  C   UNL     1      39.629 -48.296 -11.632  1.00  0.00     0.000 C 
BRANCH   5   6
ATOM      6  C   UNL     1      39.105 -46.882 -11.320  1.00  0.00     0.000 C 
BRANCH   6   7
ATOM      7  C   UNL     1      40.221 -45.825 -11.279  1.00  0.00     0.000 C 
BRANCH   7   8
ATOM      8  C   UNL     1      40.102 -44.782 -12.406  1.00  0.00     0.000 C 
BRANCH   8   9
ATOM      9  C   UNL     1      40.435 -45.302 -13.816  1.00  0.00     0.000 C 
BRANCH   9  10
ATOM     10  C   UNL     1      39.362 -44.937 -14.856  1.00  0.00     0.000 C 
BRANCH  10  11
ATOM     11  C   UNL     1      38.051 -45.719 -14.659  1.00  0.00     0.000 C 
BRANCH  11  12
ATOM     12  C   UNL     1      36.796 -44.845 -14.453  1.00  0.00     0.006 C 
BRANCH  12  13
ATOM     13  C   UNL     1      37.017 -43.343 -14.694  1.00  0.00     0.053 C 
BRANCH  13  14
ATOM     14  C   UNL     1      36.198 -42.834 -15.839  1.00  0.00     0.041 C 
ATOM     15  O   UNL     1      35.217 -42.072 -15.629  1.00  0.00    -0.550 OA
ATOM     16  O   UNL     1      36.497 -43.230 -17.137  1.00  0.00    -0.550 OA
ENDBRANCH  13  14
ENDBRANCH  12  13
ENDBRANCH  11  12
ENDBRANCH  10  11
ENDBRANCH   9  10
ENDBRANCH   8   9
ENDBRANCH   7   8
ENDBRANCH   6   7
ENDBRANCH   5   6
ENDBRANCH   4   5
ENDBRANCH   3   4
ENDBRANCH   2   3
ENDBRANCH   1   2
BRANCH   1  17
ATOM     17  C   UNL     1      39.578 -48.355 -16.666  1.00  0.00     0.000 C 
BRANCH  17  18
ATOM     18  C   UNL     1      39.871 -48.887 -18.081  1.00  0.00     0.000 C 
BRANCH  18  19
ATOM     19  C   UNL     1      38.966 -50.075 -18.456  1.00  0.00     0.000 C 
BRANCH  19  20
ATOM     20  C   UNL     1      38.519 -50.894 -17.225  1.00  0.00     0.000 C 
BRANCH  20  21
ATOM     21  C   UNL     1      37.383 -51.893 -17.516  1.00  0.00     0.000 C 
BRANCH  21  22
ATOM     22  C   UNL     1      36.214 -51.862 -16.516  1.00  0.00    -0.000 C 
BRANCH  22  23
ATOM     23  C   UNL     1      35.323 -50.602 -16.583  1.00  0.00    -0.000 C 
BRANCH  23  24
ATOM     24  C   UNL     1      35.562 -49.567 -15.469  1.00  0.00    -0.000 C 
BRANCH  24  25
ATOM     25  C   UNL     1      35.703 -48.132 -16.003  1.00  0.00    -0.000 C 
BRANCH  25  26
ATOM     26  C   UNL     1      35.796 -48.070 -17.538  1.00  0.00    -0.000 C 
BRANCH  26  27
ATOM     27  C   UNL     1      36.601 -46.882 -18.098  1.00  0.00    -0.000 C 
BRANCH  27  28
ATOM     28  C   UNL     1      36.843 -46.984 -19.613  1.00  0.00    -0.000 C 
BRANCH  28  29
ATOM     29  C   UNL     1      38.133 -46.276 -20.052  1.00  0.00    -0.003 C 
ATOM     30  C   UNL     1      38.730 -45.400 -18.951  1.00  0.00     0.004 C 
ENDBRANCH  28  29
ENDBRANCH  27  28
ENDBRANCH  26  27
ENDBRANCH  25  26
ENDBRANCH  24  25
ENDBRANCH  23  24
ENDBRANCH  22  23
ENDBRANCH  21  22
ENDBRANCH  20  21
ENDBRANCH  19  20
ENDBRANCH  18  19
ENDBRANCH  17  18
ENDBRANCH   1  17
TORSDOF 26
ENDMDL
MODEL 9
REMARK VINA RESULT:    -3.416      1.492      3.305
REMARK INTER + INTRA:         -13.883
REMARK INTER:                  -8.300
REMARK INTRA:                  -5.583
REMARK UNBOUND:                -5.276
REMARK SMILES CCCCCCCCCCCCCCCCCCCCCCCCCCCC(=O)[O-]
REMARK SMILES IDX 15 1 16 2 17 3 18 4 19 5 20 6 21 7 22 8 23 9 24 10 25 11
REMARK SMILES IDX 26 12 27 13 28 14 29 15 30 16 14 17 13 18 12 19 11 20 10 21
REMARK SMILES IDX 9 22 8 23 7 24 6 25 5 26 4 27 3 28 2 29 1 30
REMARK H PARENT
REMARK Flexibility Score: inf
ROOT
ATOM      1  C   UNL     1      39.027 -49.489 -17.844  1.00  0.00     0.000 C 
ENDROOT
BRANCH   1   2
ATOM      2  C   UNL     1      38.596 -50.705 -16.994  1.00  0.00     0.000 C 
BRANCH   2   3
ATOM      3  C   UNL     1      37.307 -51.390 -17.490  1.00  0.00     0.000 C 
BRANCH   3   4
ATOM      4  C   UNL     1      36.319 -51.805 -16.386  1.00  0.00     0.000 C 
BRANCH   4   5
ATOM      5  C   UNL     1      36.067 -50.746 -15.291  1.00  0.00     0.000 C 
BRANCH   5   6
ATOM      6  C   UNL     1      35.007 -49.684 -15.636  1.00  0.00     0.000 C 
BRANCH   6   7
ATOM      7  C   UNL     1      35.621 -48.337 -16.052  1.00  0.00     0.000 C 
BRANCH   7   8
ATOM      8  C   UNL     1      35.540 -48.083 -17.569  1.00  0.00     0.000 C 
BRANCH   8   9
ATOM      9  C   UNL     1      36.399 -46.915 -18.083  1.00  0.00     0.000 C 
BRANCH   9  10
ATOM     10  C   UNL     1      36.778 -47.058 -19.567  1.00  0.00     0.000 C 
BRANCH  10  11
ATOM     11  C   UNL     1      38.101 -46.353 -19.915  1.00  0.00     0.000 C 
BRANCH  11  12
ATOM     12  C   UNL     1      38.527 -45.244 -18.931  1.00  0.00     0.006 C 
BRANCH  12  13
ATOM     13  C   UNL     1      38.709 -43.858 -19.570  1.00  0.00     0.053 C 
BRANCH  13  14
ATOM     14  C   UNL     1      40.139 -43.414 -19.545  1.00  0.00     0.041 C 
ATOM     15  O   UNL     1      41.023 -44.148 -19.027  1.00  0.00    -0.550 OA
ATOM     16  O   UNL     1      40.490 -42.173 -20.063  1.00  0.00    -0.550 OA
ENDBRANCH  13  14
ENDBRANCH  12  13
ENDBRANCH  11  12
ENDBRANCH  10  11
ENDBRANCH   9  10
ENDBRANCH   8   9
ENDBRANCH   7   8
ENDBRANCH   6   7
ENDBRANCH   5   6
ENDBRANCH   4   5
ENDBRANCH   3   4
ENDBRANCH   2   3
ENDBRANCH   1   2
BRANCH   1  17
ATOM     17  C   UNL     1      40.541 -49.456 -18.115  1.00  0.00     0.000 C 
BRANCH  17  18
ATOM     18  C   UNL     1      41.290 -50.595 -17.400  1.00  0.00     0.000 C 
BRANCH  18  19
ATOM     19  C   UNL     1      42.439 -50.074 -16.519  1.00  0.00     0.000 C 
BRANCH  19  20
ATOM     20  C   UNL     1      42.272 -50.461 -15.033  1.00  0.00     0.000 C 
BRANCH  20  21
ATOM     21  C   UNL     1      42.385 -49.273 -14.059  1.00  0.00     0.000 C 
BRANCH  21  22
ATOM     22  C   UNL     1      42.455 -47.887 -14.725  1.00  0.00    -0.000 C 
BRANCH  22  23
ATOM     23  C   UNL     1      42.134 -46.694 -13.798  1.00  0.00    -0.000 C 
BRANCH  23  24
ATOM     24  C   UNL     1      41.010 -45.762 -14.288  1.00  0.00    -0.000 C 
BRANCH  24  25
ATOM     25  C   UNL     1      40.441 -46.176 -15.655  1.00  0.00    -0.000 C 
BRANCH  25  26
ATOM     26  C   UNL     1      39.025 -46.771 -15.560  1.00  0.00    -0.000 C 
BRANCH  26  27
ATOM     27  C   UNL     1      38.602 -47.230 -14.152  1.00  0.00    -0.000 C 
BRANCH  27  28
ATOM     28  C   UNL     1      38.742 -48.749 -13.950  1.00  0.00    -0.000 C 
BRANCH  28  29
ATOM     29  C   UNL     1      38.960 -49.129 -12.478  1.00  0.00    -0.003 C 
ATOM     30  C   UNL     1      39.327 -47.929 -11.607  1.00  0.00     0.004 C 
ENDBRANCH  28  29
ENDBRANCH  27  28
ENDBRANCH  26  27
ENDBRANCH  25  26
ENDBRANCH  24  25
ENDBRANCH  23  24
ENDBRANCH  22  23
ENDBRANCH  21  22
ENDBRANCH  20  21
ENDBRANCH  19  20
ENDBRANCH  18  19
ENDBRANCH  17  18
ENDBRANCH   1  17
TORSDOF 26
ENDMDL
