MODEL 1
REMARK VINA RESULT:    -3.804      0.000      0.000
REMARK INTER + INTRA:          -5.189
REMARK INTER:                  -4.694
REMARK INTRA:                  -0.495
REMARK UNBOUND:                -0.495
REMARK SMILES C=CC[C@@H](C)C(=O)CC
REMARK SMILES IDX 4 1 5 2 6 3 7 4 8 5 9 6 3 7 2 8 1 9
REMARK H PARENT
REMARK Flexibility Score: inf
ROOT
ATOM      1  C   UNL     1      21.870  -1.589   7.635  1.00  0.00     0.057 C 
ATOM      2  C   UNL     1      21.435  -1.658   6.164  1.00  0.00     0.016 C 
ENDROOT
BRANCH   1   3
ATOM      3  C   UNL     1      21.715  -2.940   8.302  1.00  0.00     0.135 C 
ATOM      4  O   UNL     1      20.591  -3.355   8.546  1.00  0.00    -0.299 OA
BRANCH   3   5
ATOM      5  C   UNL     1      22.903  -3.778   8.701  1.00  0.00     0.072 C 
ATOM      6  C   UNL     1      23.225  -4.813   7.626  1.00  0.00     0.012 C 
ENDBRANCH   3   5
ENDBRANCH   1   3
BRANCH   1   7
ATOM      7  C   UNL     1      23.318  -1.072   7.785  1.00  0.00     0.038 C 
BRANCH   7   8
ATOM      8  C   UNL     1      24.080  -1.123   6.486  1.00  0.00    -0.034 C 
ATOM      9  C   UNL     1      25.232  -1.789   6.371  1.00  0.00     0.004 C 
ENDBRANCH   7   8
ENDBRANCH   1   7
TORSDOF 4
ENDMDL
MODEL 2
REMARK VINA RESULT:    -3.729      1.243      2.787
REMARK INTER + INTRA:          -5.097
REMARK INTER:                  -4.665
REMARK INTRA:                  -0.432
REMARK UNBOUND:                -0.495
REMARK SMILES C=CC[C@@H](C)C(=O)CC
REMARK SMILES IDX 4 1 5 2 6 3 7 4 8 5 9 6 3 7 2 8 1 9
REMARK H PARENT
REMARK Flexibility Score: inf
ROOT
ATOM      1  C   UNL     1      22.138  -3.351   7.509  1.00  0.00     0.057 C 
ATOM      2  C   UNL     1      22.910  -3.266   8.834  1.00  0.00     0.016 C 
ENDROOT
BRANCH   1   3
ATOM      3  C   UNL     1      20.859  -2.542   7.582  1.00  0.00     0.135 C 
ATOM      4  O   UNL     1      19.921  -2.973   8.236  1.00  0.00    -0.299 OA
BRANCH   3   5
ATOM      5  C   UNL     1      20.697  -1.233   6.851  1.00  0.00     0.072 C 
ATOM      6  C   UNL     1      20.583  -0.070   7.833  1.00  0.00     0.012 C 
ENDBRANCH   3   5
ENDBRANCH   1   3
BRANCH   1   7
ATOM      7  C   UNL     1      22.999  -2.899   6.308  1.00  0.00     0.038 C 
BRANCH   7   8
ATOM      8  C   UNL     1      24.237  -2.157   6.742  1.00  0.00    -0.034 C 
ATOM      9  C   UNL     1      24.379  -0.845   6.537  1.00  0.00     0.004 C 
ENDBRANCH   7   8
ENDBRANCH   1   7
TORSDOF 4
ENDMDL
MODEL 3
REMARK VINA RESULT:    -3.687      1.140      2.848
REMARK INTER + INTRA:          -5.044
REMARK INTER:                  -4.568
REMARK INTRA:                  -0.477
REMARK UNBOUND:                -0.495
REMARK SMILES C=CC[C@@H](C)C(=O)CC
REMARK SMILES IDX 4 1 5 2 6 3 7 4 8 5 9 6 3 7 2 8 1 9
REMARK H PARENT
REMARK Flexibility Score: inf
ROOT
ATOM      1  C   UNL     1      23.168  -2.308   8.404  1.00  0.00     0.057 C 
ATOM      2  C   UNL     1      23.906  -1.104   7.802  1.00  0.00     0.016 C 
ENDROOT
BRANCH   1   3
ATOM      3  C   UNL     1      21.693  -2.257   8.062  1.00  0.00     0.135 C 
ATOM      4  O   UNL     1      20.969  -3.174   8.421  1.00  0.00    -0.299 OA
BRANCH   3   5
ATOM      5  C   UNL     1      21.094  -1.124   7.267  1.00  0.00     0.072 C 
ATOM      6  C   UNL     1      20.678  -1.594   5.876  1.00  0.00     0.012 C 
ENDBRANCH   3   5
ENDBRANCH   1   3
BRANCH   1   7
ATOM      7  C   UNL     1      23.785  -3.650   7.951  1.00  0.00     0.038 C 
BRANCH   7   8
ATOM      8  C   UNL     1      23.757  -3.814   6.454  1.00  0.00    -0.034 C 
ATOM      9  C   UNL     1      23.288  -4.923   5.875  1.00  0.00     0.004 C 
ENDBRANCH   7   8
ENDBRANCH   1   7
TORSDOF 4
ENDMDL
MODEL 4
REMARK VINA RESULT:    -3.682      1.246      2.557
REMARK INTER + INTRA:          -5.038
REMARK INTER:                  -4.783
REMARK INTRA:                  -0.255
REMARK UNBOUND:                -0.495
REMARK SMILES C=CC[C@@H](C)C(=O)CC
REMARK SMILES IDX 4 1 5 2 6 3 7 4 8 5 9 6 3 7 2 8 1 9
REMARK H PARENT
REMARK Flexibility Score: inf
ROOT
ATOM      1  C   UNL     1      21.967  -2.627   6.689  1.00  0.00     0.057 C 
ATOM      2  C   UNL     1      23.372  -2.086   6.388  1.00  0.00     0.016 C 
ENDROOT
BRANCH   1   3
ATOM      3  C   UNL     1      21.915  -3.238   8.075  1.00  0.00     0.135 C 
ATOM      4  O   UNL     1      20.827  -3.468   8.582  1.00  0.00    -0.299 OA
BRANCH   3   5
ATOM      5  C   UNL     1      23.165  -3.547   8.862  1.00  0.00     0.072 C 
ATOM      6  C   UNL     1      23.483  -5.038   8.816  1.00  0.00     0.012 C 
ENDBRANCH   3   5
ENDBRANCH   1   3
BRANCH   1   7
ATOM      7  C   UNL     1      20.882  -1.539   6.535  1.00  0.00     0.038 C 
BRANCH   7   8
ATOM      8  C   UNL     1      21.130  -0.354   7.433  1.00  0.00    -0.034 C 
ATOM      9  C   UNL     1      20.142   0.233   8.112  1.00  0.00     0.004 C 
ENDBRANCH   7   8
ENDBRANCH   1   7
TORSDOF 4
ENDMDL
MODEL 5
REMARK VINA RESULT:    -3.575      1.699      3.079
REMARK INTER + INTRA:          -4.907
REMARK INTER:                  -4.378
REMARK INTRA:                  -0.528
REMARK UNBOUND:                -0.495
REMARK SMILES C=CC[C@@H](C)C(=O)CC
REMARK SMILES IDX 4 1 5 2 6 3 7 4 8 5 9 6 3 7 2 8 1 9
REMARK H PARENT
REMARK Flexibility Score: inf
ROOT
ATOM      1  C   UNL     1      22.861  -2.227   6.300  1.00  0.00     0.057 C 
ATOM      2  C   UNL     1      23.495  -1.260   7.311  1.00  0.00     0.016 C 
ENDROOT
BRANCH   1   3
ATOM      3  C   UNL     1      23.244  -3.658   6.617  1.00  0.00     0.135 C 
ATOM      4  O   UNL     1      22.849  -4.554   5.885  1.00  0.00    -0.299 OA
BRANCH   3   5
ATOM      5  C   UNL     1      24.074  -4.017   7.824  1.00  0.00     0.072 C 
ATOM      6  C   UNL     1      23.217  -4.684   8.896  1.00  0.00     0.012 C 
ENDBRANCH   3   5
ENDBRANCH   1   3
BRANCH   1   7
ATOM      7  C   UNL     1      21.325  -2.076   6.240  1.00  0.00     0.038 C 
BRANCH   7   8
ATOM      8  C   UNL     1      20.710  -1.954   7.610  1.00  0.00    -0.034 C 
ATOM      9  C   UNL     1      19.905  -2.897   8.107  1.00  0.00     0.004 C 
ENDBRANCH   7   8
ENDBRANCH   1   7
TORSDOF 4
ENDMDL
MODEL 6
REMARK VINA RESULT:    -3.450      1.759      3.342
REMARK INTER + INTRA:          -4.752
REMARK INTER:                  -4.381
REMARK INTRA:                  -0.371
REMARK UNBOUND:                -0.495
REMARK SMILES C=CC[C@@H](C)C(=O)CC
REMARK SMILES IDX 4 1 5 2 6 3 7 4 8 5 9 6 3 7 2 8 1 9
REMARK H PARENT
REMARK Flexibility Score: inf
ROOT
ATOM      1  C   UNL     1      22.885  -2.336   7.053  1.00  0.00     0.057 C 
ATOM      2  C   UNL     1      21.597  -1.969   6.302  1.00  0.00     0.016 C 
ENDROOT
BRANCH   1   3
ATOM      3  C   UNL     1      23.894  -1.210   6.966  1.00  0.00     0.135 C 
ATOM      4  O   UNL     1      23.765  -0.240   7.699  1.00  0.00    -0.299 OA
BRANCH   3   5
ATOM      5  C   UNL     1      25.039  -1.234   5.985  1.00  0.00     0.072 C 
ATOM      6  C   UNL     1      26.116  -2.221   6.428  1.00  0.00     0.012 C 
ENDBRANCH   3   5
ENDBRANCH   1   3
BRANCH   1   7
ATOM      7  C   UNL     1      22.609  -2.706   8.527  1.00  0.00     0.038 C 
BRANCH   7   8
ATOM      8  C   UNL     1      23.026  -4.118   8.849  1.00  0.00    -0.034 C 
ATOM      9  C   UNL     1      24.303  -4.504   8.798  1.00  0.00     0.004 C 
ENDBRANCH   7   8
ENDBRANCH   1   7
TORSDOF 4
ENDMDL
MODEL 7
REMARK VINA RESULT:    -3.421      5.365      6.889
REMARK INTER + INTRA:          -4.717
REMARK INTER:                  -4.262
REMARK INTRA:                  -0.455
REMARK UNBOUND:                -0.495
REMARK SMILES C=CC[C@@H](C)C(=O)CC
REMARK SMILES IDX 4 1 5 2 6 3 7 4 8 5 9 6 3 7 2 8 1 9
REMARK H PARENT
REMARK Flexibility Score: inf
ROOT
ATOM      1  C   UNL     1      23.244  -8.973   8.934  1.00  0.00     0.057 C 
ATOM      2  C   UNL     1      22.266  -9.633   7.951  1.00  0.00     0.016 C 
ENDROOT
BRANCH   1   3
ATOM      3  C   UNL     1      22.591  -8.776  10.286  1.00  0.00     0.135 C 
ATOM      4  O   UNL     1      22.037  -9.725  10.822  1.00  0.00    -0.299 OA
BRANCH   3   5
ATOM      5  C   UNL     1      22.578  -7.438  10.982  1.00  0.00     0.072 C 
ATOM      6  C   UNL     1      22.863  -6.308   9.997  1.00  0.00     0.012 C 
ENDBRANCH   3   5
ENDBRANCH   1   3
BRANCH   1   7
ATOM      7  C   UNL     1      24.554  -9.779   9.075  1.00  0.00     0.038 C 
BRANCH   7   8
ATOM      8  C   UNL     1      25.718  -9.097   8.405  1.00  0.00    -0.034 C 
ATOM      9  C   UNL     1      25.679  -7.805   8.068  1.00  0.00     0.004 C 
ENDBRANCH   7   8
ENDBRANCH   1   7
TORSDOF 4
ENDMDL
MODEL 8
REMARK VINA RESULT:    -3.411      1.875      3.587
REMARK INTER + INTRA:          -4.703
REMARK INTER:                  -4.439
REMARK INTRA:                  -0.264
REMARK UNBOUND:                -0.495
REMARK SMILES C=CC[C@@H](C)C(=O)CC
REMARK SMILES IDX 4 1 5 2 6 3 7 4 8 5 9 6 3 7 2 8 1 9
REMARK H PARENT
REMARK Flexibility Score: inf
ROOT
ATOM      1  C   UNL     1      22.836  -2.876   7.477  1.00  0.00     0.057 C 
ATOM      2  C   UNL     1      22.554  -3.948   8.541  1.00  0.00     0.016 C 
ENDROOT
BRANCH   1   3
ATOM      3  C   UNL     1      24.249  -3.008   6.948  1.00  0.00     0.135 C 
ATOM      4  O   UNL     1      24.836  -4.072   7.081  1.00  0.00    -0.299 OA
BRANCH   3   5
ATOM      5  C   UNL     1      24.967  -1.859   6.285  1.00  0.00     0.072 C 
ATOM      6  C   UNL     1      26.472  -2.108   6.243  1.00  0.00     0.012 C 
ENDBRANCH   3   5
ENDBRANCH   1   3
BRANCH   1   7
ATOM      7  C   UNL     1      21.815  -2.928   6.319  1.00  0.00     0.038 C 
BRANCH   7   8
ATOM      8  C   UNL     1      21.008  -1.660   6.214  1.00  0.00    -0.034 C 
ATOM      9  C   UNL     1      20.848  -0.838   7.255  1.00  0.00     0.004 C 
ENDBRANCH   7   8
ENDBRANCH   1   7
TORSDOF 4
ENDMDL
MODEL 9
REMARK VINA RESULT:    -3.400      1.439      2.681
REMARK INTER + INTRA:          -4.690
REMARK INTER:                  -4.444
REMARK INTRA:                  -0.246
REMARK UNBOUND:                -0.495
REMARK SMILES C=CC[C@@H](C)C(=O)CC
REMARK SMILES IDX 4 1 5 2 6 3 7 4 8 5 9 6 3 7 2 8 1 9
REMARK H PARENT
REMARK Flexibility Score: inf
ROOT
ATOM      1  C   UNL     1      23.540  -3.271   7.069  1.00  0.00     0.057 C 
ATOM      2  C   UNL     1      25.040  -3.150   6.761  1.00  0.00     0.016 C 
ENDROOT
BRANCH   1   3
ATOM      3  C   UNL     1      23.312  -4.152   8.280  1.00  0.00     0.135 C 
ATOM      4  O   UNL     1      22.226  -4.120   8.840  1.00  0.00    -0.299 OA
BRANCH   3   5
ATOM      5  C   UNL     1      24.391  -5.049   8.833  1.00  0.00     0.072 C 
ATOM      6  C   UNL     1      23.968  -6.514   8.769  1.00  0.00     0.012 C 
ENDBRANCH   3   5
ENDBRANCH   1   3
BRANCH   1   7
ATOM      7  C   UNL     1      22.878  -1.890   7.269  1.00  0.00     0.038 C 
BRANCH   7   8
ATOM      8  C   UNL     1      21.793  -1.626   6.257  1.00  0.00    -0.034 C 
ATOM      9  C   UNL     1      20.755  -2.452   6.105  1.00  0.00     0.004 C 
ENDBRANCH   7   8
ENDBRANCH   1   7
TORSDOF 4
ENDMDL
