MODEL 1
REMARK VINA RESULT:    29.566      0.000      0.000
REMARK INTER + INTRA:          32.159
REMARK INTER:                  32.159
REMARK INTRA:                   0.000
REMARK UNBOUND:                 0.000
REMARK SMILES Cc1cc(O)c2c(c1)C(=O)c1cc(O)cc(O)c1C2=O
REMARK SMILES IDX 1 1 2 2 8 3 7 4 6 5 4 6 3 7 19 8 20 9 18 10 11 11 9 12 10 13
REMARK SMILES IDX 12 14 13 15 15 16 16 17 5 18 17 20 14 22
REMARK H PARENT 5 19 17 21 14 23
REMARK Flexibility Score: inf
ROOT
ATOM      1  C   UNL     1      19.712  51.009 -17.285  1.00  0.00     0.044 C 
ATOM      2  C   UNL     1      19.537  49.708 -16.559  1.00  0.00    -0.047 A 
ATOM      3  C   UNL     1      20.409  49.358 -15.522  1.00  0.00     0.016 A 
ATOM      4  C   UNL     1      20.271  48.130 -14.854  1.00  0.00     0.038 A 
ATOM      5  C   UNL     1      19.244  47.236 -15.232  1.00  0.00     0.076 A 
ATOM      6  C   UNL     1      18.417  47.559 -16.337  1.00  0.00     0.127 A 
ATOM      7  C   UNL     1      18.560  48.796 -16.974  1.00  0.00     0.050 A 
ATOM      8  C   UNL     1      19.036  46.017 -14.408  1.00  0.00     0.201 C 
ATOM      9  O   UNL     1      17.884  45.516 -14.307  1.00  0.00    -0.288 OA
ATOM     10  C   UNL     1      20.142  45.501 -13.559  1.00  0.00     0.076 A 
ATOM     11  C   UNL     1      21.170  46.398 -13.187  1.00  0.00     0.041 A 
ATOM     12  C   UNL     1      21.204  47.763 -13.762  1.00  0.00     0.194 C 
ATOM     13  O   UNL     1      22.043  48.606 -13.339  1.00  0.00    -0.289 OA
ATOM     14  C   UNL     1      22.158  45.988 -12.276  1.00  0.00     0.059 A 
ATOM     15  C   UNL     1      22.144  44.698 -11.746  1.00  0.00     0.120 A 
ATOM     16  C   UNL     1      21.153  43.795 -12.143  1.00  0.00     0.093 A 
ATOM     17  C   UNL     1      20.170  44.172 -13.064  1.00  0.00     0.131 A 
ENDROOT
BRANCH   6  18
ATOM     18  O   UNL     1      17.472  46.672 -16.859  1.00  0.00    -0.507 OA
ATOM     19  H   UNL     1      17.603  46.161 -17.722  1.00  0.00     0.293 HD
ENDBRANCH   6  18
BRANCH  17  20
ATOM     20  O   UNL     1      19.270  43.190 -13.481  1.00  0.00    -0.507 OA
ATOM     21  H   UNL     1      18.385  43.012 -13.023  1.00  0.00     0.293 HD
ENDBRANCH  17  20
BRANCH  15  22
ATOM     22  O   UNL     1      23.127  44.319 -10.835  1.00  0.00    -0.508 OA
ATOM     23  H   UNL     1      23.378  44.911 -10.050  1.00  0.00     0.293 HD
ENDBRANCH  15  22
TORSDOF 3
ENDMDL
MODEL 2
REMARK VINA RESULT:    29.949      3.548      6.584
REMARK INTER + INTRA:          32.575
REMARK INTER:                  32.575
REMARK INTRA:                   0.000
REMARK UNBOUND:                 0.000
REMARK SMILES Cc1cc(O)c2c(c1)C(=O)c1cc(O)cc(O)c1C2=O
REMARK SMILES IDX 1 1 2 2 8 3 7 4 6 5 4 6 3 7 19 8 20 9 18 10 11 11 9 12 10 13
REMARK SMILES IDX 12 14 13 15 15 16 16 17 5 18 17 20 14 22
REMARK H PARENT 5 19 17 21 14 23
REMARK Flexibility Score: inf
ROOT
ATOM      1  C   UNL     1      15.251  38.939 -11.555  1.00  0.00     0.044 C 
ATOM      2  C   UNL     1      16.003  40.136 -12.057  1.00  0.00    -0.047 A 
ATOM      3  C   UNL     1      17.399  40.104 -12.144  1.00  0.00     0.016 A 
ATOM      4  C   UNL     1      18.115  41.229 -12.587  1.00  0.00     0.038 A 
ATOM      5  C   UNL     1      17.422  42.406 -12.946  1.00  0.00     0.076 A 
ATOM      6  C   UNL     1      16.015  42.460 -12.775  1.00  0.00     0.127 A 
ATOM      7  C   UNL     1      15.322  41.322 -12.353  1.00  0.00     0.050 A 
ATOM      8  C   UNL     1      18.197  43.522 -13.548  1.00  0.00     0.201 C 
ATOM      9  O   UNL     1      17.644  44.296 -14.374  1.00  0.00    -0.288 OA
ATOM     10  C   UNL     1      19.663  43.609 -13.322  1.00  0.00     0.076 A 
ATOM     11  C   UNL     1      20.353  42.429 -12.959  1.00  0.00     0.041 A 
ATOM     12  C   UNL     1      19.594  41.190 -12.670  1.00  0.00     0.194 C 
ATOM     13  O   UNL     1      20.210  40.105 -12.469  1.00  0.00    -0.289 OA
ATOM     14  C   UNL     1      21.755  42.439 -12.871  1.00  0.00     0.059 A 
ATOM     15  C   UNL     1      22.473  43.607 -13.123  1.00  0.00     0.120 A 
ATOM     16  C   UNL     1      21.794  44.786 -13.442  1.00  0.00     0.093 A 
ATOM     17  C   UNL     1      20.397  44.808 -13.516  1.00  0.00     0.131 A 
ENDROOT
BRANCH   6  18
ATOM     18  O   UNL     1      15.273  43.628 -12.975  1.00  0.00    -0.507 OA
ATOM     19  H   UNL     1      15.622  44.553 -12.765  1.00  0.00     0.293 HD
ENDBRANCH   6  18
BRANCH  17  20
ATOM     20  O   UNL     1      19.784  46.040 -13.750  1.00  0.00    -0.507 OA
ATOM     21  H   UNL     1      19.126  46.203 -14.501  1.00  0.00     0.293 HD
ENDBRANCH  17  20
BRANCH  15  22
ATOM     22  O   UNL     1      23.864  43.589 -13.041  1.00  0.00    -0.508 OA
ATOM     23  H   UNL     1      24.416  42.910 -13.553  1.00  0.00     0.293 HD
ENDBRANCH  15  22
TORSDOF 3
ENDMDL
MODEL 3
REMARK VINA RESULT:    32.465      3.202      5.698
REMARK INTER + INTRA:          35.312
REMARK INTER:                  35.312
REMARK INTRA:                   0.000
REMARK UNBOUND:                 0.000
REMARK SMILES Cc1cc(O)c2c(c1)C(=O)c1cc(O)cc(O)c1C2=O
REMARK SMILES IDX 1 1 2 2 8 3 7 4 6 5 4 6 3 7 19 8 20 9 18 10 11 11 9 12 10 13
REMARK SMILES IDX 12 14 13 15 15 16 16 17 5 18 17 20 14 22
REMARK H PARENT 5 19 17 21 14 23
REMARK Flexibility Score: inf
ROOT
ATOM      1  C   UNL     1      20.352  47.796 -14.252  1.00  0.00     0.044 C 
ATOM      2  C   UNL     1      20.241  46.337 -13.923  1.00  0.00    -0.047 A 
ATOM      3  C   UNL     1      18.992  45.704 -13.944  1.00  0.00     0.016 A 
ATOM      4  C   UNL     1      18.873  44.344 -13.610  1.00  0.00     0.038 A 
ATOM      5  C   UNL     1      20.023  43.607 -13.247  1.00  0.00     0.076 A 
ATOM      6  C   UNL     1      21.270  44.274 -13.146  1.00  0.00     0.127 A 
ATOM      7  C   UNL     1      21.368  45.622 -13.503  1.00  0.00     0.050 A 
ATOM      8  C   UNL     1      19.882  42.141 -13.045  1.00  0.00     0.201 C 
ATOM      9  O   UNL     1      20.854  41.378 -13.289  1.00  0.00    -0.288 OA
ATOM     10  C   UNL     1      18.547  41.563 -12.740  1.00  0.00     0.076 A 
ATOM     11  C   UNL     1      17.400  42.306 -13.100  1.00  0.00     0.041 A 
ATOM     12  C   UNL     1      17.547  43.683 -13.627  1.00  0.00     0.194 C 
ATOM     13  O   UNL     1      16.539  44.302 -14.068  1.00  0.00    -0.289 OA
ATOM     14  C   UNL     1      16.124  41.736 -12.954  1.00  0.00     0.059 A 
ATOM     15  C   UNL     1      15.977  40.448 -12.440  1.00  0.00     0.120 A 
ATOM     16  C   UNL     1      17.106  39.725 -12.044  1.00  0.00     0.093 A 
ATOM     17  C   UNL     1      18.386  40.278 -12.160  1.00  0.00     0.131 A 
ENDROOT
BRANCH   6  18
ATOM     18  O   UNL     1      22.424  43.651 -12.663  1.00  0.00    -0.507 OA
ATOM     19  H   UNL     1      22.432  43.037 -11.860  1.00  0.00     0.293 HD
ENDBRANCH   6  18
BRANCH  17  20
ATOM     20  O   UNL     1      19.456  39.533 -11.660  1.00  0.00    -0.507 OA
ATOM     21  H   UNL     1      20.409  39.638 -11.983  1.00  0.00     0.293 HD
ENDBRANCH  17  20
BRANCH  15  22
ATOM     22  O   UNL     1      14.703  39.899 -12.316  1.00  0.00    -0.508 OA
ATOM     23  H   UNL     1      14.122  40.087 -11.507  1.00  0.00     0.293 HD
ENDBRANCH  15  22
TORSDOF 3
ENDMDL
MODEL 4
REMARK VINA RESULT:    32.541      1.414      6.176
REMARK INTER + INTRA:          35.395
REMARK INTER:                  35.395
REMARK INTRA:                   0.000
REMARK UNBOUND:                 0.000
REMARK SMILES Cc1cc(O)c2c(c1)C(=O)c1cc(O)cc(O)c1C2=O
REMARK SMILES IDX 1 1 2 2 8 3 7 4 6 5 4 6 3 7 19 8 20 9 18 10 11 11 9 12 10 13
REMARK SMILES IDX 12 14 13 15 15 16 16 17 5 18 17 20 14 22
REMARK H PARENT 5 19 17 21 14 23
REMARK Flexibility Score: inf
ROOT
ATOM      1  C   UNL     1      19.124  41.326 -12.805  1.00  0.00     0.044 C 
ATOM      2  C   UNL     1      19.632  42.729 -12.956  1.00  0.00    -0.047 A 
ATOM      3  C   UNL     1      18.923  43.655 -13.730  1.00  0.00     0.016 A 
ATOM      4  C   UNL     1      19.405  44.964 -13.900  1.00  0.00     0.038 A 
ATOM      5  C   UNL     1      20.617  45.353 -13.286  1.00  0.00     0.076 A 
ATOM      6  C   UNL     1      21.372  44.387 -12.574  1.00  0.00     0.127 A 
ATOM      7  C   UNL     1      20.863  43.096 -12.400  1.00  0.00     0.050 A 
ATOM      8  C   UNL     1      21.018  46.781 -13.365  1.00  0.00     0.201 C 
ATOM      9  O   UNL     1      21.696  47.295 -12.436  1.00  0.00    -0.288 OA
ATOM     10  C   UNL     1      20.463  47.646 -14.439  1.00  0.00     0.076 A 
ATOM     11  C   UNL     1      19.252  47.252 -15.054  1.00  0.00     0.041 A 
ATOM     12  C   UNL     1      18.652  45.937 -14.728  1.00  0.00     0.194 C 
ATOM     13  O   UNL     1      17.511  45.635 -15.176  1.00  0.00    -0.289 OA
ATOM     14  C   UNL     1      18.625  48.108 -15.974  1.00  0.00     0.059 A 
ATOM     15  C   UNL     1      19.195  49.339 -16.300  1.00  0.00     0.120 A 
ATOM     16  C   UNL     1      20.412  49.714 -15.726  1.00  0.00     0.093 A 
ATOM     17  C   UNL     1      21.067  48.871 -14.823  1.00  0.00     0.131 A 
ENDROOT
BRANCH   6  18
ATOM     18  O   UNL     1      22.642  44.652 -12.056  1.00  0.00    -0.507 OA
ATOM     19  H   UNL     1      23.485  44.201 -12.385  1.00  0.00     0.293 HD
ENDBRANCH   6  18
BRANCH  17  20
ATOM     20  O   UNL     1      22.322  49.273 -14.362  1.00  0.00    -0.507 OA
ATOM     21  H   UNL     1      22.854  50.027 -14.775  1.00  0.00     0.293 HD
ENDBRANCH  17  20
BRANCH  15  22
ATOM     22  O   UNL     1      18.547  50.176 -17.206  1.00  0.00    -0.508 OA
ATOM     23  H   UNL     1      17.562  50.066 -17.419  1.00  0.00     0.293 HD
ENDBRANCH  15  22
TORSDOF 3
ENDMDL
