MODEL 1
REMARK VINA RESULT:    -3.918      0.000      0.000
REMARK INTER + INTRA:          -3.918
REMARK INTER:                  -3.918
REMARK INTRA:                   0.000
REMARK UNBOUND:                 0.000
REMARK SMILES O=C1CCCCC1
REMARK SMILES IDX 5 1 4 2 3 3 2 4 1 5 7 6 6 7
REMARK H PARENT
REMARK Flexibility Score: inf
ROOT
ATOM      1  C   UNL     1      15.989  41.917 -13.686  1.00  0.00     0.001 C 
ATOM      2  C   UNL     1      15.429  42.608 -12.433  1.00  0.00     0.008 C 
ATOM      3  C   UNL     1      14.207  43.472 -12.770  1.00  0.00     0.075 C 
ATOM      4  C   UNL     1      14.513  44.386 -13.925  1.00  0.00     0.132 C 
ATOM      5  O   UNL     1      14.157  45.553 -13.898  1.00  0.00    -0.300 OA
ATOM      6  C   UNL     1      15.178  43.822 -15.150  1.00  0.00     0.075 C 
ATOM      7  C   UNL     1      16.377  42.951 -14.754  1.00  0.00     0.008 C 
ENDROOT
TORSDOF 0
ENDMDL
MODEL 2
REMARK VINA RESULT:    -3.865      1.573      2.801
REMARK INTER + INTRA:          -3.865
REMARK INTER:                  -3.865
REMARK INTRA:                   0.000
REMARK UNBOUND:                 0.000
REMARK SMILES O=C1CCCCC1
REMARK SMILES IDX 5 1 4 2 3 3 2 4 1 5 7 6 6 7
REMARK H PARENT
REMARK Flexibility Score: inf
ROOT
ATOM      1  C   UNL     1      14.063  43.454 -12.760  1.00  0.00     0.001 C 
ATOM      2  C   UNL     1      14.317  44.525 -13.832  1.00  0.00     0.008 C 
ATOM      3  C   UNL     1      14.974  43.923 -15.080  1.00  0.00     0.075 C 
ATOM      4  C   UNL     1      16.174  43.102 -14.696  1.00  0.00     0.132 C 
ATOM      5  O   UNL     1      17.209  43.183 -15.340  1.00  0.00    -0.300 OA
ATOM      6  C   UNL     1      16.056  42.112 -13.570  1.00  0.00     0.075 C 
ATOM      7  C   UNL     1      15.372  42.758 -12.359  1.00  0.00     0.008 C 
ENDROOT
TORSDOF 0
ENDMDL
MODEL 3
REMARK VINA RESULT:    -3.796      2.001      2.770
REMARK INTER + INTRA:          -3.796
REMARK INTER:                  -3.796
REMARK INTRA:                   0.000
REMARK UNBOUND:                 0.000
REMARK SMILES O=C1CCCCC1
REMARK SMILES IDX 5 1 4 2 3 3 2 4 1 5 7 6 6 7
REMARK H PARENT
REMARK Flexibility Score: inf
ROOT
ATOM      1  C   UNL     1      14.614  44.386 -14.215  1.00  0.00     0.001 C 
ATOM      2  C   UNL     1      14.145  43.517 -13.038  1.00  0.00     0.008 C 
ATOM      3  C   UNL     1      15.314  42.750 -12.408  1.00  0.00     0.075 C 
ATOM      4  C   UNL     1      16.099  42.027 -13.468  1.00  0.00     0.132 C 
ATOM      5  O   UNL     1      16.473  40.879 -13.283  1.00  0.00    -0.300 OA
ATOM      6  C   UNL     1      16.497  42.763 -14.717  1.00  0.00     0.075 C 
ATOM      7  C   UNL     1      15.298  43.529 -15.291  1.00  0.00     0.008 C 
ENDROOT
TORSDOF 0
ENDMDL
MODEL 4
REMARK VINA RESULT:    -3.544      1.656      2.912
REMARK INTER + INTRA:          -3.544
REMARK INTER:                  -3.544
REMARK INTRA:                   0.000
REMARK UNBOUND:                 0.000
REMARK SMILES O=C1CCCCC1
REMARK SMILES IDX 5 1 4 2 3 3 2 4 1 5 7 6 6 7
REMARK H PARENT
REMARK Flexibility Score: inf
ROOT
ATOM      1  C   UNL     1      15.168  43.931 -15.412  1.00  0.00     0.001 C 
ATOM      2  C   UNL     1      16.509  43.245 -15.110  1.00  0.00     0.008 C 
ATOM      3  C   UNL     1      16.345  42.134 -14.066  1.00  0.00     0.075 C 
ATOM      4  C   UNL     1      15.603  42.648 -12.864  1.00  0.00     0.132 C 
ATOM      5  O   UNL     1      15.978  42.361 -11.738  1.00  0.00    -0.300 OA
ATOM      6  C   UNL     1      14.342  43.442 -13.065  1.00  0.00     0.075 C 
ATOM      7  C   UNL     1      14.555  44.522 -14.133  1.00  0.00     0.008 C 
ENDROOT
TORSDOF 0
ENDMDL
MODEL 5
REMARK VINA RESULT:    -3.353     14.118     15.189
REMARK INTER + INTRA:          -3.353
REMARK INTER:                  -3.353
REMARK INTRA:                   0.000
REMARK UNBOUND:                 0.000
REMARK SMILES O=C1CCCCC1
REMARK SMILES IDX 5 1 4 2 3 3 2 4 1 5 7 6 6 7
REMARK H PARENT
REMARK Flexibility Score: inf
ROOT
ATOM      1  C   UNL     1      19.757  44.201   1.881  1.00  0.00     0.001 C 
ATOM      2  C   UNL     1      20.577  42.979   1.440  1.00  0.00     0.008 C 
ATOM      3  C   UNL     1      20.275  42.599  -0.015  1.00  0.00     0.075 C 
ATOM      4  C   UNL     1      18.791  42.488  -0.231  1.00  0.00     0.132 C 
ATOM      5  O   UNL     1      18.329  41.562  -0.879  1.00  0.00    -0.300 OA
ATOM      6  C   UNL     1      17.892  43.581   0.280  1.00  0.00     0.075 C 
ATOM      7  C   UNL     1      18.252  43.937   1.727  1.00  0.00     0.008 C 
ENDROOT
TORSDOF 0
ENDMDL
MODEL 6
REMARK VINA RESULT:    -3.347     14.209     15.131
REMARK INTER + INTRA:          -3.347
REMARK INTER:                  -3.347
REMARK INTRA:                   0.000
REMARK UNBOUND:                 0.000
REMARK SMILES O=C1CCCCC1
REMARK SMILES IDX 5 1 4 2 3 3 2 4 1 5 7 6 6 7
REMARK H PARENT
REMARK Flexibility Score: inf
ROOT
ATOM      1  C   UNL     1      16.877  44.853  -0.368  1.00  0.00     0.001 C 
ATOM      2  C   UNL     1      18.123  45.744  -0.484  1.00  0.00     0.008 C 
ATOM      3  C   UNL     1      19.405  44.954  -0.190  1.00  0.00     0.075 C 
ATOM      4  C   UNL     1      19.271  44.201   1.105  1.00  0.00     0.132 C 
ATOM      5  O   UNL     1      20.194  44.180   1.904  1.00  0.00    -0.300 OA
ATOM      6  C   UNL     1      18.026  43.399   1.363  1.00  0.00     0.075 C 
ATOM      7  C   UNL     1      16.778  44.227   1.031  1.00  0.00     0.008 C 
ENDROOT
TORSDOF 0
ENDMDL
MODEL 7
REMARK VINA RESULT:    -3.320     14.266     15.333
REMARK INTER + INTRA:          -3.320
REMARK INTER:                  -3.320
REMARK INTRA:                   0.000
REMARK UNBOUND:                 0.000
REMARK SMILES O=C1CCCCC1
REMARK SMILES IDX 5 1 4 2 3 3 2 4 1 5 7 6 6 7
REMARK H PARENT
REMARK Flexibility Score: inf
ROOT
ATOM      1  C   UNL     1      17.438  43.601   1.455  1.00  0.00     0.001 C 
ATOM      2  C   UNL     1      18.770  43.961   2.131  1.00  0.00     0.008 C 
ATOM      3  C   UNL     1      19.915  44.021   1.113  1.00  0.00     0.075 C 
ATOM      4  C   UNL     1      19.938  42.773   0.273  1.00  0.00     0.132 C 
ATOM      5  O   UNL     1      20.995  42.218   0.022  1.00  0.00    -0.300 OA
ATOM      6  C   UNL     1      18.654  42.272  -0.329  1.00  0.00     0.075 C 
ATOM      7  C   UNL     1      17.540  42.253   0.725  1.00  0.00     0.008 C 
ENDROOT
TORSDOF 0
ENDMDL
MODEL 8
REMARK VINA RESULT:    -3.261     13.818     14.592
REMARK INTER + INTRA:          -3.261
REMARK INTER:                  -3.261
REMARK INTRA:                   0.000
REMARK UNBOUND:                 0.000
REMARK SMILES O=C1CCCCC1
REMARK SMILES IDX 5 1 4 2 3 3 2 4 1 5 7 6 6 7
REMARK H PARENT
REMARK Flexibility Score: inf
ROOT
ATOM      1  C   UNL     1      19.548  44.302   1.166  1.00  0.00     0.001 C 
ATOM      2  C   UNL     1      19.420  44.940  -0.226  1.00  0.00     0.008 C 
ATOM      3  C   UNL     1      18.032  45.560  -0.431  1.00  0.00     0.075 C 
ATOM      4  C   UNL     1      16.958  44.570  -0.078  1.00  0.00     0.132 C 
ATOM      5  O   UNL     1      15.974  44.446  -0.791  1.00  0.00    -0.300 OA
ATOM      6  C   UNL     1      17.062  43.802   1.211  1.00  0.00     0.075 C 
ATOM      7  C   UNL     1      18.473  43.224   1.376  1.00  0.00     0.008 C 
ENDROOT
TORSDOF 0
ENDMDL
MODEL 9
REMARK VINA RESULT:    -3.211      1.253      2.292
REMARK INTER + INTRA:          -3.211
REMARK INTER:                  -3.211
REMARK INTRA:                   0.000
REMARK UNBOUND:                 0.000
REMARK SMILES O=C1CCCCC1
REMARK SMILES IDX 5 1 4 2 3 3 2 4 1 5 7 6 6 7
REMARK H PARENT
REMARK Flexibility Score: inf
ROOT
ATOM      1  C   UNL     1      14.886  42.580 -12.373  1.00  0.00     0.001 C 
ATOM      2  C   UNL     1      15.738  41.774 -13.365  1.00  0.00     0.008 C 
ATOM      3  C   UNL     1      16.512  42.698 -14.315  1.00  0.00     0.075 C 
ATOM      4  C   UNL     1      15.586  43.708 -14.935  1.00  0.00     0.132 C 
ATOM      5  O   UNL     1      15.667  43.970 -16.125  1.00  0.00    -0.300 OA
ATOM      6  C   UNL     1      14.624  44.458 -14.056  1.00  0.00     0.075 C 
ATOM      7  C   UNL     1      13.896  43.492 -13.113  1.00  0.00     0.008 C 
ENDROOT
TORSDOF 0
ENDMDL
