MODEL 1
REMARK VINA RESULT:    -6.696      0.000      0.000
REMARK INTER + INTRA:          -8.613
REMARK INTER:                  -7.871
REMARK INTRA:                  -0.742
REMARK UNBOUND:                -0.742
REMARK SMILES C=C(C)[C@H]1CC[C@@]2(C(=O)[O-])CC[C@]3(C)[C@H](CC[C@H]4[C@@]5(C)C[C@@H](O)[C@H](O)C(C)(C)[C@H]5CC[C@@]43C)[C@@H]12
REMARK SMILES IDX 7 1 6 2 34 3 11 4 5 5 15 6 4 7 12 8 16 9 13 10 17 11 32 12
REMARK SMILES IDX 14 13 18 14 31 15 33 16 19 17 30 18 29 19 21 20 20 21 26 22
REMARK SMILES IDX 22 23 24 24 27 25 28 26 8 27 9 28 10 29 2 30 3 31 1 32 23 33
REMARK SMILES IDX 25 35
REMARK H PARENT 23 34 25 36
REMARK Flexibility Score: inf
ROOT
ATOM      1  C   UNL     1      15.079 -28.487  18.808  1.00  0.00     0.014 C 
ATOM      2  C   UNL     1      15.149 -28.580  17.264  1.00  0.00     0.014 C 
ATOM      3  C   UNL     1      13.904 -29.446  19.241  1.00  0.00     0.012 C 
ATOM      4  C   UNL     1      14.814 -27.003  19.241  1.00  0.00     0.014 C 
ATOM      5  C   UNL     1      14.447 -29.868  16.876  1.00  0.00     0.009 C 
ATOM      6  C   UNL     1      12.863 -28.742  20.167  1.00  0.00     0.000 C 
ATOM      7  C   UNL     1      13.359 -30.094  17.925  1.00  0.00     0.018 C 
ATOM      8  C   UNL     1      14.332 -26.779  20.707  1.00  0.00     0.008 C 
ATOM      9  C   UNL     1      11.677 -29.608  20.640  1.00  0.00     0.005 C 
ATOM     10  C   UNL     1      13.539 -27.962  21.374  1.00  0.00    -0.024 C 
ATOM     11  C   UNL     1      10.540 -28.715  21.224  1.00  0.00     0.005 C 
ATOM     12  C   UNL     1      12.408 -27.473  22.461  1.00  0.00    -0.024 C 
ATOM     13  C   UNL     1      14.602 -28.846  22.110  1.00  0.00     0.012 C 
ATOM     14  C   UNL     1      11.040 -27.309  21.716  1.00  0.00     0.002 C 
ATOM     15  C   UNL     1      12.781 -26.134  23.187  1.00  0.00     0.008 C 
ATOM     16  C   UNL     1      12.243 -28.551  23.612  1.00  0.00     0.012 C 
ATOM     17  C   UNL     1       9.969 -26.303  22.337  1.00  0.00    -0.023 C 
ATOM     18  C   UNL     1      12.118 -24.826  22.696  1.00  0.00     0.005 C 
ATOM     19  C   UNL     1      10.593 -24.844  22.283  1.00  0.00     0.004 C 
ATOM     20  C   UNL     1       9.550 -26.627  23.803  1.00  0.00     0.042 C 
ATOM     21  C   UNL     1       8.704 -26.408  21.429  1.00  0.00     0.012 C 
ATOM     22  C   UNL     1       9.729 -23.693  22.990  1.00  0.00    -0.003 C 
ATOM     23  C   UNL     1       8.642 -25.556  24.446  1.00  0.00     0.144 C 
ATOM     24  C   UNL     1       9.327 -24.162  24.424  1.00  0.00     0.149 C 
ATOM     25  C   UNL     1       8.468 -23.316  22.138  1.00  0.00     0.014 C 
ATOM     26  C   UNL     1      10.541 -22.362  23.113  1.00  0.00     0.014 C 
ENDROOT
BRANCH   1  27
ATOM     27  C   UNL     1      16.430 -28.974  19.323  1.00  0.00     0.048 C 
ATOM     28  O   UNL     1      17.367 -28.155  19.520  1.00  0.00    -0.550 OA
ATOM     29  O   UNL     1      16.629 -30.309  19.656  1.00  0.00    -0.550 OA
ENDBRANCH   1  27
BRANCH   7  30
ATOM     30  C   UNL     1      11.991 -29.638  17.392  1.00  0.00    -0.077 C 
ATOM     31  C   UNL     1      10.879 -30.647  17.237  1.00  0.00     0.039 C 
ATOM     32  C   UNL     1      11.757 -28.384  16.968  1.00  0.00     0.008 C 
ENDBRANCH   7  30
BRANCH  23  33
ATOM     33  O   UNL     1       8.325 -25.925  25.767  1.00  0.00    -0.390 OA
ATOM     34  H   UNL     1       8.616 -25.190  26.369  1.00  0.00     0.211 HD
ENDBRANCH  23  33
BRANCH  24  35
ATOM     35  O   UNL     1       8.540 -23.196  25.082  1.00  0.00    -0.390 OA
ATOM     36  H   UNL     1       7.588 -23.369  24.865  1.00  0.00     0.211 HD
ENDBRANCH  24  35
TORSDOF 4
ENDMDL
MODEL 2
REMARK VINA RESULT:    -6.376      3.963      6.662
REMARK INTER + INTRA:          -8.236
REMARK INTER:                  -7.491
REMARK INTRA:                  -0.745
REMARK UNBOUND:                -0.742
REMARK SMILES C=C(C)[C@H]1CC[C@@]2(C(=O)[O-])CC[C@]3(C)[C@H](CC[C@H]4[C@@]5(C)C[C@@H](O)[C@H](O)C(C)(C)[C@H]5CC[C@@]43C)[C@@H]12
REMARK SMILES IDX 7 1 6 2 34 3 11 4 5 5 15 6 4 7 12 8 16 9 13 10 17 11 32 12
REMARK SMILES IDX 14 13 18 14 31 15 33 16 19 17 30 18 29 19 21 20 20 21 26 22
REMARK SMILES IDX 22 23 24 24 27 25 28 26 8 27 9 28 10 29 2 30 3 31 1 32 23 33
REMARK SMILES IDX 25 35
REMARK H PARENT 23 34 25 36
REMARK Flexibility Score: inf
ROOT
ATOM      1  C   UNL     1       9.588 -29.403  21.501  1.00  0.00     0.014 C 
ATOM      2  C   UNL     1      10.489 -30.379  20.705  1.00  0.00     0.014 C 
ATOM      3  C   UNL     1      10.515 -28.186  21.888  1.00  0.00     0.012 C 
ATOM      4  C   UNL     1       9.009 -30.125  22.767  1.00  0.00     0.014 C 
ATOM      5  C   UNL     1      11.675 -29.571  20.214  1.00  0.00     0.009 C 
ATOM      6  C   UNL     1      10.475 -27.861  23.415  1.00  0.00     0.000 C 
ATOM      7  C   UNL     1      11.917 -28.487  21.264  1.00  0.00     0.018 C 
ATOM      8  C   UNL     1       8.408 -29.211  23.878  1.00  0.00     0.008 C 
ATOM      9  C   UNL     1      11.353 -26.683  23.884  1.00  0.00     0.005 C 
ATOM     10  C   UNL     1       8.995 -27.755  23.984  1.00  0.00    -0.024 C 
ATOM     11  C   UNL     1      11.520 -26.702  25.433  1.00  0.00     0.005 C 
ATOM     12  C   UNL     1       8.999 -27.151  25.512  1.00  0.00    -0.024 C 
ATOM     13  C   UNL     1       8.092 -26.848  23.081  1.00  0.00     0.012 C 
ATOM     14  C   UNL     1      10.378 -27.485  26.175  1.00  0.00     0.002 C 
ATOM     15  C   UNL     1       7.833 -27.703  26.402  1.00  0.00     0.008 C 
ATOM     16  C   UNL     1       8.807 -25.577  25.485  1.00  0.00     0.012 C 
ATOM     17  C   UNL     1      10.437 -27.573  27.768  1.00  0.00    -0.023 C 
ATOM     18  C   UNL     1       8.154 -28.833  27.409  1.00  0.00     0.005 C 
ATOM     19  C   UNL     1       9.511 -28.783  28.215  1.00  0.00     0.004 C 
ATOM     20  C   UNL     1       9.980 -26.279  28.506  1.00  0.00     0.042 C 
ATOM     21  C   UNL     1      11.931 -27.845  28.127  1.00  0.00     0.012 C 
ATOM     22  C   UNL     1       9.319 -28.961  29.797  1.00  0.00    -0.003 C 
ATOM     23  C   UNL     1       9.885 -26.433  30.039  1.00  0.00     0.144 C 
ATOM     24  C   UNL     1       8.919 -27.587  30.423  1.00  0.00     0.149 C 
ATOM     25  C   UNL     1      10.610 -29.541  30.471  1.00  0.00     0.014 C 
ATOM     26  C   UNL     1       8.196 -30.000  30.123  1.00  0.00     0.014 C 
ENDROOT
BRANCH   1  27
ATOM     27  C   UNL     1       8.470 -28.987  20.549  1.00  0.00     0.048 C 
ATOM     28  O   UNL     1       7.371 -29.602  20.554  1.00  0.00    -0.550 OA
ATOM     29  O   UNL     1       8.614 -27.881  19.718  1.00  0.00    -0.550 OA
ENDBRANCH   1  27
BRANCH   7  30
ATOM     30  C   UNL     1      13.069 -28.889  22.199  1.00  0.00    -0.077 C 
ATOM     31  C   UNL     1      14.306 -28.027  22.272  1.00  0.00     0.039 C 
ATOM     32  C   UNL     1      13.068 -30.035  22.903  1.00  0.00     0.008 C 
ENDBRANCH   7  30
BRANCH  23  33
ATOM     33  O   UNL     1       9.456 -25.224  30.617  1.00  0.00    -0.390 OA
ATOM     34  H   UNL     1       9.189 -25.410  31.557  1.00  0.00     0.211 HD
ENDBRANCH  23  33
BRANCH  24  35
ATOM     35  O   UNL     1       8.763 -27.681  31.820  1.00  0.00    -0.390 OA
ATOM     36  H   UNL     1       8.699 -28.639  32.063  1.00  0.00     0.211 HD
ENDBRANCH  24  35
TORSDOF 4
ENDMDL
MODEL 3
REMARK VINA RESULT:    -6.289      1.813      7.733
REMARK INTER + INTRA:          -8.134
REMARK INTER:                  -7.429
REMARK INTRA:                  -0.705
REMARK UNBOUND:                -0.742
REMARK SMILES C=C(C)[C@H]1CC[C@@]2(C(=O)[O-])CC[C@]3(C)[C@H](CC[C@H]4[C@@]5(C)C[C@@H](O)[C@H](O)C(C)(C)[C@H]5CC[C@@]43C)[C@@H]12
REMARK SMILES IDX 7 1 6 2 34 3 11 4 5 5 15 6 4 7 12 8 16 9 13 10 17 11 32 12
REMARK SMILES IDX 14 13 18 14 31 15 33 16 19 17 30 18 29 19 21 20 20 21 26 22
REMARK SMILES IDX 22 23 24 24 27 25 28 26 8 27 9 28 10 29 2 30 3 31 1 32 23 33
REMARK SMILES IDX 25 35
REMARK H PARENT 23 34 25 36
REMARK Flexibility Score: inf
ROOT
ATOM      1  C   UNL     1      10.007 -27.334  24.154  1.00  0.00     0.014 C 
ATOM      2  C   UNL     1       8.464 -27.341  24.025  1.00  0.00     0.014 C 
ATOM      3  C   UNL     1      10.503 -26.119  23.279  1.00  0.00     0.012 C 
ATOM      4  C   UNL     1      10.589 -28.699  23.646  1.00  0.00     0.014 C 
ATOM      5  C   UNL     1       8.062 -25.953  23.563  1.00  0.00     0.009 C 
ATOM      6  C   UNL     1      11.606 -26.527  22.253  1.00  0.00     0.000 C 
ATOM      7  C   UNL     1       9.217 -25.438  22.705  1.00  0.00     0.018 C 
ATOM      8  C   UNL     1      12.116 -28.734  23.337  1.00  0.00     0.008 C 
ATOM      9  C   UNL     1      12.151 -25.399  21.353  1.00  0.00     0.005 C 
ATOM     10  C   UNL     1      12.779 -27.372  22.912  1.00  0.00    -0.024 C 
ATOM     11  C   UNL     1      12.944 -25.989  20.147  1.00  0.00     0.005 C 
ATOM     12  C   UNL     1      14.035 -27.543  21.866  1.00  0.00    -0.024 C 
ATOM     13  C   UNL     1      13.302 -26.706  24.229  1.00  0.00     0.012 C 
ATOM     14  C   UNL     1      13.482 -27.442  20.404  1.00  0.00     0.002 C 
ATOM     15  C   UNL     1      14.816 -28.891  22.047  1.00  0.00     0.008 C 
ATOM     16  C   UNL     1      15.105 -26.395  22.094  1.00  0.00     0.012 C 
ATOM     17  C   UNL     1      14.313 -28.153  19.242  1.00  0.00    -0.023 C 
ATOM     18  C   UNL     1      14.520 -30.045  21.061  1.00  0.00     0.005 C 
ATOM     19  C   UNL     1      14.301 -29.715  19.532  1.00  0.00     0.004 C 
ATOM     20  C   UNL     1      15.788 -27.669  19.110  1.00  0.00     0.042 C 
ATOM     21  C   UNL     1      13.564 -27.822  17.914  1.00  0.00     0.012 C 
ATOM     22  C   UNL     1      15.202 -30.609  18.552  1.00  0.00    -0.003 C 
ATOM     23  C   UNL     1      16.624 -28.479  18.096  1.00  0.00     0.144 C 
ATOM     24  C   UNL     1      16.632 -29.988  18.462  1.00  0.00     0.149 C 
ATOM     25  C   UNL     1      14.548 -30.744  17.134  1.00  0.00     0.014 C 
ATOM     26  C   UNL     1      15.331 -32.078  19.075  1.00  0.00     0.014 C 
ENDROOT
BRANCH   1  27
ATOM     27  C   UNL     1      10.307 -27.129  25.636  1.00  0.00     0.048 C 
ATOM     28  O   UNL     1      10.268 -25.974  26.137  1.00  0.00    -0.550 OA
ATOM     29  O   UNL     1      10.553 -28.213  26.472  1.00  0.00    -0.550 OA
ENDBRANCH   1  27
BRANCH   7  30
ATOM     30  C   UNL     1       8.898 -25.610  21.211  1.00  0.00    -0.077 C 
ATOM     31  C   UNL     1       8.825 -24.394  20.320  1.00  0.00     0.039 C 
ATOM     32  C   UNL     1       8.590 -26.799  20.665  1.00  0.00     0.008 C 
ENDBRANCH   7  30
BRANCH  23  33
ATOM     33  O   UNL     1      17.940 -27.980  18.052  1.00  0.00    -0.390 OA
ATOM     34  H   UNL     1      17.975 -27.156  18.607  1.00  0.00     0.211 HD
ENDBRANCH  23  33
BRANCH  24  35
ATOM     35  O   UNL     1      17.460 -30.722  17.589  1.00  0.00    -0.390 OA
ATOM     36  H   UNL     1      16.935 -30.951  16.780  1.00  0.00     0.211 HD
ENDBRANCH  24  35
TORSDOF 4
ENDMDL
MODEL 4
REMARK VINA RESULT:    -6.273      1.893      7.879
REMARK INTER + INTRA:          -8.115
REMARK INTER:                  -8.052
REMARK INTRA:                  -0.063
REMARK UNBOUND:                -0.742
REMARK SMILES C=C(C)[C@H]1CC[C@@]2(C(=O)[O-])CC[C@]3(C)[C@H](CC[C@H]4[C@@]5(C)C[C@@H](O)[C@H](O)C(C)(C)[C@H]5CC[C@@]43C)[C@@H]12
REMARK SMILES IDX 7 1 6 2 34 3 11 4 5 5 15 6 4 7 12 8 16 9 13 10 17 11 32 12
REMARK SMILES IDX 14 13 18 14 31 15 33 16 19 17 30 18 29 19 21 20 20 21 26 22
REMARK SMILES IDX 22 23 24 24 27 25 28 26 8 27 9 28 10 29 2 30 3 31 1 32 23 33
REMARK SMILES IDX 25 35
REMARK H PARENT 23 34 25 36
REMARK Flexibility Score: inf
ROOT
ATOM      1  C   UNL     1       9.766 -23.568  22.104  1.00  0.00     0.014 C 
ATOM      2  C   UNL     1       9.908 -22.732  23.400  1.00  0.00     0.014 C 
ATOM      3  C   UNL     1       9.343 -25.014  22.573  1.00  0.00     0.012 C 
ATOM      4  C   UNL     1      11.127 -23.578  21.326  1.00  0.00     0.014 C 
ATOM      5  C   UNL     1       9.126 -23.464  24.475  1.00  0.00     0.009 C 
ATOM      6  C   UNL     1      10.261 -26.130  21.982  1.00  0.00     0.000 C 
ATOM      7  C   UNL     1       9.217 -24.950  24.131  1.00  0.00     0.018 C 
ATOM      8  C   UNL     1      11.291 -24.666  20.221  1.00  0.00     0.008 C 
ATOM      9  C   UNL     1       9.920 -27.578  22.388  1.00  0.00     0.005 C 
ATOM     10  C   UNL     1      10.468 -25.992  20.413  1.00  0.00    -0.024 C 
ATOM     11  C   UNL     1      11.103 -28.538  22.056  1.00  0.00     0.005 C 
ATOM     12  C   UNL     1      11.206 -27.327  19.802  1.00  0.00    -0.024 C 
ATOM     13  C   UNL     1       9.106 -25.779  19.668  1.00  0.00     0.012 C 
ATOM     14  C   UNL     1      12.059 -27.988  20.937  1.00  0.00     0.002 C 
ATOM     15  C   UNL     1      12.118 -27.020  18.563  1.00  0.00     0.008 C 
ATOM     16  C   UNL     1      10.128 -28.371  19.291  1.00  0.00     0.012 C 
ATOM     17  C   UNL     1      13.308 -28.882  20.507  1.00  0.00    -0.023 C 
ATOM     18  C   UNL     1      13.645 -26.919  18.786  1.00  0.00     0.005 C 
ATOM     19  C   UNL     1      14.348 -27.932  19.773  1.00  0.00     0.004 C 
ATOM     20  C   UNL     1      12.958 -30.077  19.570  1.00  0.00     0.042 C 
ATOM     21  C   UNL     1      13.904 -29.452  21.831  1.00  0.00     0.012 C 
ATOM     22  C   UNL     1      15.624 -28.662  19.134  1.00  0.00    -0.003 C 
ATOM     23  C   UNL     1      14.191 -30.832  19.031  1.00  0.00     0.144 C 
ATOM     24  C   UNL     1      15.143 -29.869  18.268  1.00  0.00     0.149 C 
ATOM     25  C   UNL     1      16.638 -29.120  20.238  1.00  0.00     0.014 C 
ATOM     26  C   UNL     1      16.440 -27.691  18.219  1.00  0.00     0.014 C 
ENDROOT
BRANCH   1  27
ATOM     27  C   UNL     1       8.671 -22.893  21.283  1.00  0.00     0.048 C 
ATOM     28  O   UNL     1       7.598 -22.527  21.834  1.00  0.00    -0.550 OA
ATOM     29  O   UNL     1       8.864 -22.602  19.937  1.00  0.00    -0.550 OA
ENDBRANCH   1  27
BRANCH   7  30
ATOM     30  C   UNL     1      10.294 -25.638  24.985  1.00  0.00    -0.077 C 
ATOM     31  C   UNL     1      11.746 -25.524  24.588  1.00  0.00     0.039 C 
ATOM     32  C   UNL     1       9.997 -26.421  26.037  1.00  0.00     0.008 C 
ENDBRANCH   7  30
BRANCH  23  33
ATOM     33  O   UNL     1      13.781 -31.883  18.189  1.00  0.00    -0.390 OA
ATOM     34  H   UNL     1      13.946 -31.605  17.249  1.00  0.00     0.211 HD
ENDBRANCH  23  33
BRANCH  24  35
ATOM     35  O   UNL     1      16.229 -30.566  17.702  1.00  0.00    -0.390 OA
ATOM     36  H   UNL     1      16.773 -29.924  17.180  1.00  0.00     0.211 HD
ENDBRANCH  24  35
TORSDOF 4
ENDMDL
MODEL 5
REMARK VINA RESULT:    -6.068      1.431      7.833
REMARK INTER + INTRA:          -7.875
REMARK INTER:                  -7.248
REMARK INTRA:                  -0.626
REMARK UNBOUND:                -0.742
REMARK SMILES C=C(C)[C@H]1CC[C@@]2(C(=O)[O-])CC[C@]3(C)[C@H](CC[C@H]4[C@@]5(C)C[C@@H](O)[C@H](O)C(C)(C)[C@H]5CC[C@@]43C)[C@@H]12
REMARK SMILES IDX 7 1 6 2 34 3 11 4 5 5 15 6 4 7 12 8 16 9 13 10 17 11 32 12
REMARK SMILES IDX 14 13 18 14 31 15 33 16 19 17 30 18 29 19 21 20 20 21 26 22
REMARK SMILES IDX 22 23 24 24 27 25 28 26 8 27 9 28 10 29 2 30 3 31 1 32 23 33
REMARK SMILES IDX 25 35
REMARK H PARENT 23 34 25 36
REMARK Flexibility Score: inf
ROOT
ATOM      1  C   UNL     1       9.183 -25.676  23.901  1.00  0.00     0.014 C 
ATOM      2  C   UNL     1       8.194 -24.538  23.549  1.00  0.00     0.014 C 
ATOM      3  C   UNL     1      10.624 -25.064  23.705  1.00  0.00     0.012 C 
ATOM      4  C   UNL     1       8.935 -26.906  22.962  1.00  0.00     0.014 C 
ATOM      5  C   UNL     1       8.971 -23.239  23.658  1.00  0.00     0.009 C 
ATOM      6  C   UNL     1      11.528 -25.942  22.782  1.00  0.00     0.000 C 
ATOM      7  C   UNL     1      10.414 -23.573  23.281  1.00  0.00     0.018 C 
ATOM      8  C   UNL     1      10.065 -27.979  22.903  1.00  0.00     0.008 C 
ATOM      9  C   UNL     1      12.958 -25.419  22.535  1.00  0.00     0.005 C 
ATOM     10  C   UNL     1      11.526 -27.475  23.195  1.00  0.00    -0.024 C 
ATOM     11  C   UNL     1      13.614 -26.157  21.328  1.00  0.00     0.005 C 
ATOM     12  C   UNL     1      12.689 -28.302  22.378  1.00  0.00    -0.024 C 
ATOM     13  C   UNL     1      11.757 -27.661  24.733  1.00  0.00     0.012 C 
ATOM     14  C   UNL     1      12.972 -27.559  21.029  1.00  0.00     0.002 C 
ATOM     15  C   UNL     1      12.305 -29.795  22.092  1.00  0.00     0.008 C 
ATOM     16  C   UNL     1      14.027 -28.359  23.227  1.00  0.00     0.012 C 
ATOM     17  C   UNL     1      13.560 -28.414  19.817  1.00  0.00    -0.023 C 
ATOM     18  C   UNL     1      11.791 -30.160  20.681  1.00  0.00     0.005 C 
ATOM     19  C   UNL     1      12.467 -29.495  19.418  1.00  0.00     0.004 C 
ATOM     20  C   UNL     1      14.906 -29.136  20.126  1.00  0.00     0.042 C 
ATOM     21  C   UNL     1      13.800 -27.401  18.654  1.00  0.00     0.012 C 
ATOM     22  C   UNL     1      12.915 -30.555  18.302  1.00  0.00    -0.003 C 
ATOM     23  C   UNL     1      15.377 -30.088  19.005  1.00  0.00     0.144 C 
ATOM     24  C   UNL     1      14.298 -31.163  18.700  1.00  0.00     0.149 C 
ATOM     25  C   UNL     1      12.966 -29.904  16.877  1.00  0.00     0.014 C 
ATOM     26  C   UNL     1      11.881 -31.721  18.173  1.00  0.00     0.014 C 
ENDROOT
BRANCH   1  27
ATOM     27  C   UNL     1       8.912 -26.037  25.359  1.00  0.00     0.048 C 
ATOM     28  O   UNL     1       8.120 -26.975  25.644  1.00  0.00    -0.550 OA
ATOM     29  O   UNL     1       9.586 -25.394  26.392  1.00  0.00    -0.550 OA
ENDBRANCH   1  27
BRANCH   7  30
ATOM     30  C   UNL     1      10.698 -23.175  21.824  1.00  0.00    -0.077 C 
ATOM     31  C   UNL     1       9.791 -23.673  20.725  1.00  0.00     0.039 C 
ATOM     32  C   UNL     1      11.781 -22.465  21.462  1.00  0.00     0.008 C 
ENDBRANCH   7  30
BRANCH  23  33
ATOM     33  O   UNL     1      16.588 -30.702  19.375  1.00  0.00    -0.390 OA
ATOM     34  H   UNL     1      17.275 -30.457  18.700  1.00  0.00     0.211 HD
ENDBRANCH  23  33
BRANCH  24  35
ATOM     35  O   UNL     1      14.754 -32.085  17.736  1.00  0.00    -0.390 OA
ATOM     36  H   UNL     1      14.076 -32.801  17.645  1.00  0.00     0.211 HD
ENDBRANCH  24  35
TORSDOF 4
ENDMDL
MODEL 6
REMARK VINA RESULT:    -6.040      4.120      7.141
REMARK INTER + INTRA:          -7.841
REMARK INTER:                  -7.394
REMARK INTRA:                  -0.447
REMARK UNBOUND:                -0.742
REMARK SMILES C=C(C)[C@H]1CC[C@@]2(C(=O)[O-])CC[C@]3(C)[C@H](CC[C@H]4[C@@]5(C)C[C@@H](O)[C@H](O)C(C)(C)[C@H]5CC[C@@]43C)[C@@H]12
REMARK SMILES IDX 7 1 6 2 34 3 11 4 5 5 15 6 4 7 12 8 16 9 13 10 17 11 32 12
REMARK SMILES IDX 14 13 18 14 31 15 33 16 19 17 30 18 29 19 21 20 20 21 26 22
REMARK SMILES IDX 22 23 24 24 27 25 28 26 8 27 9 28 10 29 2 30 3 31 1 32 23 33
REMARK SMILES IDX 25 35
REMARK H PARENT 23 34 25 36
REMARK Flexibility Score: inf
ROOT
ATOM      1  C   UNL     1       8.818 -30.622  25.582  1.00  0.00     0.014 C 
ATOM      2  C   UNL     1       7.807 -30.925  26.715  1.00  0.00     0.014 C 
ATOM      3  C   UNL     1       9.901 -29.670  26.221  1.00  0.00     0.012 C 
ATOM      4  C   UNL     1       8.080 -29.945  24.376  1.00  0.00     0.014 C 
ATOM      5  C   UNL     1       8.515 -30.620  28.021  1.00  0.00     0.009 C 
ATOM      6  C   UNL     1      10.128 -28.370  25.385  1.00  0.00     0.000 C 
ATOM      7  C   UNL     1       9.495 -29.487  27.721  1.00  0.00     0.018 C 
ATOM      8  C   UNL     1       8.978 -29.226  23.323  1.00  0.00     0.008 C 
ATOM      9  C   UNL     1      11.173 -27.379  25.937  1.00  0.00     0.005 C 
ATOM     10  C   UNL     1      10.352 -28.663  23.840  1.00  0.00    -0.024 C 
ATOM     11  C   UNL     1      11.034 -25.989  25.244  1.00  0.00     0.005 C 
ATOM     12  C   UNL     1      10.851 -27.307  23.056  1.00  0.00    -0.024 C 
ATOM     13  C   UNL     1      11.408 -29.798  23.614  1.00  0.00     0.012 C 
ATOM     14  C   UNL     1      10.330 -26.057  23.842  1.00  0.00     0.002 C 
ATOM     15  C   UNL     1      10.368 -27.238  21.566  1.00  0.00     0.008 C 
ATOM     16  C   UNL     1      12.435 -27.254  22.994  1.00  0.00     0.012 C 
ATOM     17  C   UNL     1      10.131 -24.697  23.032  1.00  0.00    -0.023 C 
ATOM     18  C   UNL     1       9.147 -26.348  21.233  1.00  0.00     0.005 C 
ATOM     19  C   UNL     1       8.999 -24.947  21.946  1.00  0.00     0.004 C 
ATOM     20  C   UNL     1      11.415 -24.172  22.321  1.00  0.00     0.042 C 
ATOM     21  C   UNL     1       9.679 -23.634  24.081  1.00  0.00     0.012 C 
ATOM     22  C   UNL     1       8.739 -23.738  20.925  1.00  0.00    -0.003 C 
ATOM     23  C   UNL     1      11.171 -22.950  21.410  1.00  0.00     0.144 C 
ATOM     24  C   UNL     1      10.103 -23.269  20.327  1.00  0.00     0.149 C 
ATOM     25  C   UNL     1       7.982 -22.553  21.618  1.00  0.00     0.014 C 
ATOM     26  C   UNL     1       7.806 -24.175  19.748  1.00  0.00     0.014 C 
ENDROOT
BRANCH   1  27
ATOM     27  C   UNL     1       9.412 -31.967  25.175  1.00  0.00     0.048 C 
ATOM     28  O   UNL     1       8.920 -32.613  24.211  1.00  0.00    -0.550 OA
ATOM     29  O   UNL     1      10.547 -32.467  25.804  1.00  0.00    -0.550 OA
ENDBRANCH   1  27
BRANCH   7  30
ATOM     30  C   UNL     1       8.912 -28.136  28.166  1.00  0.00    -0.077 C 
ATOM     31  C   UNL     1       7.978 -27.388  27.245  1.00  0.00     0.039 C 
ATOM     32  C   UNL     1       9.266 -27.534  29.315  1.00  0.00     0.008 C 
ENDBRANCH   7  30
BRANCH  23  33
ATOM     33  O   UNL     1      12.379 -22.555  20.804  1.00  0.00    -0.390 OA
ATOM     34  H   UNL     1      12.988 -23.340  20.793  1.00  0.00     0.211 HD
ENDBRANCH  23  33
BRANCH  24  35
ATOM     35  O   UNL     1       9.935 -22.187  19.441  1.00  0.00    -0.390 OA
ATOM     36  H   UNL     1       9.126 -21.683  19.714  1.00  0.00     0.211 HD
ENDBRANCH  24  35
TORSDOF 4
ENDMDL
MODEL 7
REMARK VINA RESULT:    -5.981      3.976      7.305
REMARK INTER + INTRA:          -7.772
REMARK INTER:                  -7.071
REMARK INTRA:                  -0.701
REMARK UNBOUND:                -0.742
REMARK SMILES C=C(C)[C@H]1CC[C@@]2(C(=O)[O-])CC[C@]3(C)[C@H](CC[C@H]4[C@@]5(C)C[C@@H](O)[C@H](O)C(C)(C)[C@H]5CC[C@@]43C)[C@@H]12
REMARK SMILES IDX 7 1 6 2 34 3 11 4 5 5 15 6 4 7 12 8 16 9 13 10 17 11 32 12
REMARK SMILES IDX 14 13 18 14 31 15 33 16 19 17 30 18 29 19 21 20 20 21 26 22
REMARK SMILES IDX 22 23 24 24 27 25 28 26 8 27 9 28 10 29 2 30 3 31 1 32 23 33
REMARK SMILES IDX 25 35
REMARK H PARENT 23 34 25 36
REMARK Flexibility Score: inf
ROOT
ATOM      1  C   UNL     1      10.101 -24.102  22.441  1.00  0.00     0.014 C 
ATOM      2  C   UNL     1      10.870 -23.459  21.261  1.00  0.00     0.014 C 
ATOM      3  C   UNL     1      11.206 -24.705  23.392  1.00  0.00     0.012 C 
ATOM      4  C   UNL     1       9.125 -25.204  21.903  1.00  0.00     0.014 C 
ATOM      5  C   UNL     1      12.292 -23.235  21.741  1.00  0.00     0.009 C 
ATOM      6  C   UNL     1      10.949 -26.207  23.735  1.00  0.00     0.000 C 
ATOM      7  C   UNL     1      12.584 -24.352  22.742  1.00  0.00     0.018 C 
ATOM      8  C   UNL     1       8.563 -26.212  22.951  1.00  0.00     0.008 C 
ATOM      9  C   UNL     1      11.982 -26.880  24.662  1.00  0.00     0.005 C 
ATOM     10  C   UNL     1       9.460 -26.484  24.215  1.00  0.00    -0.024 C 
ATOM     11  C   UNL     1      11.832 -28.431  24.621  1.00  0.00     0.005 C 
ATOM     12  C   UNL     1       9.314 -28.005  24.818  1.00  0.00    -0.024 C 
ATOM     13  C   UNL     1       9.005 -25.458  25.308  1.00  0.00     0.012 C 
ATOM     14  C   UNL     1      10.410 -28.909  24.158  1.00  0.00     0.002 C 
ATOM     15  C   UNL     1       7.896 -28.633  24.585  1.00  0.00     0.008 C 
ATOM     16  C   UNL     1       9.527 -28.001  26.389  1.00  0.00     0.012 C 
ATOM     17  C   UNL     1      10.131 -30.478  24.077  1.00  0.00    -0.023 C 
ATOM     18  C   UNL     1       7.723 -29.639  23.424  1.00  0.00     0.005 C 
ATOM     19  C   UNL     1       8.865 -30.693  23.143  1.00  0.00     0.004 C 
ATOM     20  C   UNL     1       9.874 -31.163  25.453  1.00  0.00     0.042 C 
ATOM     21  C   UNL     1      11.411 -31.109  23.445  1.00  0.00     0.012 C 
ATOM     22  C   UNL     1       8.329 -32.201  23.037  1.00  0.00    -0.003 C 
ATOM     23  C   UNL     1       9.445 -32.642  25.346  1.00  0.00     0.144 C 
ATOM     24  C   UNL     1       8.167 -32.788  24.475  1.00  0.00     0.149 C 
ATOM     25  C   UNL     1       9.278 -33.089  22.161  1.00  0.00     0.014 C 
ATOM     26  C   UNL     1       6.942 -32.265  22.317  1.00  0.00     0.014 C 
ENDROOT
BRANCH   1  27
ATOM     27  C   UNL     1       9.330 -22.969  23.112  1.00  0.00     0.048 C 
ATOM     28  O   UNL     1       9.867 -22.292  24.030  1.00  0.00    -0.550 OA
ATOM     29  O   UNL     1       8.059 -22.613  22.675  1.00  0.00    -0.550 OA
ENDBRANCH   1  27
BRANCH   7  30
ATOM     30  C   UNL     1      13.394 -25.476  22.076  1.00  0.00    -0.077 C 
ATOM     31  C   UNL     1      14.830 -25.701  22.482  1.00  0.00     0.039 C 
ATOM     32  C   UNL     1      12.907 -26.226  21.072  1.00  0.00     0.008 C 
ENDBRANCH   7  30
BRANCH  23  33
ATOM     33  O   UNL     1       9.224 -33.172  26.632  1.00  0.00    -0.390 OA
ATOM     34  H   UNL     1       8.443 -32.701  27.027  1.00  0.00     0.211 HD
ENDBRANCH  23  33
BRANCH  24  35
ATOM     35  O   UNL     1       7.723 -34.125  24.441  1.00  0.00    -0.390 OA
ATOM     36  H   UNL     1       7.156 -34.245  23.636  1.00  0.00     0.211 HD
ENDBRANCH  24  35
TORSDOF 4
ENDMDL
MODEL 8
REMARK VINA RESULT:    -5.715      2.777      7.636
REMARK INTER + INTRA:          -7.459
REMARK INTER:                  -6.773
REMARK INTRA:                  -0.686
REMARK UNBOUND:                -0.742
REMARK SMILES C=C(C)[C@H]1CC[C@@]2(C(=O)[O-])CC[C@]3(C)[C@H](CC[C@H]4[C@@]5(C)C[C@@H](O)[C@H](O)C(C)(C)[C@H]5CC[C@@]43C)[C@@H]12
REMARK SMILES IDX 7 1 6 2 34 3 11 4 5 5 15 6 4 7 12 8 16 9 13 10 17 11 32 12
REMARK SMILES IDX 14 13 18 14 31 15 33 16 19 17 30 18 29 19 21 20 20 21 26 22
REMARK SMILES IDX 22 23 24 24 27 25 28 26 8 27 9 28 10 29 2 30 3 31 1 32 23 33
REMARK SMILES IDX 25 35
REMARK H PARENT 23 34 25 36
REMARK Flexibility Score: inf
ROOT
ATOM      1  C   UNL     1       9.574 -28.357  26.551  1.00  0.00     0.014 C 
ATOM      2  C   UNL     1       9.614 -29.493  27.601  1.00  0.00     0.014 C 
ATOM      3  C   UNL     1       8.758 -28.933  25.330  1.00  0.00     0.012 C 
ATOM      4  C   UNL     1      11.034 -27.956  26.144  1.00  0.00     0.014 C 
ATOM      5  C   UNL     1       8.482 -30.442  27.256  1.00  0.00     0.009 C 
ATOM      6  C   UNL     1       9.517 -28.780  23.974  1.00  0.00     0.000 C 
ATOM      7  C   UNL     1       8.320 -30.378  25.738  1.00  0.00     0.018 C 
ATOM      8  C   UNL     1      11.190 -27.118  24.838  1.00  0.00     0.008 C 
ATOM      9  C   UNL     1       8.791 -29.318  22.723  1.00  0.00     0.005 C 
ATOM     10  C   UNL     1      10.077 -27.312  23.743  1.00  0.00    -0.024 C 
ATOM     11  C   UNL     1       9.781 -29.453  21.526  1.00  0.00     0.005 C 
ATOM     12  C   UNL     1      10.622 -27.130  22.203  1.00  0.00    -0.024 C 
ATOM     13  C   UNL     1       8.985 -26.225  24.027  1.00  0.00     0.012 C 
ATOM     14  C   UNL     1      11.049 -28.534  21.657  1.00  0.00     0.002 C 
ATOM     15  C   UNL     1      11.820 -26.126  22.082  1.00  0.00     0.008 C 
ATOM     16  C   UNL     1       9.477 -26.542  21.276  1.00  0.00     0.012 C 
ATOM     17  C   UNL     1      12.137 -28.581  20.491  1.00  0.00    -0.023 C 
ATOM     18  C   UNL     1      13.250 -26.704  21.964  1.00  0.00     0.005 C 
ATOM     19  C   UNL     1      13.490 -27.987  21.074  1.00  0.00     0.004 C 
ATOM     20  C   UNL     1      11.744 -27.794  19.205  1.00  0.00     0.042 C 
ATOM     21  C   UNL     1      12.300 -30.087  20.117  1.00  0.00     0.012 C 
ATOM     22  C   UNL     1      14.684 -27.815  20.017  1.00  0.00    -0.003 C 
ATOM     23  C   UNL     1      12.871 -27.710  18.153  1.00  0.00     0.144 C 
ATOM     24  C   UNL     1      14.148 -27.064  18.757  1.00  0.00     0.149 C 
ATOM     25  C   UNL     1      15.315 -29.197  19.633  1.00  0.00     0.014 C 
ATOM     26  C   UNL     1      15.867 -26.988  20.621  1.00  0.00     0.014 C 
ENDROOT
BRANCH   1  27
ATOM     27  C   UNL     1       8.852 -27.189  27.217  1.00  0.00     0.048 C 
ATOM     28  O   UNL     1       7.623 -27.001  27.010  1.00  0.00    -0.550 OA
ATOM     29  O   UNL     1       9.511 -26.362  28.119  1.00  0.00    -0.550 OA
ENDBRANCH   1  27
BRANCH   7  30
ATOM     30  C   UNL     1       9.015 -31.575  25.069  1.00  0.00    -0.077 C 
ATOM     31  C   UNL     1       8.218 -32.496  24.178  1.00  0.00     0.039 C 
ATOM     32  C   UNL     1      10.297 -31.899  25.310  1.00  0.00     0.008 C 
ENDBRANCH   7  30
BRANCH  23  33
ATOM     33  O   UNL     1      12.431 -26.974  17.037  1.00  0.00    -0.390 OA
ATOM     34  H   UNL     1      13.194 -26.428  16.710  1.00  0.00     0.211 HD
ENDBRANCH  23  33
BRANCH  24  35
ATOM     35  O   UNL     1      15.152 -26.909  17.781  1.00  0.00    -0.390 OA
ATOM     36  H   UNL     1      14.718 -26.672  16.922  1.00  0.00     0.211 HD
ENDBRANCH  24  35
TORSDOF 4
ENDMDL
MODEL 9
REMARK VINA RESULT:    -5.697      3.450      8.130
REMARK INTER + INTRA:          -7.438
REMARK INTER:                  -7.463
REMARK INTRA:                   0.025
REMARK UNBOUND:                -0.742
REMARK SMILES C=C(C)[C@H]1CC[C@@]2(C(=O)[O-])CC[C@]3(C)[C@H](CC[C@H]4[C@@]5(C)C[C@@H](O)[C@H](O)C(C)(C)[C@H]5CC[C@@]43C)[C@@H]12
REMARK SMILES IDX 7 1 6 2 34 3 11 4 5 5 15 6 4 7 12 8 16 9 13 10 17 11 32 12
REMARK SMILES IDX 14 13 18 14 31 15 33 16 19 17 30 18 29 19 21 20 20 21 26 22
REMARK SMILES IDX 22 23 24 24 27 25 28 26 8 27 9 28 10 29 2 30 3 31 1 32 23 33
REMARK SMILES IDX 25 35
REMARK H PARENT 23 34 25 36
REMARK Flexibility Score: inf
ROOT
ATOM      1  C   UNL     1       9.805 -28.042  28.146  1.00  0.00     0.014 C 
ATOM      2  C   UNL     1       9.864 -29.169  29.206  1.00  0.00     0.014 C 
ATOM      3  C   UNL     1       8.754 -28.522  27.072  1.00  0.00     0.012 C 
ATOM      4  C   UNL     1      11.226 -27.825  27.520  1.00  0.00     0.014 C 
ATOM      5  C   UNL     1       8.588 -29.975  29.053  1.00  0.00     0.009 C 
ATOM      6  C   UNL     1       9.316 -28.471  25.616  1.00  0.00     0.000 C 
ATOM      7  C   UNL     1       8.211 -29.900  27.574  1.00  0.00     0.018 C 
ATOM      8  C   UNL     1      11.286 -27.021  26.185  1.00  0.00     0.008 C 
ATOM      9  C   UNL     1       8.354 -28.923  24.498  1.00  0.00     0.005 C 
ATOM     10  C   UNL     1      10.007 -27.083  25.270  1.00  0.00    -0.024 C 
ATOM     11  C   UNL     1       9.132 -29.185  23.173  1.00  0.00     0.005 C 
ATOM     12  C   UNL     1      10.336 -26.978  23.664  1.00  0.00    -0.024 C 
ATOM     13  C   UNL     1       9.108 -25.870  25.685  1.00  0.00     0.012 C 
ATOM     14  C   UNL     1      10.505 -28.427  23.095  1.00  0.00     0.002 C 
ATOM     15  C   UNL     1      11.614 -26.129  23.344  1.00  0.00     0.008 C 
ATOM     16  C   UNL     1       9.145 -26.260  22.901  1.00  0.00     0.012 C 
ATOM     17  C   UNL     1      11.395 -28.614  21.783  1.00  0.00    -0.023 C 
ATOM     18  C   UNL     1      12.931 -26.878  23.031  1.00  0.00     0.005 C 
ATOM     19  C   UNL     1      12.880 -28.185  22.147  1.00  0.00     0.004 C 
ATOM     20  C   UNL     1      10.912 -27.791  20.550  1.00  0.00     0.042 C 
ATOM     21  C   UNL     1      11.318 -30.130  21.425  1.00  0.00     0.012 C 
ATOM     22  C   UNL     1      13.916 -28.166  20.923  1.00  0.00    -0.003 C 
ATOM     23  C   UNL     1      11.872 -27.852  19.343  1.00  0.00     0.144 C 
ATOM     24  C   UNL     1      13.293 -27.363  19.737  1.00  0.00     0.149 C 
ATOM     25  C   UNL     1      14.313 -29.617  20.483  1.00  0.00     0.014 C 
ATOM     26  C   UNL     1      15.266 -27.487  21.326  1.00  0.00     0.014 C 
ENDROOT
BRANCH   1  27
ATOM     27  C   UNL     1       9.335 -26.791  28.883  1.00  0.00     0.048 C 
ATOM     28  O   UNL     1       8.244 -26.243  28.571  1.00  0.00    -0.550 OA
ATOM     29  O   UNL     1      10.057 -26.280  29.955  1.00  0.00    -0.550 OA
ENDBRANCH   1  27
BRANCH   7  30
ATOM     30  C   UNL     1       8.651 -31.177  26.840  1.00  0.00    -0.077 C 
ATOM     31  C   UNL     1       7.742 -32.382  26.830  1.00  0.00     0.039 C 
ATOM     32  C   UNL     1       9.861 -31.307  26.269  1.00  0.00     0.008 C 
ENDBRANCH   7  30
BRANCH  23  33
ATOM     33  O   UNL     1      11.363 -27.075  18.285  1.00  0.00    -0.390 OA
ATOM     34  H   UNL     1      11.217 -26.153  18.625  1.00  0.00     0.211 HD
ENDBRANCH  23  33
BRANCH  24  35
ATOM     35  O   UNL     1      14.153 -27.338  18.621  1.00  0.00    -0.390 OA
ATOM     36  H   UNL     1      13.598 -27.276  17.802  1.00  0.00     0.211 HD
ENDBRANCH  24  35
TORSDOF 4
ENDMDL
