MODEL 1
REMARK VINA RESULT:    -3.725      0.000      0.000
REMARK INTER + INTRA:          -5.186
REMARK INTER:                  -5.031
REMARK INTRA:                  -0.155
REMARK UNBOUND:                -0.155
REMARK SMILES [NH3+]CCCC[C@H]([NH3+])C(=O)[O-]
REMARK SMILES IDX 4 1 3 2 2 3 1 4 5 8 6 9 7 10 8 14 9 15 10 16
REMARK H PARENT 1 5 1 6 1 7 7 11 7 12 7 13
REMARK Flexibility Score: inf
ROOT
ATOM      1  C   UNL     1     -10.444  10.139  17.472  1.00  0.00     0.012 C 
ENDROOT
BRANCH   1   2
ATOM      2  C   UNL     1      -9.867   9.201  18.544  1.00  0.00     0.061 C 
BRANCH   2   3
ATOM      3  C   UNL     1     -10.625   9.287  19.877  1.00  0.00     0.258 C 
BRANCH   3   4
ATOM      4  N   UNL     1     -10.743   7.967  20.497  1.00  0.00    -0.358 N 
ATOM      5  H   UNL     1     -10.762   8.077  21.536  1.00  0.00     0.344 HD
ATOM      6  H   UNL     1      -9.924   7.373  20.234  1.00  0.00     0.344 HD
ATOM      7  H   UNL     1     -11.630   7.504  20.190  1.00  0.00     0.344 HD
ENDBRANCH   3   4
ENDBRANCH   2   3
ENDBRANCH   1   2
BRANCH   1   8
ATOM      8  C   UNL     1     -11.199  11.336  18.076  1.00  0.00     0.072 C 
BRANCH   8   9
ATOM      9  C   UNL     1     -10.476  12.675  17.812  1.00  0.00     0.227 C 
BRANCH   9  10
ATOM     10  N   UNL     1      -9.253  12.765  18.618  1.00  0.00    -0.350 N 
ATOM     11  H   UNL     1      -8.456  13.083  18.018  1.00  0.00     0.345 HD
ATOM     12  H   UNL     1      -9.014  11.824  19.005  1.00  0.00     0.345 HD
ATOM     13  H   UNL     1      -9.379  13.440  19.408  1.00  0.00     0.345 HD
ENDBRANCH   9  10
BRANCH   9  14
ATOM     14  C   UNL     1     -11.378  13.847  18.103  1.00  0.00     0.099 C 
ATOM     15  O   UNL     1     -12.324  14.136  17.323  1.00  0.00    -0.544 OA
ATOM     16  O   UNL     1     -11.162  14.625  19.234  1.00  0.00    -0.544 OA
ENDBRANCH   9  14
ENDBRANCH   8   9
ENDBRANCH   1   8
TORSDOF 7
ENDMDL
MODEL 2
REMARK VINA RESULT:    -3.665      0.370      1.087
REMARK INTER + INTRA:          -5.106
REMARK INTER:                  -4.942
REMARK INTRA:                  -0.163
REMARK UNBOUND:                -0.155
REMARK SMILES [NH3+]CCCC[C@H]([NH3+])C(=O)[O-]
REMARK SMILES IDX 4 1 3 2 2 3 1 4 5 8 6 9 7 10 8 14 9 15 10 16
REMARK H PARENT 1 5 1 6 1 7 7 11 7 12 7 13
REMARK Flexibility Score: inf
ROOT
ATOM      1  C   UNL     1     -10.359  10.240  17.536  1.00  0.00     0.012 C 
ENDROOT
BRANCH   1   2
ATOM      2  C   UNL     1      -9.986   9.110  18.508  1.00  0.00     0.061 C 
BRANCH   2   3
ATOM      3  C   UNL     1     -10.650   9.269  19.885  1.00  0.00     0.258 C 
BRANCH   3   4
ATOM      4  N   UNL     1     -10.752   7.979  20.567  1.00  0.00    -0.358 N 
ATOM      5  H   UNL     1      -9.844   7.769  21.041  1.00  0.00     0.344 HD
ATOM      6  H   UNL     1     -10.956   7.222  19.875  1.00  0.00     0.344 HD
ATOM      7  H   UNL     1     -11.509   8.013  21.289  1.00  0.00     0.344 HD
ENDBRANCH   3   4
ENDBRANCH   2   3
ENDBRANCH   1   2
BRANCH   1   8
ATOM      8  C   UNL     1     -11.147  11.373  18.218  1.00  0.00     0.072 C 
BRANCH   8   9
ATOM      9  C   UNL     1     -10.321  12.674  18.326  1.00  0.00     0.227 C 
BRANCH   9  10
ATOM     10  N   UNL     1      -9.437  12.624  19.497  1.00  0.00    -0.350 N 
ATOM     11  H   UNL     1      -8.506  13.036  19.256  1.00  0.00     0.345 HD
ATOM     12  H   UNL     1      -9.288  11.630  19.786  1.00  0.00     0.345 HD
ATOM     13  H   UNL     1      -9.852  13.156  20.297  1.00  0.00     0.345 HD
ENDBRANCH   9  10
BRANCH   9  14
ATOM     14  C   UNL     1     -11.216  13.883  18.402  1.00  0.00     0.099 C 
ATOM     15  O   UNL     1     -11.075  14.728  19.326  1.00  0.00    -0.544 OA
ATOM     16  O   UNL     1     -12.215  14.067  17.453  1.00  0.00    -0.544 OA
ENDBRANCH   9  14
ENDBRANCH   8   9
ENDBRANCH   1   8
TORSDOF 7
ENDMDL
MODEL 3
REMARK VINA RESULT:    -3.655      2.874      4.924
REMARK INTER + INTRA:          -5.092
REMARK INTER:                  -4.991
REMARK INTRA:                  -0.100
REMARK UNBOUND:                -0.155
REMARK SMILES [NH3+]CCCC[C@H]([NH3+])C(=O)[O-]
REMARK SMILES IDX 4 1 3 2 2 3 1 4 5 8 6 9 7 10 8 14 9 15 10 16
REMARK H PARENT 1 5 1 6 1 7 7 11 7 12 7 13
REMARK Flexibility Score: inf
ROOT
ATOM      1  C   UNL     1     -11.454  13.570  18.088  1.00  0.00     0.012 C 
ENDROOT
BRANCH   1   2
ATOM      2  C   UNL     1     -11.992  14.373  16.893  1.00  0.00     0.061 C 
BRANCH   2   3
ATOM      3  C   UNL     1     -10.911  14.666  15.841  1.00  0.00     0.258 C 
BRANCH   3   4
ATOM      4  N   UNL     1     -11.510  15.160  14.601  1.00  0.00    -0.358 N 
ATOM      5  H   UNL     1     -12.301  14.534  14.330  1.00  0.00     0.344 HD
ATOM      6  H   UNL     1     -10.798  15.158  13.834  1.00  0.00     0.344 HD
ATOM      7  H   UNL     1     -11.878  16.130  14.741  1.00  0.00     0.344 HD
ENDBRANCH   3   4
ENDBRANCH   2   3
ENDBRANCH   1   2
BRANCH   1   8
ATOM      8  C   UNL     1     -11.562  12.049  17.877  1.00  0.00     0.072 C 
BRANCH   8   9
ATOM      9  C   UNL     1     -10.374  11.288  18.508  1.00  0.00     0.227 C 
BRANCH   9  10
ATOM     10  N   UNL     1     -10.135  10.028  17.794  1.00  0.00    -0.350 N 
ATOM     11  H   UNL     1     -10.979   9.775  17.229  1.00  0.00     0.345 HD
ATOM     12  H   UNL     1      -9.961   9.259  18.480  1.00  0.00     0.345 HD
ATOM     13  H   UNL     1      -9.309  10.114  17.158  1.00  0.00     0.345 HD
ENDBRANCH   9  10
BRANCH   9  14
ATOM     14  C   UNL     1     -10.616  11.019  19.971  1.00  0.00     0.099 C 
ATOM     15  O   UNL     1     -11.201   9.965  20.340  1.00  0.00    -0.544 OA
ATOM     16  O   UNL     1     -10.202  11.940  20.924  1.00  0.00    -0.544 OA
ENDBRANCH   9  14
ENDBRANCH   8   9
ENDBRANCH   1   8
TORSDOF 7
ENDMDL
MODEL 4
REMARK VINA RESULT:    -3.646      1.846      2.155
REMARK INTER + INTRA:          -5.080
REMARK INTER:                  -4.575
REMARK INTRA:                  -0.505
REMARK UNBOUND:                -0.155
REMARK SMILES [NH3+]CCCC[C@H]([NH3+])C(=O)[O-]
REMARK SMILES IDX 4 1 3 2 2 3 1 4 5 8 6 9 7 10 8 14 9 15 10 16
REMARK H PARENT 1 5 1 6 1 7 7 11 7 12 7 13
REMARK Flexibility Score: inf
ROOT
ATOM      1  C   UNL     1      -9.710  10.775  20.593  1.00  0.00     0.012 C 
ENDROOT
BRANCH   1   2
ATOM      2  C   UNL     1     -10.775   9.679  20.430  1.00  0.00     0.061 C 
BRANCH   2   3
ATOM      3  C   UNL     1     -10.442   8.692  19.301  1.00  0.00     0.258 C 
BRANCH   3   4
ATOM      4  N   UNL     1     -10.118   9.403  18.065  1.00  0.00    -0.358 N 
ATOM      5  H   UNL     1      -9.326  10.060  18.245  1.00  0.00     0.344 HD
ATOM      6  H   UNL     1     -10.947   9.953  17.739  1.00  0.00     0.344 HD
ATOM      7  H   UNL     1      -9.831   8.723  17.323  1.00  0.00     0.344 HD
ENDBRANCH   3   4
ENDBRANCH   2   3
ENDBRANCH   1   2
BRANCH   1   8
ATOM      8  C   UNL     1     -10.311  12.192  20.588  1.00  0.00     0.072 C 
BRANCH   8   9
ATOM      9  C   UNL     1     -10.015  12.946  19.273  1.00  0.00     0.227 C 
BRANCH   9  10
ATOM     10  N   UNL     1      -9.557  14.311  19.556  1.00  0.00    -0.350 N 
ATOM     11  H   UNL     1      -9.511  14.462  20.591  1.00  0.00     0.345 HD
ATOM     12  H   UNL     1     -10.232  15.002  19.156  1.00  0.00     0.345 HD
ATOM     13  H   UNL     1      -8.610  14.477  19.142  1.00  0.00     0.345 HD
ENDBRANCH   9  10
BRANCH   9  14
ATOM     14  C   UNL     1     -11.228  12.980  18.380  1.00  0.00     0.099 C 
ATOM     15  O   UNL     1     -11.678  11.919  17.869  1.00  0.00    -0.544 OA
ATOM     16  O   UNL     1     -11.855  14.189  18.106  1.00  0.00    -0.544 OA
ENDBRANCH   9  14
ENDBRANCH   8   9
ENDBRANCH   1   8
TORSDOF 7
ENDMDL
MODEL 5
REMARK VINA RESULT:    -3.642      3.159      4.868
REMARK INTER + INTRA:          -5.074
REMARK INTER:                  -4.893
REMARK INTRA:                  -0.180
REMARK UNBOUND:                -0.155
REMARK SMILES [NH3+]CCCC[C@H]([NH3+])C(=O)[O-]
REMARK SMILES IDX 4 1 3 2 2 3 1 4 5 8 6 9 7 10 8 14 9 15 10 16
REMARK H PARENT 1 5 1 6 1 7 7 11 7 12 7 13
REMARK Flexibility Score: inf
ROOT
ATOM      1  C   UNL     1     -11.539  12.202  18.022  1.00  0.00     0.012 C 
ENDROOT
BRANCH   1   2
ATOM      2  C   UNL     1     -11.584  13.735  17.935  1.00  0.00     0.061 C 
BRANCH   2   3
ATOM      3  C   UNL     1     -11.169  14.263  16.553  1.00  0.00     0.258 C 
BRANCH   3   4
ATOM      4  N   UNL     1     -10.515  13.215  15.769  1.00  0.00    -0.358 N 
ATOM      5  H   UNL     1      -9.704  12.838  16.310  1.00  0.00     0.344 HD
ATOM      6  H   UNL     1     -10.166  13.608  14.865  1.00  0.00     0.344 HD
ATOM      7  H   UNL     1     -11.187  12.435  15.581  1.00  0.00     0.344 HD
ENDBRANCH   3   4
ENDBRANCH   2   3
ENDBRANCH   1   2
BRANCH   1   8
ATOM      8  C   UNL     1     -10.625  11.699  19.154  1.00  0.00     0.072 C 
BRANCH   8   9
ATOM      9  C   UNL     1     -10.116  10.263  18.898  1.00  0.00     0.227 C 
BRANCH   9  10
ATOM     10  N   UNL     1     -10.382   9.864  17.510  1.00  0.00    -0.350 N 
ATOM     11  H   UNL     1     -10.186   8.843  17.390  1.00  0.00     0.345 HD
ATOM     12  H   UNL     1      -9.756  10.395  16.863  1.00  0.00     0.345 HD
ATOM     13  H   UNL     1     -11.379  10.054  17.256  1.00  0.00     0.345 HD
ENDBRANCH   9  10
BRANCH   9  14
ATOM     14  C   UNL     1     -10.750   9.283  19.851  1.00  0.00     0.099 C 
ATOM     15  O   UNL     1     -11.614   9.667  20.684  1.00  0.00    -0.544 OA
ATOM     16  O   UNL     1     -10.376   7.945  19.822  1.00  0.00    -0.544 OA
ENDBRANCH   9  14
ENDBRANCH   8   9
ENDBRANCH   1   8
TORSDOF 7
ENDMDL
MODEL 6
REMARK VINA RESULT:    -3.623      1.622      1.859
REMARK INTER + INTRA:          -5.048
REMARK INTER:                  -4.548
REMARK INTRA:                  -0.500
REMARK UNBOUND:                -0.155
REMARK SMILES [NH3+]CCCC[C@H]([NH3+])C(=O)[O-]
REMARK SMILES IDX 4 1 3 2 2 3 1 4 5 8 6 9 7 10 8 14 9 15 10 16
REMARK H PARENT 1 5 1 6 1 7 7 11 7 12 7 13
REMARK Flexibility Score: inf
ROOT
ATOM      1  C   UNL     1     -10.767  10.401  17.320  1.00  0.00     0.012 C 
ENDROOT
BRANCH   1   2
ATOM      2  C   UNL     1      -9.716   9.617  18.122  1.00  0.00     0.061 C 
BRANCH   2   3
ATOM      3  C   UNL     1     -10.335   8.793  19.262  1.00  0.00     0.258 C 
BRANCH   3   4
ATOM      4  N   UNL     1     -11.017   9.660  20.222  1.00  0.00    -0.358 N 
ATOM      5  H   UNL     1     -11.440   9.072  20.975  1.00  0.00     0.344 HD
ATOM      6  H   UNL     1     -11.776  10.198  19.744  1.00  0.00     0.344 HD
ATOM      7  H   UNL     1     -10.333  10.324  20.656  1.00  0.00     0.344 HD
ENDBRANCH   3   4
ENDBRANCH   2   3
ENDBRANCH   1   2
BRANCH   1   8
ATOM      8  C   UNL     1     -10.446  11.905  17.235  1.00  0.00     0.072 C 
BRANCH   8   9
ATOM      9  C   UNL     1     -11.431  12.759  18.063  1.00  0.00     0.227 C 
BRANCH   9  10
ATOM     10  N   UNL     1     -11.967  13.857  17.251  1.00  0.00    -0.350 N 
ATOM     11  H   UNL     1     -11.281  14.112  16.502  1.00  0.00     0.345 HD
ATOM     12  H   UNL     1     -12.121  14.699  17.851  1.00  0.00     0.345 HD
ATOM     13  H   UNL     1     -12.874  13.581  16.807  1.00  0.00     0.345 HD
ENDBRANCH   9  10
BRANCH   9  14
ATOM     14  C   UNL     1     -10.770  13.304  19.303  1.00  0.00     0.099 C 
ATOM     15  O   UNL     1     -10.216  12.528  20.127  1.00  0.00    -0.544 OA
ATOM     16  O   UNL     1     -10.777  14.671  19.548  1.00  0.00    -0.544 OA
ENDBRANCH   9  14
ENDBRANCH   8   9
ENDBRANCH   1   8
TORSDOF 7
ENDMDL
MODEL 7
REMARK VINA RESULT:    -3.591      2.667      4.687
REMARK INTER + INTRA:          -5.006
REMARK INTER:                  -4.524
REMARK INTRA:                  -0.481
REMARK UNBOUND:                -0.155
REMARK SMILES [NH3+]CCCC[C@H]([NH3+])C(=O)[O-]
REMARK SMILES IDX 4 1 3 2 2 3 1 4 5 8 6 9 7 10 8 14 9 15 10 16
REMARK H PARENT 1 5 1 6 1 7 7 11 7 12 7 13
REMARK Flexibility Score: inf
ROOT
ATOM      1  C   UNL     1     -11.171  13.882  18.782  1.00  0.00     0.012 C 
ENDROOT
BRANCH   1   2
ATOM      2  C   UNL     1     -11.912  13.851  17.435  1.00  0.00     0.061 C 
BRANCH   2   3
ATOM      3  C   UNL     1     -11.077  14.438  16.287  1.00  0.00     0.258 C 
BRANCH   3   4
ATOM      4  N   UNL     1     -10.494  13.374  15.469  1.00  0.00    -0.358 N 
ATOM      5  H   UNL     1     -10.154  12.609  16.094  1.00  0.00     0.344 HD
ATOM      6  H   UNL     1      -9.685  13.746  14.919  1.00  0.00     0.344 HD
ATOM      7  H   UNL     1     -11.215  12.984  14.818  1.00  0.00     0.344 HD
ENDBRANCH   3   4
ENDBRANCH   2   3
ENDBRANCH   1   2
BRANCH   1   8
ATOM      8  C   UNL     1     -10.199  12.700  18.951  1.00  0.00     0.072 C 
BRANCH   8   9
ATOM      9  C   UNL     1     -10.917  11.336  18.849  1.00  0.00     0.227 C 
BRANCH   9  10
ATOM     10  N   UNL     1     -10.868  10.633  20.137  1.00  0.00    -0.350 N 
ATOM     11  H   UNL     1     -10.491   9.667  20.000  1.00  0.00     0.345 HD
ATOM     12  H   UNL     1     -11.832  10.553  20.534  1.00  0.00     0.345 HD
ATOM     13  H   UNL     1     -10.260  11.147  20.816  1.00  0.00     0.345 HD
ENDBRANCH   9  10
BRANCH   9  14
ATOM     14  C   UNL     1     -10.310  10.480  17.768  1.00  0.00     0.099 C 
ATOM     15  O   UNL     1      -9.318   9.743  18.015  1.00  0.00    -0.544 OA
ATOM     16  O   UNL     1     -10.837  10.509  16.482  1.00  0.00    -0.544 OA
ENDBRANCH   9  14
ENDBRANCH   8   9
ENDBRANCH   1   8
TORSDOF 7
ENDMDL
MODEL 8
REMARK VINA RESULT:    -3.591     10.484     11.062
REMARK INTER + INTRA:          -5.006
REMARK INTER:                  -4.521
REMARK INTRA:                  -0.485
REMARK UNBOUND:                -0.155
REMARK SMILES [NH3+]CCCC[C@H]([NH3+])C(=O)[O-]
REMARK SMILES IDX 4 1 3 2 2 3 1 4 5 8 6 9 7 10 8 14 9 15 10 16
REMARK H PARENT 1 5 1 6 1 7 7 11 7 12 7 13
REMARK Flexibility Score: inf
ROOT
ATOM      1  C   UNL     1       0.007  10.627  21.729  1.00  0.00     0.012 C 
ENDROOT
BRANCH   1   2
ATOM      2  C   UNL     1      -1.466  10.906  22.067  1.00  0.00     0.061 C 
BRANCH   2   3
ATOM      3  C   UNL     1      -2.438  10.155  21.145  1.00  0.00     0.258 C 
BRANCH   3   4
ATOM      4  N   UNL     1      -1.713   9.415  20.113  1.00  0.00    -0.358 N 
ATOM      5  H   UNL     1      -0.744   9.215  20.451  1.00  0.00     0.344 HD
ATOM      6  H   UNL     1      -1.655   9.984  19.237  1.00  0.00     0.344 HD
ATOM      7  H   UNL     1      -2.195   8.508  19.914  1.00  0.00     0.344 HD
ENDBRANCH   3   4
ENDBRANCH   2   3
ENDBRANCH   1   2
BRANCH   1   8
ATOM      8  C   UNL     1       0.723  11.855  21.138  1.00  0.00     0.072 C 
BRANCH   8   9
ATOM      9  C   UNL     1       1.179  11.618  19.680  1.00  0.00     0.227 C 
BRANCH   9  10
ATOM     10  N   UNL     1       2.587  11.995  19.516  1.00  0.00    -0.350 N 
ATOM     11  H   UNL     1       2.668  12.770  18.817  1.00  0.00     0.345 HD
ATOM     12  H   UNL     1       3.134  11.178  19.159  1.00  0.00     0.345 HD
ATOM     13  H   UNL     1       2.996  12.309  20.427  1.00  0.00     0.345 HD
ENDBRANCH   9  10
BRANCH   9  14
ATOM     14  C   UNL     1       0.318  12.385  18.710  1.00  0.00     0.099 C 
ATOM     15  O   UNL     1      -0.886  12.063  18.529  1.00  0.00    -0.544 OA
ATOM     16  O   UNL     1       0.855  13.451  18.000  1.00  0.00    -0.544 OA
ENDBRANCH   9  14
ENDBRANCH   8   9
ENDBRANCH   1   8
TORSDOF 7
ENDMDL
MODEL 9
REMARK VINA RESULT:    -3.525      2.929      4.255
REMARK INTER + INTRA:          -4.916
REMARK INTER:                  -4.408
REMARK INTRA:                  -0.508
REMARK UNBOUND:                -0.155
REMARK SMILES [NH3+]CCCC[C@H]([NH3+])C(=O)[O-]
REMARK SMILES IDX 4 1 3 2 2 3 1 4 5 8 6 9 7 10 8 14 9 15 10 16
REMARK H PARENT 1 5 1 6 1 7 7 11 7 12 7 13
REMARK Flexibility Score: inf
ROOT
ATOM      1  C   UNL     1     -10.916  13.505  17.925  1.00  0.00     0.012 C 
ENDROOT
BRANCH   1   2
ATOM      2  C   UNL     1     -10.915  14.273  19.255  1.00  0.00     0.061 C 
BRANCH   2   3
ATOM      3  C   UNL     1      -9.700  13.937  20.133  1.00  0.00     0.258 C 
BRANCH   3   4
ATOM      4  N   UNL     1     -10.098  13.142  21.294  1.00  0.00    -0.358 N 
ATOM      5  H   UNL     1     -10.441  13.781  22.047  1.00  0.00     0.344 HD
ATOM      6  H   UNL     1      -9.280  12.601  21.657  1.00  0.00     0.344 HD
ATOM      7  H   UNL     1     -10.869  12.484  21.032  1.00  0.00     0.344 HD
ENDBRANCH   3   4
ENDBRANCH   2   3
ENDBRANCH   1   2
BRANCH   1   8
ATOM      8  C   UNL     1     -11.510  12.091  18.057  1.00  0.00     0.072 C 
BRANCH   8   9
ATOM      9  C   UNL     1     -10.433  10.991  17.924  1.00  0.00     0.227 C 
BRANCH   9  10
ATOM     10  N   UNL     1     -10.635  10.221  16.692  1.00  0.00    -0.350 N 
ATOM     11  H   UNL     1     -10.132  10.682  15.898  1.00  0.00     0.345 HD
ATOM     12  H   UNL     1     -11.653  10.189  16.457  1.00  0.00     0.345 HD
ATOM     13  H   UNL     1     -10.278   9.243  16.803  1.00  0.00     0.345 HD
ENDBRANCH   9  10
BRANCH   9  14
ATOM     14  C   UNL     1     -10.443  10.073  19.119  1.00  0.00     0.099 C 
ATOM     15  O   UNL     1     -10.842  10.485  20.241  1.00  0.00    -0.544 OA
ATOM     16  O   UNL     1     -10.000   8.762  18.990  1.00  0.00    -0.544 OA
ENDBRANCH   9  14
ENDBRANCH   8   9
ENDBRANCH   1   8
TORSDOF 7
ENDMDL
