MODEL 1
REMARK VINA RESULT:    -4.944      0.000      0.000
REMARK INTER + INTRA:          -5.573
REMARK INTER:                  -5.378
REMARK INTRA:                  -0.195
REMARK UNBOUND:                -0.195
REMARK SMILES Cc1ccc(C(C)C)c(O)c1
REMARK SMILES IDX 1 1 2 2 11 3 9 4 5 5 4 6 3 7 10 8 6 10 7 11 8 12
REMARK H PARENT 10 9
REMARK Flexibility Score: inf
ROOT
ATOM      1  C   UNL     1      23.030  30.786  21.930  1.00  0.00     0.044 C 
ATOM      2  C   UNL     1      22.798  30.399  20.499  1.00  0.00    -0.047 A 
ATOM      3  C   UNL     1      21.502  30.407  19.967  1.00  0.00     0.049 A 
ATOM      4  C   UNL     1      21.271  30.011  18.642  1.00  0.00     0.119 A 
ATOM      5  C   UNL     1      22.350  29.587  17.830  1.00  0.00    -0.004 A 
ATOM      6  C   UNL     1      23.644  29.566  18.384  1.00  0.00     0.008 A 
ATOM      7  C   UNL     1      23.865  29.961  19.704  1.00  0.00     0.004 A 
ENDROOT
BRANCH   4   8
ATOM      8  O   UNL     1      19.970  30.039  18.139  1.00  0.00    -0.508 OA
ATOM      9  H   UNL     1      19.166  30.141  18.747  1.00  0.00     0.293 HD
ENDBRANCH   4   8
BRANCH   5  10
ATOM     10  C   UNL     1      22.161  29.147  16.385  1.00  0.00     0.017 C 
ATOM     11  C   UNL     1      22.578  30.243  15.396  1.00  0.00     0.012 C 
ATOM     12  C   UNL     1      22.877  27.822  16.094  1.00  0.00     0.012 C 
ENDBRANCH   5  10
TORSDOF 2
ENDMDL
MODEL 2
REMARK VINA RESULT:    -4.840      1.674      4.599
REMARK INTER + INTRA:          -5.459
REMARK INTER:                  -5.265
REMARK INTRA:                  -0.194
REMARK UNBOUND:                -0.195
REMARK SMILES Cc1ccc(C(C)C)c(O)c1
REMARK SMILES IDX 1 1 2 2 11 3 9 4 5 5 4 6 3 7 10 8 6 10 7 11 8 12
REMARK H PARENT 10 9
REMARK Flexibility Score: inf
ROOT
ATOM      1  C   UNL     1      23.403  29.608  13.531  1.00  0.00     0.044 C 
ATOM      2  C   UNL     1      23.036  29.597  14.985  1.00  0.00    -0.047 A 
ATOM      3  C   UNL     1      23.336  28.483  15.781  1.00  0.00     0.049 A 
ATOM      4  C   UNL     1      22.965  28.448  17.133  1.00  0.00     0.119 A 
ATOM      5  C   UNL     1      22.270  29.541  17.705  1.00  0.00    -0.004 A 
ATOM      6  C   UNL     1      21.959  30.645  16.890  1.00  0.00     0.008 A 
ATOM      7  C   UNL     1      22.332  30.671  15.545  1.00  0.00     0.004 A 
ENDROOT
BRANCH   4   8
ATOM      8  O   UNL     1      23.286  27.328  17.899  1.00  0.00    -0.508 OA
ATOM      9  H   UNL     1      23.058  27.274  18.885  1.00  0.00     0.293 HD
ENDBRANCH   4   8
BRANCH   5  10
ATOM     10  C   UNL     1      21.842  29.561  19.166  1.00  0.00     0.017 C 
ATOM     11  C   UNL     1      22.941  30.126  20.075  1.00  0.00     0.012 C 
ATOM     12  C   UNL     1      20.513  30.302  19.360  1.00  0.00     0.012 C 
ENDBRANCH   5  10
TORSDOF 2
ENDMDL
MODEL 3
REMARK VINA RESULT:    -4.404      4.706      6.718
REMARK INTER + INTRA:          -4.986
REMARK INTER:                  -4.790
REMARK INTRA:                  -0.195
REMARK UNBOUND:                -0.195
REMARK SMILES Cc1ccc(C(C)C)c(O)c1
REMARK SMILES IDX 1 1 2 2 11 3 9 4 5 5 4 6 3 7 10 8 6 10 7 11 8 12
REMARK H PARENT 10 9
REMARK Flexibility Score: inf
ROOT
ATOM      1  C   UNL     1      19.930  30.370  28.218  1.00  0.00     0.044 C 
ATOM      2  C   UNL     1      20.465  30.043  26.855  1.00  0.00    -0.047 A 
ATOM      3  C   UNL     1      19.769  29.161  26.017  1.00  0.00     0.049 A 
ATOM      4  C   UNL     1      20.279  28.821  24.756  1.00  0.00     0.119 A 
ATOM      5  C   UNL     1      21.514  29.360  24.322  1.00  0.00    -0.004 A 
ATOM      6  C   UNL     1      22.211  30.228  25.182  1.00  0.00     0.008 A 
ATOM      7  C   UNL     1      21.696  30.562  26.436  1.00  0.00     0.004 A 
ENDROOT
BRANCH   4   8
ATOM      8  O   UNL     1      19.558  27.948  23.941  1.00  0.00    -0.508 OA
ATOM      9  H   UNL     1      19.990  27.137  23.516  1.00  0.00     0.293 HD
ENDBRANCH   4   8
BRANCH   5  10
ATOM     10  C   UNL     1      22.118  29.028  22.964  1.00  0.00     0.017 C 
ATOM     11  C   UNL     1      22.862  30.227  22.363  1.00  0.00     0.012 C 
ATOM     12  C   UNL     1      23.011  27.782  23.026  1.00  0.00     0.012 C 
ENDBRANCH   5  10
TORSDOF 2
ENDMDL
MODEL 4
REMARK VINA RESULT:    -4.309      1.099      4.071
REMARK INTER + INTRA:          -4.882
REMARK INTER:                  -4.686
REMARK INTRA:                  -0.196
REMARK UNBOUND:                -0.195
REMARK SMILES Cc1ccc(C(C)C)c(O)c1
REMARK SMILES IDX 1 1 2 2 11 3 9 4 5 5 4 6 3 7 10 8 6 10 7 11 8 12
REMARK H PARENT 10 9
REMARK Flexibility Score: inf
ROOT
ATOM      1  C   UNL     1      23.029  30.070  14.380  1.00  0.00     0.044 C 
ATOM      2  C   UNL     1      22.925  29.875  15.864  1.00  0.00    -0.047 A 
ATOM      3  C   UNL     1      21.689  30.012  16.509  1.00  0.00     0.049 A 
ATOM      4  C   UNL     1      21.588  29.867  17.900  1.00  0.00     0.119 A 
ATOM      5  C   UNL     1      22.744  29.591  18.670  1.00  0.00    -0.004 A 
ATOM      6  C   UNL     1      23.982  29.475  18.010  1.00  0.00     0.008 A 
ATOM      7  C   UNL     1      24.073  29.621  16.625  1.00  0.00     0.004 A 
ENDROOT
BRANCH   4   8
ATOM      8  O   UNL     1      20.342  30.001  18.511  1.00  0.00    -0.508 OA
ATOM      9  H   UNL     1      19.934  30.910  18.697  1.00  0.00     0.293 HD
ENDBRANCH   4   8
BRANCH   5  10
ATOM     10  C   UNL     1      22.698  29.423  20.182  1.00  0.00     0.017 C 
ATOM     11  C   UNL     1      23.663  28.333  20.665  1.00  0.00     0.012 C 
ATOM     12  C   UNL     1      22.936  30.752  20.911  1.00  0.00     0.012 C 
ENDBRANCH   5  10
TORSDOF 2
ENDMDL
MODEL 5
REMARK VINA RESULT:    -4.246      1.907      2.393
REMARK INTER + INTRA:          -4.814
REMARK INTER:                  -4.753
REMARK INTRA:                  -0.061
REMARK UNBOUND:                -0.195
REMARK SMILES Cc1ccc(C(C)C)c(O)c1
REMARK SMILES IDX 1 1 2 2 11 3 9 4 5 5 4 6 3 7 10 8 6 10 7 11 8 12
REMARK H PARENT 10 9
REMARK Flexibility Score: inf
ROOT
ATOM      1  C   UNL     1      23.758  28.316  21.607  1.00  0.00     0.044 C 
ATOM      2  C   UNL     1      23.222  28.742  20.273  1.00  0.00    -0.047 A 
ATOM      3  C   UNL     1      23.389  27.920  19.150  1.00  0.00     0.049 A 
ATOM      4  C   UNL     1      22.924  28.326  17.891  1.00  0.00     0.119 A 
ATOM      5  C   UNL     1      22.288  29.581  17.741  1.00  0.00    -0.004 A 
ATOM      6  C   UNL     1      22.144  30.404  18.873  1.00  0.00     0.008 A 
ATOM      7  C   UNL     1      22.610  29.992  20.123  1.00  0.00     0.004 A 
ENDROOT
BRANCH   4   8
ATOM      8  O   UNL     1      23.099  27.481  16.795  1.00  0.00    -0.508 OA
ATOM      9  H   UNL     1      23.837  26.787  16.768  1.00  0.00     0.293 HD
ENDBRANCH   4   8
BRANCH   5  10
ATOM     10  C   UNL     1      21.762  30.075  16.400  1.00  0.00     0.017 C 
ATOM     11  C   UNL     1      20.812  31.269  16.565  1.00  0.00     0.012 C 
ATOM     12  C   UNL     1      22.900  30.391  15.422  1.00  0.00     0.012 C 
ENDBRANCH   5  10
TORSDOF 2
ENDMDL
MODEL 6
REMARK VINA RESULT:    -4.065      7.144      9.442
REMARK INTER + INTRA:          -4.617
REMARK INTER:                  -4.421
REMARK INTRA:                  -0.196
REMARK UNBOUND:                -0.195
REMARK SMILES Cc1ccc(C(C)C)c(O)c1
REMARK SMILES IDX 1 1 2 2 11 3 9 4 5 5 4 6 3 7 10 8 6 10 7 11 8 12
REMARK H PARENT 10 9
REMARK Flexibility Score: inf
ROOT
ATOM      1  C   UNL     1      22.312  26.815  30.538  1.00  0.00     0.044 C 
ATOM      2  C   UNL     1      21.906  27.542  29.291  1.00  0.00    -0.047 A 
ATOM      3  C   UNL     1      21.545  28.895  29.348  1.00  0.00     0.049 A 
ATOM      4  C   UNL     1      21.128  29.574  28.194  1.00  0.00     0.119 A 
ATOM      5  C   UNL     1      21.057  28.890  26.956  1.00  0.00    -0.004 A 
ATOM      6  C   UNL     1      21.405  27.527  26.917  1.00  0.00     0.008 A 
ATOM      7  C   UNL     1      21.818  26.859  28.071  1.00  0.00     0.004 A 
ENDROOT
BRANCH   4   8
ATOM      8  O   UNL     1      20.784  30.923  28.282  1.00  0.00    -0.508 OA
ATOM      9  H   UNL     1      19.926  31.282  27.880  1.00  0.00     0.293 HD
ENDBRANCH   4   8
BRANCH   5  10
ATOM     10  C   UNL     1      20.613  29.573  25.670  1.00  0.00     0.017 C 
ATOM     11  C   UNL     1      21.808  29.968  24.792  1.00  0.00     0.012 C 
ATOM     12  C   UNL     1      19.599  28.724  24.894  1.00  0.00     0.012 C 
ENDBRANCH   5  10
TORSDOF 2
ENDMDL
MODEL 7
REMARK VINA RESULT:    -4.024      4.238      7.404
REMARK INTER + INTRA:          -4.572
REMARK INTER:                  -4.376
REMARK INTRA:                  -0.196
REMARK UNBOUND:                -0.195
REMARK SMILES Cc1ccc(C(C)C)c(O)c1
REMARK SMILES IDX 1 1 2 2 11 3 9 4 5 5 4 6 3 7 10 8 6 10 7 11 8 12
REMARK H PARENT 10 9
REMARK Flexibility Score: inf
ROOT
ATOM      1  C   UNL     1      23.280  30.332  21.514  1.00  0.00     0.044 C 
ATOM      2  C   UNL     1      22.586  29.993  22.801  1.00  0.00    -0.047 A 
ATOM      3  C   UNL     1      21.469  29.147  22.799  1.00  0.00     0.049 A 
ATOM      4  C   UNL     1      20.793  28.854  23.992  1.00  0.00     0.119 A 
ATOM      5  C   UNL     1      21.227  29.425  25.213  1.00  0.00    -0.004 A 
ATOM      6  C   UNL     1      22.339  30.288  25.196  1.00  0.00     0.008 A 
ATOM      7  C   UNL     1      23.006  30.574  24.004  1.00  0.00     0.004 A 
ENDROOT
BRANCH   4   8
ATOM      8  O   UNL     1      19.690  28.000  23.958  1.00  0.00    -0.508 OA
ATOM      9  H   UNL     1      19.386  27.555  23.100  1.00  0.00     0.293 HD
ENDBRANCH   4   8
BRANCH   5  10
ATOM     10  C   UNL     1      20.534  29.144  26.538  1.00  0.00     0.017 C 
ATOM     11  C   UNL     1      21.255  28.052  27.339  1.00  0.00     0.012 C 
ATOM     12  C   UNL     1      20.348  30.421  27.367  1.00  0.00     0.012 C 
ENDBRANCH   5  10
TORSDOF 2
ENDMDL
MODEL 8
REMARK VINA RESULT:    -3.946      2.481      3.251
REMARK INTER + INTRA:          -4.487
REMARK INTER:                  -4.297
REMARK INTRA:                  -0.190
REMARK UNBOUND:                -0.195
REMARK SMILES Cc1ccc(C(C)C)c(O)c1
REMARK SMILES IDX 1 1 2 2 11 3 9 4 5 5 4 6 3 7 10 8 6 10 7 11 8 12
REMARK H PARENT 10 9
REMARK Flexibility Score: inf
ROOT
ATOM      1  C   UNL     1      22.845  27.182  18.869  1.00  0.00     0.044 C 
ATOM      2  C   UNL     1      22.971  28.049  17.651  1.00  0.00    -0.047 A 
ATOM      3  C   UNL     1      22.043  29.072  17.414  1.00  0.00     0.049 A 
ATOM      4  C   UNL     1      22.132  29.864  16.260  1.00  0.00     0.119 A 
ATOM      5  C   UNL     1      23.158  29.627  15.314  1.00  0.00    -0.004 A 
ATOM      6  C   UNL     1      24.072  28.584  15.557  1.00  0.00     0.008 A 
ATOM      7  C   UNL     1      23.976  27.801  16.708  1.00  0.00     0.004 A 
ENDROOT
BRANCH   4   8
ATOM      8  O   UNL     1      21.198  30.880  16.057  1.00  0.00    -0.508 OA
ATOM      9  H   UNL     1      21.478  31.847  15.945  1.00  0.00     0.293 HD
ENDBRANCH   4   8
BRANCH   5  10
ATOM     10  C   UNL     1      23.306  30.454  14.044  1.00  0.00     0.017 C 
ATOM     11  C   UNL     1      24.125  31.728  14.285  1.00  0.00     0.012 C 
ATOM     12  C   UNL     1      23.878  29.625  12.888  1.00  0.00     0.012 C 
ENDBRANCH   5  10
TORSDOF 2
ENDMDL
