MODEL 1
REMARK VINA RESULT:    12.793      0.000      0.000
REMARK INTER + INTRA:          13.167
REMARK INTER:                  13.167
REMARK INTRA:                   0.000
REMARK UNBOUND:                 0.000
REMARK SMILES C=C1[C@H](O)C[C@@]23C[C@@H]1C(C)(C)[C@H]2CC[C@H]3C
REMARK SMILES IDX 16 1 15 2 14 3 13 4 12 5 6 6 7 7 8 8 9 9 10 10 11 11 2 12
REMARK SMILES IDX 1 13 3 14 5 15 4 16
REMARK H PARENT 4 17
REMARK Flexibility Score: inf
ROOT
ATOM      1  C   UNL     1     -33.025  33.897 -10.993  1.00  0.00     0.008 C 
ATOM      2  C   UNL     1     -34.262  34.806 -11.029  1.00  0.00    -0.008 C 
ATOM      3  C   UNL     1     -34.294  35.855  -9.877  1.00  0.00     0.004 C 
ATOM      4  C   UNL     1     -35.789  36.125  -9.557  1.00  0.00     0.005 C 
ATOM      5  C   UNL     1     -36.493  35.360 -10.664  1.00  0.00     0.002 C 
ATOM      6  C   UNL     1     -35.639  34.118 -10.907  1.00  0.00    -0.020 C 
ATOM      7  C   UNL     1     -36.378  33.567 -12.121  1.00  0.00     0.016 C 
ATOM      8  C   UNL     1     -37.833  33.569 -11.565  1.00  0.00     0.023 C 
ATOM      9  C   UNL     1     -37.969  34.915 -10.748  1.00  0.00    -0.025 C 
ATOM     10  C   UNL     1     -38.626  34.801  -9.351  1.00  0.00     0.012 C 
ATOM     11  C   UNL     1     -38.806  35.924 -11.569  1.00  0.00     0.012 C 
ATOM     12  C   UNL     1     -37.964  32.349 -10.672  1.00  0.00    -0.045 C 
ATOM     13  C   UNL     1     -39.103  31.639 -10.646  1.00  0.00     0.011 C 
ATOM     14  C   UNL     1     -36.742  31.909  -9.881  1.00  0.00     0.140 C 
ATOM     15  C   UNL     1     -35.684  33.045  -9.728  1.00  0.00     0.044 C 
ENDROOT
BRANCH  14  16
ATOM     16  O   UNL     1     -37.084  31.374  -8.626  1.00  0.00    -0.389 OA
ATOM     17  H   UNL     1     -37.998  31.685  -8.399  1.00  0.00     0.211 HD
ENDBRANCH  14  16
TORSDOF 1
ENDMDL
