MODEL 1
REMARK VINA RESULT:    -5.639      0.000      0.000
REMARK INTER + INTRA:          -6.232
REMARK INTER:                  -6.133
REMARK INTRA:                  -0.098
REMARK UNBOUND:                -0.098
REMARK SMILES Cc1ccc(C(C)C)c(O)c1
REMARK SMILES IDX 1 1 2 2 11 3 9 4 5 5 4 6 3 7 10 8 6 10 7 11 8 12
REMARK H PARENT 10 9
REMARK Flexibility Score: inf
ROOT
ATOM      1  C   UNL     1      -7.876   0.496 -10.749  1.00  0.00     0.044 C 
ATOM      2  C   UNL     1      -8.640  -0.785 -10.579  1.00  0.00    -0.047 A 
ATOM      3  C   UNL     1      -9.406  -1.295 -11.634  1.00  0.00     0.049 A 
ATOM      4  C   UNL     1     -10.094  -2.511 -11.496  1.00  0.00     0.119 A 
ATOM      5  C   UNL     1     -10.008  -3.239 -10.285  1.00  0.00    -0.004 A 
ATOM      6  C   UNL     1      -9.218  -2.724  -9.241  1.00  0.00     0.008 A 
ATOM      7  C   UNL     1      -8.537  -1.513  -9.388  1.00  0.00     0.004 A 
ENDROOT
BRANCH   4   8
ATOM      8  O   UNL     1     -10.855  -2.987 -12.562  1.00  0.00    -0.508 OA
ATOM      9  H   UNL     1     -10.656  -2.726 -13.520  1.00  0.00     0.293 HD
ENDBRANCH   4   8
BRANCH   5  10
ATOM     10  C   UNL     1     -10.731  -4.563 -10.076  1.00  0.00     0.017 C 
ATOM     11  C   UNL     1     -10.845  -4.922  -8.590  1.00  0.00     0.012 C 
ATOM     12  C   UNL     1     -10.088  -5.698 -10.883  1.00  0.00     0.012 C 
ENDBRANCH   5  10
TORSDOF 2
ENDMDL
MODEL 2
REMARK VINA RESULT:    -5.605      0.979      4.092
REMARK INTER + INTRA:          -6.194
REMARK INTER:                  -6.077
REMARK INTRA:                  -0.117
REMARK UNBOUND:                -0.098
REMARK SMILES Cc1ccc(C(C)C)c(O)c1
REMARK SMILES IDX 1 1 2 2 11 3 9 4 5 5 4 6 3 7 10 8 6 10 7 11 8 12
REMARK H PARENT 10 9
REMARK Flexibility Score: inf
ROOT
ATOM      1  C   UNL     1     -10.970  -5.497  -8.250  1.00  0.00     0.044 C 
ATOM      2  C   UNL     1     -10.414  -4.291  -8.948  1.00  0.00    -0.047 A 
ATOM      3  C   UNL     1     -10.881  -3.934 -10.218  1.00  0.00     0.049 A 
ATOM      4  C   UNL     1     -10.394  -2.786 -10.864  1.00  0.00     0.119 A 
ATOM      5  C   UNL     1      -9.428  -1.972 -10.225  1.00  0.00    -0.004 A 
ATOM      6  C   UNL     1      -8.983  -2.332  -8.940  1.00  0.00     0.008 A 
ATOM      7  C   UNL     1      -9.474  -3.476  -8.306  1.00  0.00     0.004 A 
ENDROOT
BRANCH   4   8
ATOM      8  O   UNL     1     -10.872  -2.463 -12.132  1.00  0.00    -0.508 OA
ATOM      9  H   UNL     1     -10.664  -1.573 -12.571  1.00  0.00     0.293 HD
ENDBRANCH   4   8
BRANCH   5  10
ATOM     10  C   UNL     1      -8.862  -0.716 -10.874  1.00  0.00     0.017 C 
ATOM     11  C   UNL     1      -7.875  -1.050 -11.999  1.00  0.00     0.012 C 
ATOM     12  C   UNL     1      -8.238   0.229  -9.840  1.00  0.00     0.012 C 
ENDBRANCH   5  10
TORSDOF 2
ENDMDL
MODEL 3
REMARK VINA RESULT:    -5.281      1.977      4.510
REMARK INTER + INTRA:          -5.842
REMARK INTER:                  -5.668
REMARK INTRA:                  -0.174
REMARK UNBOUND:                -0.098
REMARK SMILES Cc1ccc(C(C)C)c(O)c1
REMARK SMILES IDX 1 1 2 2 11 3 9 4 5 5 4 6 3 7 10 8 6 10 7 11 8 12
REMARK H PARENT 10 9
REMARK Flexibility Score: inf
ROOT
ATOM      1  C   UNL     1     -10.924  -5.919  -7.971  1.00  0.00     0.044 C 
ATOM      2  C   UNL     1     -10.647  -4.603  -8.639  1.00  0.00    -0.047 A 
ATOM      3  C   UNL     1      -9.654  -3.753  -8.139  1.00  0.00     0.049 A 
ATOM      4  C   UNL     1      -9.362  -2.539  -8.779  1.00  0.00     0.119 A 
ATOM      5  C   UNL     1     -10.068  -2.168  -9.949  1.00  0.00    -0.004 A 
ATOM      6  C   UNL     1     -11.050  -3.042 -10.452  1.00  0.00     0.008 A 
ATOM      7  C   UNL     1     -11.332  -4.249  -9.807  1.00  0.00     0.004 A 
ENDROOT
BRANCH   4   8
ATOM      8  O   UNL     1      -8.374  -1.710  -8.251  1.00  0.00    -0.508 OA
ATOM      9  H   UNL     1      -7.406  -2.004  -8.189  1.00  0.00     0.293 HD
ENDBRANCH   4   8
BRANCH   5  10
ATOM     10  C   UNL     1      -9.797  -0.864 -10.687  1.00  0.00     0.017 C 
ATOM     11  C   UNL     1     -11.038  -0.362 -11.434  1.00  0.00     0.012 C 
ATOM     12  C   UNL     1      -8.586  -0.978 -11.620  1.00  0.00     0.012 C 
ENDBRANCH   5  10
TORSDOF 2
ENDMDL
MODEL 4
REMARK VINA RESULT:    -5.217      2.003      3.560
REMARK INTER + INTRA:          -5.773
REMARK INTER:                  -5.582
REMARK INTRA:                  -0.191
REMARK UNBOUND:                -0.098
REMARK SMILES Cc1ccc(C(C)C)c(O)c1
REMARK SMILES IDX 1 1 2 2 11 3 9 4 5 5 4 6 3 7 10 8 6 10 7 11 8 12
REMARK H PARENT 10 9
REMARK Flexibility Score: inf
ROOT
ATOM      1  C   UNL     1      -7.986  -3.223  -6.536  1.00  0.00     0.044 C 
ATOM      2  C   UNL     1      -8.622  -2.787  -7.824  1.00  0.00    -0.047 A 
ATOM      3  C   UNL     1      -8.204  -1.609  -8.454  1.00  0.00     0.049 A 
ATOM      4  C   UNL     1      -8.766  -1.212  -9.677  1.00  0.00     0.119 A 
ATOM      5  C   UNL     1      -9.759  -2.013 -10.291  1.00  0.00    -0.004 A 
ATOM      6  C   UNL     1     -10.155  -3.205  -9.657  1.00  0.00     0.008 A 
ATOM      7  C   UNL     1      -9.588  -3.590  -8.440  1.00  0.00     0.004 A 
ENDROOT
BRANCH   4   8
ATOM      8  O   UNL     1      -8.335  -0.029 -10.274  1.00  0.00    -0.508 OA
ATOM      9  H   UNL     1      -7.364   0.259 -10.249  1.00  0.00     0.293 HD
ENDBRANCH   4   8
BRANCH   5  10
ATOM     10  C   UNL     1     -10.406  -1.635 -11.617  1.00  0.00     0.017 C 
ATOM     11  C   UNL     1     -11.607  -0.702 -11.421  1.00  0.00     0.012 C 
ATOM     12  C   UNL     1     -10.783  -2.873 -12.441  1.00  0.00     0.012 C 
ENDBRANCH   5  10
TORSDOF 2
ENDMDL
MODEL 5
REMARK VINA RESULT:    -5.147      1.959      3.610
REMARK INTER + INTRA:          -5.696
REMARK INTER:                  -5.501
REMARK INTRA:                  -0.196
REMARK UNBOUND:                -0.098
REMARK SMILES Cc1ccc(C(C)C)c(O)c1
REMARK SMILES IDX 1 1 2 2 11 3 9 4 5 5 4 6 3 7 10 8 6 10 7 11 8 12
REMARK H PARENT 10 9
REMARK Flexibility Score: inf
ROOT
ATOM      1  C   UNL     1      -7.875  -3.212  -6.368  1.00  0.00     0.044 C 
ATOM      2  C   UNL     1      -8.689  -2.968  -7.605  1.00  0.00    -0.047 A 
ATOM      3  C   UNL     1      -9.742  -3.828  -7.937  1.00  0.00     0.049 A 
ATOM      4  C   UNL     1     -10.533  -3.587  -9.072  1.00  0.00     0.119 A 
ATOM      5  C   UNL     1     -10.275  -2.458  -9.886  1.00  0.00    -0.004 A 
ATOM      6  C   UNL     1      -9.226  -1.591  -9.529  1.00  0.00     0.008 A 
ATOM      7  C   UNL     1      -8.445  -1.841  -8.397  1.00  0.00     0.004 A 
ENDROOT
BRANCH   4   8
ATOM      8  O   UNL     1     -11.568  -4.467  -9.381  1.00  0.00    -0.508 OA
ATOM      9  H   UNL     1     -11.441  -5.234 -10.032  1.00  0.00     0.293 HD
ENDBRANCH   4   8
BRANCH   5  10
ATOM     10  C   UNL     1     -11.097  -2.144 -11.129  1.00  0.00     0.017 C 
ATOM     11  C   UNL     1     -10.520  -2.817 -12.380  1.00  0.00     0.012 C 
ATOM     12  C   UNL     1     -11.272  -0.634 -11.331  1.00  0.00     0.012 C 
ENDBRANCH   5  10
TORSDOF 2
ENDMDL
MODEL 6
REMARK VINA RESULT:    -4.958      1.753      3.700
REMARK INTER + INTRA:          -5.491
REMARK INTER:                  -5.382
REMARK INTRA:                  -0.109
REMARK UNBOUND:                -0.098
REMARK SMILES Cc1ccc(C(C)C)c(O)c1
REMARK SMILES IDX 1 1 2 2 11 3 9 4 5 5 4 6 3 7 10 8 6 10 7 11 8 12
REMARK H PARENT 10 9
REMARK Flexibility Score: inf
ROOT
ATOM      1  C   UNL     1     -11.194  -4.009 -12.994  1.00  0.00     0.044 C 
ATOM      2  C   UNL     1     -10.462  -3.358 -11.857  1.00  0.00    -0.047 A 
ATOM      3  C   UNL     1      -9.855  -2.109 -12.032  1.00  0.00     0.049 A 
ATOM      4  C   UNL     1      -9.200  -1.476 -10.964  1.00  0.00     0.119 A 
ATOM      5  C   UNL     1      -9.157  -2.097  -9.692  1.00  0.00    -0.004 A 
ATOM      6  C   UNL     1      -9.789  -3.343  -9.526  1.00  0.00     0.008 A 
ATOM      7  C   UNL     1     -10.439  -3.964 -10.596  1.00  0.00     0.004 A 
ENDROOT
BRANCH   4   8
ATOM      8  O   UNL     1      -8.597  -0.237 -11.172  1.00  0.00    -0.508 OA
ATOM      9  H   UNL     1      -7.851   0.102 -10.576  1.00  0.00     0.293 HD
ENDBRANCH   4   8
BRANCH   5  10
ATOM     10  C   UNL     1      -8.462  -1.460  -8.496  1.00  0.00     0.017 C 
ATOM     11  C   UNL     1      -8.147  -2.490  -7.405  1.00  0.00     0.012 C 
ATOM     12  C   UNL     1      -9.257  -0.273  -7.939  1.00  0.00     0.012 C 
ENDBRANCH   5  10
TORSDOF 2
ENDMDL
MODEL 7
REMARK VINA RESULT:    -4.860      1.998      3.752
REMARK INTER + INTRA:          -5.384
REMARK INTER:                  -5.310
REMARK INTRA:                  -0.074
REMARK UNBOUND:                -0.098
REMARK SMILES Cc1ccc(C(C)C)c(O)c1
REMARK SMILES IDX 1 1 2 2 11 3 9 4 5 5 4 6 3 7 10 8 6 10 7 11 8 12
REMARK H PARENT 10 9
REMARK Flexibility Score: inf
ROOT
ATOM      1  C   UNL     1     -10.936  -3.656 -12.976  1.00  0.00     0.044 C 
ATOM      2  C   UNL     1     -10.492  -3.294 -11.589  1.00  0.00    -0.047 A 
ATOM      3  C   UNL     1     -10.709  -4.178 -10.526  1.00  0.00     0.049 A 
ATOM      4  C   UNL     1     -10.264  -3.864  -9.232  1.00  0.00     0.119 A 
ATOM      5  C   UNL     1      -9.578  -2.649  -8.995  1.00  0.00    -0.004 A 
ATOM      6  C   UNL     1      -9.350  -1.779 -10.078  1.00  0.00     0.008 A 
ATOM      7  C   UNL     1      -9.797  -2.101 -11.361  1.00  0.00     0.004 A 
ENDROOT
BRANCH   4   8
ATOM      8  O   UNL     1     -10.503  -4.761  -8.193  1.00  0.00    -0.508 OA
ATOM      9  H   UNL     1     -10.756  -5.727  -8.367  1.00  0.00     0.293 HD
ENDBRANCH   4   8
BRANCH   5  10
ATOM     10  C   UNL     1      -9.072  -2.253  -7.614  1.00  0.00     0.017 C 
ATOM     11  C   UNL     1      -8.723  -0.762  -7.540  1.00  0.00     0.012 C 
ATOM     12  C   UNL     1      -7.896  -3.130  -7.166  1.00  0.00     0.012 C 
ENDBRANCH   5  10
TORSDOF 2
ENDMDL
