MODEL 1
REMARK VINA RESULT:    -5.917      0.000      0.000
REMARK INTER + INTRA:          -9.002
REMARK INTER:                  -7.992
REMARK INTRA:                  -1.010
REMARK UNBOUND:                -1.010
REMARK SMILES C=CC(C)=CCC=C(C)CCC=C(C)C
REMARK SMILES IDX 8 1 7 2 9 3 10 4 11 5 12 6 14 7 13 8 15 9 6 10 5 11 3 12
REMARK SMILES IDX 4 13 2 14 1 15
REMARK H PARENT
REMARK Flexibility Score: inf
ROOT
ATOM      1  C   UNL     1     109.593 104.770 125.297  1.00  0.00    -0.077 C 
ATOM      2  C   UNL     1     108.898 104.749 126.457  1.00  0.00    -0.024 C 
ATOM      3  C   UNL     1     109.072 104.099 124.047  1.00  0.00     0.039 C 
ENDROOT
BRANCH   1   4
ATOM      4  C   UNL     1     110.922 105.490 125.248  1.00  0.00     0.034 C 
BRANCH   4   5
ATOM      5  C   UNL     1     110.781 106.928 125.759  1.00  0.00     0.032 C 
BRANCH   5   6
ATOM      6  C   UNL     1     111.597 107.134 127.010  1.00  0.00    -0.028 C 
ATOM      7  C   UNL     1     109.625 107.875 128.366  1.00  0.00     0.039 C 
ATOM      8  C   UNL     1     111.088 107.536 128.196  1.00  0.00    -0.080 C 
ATOM      9  C   UNL     1     112.020 107.660 129.373  1.00  0.00     0.039 C 
ENDBRANCH   5   6
ENDBRANCH   4   5
ENDBRANCH   1   4
BRANCH   2  10
ATOM     10  C   UNL     1     107.575 104.047 126.636  1.00  0.00     0.055 C 
BRANCH  10  11
ATOM     11  C   UNL     1     107.719 102.826 127.506  1.00  0.00    -0.020 C 
ATOM     12  C   UNL     1     107.309 101.595 127.142  1.00  0.00    -0.055 C 
ATOM     13  C   UNL     1     106.658 101.343 125.799  1.00  0.00     0.044 C 
BRANCH  12  14
ATOM     14  C   UNL     1     107.577 100.467 128.070  1.00  0.00    -0.005 C 
ATOM     15  C   UNL     1     107.592 100.591 129.397  1.00  0.00     0.009 C 
ENDBRANCH  12  14
ENDBRANCH  10  11
ENDBRANCH   2  10
TORSDOF 6
ENDMDL
MODEL 2
REMARK VINA RESULT:    -5.878      6.210      9.236
REMARK INTER + INTRA:          -8.949
REMARK INTER:                  -8.056
REMARK INTRA:                  -0.893
REMARK UNBOUND:                -1.010
REMARK SMILES C=CC(C)=CCC=C(C)CCC=C(C)C
REMARK SMILES IDX 8 1 7 2 9 3 10 4 11 5 12 6 14 7 13 8 15 9 6 10 5 11 3 12
REMARK SMILES IDX 4 13 2 14 1 15
REMARK H PARENT
REMARK Flexibility Score: inf
ROOT
ATOM      1  C   UNL     1     102.792 107.599 125.124  1.00  0.00    -0.077 C 
ATOM      2  C   UNL     1     103.462 107.797 126.282  1.00  0.00    -0.024 C 
ATOM      3  C   UNL     1     103.324 108.108 123.804  1.00  0.00     0.039 C 
ENDROOT
BRANCH   1   4
ATOM      4  C   UNL     1     101.483 106.843 125.149  1.00  0.00     0.034 C 
BRANCH   4   5
ATOM      5  C   UNL     1     101.680 105.436 125.722  1.00  0.00     0.032 C 
BRANCH   5   6
ATOM      6  C   UNL     1     100.888 105.259 126.993  1.00  0.00    -0.028 C 
ATOM      7  C   UNL     1     102.901 104.635 128.349  1.00  0.00     0.039 C 
ATOM      8  C   UNL     1     101.426 104.924 128.188  1.00  0.00    -0.080 C 
ATOM      9  C   UNL     1     100.514 104.823 129.383  1.00  0.00     0.039 C 
ENDBRANCH   5   6
ENDBRANCH   4   5
ENDBRANCH   1   4
BRANCH   2  10
ATOM     10  C   UNL     1     104.763 108.554 126.388  1.00  0.00     0.055 C 
BRANCH  10  11
ATOM     11  C   UNL     1     104.648 109.703 127.356  1.00  0.00    -0.020 C 
ATOM     12  C   UNL     1     105.174 110.923 127.133  1.00  0.00    -0.055 C 
ATOM     13  C   UNL     1     105.936 111.237 125.864  1.00  0.00     0.044 C 
BRANCH  12  14
ATOM     14  C   UNL     1     104.925 111.985 128.142  1.00  0.00    -0.005 C 
ATOM     15  C   UNL     1     104.959 111.774 129.458  1.00  0.00     0.009 C 
ENDBRANCH  12  14
ENDBRANCH  10  11
ENDBRANCH   2  10
TORSDOF 6
ENDMDL
MODEL 3
REMARK VINA RESULT:    -5.817      5.164      7.399
REMARK INTER + INTRA:          -8.867
REMARK INTER:                  -7.810
REMARK INTRA:                  -1.057
REMARK UNBOUND:                -1.010
REMARK SMILES C=CC(C)=CCC=C(C)CCC=C(C)C
REMARK SMILES IDX 8 1 7 2 9 3 10 4 11 5 12 6 14 7 13 8 15 9 6 10 5 11 3 12
REMARK SMILES IDX 4 13 2 14 1 15
REMARK H PARENT
REMARK Flexibility Score: inf
ROOT
ATOM      1  C   UNL     1     102.269 105.556 128.522  1.00  0.00    -0.077 C 
ATOM      2  C   UNL     1     103.067 104.468 128.419  1.00  0.00    -0.024 C 
ATOM      3  C   UNL     1     102.795 106.880 129.025  1.00  0.00     0.039 C 
ENDROOT
BRANCH   1   4
ATOM      4  C   UNL     1     100.817 105.445 128.116  1.00  0.00     0.034 C 
BRANCH   4   5
ATOM      5  C   UNL     1     100.694 105.054 126.639  1.00  0.00     0.032 C 
BRANCH   5   6
ATOM      6  C   UNL     1     101.084 106.204 125.746  1.00  0.00    -0.028 C 
ATOM      7  C   UNL     1     103.080 105.013 124.813  1.00  0.00     0.039 C 
ATOM      8  C   UNL     1     102.138 106.192 124.900  1.00  0.00    -0.080 C 
ATOM      9  C   UNL     1     102.382 107.402 124.038  1.00  0.00     0.039 C 
ENDBRANCH   5   6
ENDBRANCH   4   5
ENDBRANCH   1   4
BRANCH   2  10
ATOM     10  C   UNL     1     104.523 104.448 128.813  1.00  0.00     0.055 C 
BRANCH  10  11
ATOM     11  C   UNL     1     104.933 103.088 129.315  1.00  0.00    -0.020 C 
ATOM     12  C   UNL     1     105.397 102.105 128.518  1.00  0.00    -0.055 C 
ATOM     13  C   UNL     1     105.545 102.301 127.025  1.00  0.00     0.044 C 
BRANCH  12  14
ATOM     14  C   UNL     1     105.831 100.836 129.156  1.00  0.00    -0.005 C 
ATOM     15  C   UNL     1     107.108 100.504 129.343  1.00  0.00     0.009 C 
ENDBRANCH  12  14
ENDBRANCH  10  11
ENDBRANCH   2  10
TORSDOF 6
ENDMDL
MODEL 4
REMARK VINA RESULT:    -5.817      4.917      7.062
REMARK INTER + INTRA:          -8.867
REMARK INTER:                  -7.802
REMARK INTRA:                  -1.065
REMARK UNBOUND:                -1.010
REMARK SMILES C=CC(C)=CCC=C(C)CCC=C(C)C
REMARK SMILES IDX 8 1 7 2 9 3 10 4 11 5 12 6 14 7 13 8 15 9 6 10 5 11 3 12
REMARK SMILES IDX 4 13 2 14 1 15
REMARK H PARENT
REMARK Flexibility Score: inf
ROOT
ATOM      1  C   UNL     1     103.766 105.031 126.891  1.00  0.00    -0.077 C 
ATOM      2  C   UNL     1     103.812 103.921 127.663  1.00  0.00    -0.024 C 
ATOM      3  C   UNL     1     104.752 106.162 127.068  1.00  0.00     0.039 C 
ENDROOT
BRANCH   1   4
ATOM      4  C   UNL     1     102.707 105.138 125.817  1.00  0.00     0.034 C 
BRANCH   4   5
ATOM      5  C   UNL     1     101.304 105.027 126.425  1.00  0.00     0.032 C 
BRANCH   5   6
ATOM      6  C   UNL     1     101.020 106.197 127.333  1.00  0.00    -0.028 C 
ATOM      7  C   UNL     1     100.585 104.749 129.330  1.00  0.00     0.039 C 
ATOM      8  C   UNL     1     100.720 106.090 128.647  1.00  0.00    -0.080 C 
ATOM      9  C   UNL     1     100.499 107.352 129.439  1.00  0.00     0.039 C 
ENDBRANCH   5   6
ENDBRANCH   4   5
ENDBRANCH   1   4
BRANCH   2  10
ATOM     10  C   UNL     1     104.805 103.708 128.778  1.00  0.00     0.055 C 
BRANCH  10  11
ATOM     11  C   UNL     1     106.012 102.947 128.294  1.00  0.00    -0.020 C 
ATOM     12  C   UNL     1     106.224 101.640 128.547  1.00  0.00    -0.055 C 
ATOM     13  C   UNL     1     105.241 100.821 129.355  1.00  0.00     0.044 C 
BRANCH  12  14
ATOM     14  C   UNL     1     107.423 100.999 127.948  1.00  0.00    -0.005 C 
ATOM     15  C   UNL     1     107.508 100.647 126.666  1.00  0.00     0.009 C 
ENDBRANCH  12  14
ENDBRANCH  10  11
ENDBRANCH   2  10
TORSDOF 6
ENDMDL
MODEL 5
REMARK VINA RESULT:    -5.796      6.150      7.420
REMARK INTER + INTRA:          -8.839
REMARK INTER:                  -7.803
REMARK INTRA:                  -1.036
REMARK UNBOUND:                -1.010
REMARK SMILES C=CC(C)=CCC=C(C)CCC=C(C)C
REMARK SMILES IDX 8 1 7 2 9 3 10 4 11 5 12 6 14 7 13 8 15 9 6 10 5 11 3 12
REMARK SMILES IDX 4 13 2 14 1 15
REMARK H PARENT
REMARK Flexibility Score: inf
ROOT
ATOM      1  C   UNL     1     105.477 110.227 128.482  1.00  0.00    -0.077 C 
ATOM      2  C   UNL     1     104.379 109.438 128.464  1.00  0.00    -0.024 C 
ATOM      3  C   UNL     1     106.830 109.694 128.892  1.00  0.00     0.039 C 
ENDROOT
BRANCH   1   4
ATOM      4  C   UNL     1     105.349 111.678 128.074  1.00  0.00     0.034 C 
BRANCH   4   5
ATOM      5  C   UNL     1     105.033 111.795 126.579  1.00  0.00     0.032 C 
BRANCH   5   6
ATOM      6  C   UNL     1     106.215 111.369 125.746  1.00  0.00    -0.028 C 
ATOM      7  C   UNL     1     105.063 109.326 124.866  1.00  0.00     0.039 C 
ATOM      8  C   UNL     1     106.236 110.276 124.951  1.00  0.00    -0.080 C 
ATOM      9  C   UNL     1     107.477 109.997 124.144  1.00  0.00     0.039 C 
ENDBRANCH   5   6
ENDBRANCH   4   5
ENDBRANCH   1   4
BRANCH   2  10
ATOM     10  C   UNL     1     104.376 107.985 128.869  1.00  0.00     0.055 C 
BRANCH  10  11
ATOM     11  C   UNL     1     103.021 107.563 129.374  1.00  0.00    -0.020 C 
ATOM     12  C   UNL     1     102.053 107.055 128.586  1.00  0.00    -0.055 C 
ATOM     13  C   UNL     1     102.261 106.866 127.099  1.00  0.00     0.044 C 
BRANCH  12  14
ATOM     14  C   UNL     1     100.789 106.615 129.230  1.00  0.00    -0.005 C 
ATOM     15  C   UNL     1     100.402 105.341 129.301  1.00  0.00     0.009 C 
ENDBRANCH  12  14
ENDBRANCH  10  11
ENDBRANCH   2  10
TORSDOF 6
ENDMDL
MODEL 6
REMARK VINA RESULT:    -5.709      5.918      8.913
REMARK INTER + INTRA:          -8.721
REMARK INTER:                  -7.151
REMARK INTRA:                  -1.569
REMARK UNBOUND:                -1.010
REMARK SMILES C=CC(C)=CCC=C(C)CCC=C(C)C
REMARK SMILES IDX 8 1 7 2 9 3 10 4 11 5 12 6 14 7 13 8 15 9 6 10 5 11 3 12
REMARK SMILES IDX 4 13 2 14 1 15
REMARK H PARENT
REMARK Flexibility Score: inf
ROOT
ATOM      1  C   UNL     1     102.223 105.706 128.521  1.00  0.00    -0.077 C 
ATOM      2  C   UNL     1     102.413 106.997 128.876  1.00  0.00    -0.024 C 
ATOM      3  C   UNL     1     103.361 104.712 128.505  1.00  0.00     0.039 C 
ENDROOT
BRANCH   1   4
ATOM      4  C   UNL     1     100.835 105.243 128.138  1.00  0.00     0.034 C 
BRANCH   4   5
ATOM      5  C   UNL     1     100.741 105.001 126.628  1.00  0.00     0.032 C 
BRANCH   5   6
ATOM      6  C   UNL     1     101.096 106.251 125.862  1.00  0.00    -0.028 C 
ATOM      7  C   UNL     1     103.116 105.220 124.799  1.00  0.00     0.039 C 
ATOM      8  C   UNL     1     102.145 106.357 125.017  1.00  0.00    -0.080 C 
ATOM      9  C   UNL     1     102.352 107.660 124.288  1.00  0.00     0.039 C 
ENDBRANCH   5   6
ENDBRANCH   4   5
ENDBRANCH   1   4
BRANCH   2  10
ATOM     10  C   UNL     1     103.751 107.581 129.256  1.00  0.00     0.055 C 
BRANCH  10  11
ATOM     11  C   UNL     1     104.022 108.857 128.503  1.00  0.00    -0.020 C 
ATOM     12  C   UNL     1     104.704 108.909 127.341  1.00  0.00    -0.055 C 
ATOM     13  C   UNL     1     105.258 107.660 126.692  1.00  0.00     0.044 C 
BRANCH  12  14
ATOM     14  C   UNL     1     104.837 110.228 126.669  1.00  0.00    -0.005 C 
ATOM     15  C   UNL     1     105.085 111.365 127.320  1.00  0.00     0.009 C 
ENDBRANCH  12  14
ENDBRANCH  10  11
ENDBRANCH   2  10
TORSDOF 6
ENDMDL
MODEL 7
REMARK VINA RESULT:    -5.702      3.635      6.500
REMARK INTER + INTRA:          -8.712
REMARK INTER:                  -7.149
REMARK INTRA:                  -1.563
REMARK UNBOUND:                -1.010
REMARK SMILES C=CC(C)=CCC=C(C)CCC=C(C)C
REMARK SMILES IDX 8 1 7 2 9 3 10 4 11 5 12 6 14 7 13 8 15 9 6 10 5 11 3 12
REMARK SMILES IDX 4 13 2 14 1 15
REMARK H PARENT
REMARK Flexibility Score: inf
ROOT
ATOM      1  C   UNL     1     106.795 102.219 128.516  1.00  0.00    -0.077 C 
ATOM      2  C   UNL     1     105.511 102.433 128.886  1.00  0.00    -0.024 C 
ATOM      3  C   UNL     1     107.806 103.341 128.478  1.00  0.00     0.039 C 
ENDROOT
BRANCH   1   4
ATOM      4  C   UNL     1     107.230 100.821 128.140  1.00  0.00     0.034 C 
BRANCH   4   5
ATOM      5  C   UNL     1     107.446 100.708 126.627  1.00  0.00     0.032 C 
BRANCH   5   6
ATOM      6  C   UNL     1     106.189 101.071 125.878  1.00  0.00    -0.028 C 
ATOM      7  C   UNL     1     107.225 103.075 124.789  1.00  0.00     0.039 C 
ATOM      8  C   UNL     1     106.081 102.117 125.029  1.00  0.00    -0.080 C 
ATOM      9  C   UNL     1     104.770 102.334 124.319  1.00  0.00     0.039 C 
ENDBRANCH   5   6
ENDBRANCH   4   5
ENDBRANCH   1   4
BRANCH   2  10
ATOM     10  C   UNL     1     104.953 103.783 129.262  1.00  0.00     0.055 C 
BRANCH  10  11
ATOM     11  C   UNL     1     103.662 104.060 128.536  1.00  0.00    -0.020 C 
ATOM     12  C   UNL     1     103.590 104.728 127.368  1.00  0.00    -0.055 C 
ATOM     13  C   UNL     1     104.829 105.261 126.682  1.00  0.00     0.044 C 
BRANCH  12  14
ATOM     14  C   UNL     1     102.257 104.869 126.727  1.00  0.00    -0.005 C 
ATOM     15  C   UNL     1     101.113 104.921 127.409  1.00  0.00     0.009 C 
ENDBRANCH  12  14
ENDBRANCH  10  11
ENDBRANCH   2  10
TORSDOF 6
ENDMDL
MODEL 8
REMARK VINA RESULT:    -5.699      1.664      6.545
REMARK INTER + INTRA:          -8.707
REMARK INTER:                  -7.542
REMARK INTRA:                  -1.165
REMARK UNBOUND:                -1.010
REMARK SMILES C=CC(C)=CCC=C(C)CCC=C(C)C
REMARK SMILES IDX 8 1 7 2 9 3 10 4 11 5 12 6 14 7 13 8 15 9 6 10 5 11 3 12
REMARK SMILES IDX 4 13 2 14 1 15
REMARK H PARENT
REMARK Flexibility Score: inf
ROOT
ATOM      1  C   UNL     1     107.076 102.392 128.494  1.00  0.00    -0.077 C 
ATOM      2  C   UNL     1     108.278 103.011 128.480  1.00  0.00    -0.024 C 
ATOM      3  C   UNL     1     105.803 103.136 128.827  1.00  0.00     0.039 C 
ENDROOT
BRANCH   1   4
ATOM      4  C   UNL     1     107.002 100.918 128.160  1.00  0.00     0.034 C 
BRANCH   4   5
ATOM      5  C   UNL     1     107.380 100.674 126.695  1.00  0.00     0.032 C 
BRANCH   5   6
ATOM      6  C   UNL     1     106.245 101.057 125.779  1.00  0.00    -0.028 C 
ATOM      7  C   UNL     1     107.437 103.069 124.881  1.00  0.00     0.039 C 
ATOM      8  C   UNL     1     106.266 102.116 124.939  1.00  0.00    -0.080 C 
ATOM      9  C   UNL     1     105.072 102.352 124.051  1.00  0.00     0.039 C 
ENDBRANCH   5   6
ENDBRANCH   4   5
ENDBRANCH   1   4
BRANCH   2  10
ATOM     10  C   UNL     1     108.482 104.468 128.816  1.00  0.00     0.055 C 
BRANCH  10  11
ATOM     11  C   UNL     1     109.252 105.174 127.731  1.00  0.00    -0.020 C 
ATOM     12  C   UNL     1     110.541 105.549 127.852  1.00  0.00    -0.055 C 
ATOM     13  C   UNL     1     111.329 105.279 129.116  1.00  0.00     0.044 C 
BRANCH  12  14
ATOM     14  C   UNL     1     111.199 106.175 126.676  1.00  0.00    -0.005 C 
ATOM     15  C   UNL     1     111.684 107.417 126.677  1.00  0.00     0.009 C 
ENDBRANCH  12  14
ENDBRANCH  10  11
ENDBRANCH   2  10
TORSDOF 6
ENDMDL
MODEL 9
REMARK VINA RESULT:    -5.699      4.195      6.975
REMARK INTER + INTRA:          -8.707
REMARK INTER:                  -7.053
REMARK INTRA:                  -1.654
REMARK UNBOUND:                -1.010
REMARK SMILES C=CC(C)=CCC=C(C)CCC=C(C)C
REMARK SMILES IDX 8 1 7 2 9 3 10 4 11 5 12 6 14 7 13 8 15 9 6 10 5 11 3 12
REMARK SMILES IDX 4 13 2 14 1 15
REMARK H PARENT
REMARK Flexibility Score: inf
ROOT
ATOM      1  C   UNL     1     105.698 110.365 128.426  1.00  0.00    -0.077 C 
ATOM      2  C   UNL     1     106.992 110.228 128.793  1.00  0.00    -0.024 C 
ATOM      3  C   UNL     1     104.736 109.200 128.461  1.00  0.00     0.039 C 
ENDROOT
BRANCH   1   4
ATOM      4  C   UNL     1     105.199 111.720 127.976  1.00  0.00     0.034 C 
BRANCH   4   5
ATOM      5  C   UNL     1     105.063 111.769 126.450  1.00  0.00     0.032 C 
BRANCH   5   6
ATOM      6  C   UNL     1     106.351 111.355 125.784  1.00  0.00    -0.028 C 
ATOM      7  C   UNL     1     105.328 109.344 124.695  1.00  0.00     0.039 C 
ATOM      8  C   UNL     1     106.481 110.282 124.972  1.00  0.00    -0.080 C 
ATOM      9  C   UNL     1     107.824 110.014 124.344  1.00  0.00     0.039 C 
ENDBRANCH   5   6
ENDBRANCH   4   5
ENDBRANCH   1   4
BRANCH   2  10
ATOM     10  C   UNL     1     107.611 108.927 129.238  1.00  0.00     0.055 C 
BRANCH  10  11
ATOM     11  C   UNL     1     108.791 108.561 128.375  1.00  0.00    -0.020 C 
ATOM     12  C   UNL     1     108.707 107.757 127.296  1.00  0.00    -0.055 C 
ATOM     13  C   UNL     1     107.391 107.149 126.862  1.00  0.00     0.044 C 
BRANCH  12  14
ATOM     14  C   UNL     1     109.938 107.536 126.494  1.00  0.00    -0.005 C 
ATOM     15  C   UNL     1     111.168 107.574 127.005  1.00  0.00     0.009 C 
ENDBRANCH  12  14
ENDBRANCH  10  11
ENDBRANCH   2  10
TORSDOF 6
ENDMDL
