MODEL 1
REMARK VINA RESULT:    -0.238      0.000      0.000
REMARK INTER + INTRA:          -0.626
REMARK INTER:                  -0.294
REMARK INTRA:                  -0.333
REMARK UNBOUND:                -0.333
REMARK SMILES Oc1cc(O)c2cc(O)c(-c3cc(O)c(O)c(O)c3)[o+]c2c1
REMARK SMILES IDX 10 1 20 2 21 3 22 4 2 5 3 6 4 7 6 8 7 9 8 10 11 11 12 12
REMARK SMILES IDX 13 13 19 14 15 15 17 16 14 17 16 19 18 21 9 23 1 25 5 27
REMARK H PARENT 14 18 16 20 18 22 9 24 1 26 5 28
REMARK Flexibility Score: inf
ROOT
ATOM      1  C   UNL     1      24.136  17.286   9.308  1.00  0.00     0.402 A 
ATOM      2  O   UNL     1      22.914  17.718   9.609  1.00  0.00    -0.202 OA
ATOM      3  C   UNL     1      22.335  17.507  10.787  1.00  0.00     0.368 A 
ATOM      4  C   UNL     1      21.049  18.004  11.010  1.00  0.00     0.162 A 
ATOM      5  C   UNL     1      20.418  17.799  12.241  1.00  0.00     0.128 A 
ATOM      6  C   UNL     1      21.076  17.096  13.252  1.00  0.00     0.093 A 
ATOM      7  C   UNL     1      22.366  16.587  13.053  1.00  0.00     0.136 A 
ATOM      8  C   UNL     1      23.010  16.790  11.804  1.00  0.00     0.125 A 
ATOM      9  C   UNL     1      24.295  16.306  11.512  1.00  0.00     0.078 A 
ATOM     10  C   UNL     1      24.863  16.542  10.256  1.00  0.00     0.223 A 
ENDROOT
BRANCH   1  11
ATOM     11  C   UNL     1      24.676  17.593   7.965  1.00  0.00     0.091 A 
ATOM     12  C   UNL     1      25.154  18.875   7.642  1.00  0.00     0.068 A 
ATOM     13  C   UNL     1      25.640  19.152   6.358  1.00  0.00     0.162 A 
ATOM     14  C   UNL     1      24.661  16.601   6.971  1.00  0.00     0.068 A 
ATOM     15  C   UNL     1      25.642  18.146   5.377  1.00  0.00     0.200 A 
ATOM     16  C   UNL     1      25.148  16.873   5.686  1.00  0.00     0.162 A 
BRANCH  13  17
ATOM     17  O   UNL     1      26.117  20.426   6.050  1.00  0.00    -0.504 OA
ATOM     18  H   UNL     1      27.083  20.686   6.217  1.00  0.00     0.293 HD
ENDBRANCH  13  17
BRANCH  15  19
ATOM     19  O   UNL     1      26.125  18.397   4.093  1.00  0.00    -0.502 OA
ATOM     20  H   UNL     1      26.591  17.686   3.544  1.00  0.00     0.293 HD
ENDBRANCH  15  19
BRANCH  16  21
ATOM     21  O   UNL     1      25.144  15.879   4.708  1.00  0.00    -0.504 OA
ATOM     22  H   UNL     1      25.320  14.908   4.936  1.00  0.00     0.293 HD
ENDBRANCH  16  21
ENDBRANCH   1  11
BRANCH  10  23
ATOM     23  O   UNL     1      26.120  16.019   9.947  1.00  0.00    -0.500 OA
ATOM     24  H   UNL     1      26.656  16.356   9.156  1.00  0.00     0.294 HD
ENDBRANCH  10  23
BRANCH   5  25
ATOM     25  O   UNL     1      19.135  18.292  12.471  1.00  0.00    -0.507 OA
ATOM     26  H   UNL     1      18.409  18.229  11.767  1.00  0.00     0.293 HD
ENDBRANCH   5  25
BRANCH   7  27
ATOM     27  O   UNL     1      22.957  15.898  14.115  1.00  0.00    -0.507 OA
ATOM     28  H   UNL     1      22.897  16.181  15.083  1.00  0.00     0.293 HD
ENDBRANCH   7  27
TORSDOF 7
ENDMDL
