MODEL 1
REMARK VINA RESULT:    -4.679      0.000      0.000
REMARK INTER + INTRA:          -6.831
REMARK INTER:                  -6.593
REMARK INTRA:                  -0.238
REMARK UNBOUND:                -0.238
REMARK SMILES CCCCCCCCC(=O)[O-]
REMARK SMILES IDX 6 1 7 2 8 3 9 4 10 5 11 6 5 7 4 8 3 9 2 10 1 11
REMARK H PARENT
REMARK Flexibility Score: inf
ROOT
ATOM      1  C   UNL     1      22.045 -13.036  21.202  1.00  0.00     0.000 C 
ENDROOT
BRANCH   1   2
ATOM      2  C   UNL     1      22.821 -14.331  20.898  1.00  0.00     0.006 C 
BRANCH   2   3
ATOM      3  C   UNL     1      22.485 -14.921  19.522  1.00  0.00     0.053 C 
BRANCH   3   4
ATOM      4  C   UNL     1      22.988 -16.325  19.420  1.00  0.00     0.041 C 
ATOM      5  O   UNL     1      23.315 -16.959  20.458  1.00  0.00    -0.550 OA
ATOM      6  O   UNL     1      23.144 -16.919  18.173  1.00  0.00    -0.550 OA
ENDBRANCH   3   4
ENDBRANCH   2   3
ENDBRANCH   1   2
BRANCH   1   7
ATOM      7  C   UNL     1      22.911 -11.864  21.697  1.00  0.00     0.000 C 
BRANCH   7   8
ATOM      8  C   UNL     1      22.081 -10.736  22.332  1.00  0.00    -0.000 C 
BRANCH   8   9
ATOM      9  C   UNL     1      20.775 -11.241  22.971  1.00  0.00    -0.000 C 
BRANCH   9  10
ATOM     10  C   UNL     1      20.587 -10.847  24.447  1.00  0.00    -0.003 C 
ATOM     11  C   UNL     1      20.687  -9.339  24.681  1.00  0.00     0.004 C 
ENDBRANCH   9  10
ENDBRANCH   8   9
ENDBRANCH   7   8
ENDBRANCH   1   7
TORSDOF 7
ENDMDL
MODEL 2
REMARK VINA RESULT:    -4.645      1.722      3.165
REMARK INTER + INTRA:          -6.784
REMARK INTER:                  -6.555
REMARK INTRA:                  -0.229
REMARK UNBOUND:                -0.238
REMARK SMILES CCCCCCCCC(=O)[O-]
REMARK SMILES IDX 6 1 7 2 8 3 9 4 10 5 11 6 5 7 4 8 3 9 2 10 1 11
REMARK H PARENT
REMARK Flexibility Score: inf
ROOT
ATOM      1  C   UNL     1      21.688 -10.553  22.702  1.00  0.00     0.000 C 
ENDROOT
BRANCH   1   2
ATOM      2  C   UNL     1      22.453 -11.642  21.927  1.00  0.00     0.006 C 
BRANCH   2   3
ATOM      3  C   UNL     1      21.524 -12.655  21.246  1.00  0.00     0.053 C 
BRANCH   3   4
ATOM      4  C   UNL     1      22.300 -13.850  20.791  1.00  0.00     0.041 C 
ATOM      5  O   UNL     1      21.967 -14.462  19.742  1.00  0.00    -0.550 OA
ATOM      6  O   UNL     1      23.365 -14.319  21.552  1.00  0.00    -0.550 OA
ENDBRANCH   3   4
ENDBRANCH   2   3
ENDBRANCH   1   2
BRANCH   1   7
ATOM      7  C   UNL     1      20.644 -11.083  23.701  1.00  0.00     0.000 C 
BRANCH   7   8
ATOM      8  C   UNL     1      20.449 -10.152  24.910  1.00  0.00    -0.000 C 
BRANCH   8   9
ATOM      9  C   UNL     1      20.887  -8.704  24.625  1.00  0.00    -0.000 C 
BRANCH   9  10
ATOM     10  C   UNL     1      20.278  -7.651  25.569  1.00  0.00    -0.003 C 
ATOM     11  C   UNL     1      21.229  -7.233  26.692  1.00  0.00     0.004 C 
ENDBRANCH   9  10
ENDBRANCH   8   9
ENDBRANCH   7   8
ENDBRANCH   1   7
TORSDOF 7
ENDMDL
MODEL 3
REMARK VINA RESULT:    -4.564      3.675      6.850
REMARK INTER + INTRA:          -6.670
REMARK INTER:                  -6.525
REMARK INTRA:                  -0.145
REMARK UNBOUND:                -0.238
REMARK SMILES CCCCCCCCC(=O)[O-]
REMARK SMILES IDX 6 1 7 2 8 3 9 4 10 5 11 6 5 7 4 8 3 9 2 10 1 11
REMARK H PARENT
REMARK Flexibility Score: inf
ROOT
ATOM      1  C   UNL     1      21.721 -13.362  20.904  1.00  0.00     0.000 C 
ENDROOT
BRANCH   1   2
ATOM      2  C   UNL     1      22.024 -12.107  21.743  1.00  0.00     0.006 C 
BRANCH   2   3
ATOM      3  C   UNL     1      20.811 -11.615  22.543  1.00  0.00     0.053 C 
BRANCH   3   4
ATOM      4  C   UNL     1      21.190 -10.452  23.403  1.00  0.00     0.041 C 
ATOM      5  O   UNL     1      20.562 -10.220  24.469  1.00  0.00    -0.550 OA
ATOM      6  O   UNL     1      22.208  -9.594  23.004  1.00  0.00    -0.550 OA
ENDBRANCH   3   4
ENDBRANCH   2   3
ENDBRANCH   1   2
BRANCH   1   7
ATOM      7  C   UNL     1      22.897 -14.343  20.759  1.00  0.00     0.000 C 
BRANCH   7   8
ATOM      8  C   UNL     1      22.779 -15.237  19.514  1.00  0.00    -0.000 C 
BRANCH   8   9
ATOM      9  C   UNL     1      23.120 -16.710  19.801  1.00  0.00    -0.000 C 
BRANCH   9  10
ATOM     10  C   UNL     1      23.394 -17.563  18.549  1.00  0.00    -0.003 C 
ATOM     11  C   UNL     1      22.972 -16.873  17.251  1.00  0.00     0.004 C 
ENDBRANCH   9  10
ENDBRANCH   8   9
ENDBRANCH   7   8
ENDBRANCH   1   7
TORSDOF 7
ENDMDL
MODEL 4
REMARK VINA RESULT:    -4.532      4.920      7.256
REMARK INTER + INTRA:          -6.625
REMARK INTER:                  -6.314
REMARK INTRA:                  -0.310
REMARK UNBOUND:                -0.238
REMARK SMILES CCCCCCCCC(=O)[O-]
REMARK SMILES IDX 6 1 7 2 8 3 9 4 10 5 11 6 5 7 4 8 3 9 2 10 1 11
REMARK H PARENT
REMARK Flexibility Score: inf
ROOT
ATOM      1  C   UNL     1      20.677 -11.083  23.575  1.00  0.00     0.000 C 
ENDROOT
BRANCH   1   2
ATOM      2  C   UNL     1      20.398 -10.168  24.781  1.00  0.00     0.006 C 
BRANCH   2   3
ATOM      3  C   UNL     1      21.251  -8.893  24.775  1.00  0.00     0.053 C 
BRANCH   3   4
ATOM      4  C   UNL     1      20.378  -7.682  24.696  1.00  0.00     0.041 C 
ATOM      5  O   UNL     1      19.586  -7.408  25.635  1.00  0.00    -0.550 OA
ATOM      6  O   UNL     1      20.404  -6.879  23.562  1.00  0.00    -0.550 OA
ENDBRANCH   3   4
ENDBRANCH   2   3
ENDBRANCH   1   2
BRANCH   1   7
ATOM      7  C   UNL     1      21.791 -10.592  22.634  1.00  0.00     0.000 C 
BRANCH   7   8
ATOM      8  C   UNL     1      22.285 -11.685  21.672  1.00  0.00    -0.000 C 
BRANCH   8   9
ATOM      9  C   UNL     1      21.190 -12.707  21.316  1.00  0.00    -0.000 C 
BRANCH   9  10
ATOM     10  C   UNL     1      21.590 -13.729  20.237  1.00  0.00    -0.003 C 
ATOM     11  C   UNL     1      22.815 -14.559  20.624  1.00  0.00     0.004 C 
ENDBRANCH   9  10
ENDBRANCH   8   9
ENDBRANCH   7   8
ENDBRANCH   1   7
TORSDOF 7
ENDMDL
MODEL 5
REMARK VINA RESULT:    -4.504      3.291      7.272
REMARK INTER + INTRA:          -6.585
REMARK INTER:                  -6.240
REMARK INTRA:                  -0.345
REMARK UNBOUND:                -0.238
REMARK SMILES CCCCCCCCC(=O)[O-]
REMARK SMILES IDX 6 1 7 2 8 3 9 4 10 5 11 6 5 7 4 8 3 9 2 10 1 11
REMARK H PARENT
REMARK Flexibility Score: inf
ROOT
ATOM      1  C   UNL     1      23.079 -16.701  20.141  1.00  0.00     0.000 C 
ENDROOT
BRANCH   1   2
ATOM      2  C   UNL     1      22.771 -15.267  19.674  1.00  0.00     0.006 C 
BRANCH   2   3
ATOM      3  C   UNL     1      22.778 -14.250  20.823  1.00  0.00     0.053 C 
BRANCH   3   4
ATOM      4  C   UNL     1      21.585 -13.352  20.732  1.00  0.00     0.041 C 
ATOM      5  O   UNL     1      21.392 -12.463  21.602  1.00  0.00    -0.550 OA
ATOM      6  O   UNL     1      20.658 -13.529  19.712  1.00  0.00    -0.550 OA
ENDBRANCH   3   4
ENDBRANCH   2   3
ENDBRANCH   1   2
BRANCH   1   7
ATOM      7  C   UNL     1      23.480 -17.675  19.019  1.00  0.00     0.000 C 
BRANCH   7   8
ATOM      8  C   UNL     1      23.072 -17.177  17.622  1.00  0.00    -0.000 C 
BRANCH   8   9
ATOM      9  C   UNL     1      22.639 -18.318  16.684  1.00  0.00    -0.000 C 
BRANCH   9  10
ATOM     10  C   UNL     1      22.481 -19.688  17.368  1.00  0.00    -0.003 C 
ATOM     11  C   UNL     1      21.049 -20.222  17.315  1.00  0.00     0.004 C 
ENDBRANCH   9  10
ENDBRANCH   8   9
ENDBRANCH   7   8
ENDBRANCH   1   7
TORSDOF 7
ENDMDL
MODEL 6
REMARK VINA RESULT:    -4.451      3.162      7.146
REMARK INTER + INTRA:          -6.510
REMARK INTER:                  -6.267
REMARK INTRA:                  -0.242
REMARK UNBOUND:                -0.238
REMARK SMILES CCCCCCCCC(=O)[O-]
REMARK SMILES IDX 6 1 7 2 8 3 9 4 10 5 11 6 5 7 4 8 3 9 2 10 1 11
REMARK H PARENT
REMARK Flexibility Score: inf
ROOT
ATOM      1  C   UNL     1      22.584 -15.441  19.667  1.00  0.00     0.000 C 
ENDROOT
BRANCH   1   2
ATOM      2  C   UNL     1      22.729 -14.295  20.685  1.00  0.00     0.006 C 
BRANCH   2   3
ATOM      3  C   UNL     1      21.509 -13.366  20.717  1.00  0.00     0.053 C 
BRANCH   3   4
ATOM      4  C   UNL     1      21.751 -12.219  21.646  1.00  0.00     0.041 C 
ATOM      5  O   UNL     1      20.811 -11.762  22.348  1.00  0.00    -0.550 OA
ATOM      6  O   UNL     1      23.004 -11.622  21.701  1.00  0.00    -0.550 OA
ENDBRANCH   3   4
ENDBRANCH   2   3
ENDBRANCH   1   2
BRANCH   1   7
ATOM      7  C   UNL     1      23.291 -16.750  20.061  1.00  0.00     0.000 C 
BRANCH   7   8
ATOM      8  C   UNL     1      23.135 -17.855  19.002  1.00  0.00    -0.000 C 
BRANCH   8   9
ATOM      9  C   UNL     1      23.204 -17.316  17.562  1.00  0.00    -0.000 C 
BRANCH   9  10
ATOM     10  C   UNL     1      22.674 -18.283  16.488  1.00  0.00    -0.003 C 
ATOM     11  C   UNL     1      21.985 -19.514  17.078  1.00  0.00     0.004 C 
ENDBRANCH   9  10
ENDBRANCH   8   9
ENDBRANCH   7   8
ENDBRANCH   1   7
TORSDOF 7
ENDMDL
MODEL 7
REMARK VINA RESULT:    -4.417      2.824      4.726
REMARK INTER + INTRA:          -6.462
REMARK INTER:                  -6.244
REMARK INTRA:                  -0.218
REMARK UNBOUND:                -0.238
REMARK SMILES CCCCCCCCC(=O)[O-]
REMARK SMILES IDX 6 1 7 2 8 3 9 4 10 5 11 6 5 7 4 8 3 9 2 10 1 11
REMARK H PARENT
REMARK Flexibility Score: inf
ROOT
ATOM      1  C   UNL     1      20.642 -10.336  24.618  1.00  0.00     0.000 C 
ENDROOT
BRANCH   1   2
ATOM      2  C   UNL     1      20.561 -11.212  23.355  1.00  0.00     0.006 C 
BRANCH   2   3
ATOM      3  C   UNL     1      21.782 -11.057  22.439  1.00  0.00     0.053 C 
BRANCH   3   4
ATOM      4  C   UNL     1      21.983 -12.294  21.624  1.00  0.00     0.041 C 
ATOM      5  O   UNL     1      21.001 -12.857  21.073  1.00  0.00    -0.550 OA
ATOM      6  O   UNL     1      23.250 -12.855  21.512  1.00  0.00    -0.550 OA
ENDBRANCH   3   4
ENDBRANCH   2   3
ENDBRANCH   1   2
BRANCH   1   7
ATOM      7  C   UNL     1      21.222  -8.928  24.393  1.00  0.00     0.000 C 
BRANCH   7   8
ATOM      8  C   UNL     1      20.963  -7.980  25.576  1.00  0.00    -0.000 C 
BRANCH   8   9
ATOM      9  C   UNL     1      19.650  -7.191  25.432  1.00  0.00    -0.000 C 
BRANCH   9  10
ATOM     10  C   UNL     1      19.672  -6.096  24.350  1.00  0.00    -0.003 C 
ATOM     11  C   UNL     1      18.438  -5.194  24.386  1.00  0.00     0.004 C 
ENDBRANCH   9  10
ENDBRANCH   8   9
ENDBRANCH   7   8
ENDBRANCH   1   7
TORSDOF 7
ENDMDL
MODEL 8
REMARK VINA RESULT:    -4.413      2.294      3.858
REMARK INTER + INTRA:          -6.457
REMARK INTER:                  -6.100
REMARK INTRA:                  -0.357
REMARK UNBOUND:                -0.238
REMARK SMILES CCCCCCCCC(=O)[O-]
REMARK SMILES IDX 6 1 7 2 8 3 9 4 10 5 11 6 5 7 4 8 3 9 2 10 1 11
REMARK H PARENT
REMARK Flexibility Score: inf
ROOT
ATOM      1  C   UNL     1      20.819 -10.329  23.719  1.00  0.00     0.000 C 
ENDROOT
BRANCH   1   2
ATOM      2  C   UNL     1      20.719 -11.525  22.755  1.00  0.00     0.006 C 
BRANCH   2   3
ATOM      3  C   UNL     1      22.004 -11.751  21.947  1.00  0.00     0.053 C 
BRANCH   3   4
ATOM      4  C   UNL     1      21.889 -12.994  21.123  1.00  0.00     0.041 C 
ATOM      5  O   UNL     1      20.866 -13.194  20.416  1.00  0.00    -0.550 OA
ATOM      6  O   UNL     1      22.891 -13.955  21.171  1.00  0.00    -0.550 OA
ENDBRANCH   3   4
ENDBRANCH   2   3
ENDBRANCH   1   2
BRANCH   1   7
ATOM      7  C   UNL     1      21.905  -9.299  23.362  1.00  0.00     0.000 C 
BRANCH   7   8
ATOM      8  C   UNL     1      21.768  -7.988  24.154  1.00  0.00    -0.000 C 
BRANCH   8   9
ATOM      9  C   UNL     1      20.911  -8.143  25.423  1.00  0.00    -0.000 C 
BRANCH   9  10
ATOM     10  C   UNL     1      19.670  -7.234  25.476  1.00  0.00    -0.003 C 
ATOM     11  C   UNL     1      19.723  -6.088  24.464  1.00  0.00     0.004 C 
ENDBRANCH   9  10
ENDBRANCH   8   9
ENDBRANCH   7   8
ENDBRANCH   1   7
TORSDOF 7
ENDMDL
MODEL 9
REMARK VINA RESULT:    -4.298      1.789      2.879
REMARK INTER + INTRA:          -6.294
REMARK INTER:                  -6.110
REMARK INTRA:                  -0.185
REMARK UNBOUND:                -0.238
REMARK SMILES CCCCCCCCC(=O)[O-]
REMARK SMILES IDX 6 1 7 2 8 3 9 4 10 5 11 6 5 7 4 8 3 9 2 10 1 11
REMARK H PARENT
REMARK Flexibility Score: inf
ROOT
ATOM      1  C   UNL     1      22.672 -15.181  19.407  1.00  0.00     0.000 C 
ENDROOT
BRANCH   1   2
ATOM      2  C   UNL     1      23.041 -16.641  19.087  1.00  0.00     0.006 C 
BRANCH   2   3
ATOM      3  C   UNL     1      23.071 -16.935  17.582  1.00  0.00     0.053 C 
BRANCH   3   4
ATOM      4  C   UNL     1      22.558 -18.314  17.310  1.00  0.00     0.041 C 
ATOM      5  O   UNL     1      22.288 -19.090  18.263  1.00  0.00    -0.550 OA
ATOM      6  O   UNL     1      22.424 -18.760  16.000  1.00  0.00    -0.550 OA
ENDBRANCH   3   4
ENDBRANCH   2   3
ENDBRANCH   1   2
BRANCH   1   7
ATOM      7  C   UNL     1      22.969 -14.739  20.851  1.00  0.00     0.000 C 
BRANCH   7   8
ATOM      8  C   UNL     1      22.739 -13.235  21.074  1.00  0.00    -0.000 C 
BRANCH   8   9
ATOM      9  C   UNL     1      21.247 -12.864  21.151  1.00  0.00    -0.000 C 
BRANCH   9  10
ATOM     10  C   UNL     1      20.905 -11.790  22.200  1.00  0.00    -0.003 C 
ATOM     11  C   UNL     1      22.049 -10.804  22.442  1.00  0.00     0.004 C 
ENDBRANCH   9  10
ENDBRANCH   8   9
ENDBRANCH   7   8
ENDBRANCH   1   7
TORSDOF 7
ENDMDL
