MODEL 1
REMARK VINA RESULT:    -8.321      0.000      0.000
REMARK INTER + INTRA:          -9.811
REMARK INTER:                  -9.537
REMARK INTRA:                  -0.275
REMARK UNBOUND:                -0.275
REMARK SMILES O=C1C[C@@H](c2ccc(O)cc2)Oc2cc(O)cc(O)c21
REMARK SMILES IDX 3 1 4 2 12 3 13 4 14 5 15 6 17 7 18 8 20 9 2 10 1 11 5 12
REMARK SMILES IDX 6 13 11 14 7 15 10 16 8 17 9 18 19 20 16 22
REMARK H PARENT 9 19 19 21 16 23
REMARK Flexibility Score: inf
ROOT
ATOM      1  C   UNL     1       1.419  -4.682  -8.214  1.00  0.00     0.131 C 
ATOM      2  C   UNL     1       1.629  -6.096  -8.786  1.00  0.00     0.211 C 
ATOM      3  O   UNL     1       1.090  -7.078  -7.903  1.00  0.00    -0.484 OA
ATOM      4  C   UNL     1      -0.155  -6.919  -7.283  1.00  0.00     0.138 A 
ATOM      5  C   UNL     1      -0.807  -8.047  -6.779  1.00  0.00     0.093 A 
ATOM      6  C   UNL     1      -2.058  -7.926  -6.172  1.00  0.00     0.123 A 
ATOM      7  C   UNL     1      -2.635  -6.663  -6.022  1.00  0.00     0.093 A 
ATOM      8  C   UNL     1      -1.992  -5.515  -6.503  1.00  0.00     0.133 A 
ATOM      9  C   UNL     1      -0.748  -5.641  -7.179  1.00  0.00     0.102 A 
ATOM     10  C   UNL     1      -0.023  -4.508  -7.827  1.00  0.00     0.174 C 
ATOM     11  O   UNL     1      -0.595  -3.413  -8.080  1.00  0.00    -0.294 OA
ENDROOT
BRANCH   2  12
ATOM     12  C   UNL     1       3.082  -6.413  -9.064  1.00  0.00    -0.007 A 
ATOM     13  C   UNL     1       3.496  -6.888 -10.325  1.00  0.00     0.011 A 
ATOM     14  C   UNL     1       4.057  -6.143  -8.082  1.00  0.00     0.011 A 
ATOM     15  C   UNL     1       4.848  -7.157 -10.573  1.00  0.00     0.046 A 
ATOM     16  C   UNL     1       5.406  -6.407  -8.335  1.00  0.00     0.046 A 
ATOM     17  C   UNL     1       5.804  -6.928  -9.573  1.00  0.00     0.115 A 
BRANCH  17  18
ATOM     18  O   UNL     1       7.151  -7.199  -9.801  1.00  0.00    -0.508 OA
ATOM     19  H   UNL     1       7.454  -7.766 -10.587  1.00  0.00     0.293 HD
ENDBRANCH  17  18
ENDBRANCH   2  12
BRANCH   8  20
ATOM     20  O   UNL     1      -2.610  -4.285  -6.253  1.00  0.00    -0.507 OA
ATOM     21  H   UNL     1      -2.301  -3.404  -6.643  1.00  0.00     0.293 HD
ENDBRANCH   8  20
BRANCH   6  22
ATOM     22  O   UNL     1      -2.741  -9.061  -5.724  1.00  0.00    -0.508 OA
ATOM     23  H   UNL     1      -2.926  -9.218  -4.737  1.00  0.00     0.293 HD
ENDBRANCH   6  22
TORSDOF 4
ENDMDL
MODEL 2
REMARK VINA RESULT:    -7.765      1.577      3.024
REMARK INTER + INTRA:          -9.175
REMARK INTER:                  -8.896
REMARK INTRA:                  -0.278
REMARK UNBOUND:                -0.275
REMARK SMILES O=C1C[C@@H](c2ccc(O)cc2)Oc2cc(O)cc(O)c21
REMARK SMILES IDX 3 1 4 2 12 3 13 4 14 5 15 6 17 7 18 8 20 9 2 10 1 11 5 12
REMARK SMILES IDX 6 13 11 14 7 15 10 16 8 17 9 18 19 20 16 22
REMARK H PARENT 9 19 19 21 16 23
REMARK Flexibility Score: inf
ROOT
ATOM      1  C   UNL     1       1.950  -7.765  -7.993  1.00  0.00     0.131 C 
ATOM      2  C   UNL     1       2.738  -6.449  -8.117  1.00  0.00     0.211 C 
ATOM      3  O   UNL     1       1.981  -5.478  -8.836  1.00  0.00    -0.484 OA
ATOM      4  C   UNL     1       0.616  -5.276  -8.603  1.00  0.00     0.138 A 
ATOM      5  C   UNL     1       0.031  -4.076  -9.014  1.00  0.00     0.093 A 
ATOM      6  C   UNL     1      -1.324  -3.835  -8.779  1.00  0.00     0.123 A 
ATOM      7  C   UNL     1      -2.108  -4.823  -8.179  1.00  0.00     0.093 A 
ATOM      8  C   UNL     1      -1.549  -6.042  -7.776  1.00  0.00     0.133 A 
ATOM      9  C   UNL     1      -0.156  -6.265  -7.953  1.00  0.00     0.102 A 
ATOM     10  C   UNL     1       0.571  -7.475  -7.468  1.00  0.00     0.174 C 
ATOM     11  O   UNL     1       0.070  -8.251  -6.610  1.00  0.00    -0.294 OA
ENDROOT
BRANCH   2  12
ATOM     12  C   UNL     1       4.087  -6.626  -8.780  1.00  0.00    -0.007 A 
ATOM     13  C   UNL     1       4.196  -6.822 -10.171  1.00  0.00     0.011 A 
ATOM     14  C   UNL     1       5.265  -6.502  -8.014  1.00  0.00     0.011 A 
ATOM     15  C   UNL     1       5.453  -6.962 -10.772  1.00  0.00     0.046 A 
ATOM     16  C   UNL     1       6.517  -6.638  -8.618  1.00  0.00     0.046 A 
ATOM     17  C   UNL     1       6.616  -6.883  -9.994  1.00  0.00     0.115 A 
BRANCH  17  18
ATOM     18  O   UNL     1       7.873  -7.030 -10.575  1.00  0.00    -0.508 OA
ATOM     19  H   UNL     1       8.450  -7.846 -10.396  1.00  0.00     0.293 HD
ENDBRANCH  17  18
ENDBRANCH   2  12
BRANCH   8  20
ATOM     20  O   UNL     1      -2.419  -6.999  -7.242  1.00  0.00    -0.507 OA
ATOM     21  H   UNL     1      -2.141  -7.715  -6.583  1.00  0.00     0.293 HD
ENDBRANCH   8  20
BRANCH   6  22
ATOM     22  O   UNL     1      -1.898  -2.610  -9.132  1.00  0.00    -0.508 OA
ATOM     23  H   UNL     1      -2.094  -2.370 -10.100  1.00  0.00     0.293 HD
ENDBRANCH   6  22
TORSDOF 4
ENDMDL
MODEL 3
REMARK VINA RESULT:    -7.728      3.383      9.636
REMARK INTER + INTRA:          -9.132
REMARK INTER:                  -8.838
REMARK INTRA:                  -0.294
REMARK UNBOUND:                -0.275
REMARK SMILES O=C1C[C@@H](c2ccc(O)cc2)Oc2cc(O)cc(O)c21
REMARK SMILES IDX 3 1 4 2 12 3 13 4 14 5 15 6 17 7 18 8 20 9 2 10 1 11 5 12
REMARK SMILES IDX 6 13 11 14 7 15 10 16 8 17 9 18 19 20 16 22
REMARK H PARENT 9 19 19 21 16 23
REMARK Flexibility Score: inf
ROOT
ATOM      1  C   UNL     1       6.862  -8.143  -9.812  1.00  0.00     0.131 C 
ATOM      2  C   UNL     1       6.296  -6.822 -10.362  1.00  0.00     0.211 C 
ATOM      3  O   UNL     1       7.280  -5.791 -10.297  1.00  0.00    -0.484 OA
ATOM      4  C   UNL     1       8.613  -6.009 -10.666  1.00  0.00     0.138 A 
ATOM      5  C   UNL     1       9.416  -4.909 -10.975  1.00  0.00     0.093 A 
ATOM      6  C   UNL     1      10.744  -5.093 -11.365  1.00  0.00     0.123 A 
ATOM      7  C   UNL     1      11.284  -6.381 -11.392  1.00  0.00     0.093 A 
ATOM      8  C   UNL     1      10.504  -7.498 -11.067  1.00  0.00     0.133 A 
ATOM      9  C   UNL     1       9.134  -7.321 -10.734  1.00  0.00     0.102 A 
ATOM     10  C   UNL     1       8.178  -8.438 -10.475  1.00  0.00     0.174 C 
ATOM     11  O   UNL     1       8.436  -9.624 -10.820  1.00  0.00    -0.294 OA
ENDROOT
BRANCH   2  12
ATOM     12  C   UNL     1       5.044  -6.368  -9.642  1.00  0.00    -0.007 A 
ATOM     13  C   UNL     1       5.084  -5.320  -8.701  1.00  0.00     0.011 A 
ATOM     14  C   UNL     1       3.798  -6.934  -9.982  1.00  0.00     0.011 A 
ATOM     15  C   UNL     1       3.914  -4.897  -8.060  1.00  0.00     0.046 A 
ATOM     16  C   UNL     1       2.632  -6.506  -9.343  1.00  0.00     0.046 A 
ATOM     17  C   UNL     1       2.686  -5.499  -8.371  1.00  0.00     0.115 A 
BRANCH  17  18
ATOM     18  O   UNL     1       1.514  -5.096  -7.735  1.00  0.00    -0.508 OA
ATOM     19  H   UNL     1       0.702  -4.790  -8.261  1.00  0.00     0.293 HD
ENDBRANCH  17  18
ENDBRANCH   2  12
BRANCH   8  20
ATOM     20  O   UNL     1      11.142  -8.743 -11.059  1.00  0.00    -0.507 OA
ATOM     21  H   UNL     1      10.765  -9.572 -10.620  1.00  0.00     0.293 HD
ENDBRANCH   8  20
BRANCH   6  22
ATOM     22  O   UNL     1      11.531  -4.000 -11.737  1.00  0.00    -0.508 OA
ATOM     23  H   UNL     1      11.214  -3.321 -12.423  1.00  0.00     0.293 HD
ENDBRANCH   6  22
TORSDOF 4
ENDMDL
MODEL 4
REMARK VINA RESULT:    -7.354      6.349     12.195
REMARK INTER + INTRA:          -8.704
REMARK INTER:                  -8.428
REMARK INTRA:                  -0.275
REMARK UNBOUND:                -0.275
REMARK SMILES O=C1C[C@@H](c2ccc(O)cc2)Oc2cc(O)cc(O)c21
REMARK SMILES IDX 3 1 4 2 12 3 13 4 14 5 15 6 17 7 18 8 20 9 2 10 1 11 5 12
REMARK SMILES IDX 6 13 11 14 7 15 10 16 8 17 9 18 19 20 16 22
REMARK H PARENT 9 19 19 21 16 23
REMARK Flexibility Score: inf
ROOT
ATOM      1  C   UNL     1      10.453  -4.408 -10.841  1.00  0.00     0.131 C 
ATOM      2  C   UNL     1      10.238  -5.924 -10.990  1.00  0.00     0.211 C 
ATOM      3  O   UNL     1      10.578  -6.351 -12.307  1.00  0.00    -0.484 OA
ATOM      4  C   UNL     1      11.727  -5.895 -12.965  1.00  0.00     0.138 A 
ATOM      5  C   UNL     1      12.223  -6.630 -14.044  1.00  0.00     0.093 A 
ATOM      6  C   UNL     1      13.378  -6.214 -14.709  1.00  0.00     0.123 A 
ATOM      7  C   UNL     1      14.006  -5.027 -14.326  1.00  0.00     0.093 A 
ATOM      8  C   UNL     1      13.516  -4.262 -13.260  1.00  0.00     0.133 A 
ATOM      9  C   UNL     1      12.379  -4.717 -12.538  1.00  0.00     0.102 A 
ATOM     10  C   UNL     1      11.830  -4.047 -11.322  1.00  0.00     0.174 C 
ATOM     11  O   UNL     1      12.502  -3.202 -10.670  1.00  0.00    -0.294 OA
ENDROOT
BRANCH   2  12
ATOM     12  C   UNL     1       8.824  -6.357 -10.670  1.00  0.00    -0.007 A 
ATOM     13  C   UNL     1       7.756  -5.437 -10.695  1.00  0.00     0.011 A 
ATOM     14  C   UNL     1       8.545  -7.720 -10.435  1.00  0.00     0.011 A 
ATOM     15  C   UNL     1       6.450  -5.858 -10.418  1.00  0.00     0.046 A 
ATOM     16  C   UNL     1       7.240  -8.136 -10.164  1.00  0.00     0.046 A 
ATOM     17  C   UNL     1       6.191  -7.207 -10.139  1.00  0.00     0.115 A 
BRANCH  17  18
ATOM     18  O   UNL     1       4.899  -7.640  -9.853  1.00  0.00    -0.508 OA
ATOM     19  H   UNL     1       4.093  -7.038  -9.991  1.00  0.00     0.293 HD
ENDBRANCH  17  18
ENDBRANCH   2  12
BRANCH   8  20
ATOM     20  O   UNL     1      14.168  -3.055 -12.986  1.00  0.00    -0.507 OA
ATOM     21  H   UNL     1      14.622  -2.841 -12.107  1.00  0.00     0.293 HD
ENDBRANCH   8  20
BRANCH   6  22
ATOM     22  O   UNL     1      13.914  -6.981 -15.747  1.00  0.00    -0.508 OA
ATOM     23  H   UNL     1      14.896  -7.240 -15.769  1.00  0.00     0.293 HD
ENDBRANCH   6  22
TORSDOF 4
ENDMDL
MODEL 5
REMARK VINA RESULT:    -7.327      2.287      2.846
REMARK INTER + INTRA:          -8.673
REMARK INTER:                  -8.383
REMARK INTRA:                  -0.290
REMARK UNBOUND:                -0.275
REMARK SMILES O=C1C[C@@H](c2ccc(O)cc2)Oc2cc(O)cc(O)c21
REMARK SMILES IDX 3 1 4 2 12 3 13 4 14 5 15 6 17 7 18 8 20 9 2 10 1 11 5 12
REMARK SMILES IDX 6 13 11 14 7 15 10 16 8 17 9 18 19 20 16 22
REMARK H PARENT 9 19 19 21 16 23
REMARK Flexibility Score: inf
ROOT
ATOM      1  C   UNL     1       0.220  -4.563  -9.727  1.00  0.00     0.131 C 
ATOM      2  C   UNL     1       0.809  -5.446  -8.613  1.00  0.00     0.211 C 
ATOM      3  O   UNL     1       0.562  -4.868  -7.333  1.00  0.00    -0.484 OA
ATOM      4  C   UNL     1      -0.678  -4.315  -6.992  1.00  0.00     0.138 A 
ATOM      5  C   UNL     1      -0.994  -4.146  -5.642  1.00  0.00     0.093 A 
ATOM      6  C   UNL     1      -2.230  -3.615  -5.269  1.00  0.00     0.123 A 
ATOM      7  C   UNL     1      -3.131  -3.201  -6.253  1.00  0.00     0.093 A 
ATOM      8  C   UNL     1      -2.829  -3.342  -7.613  1.00  0.00     0.133 A 
ATOM      9  C   UNL     1      -1.599  -3.943  -7.997  1.00  0.00     0.102 A 
ATOM     10  C   UNL     1      -1.214  -4.244  -9.408  1.00  0.00     0.174 C 
ATOM     11  O   UNL     1      -2.065  -4.261 -10.338  1.00  0.00    -0.294 OA
ENDROOT
BRANCH   2  12
ATOM     12  C   UNL     1       2.294  -5.693  -8.775  1.00  0.00    -0.007 A 
ATOM     13  C   UNL     1       3.243  -4.892  -8.108  1.00  0.00     0.011 A 
ATOM     14  C   UNL     1       2.741  -6.798  -9.527  1.00  0.00     0.011 A 
ATOM     15  C   UNL     1       4.612  -5.147  -8.251  1.00  0.00     0.046 A 
ATOM     16  C   UNL     1       4.108  -7.052  -9.664  1.00  0.00     0.046 A 
ATOM     17  C   UNL     1       5.048  -6.221  -9.040  1.00  0.00     0.115 A 
BRANCH  17  18
ATOM     18  O   UNL     1       6.407  -6.482  -9.199  1.00  0.00    -0.508 OA
ATOM     19  H   UNL     1       7.107  -5.763  -9.051  1.00  0.00     0.293 HD
ENDBRANCH  17  18
ENDBRANCH   2  12
BRANCH   8  20
ATOM     20  O   UNL     1      -3.761  -2.844  -8.529  1.00  0.00    -0.507 OA
ATOM     21  H   UNL     1      -3.832  -3.149  -9.491  1.00  0.00     0.293 HD
ENDBRANCH   8  20
BRANCH   6  22
ATOM     22  O   UNL     1      -2.575  -3.504  -3.918  1.00  0.00    -0.508 OA
ATOM     23  H   UNL     1      -1.870  -3.410  -3.193  1.00  0.00     0.293 HD
ENDBRANCH   6  22
TORSDOF 4
ENDMDL
MODEL 6
REMARK VINA RESULT:    -7.253      2.708      3.166
REMARK INTER + INTRA:          -8.588
REMARK INTER:                  -8.289
REMARK INTRA:                  -0.299
REMARK UNBOUND:                -0.275
REMARK SMILES O=C1C[C@@H](c2ccc(O)cc2)Oc2cc(O)cc(O)c21
REMARK SMILES IDX 3 1 4 2 12 3 13 4 14 5 15 6 17 7 18 8 20 9 2 10 1 11 5 12
REMARK SMILES IDX 6 13 11 14 7 15 10 16 8 17 9 18 19 20 16 22
REMARK H PARENT 9 19 19 21 16 23
REMARK Flexibility Score: inf
ROOT
ATOM      1  C   UNL     1       0.441  -3.626  -6.805  1.00  0.00     0.131 C 
ATOM      2  C   UNL     1       1.034  -3.993  -8.177  1.00  0.00     0.211 C 
ATOM      3  O   UNL     1       0.122  -4.802  -8.917  1.00  0.00    -0.484 OA
ATOM      4  C   UNL     1      -1.248  -4.518  -8.973  1.00  0.00     0.138 A 
ATOM      5  C   UNL     1      -2.009  -5.068 -10.007  1.00  0.00     0.093 A 
ATOM      6  C   UNL     1      -3.374  -4.790 -10.103  1.00  0.00     0.123 A 
ATOM      7  C   UNL     1      -3.989  -4.002  -9.127  1.00  0.00     0.093 A 
ATOM      8  C   UNL     1      -3.251  -3.456  -8.070  1.00  0.00     0.133 A 
ATOM      9  C   UNL     1      -1.849  -3.682  -8.005  1.00  0.00     0.102 A 
ATOM     10  C   UNL     1      -0.942  -3.067  -6.991  1.00  0.00     0.174 C 
ATOM     11  O   UNL     1      -1.297  -2.074  -6.300  1.00  0.00    -0.294 OA
ENDROOT
BRANCH   2  12
ATOM     12  C   UNL     1       2.367  -4.703  -8.075  1.00  0.00    -0.007 A 
ATOM     13  C   UNL     1       2.531  -6.018  -8.556  1.00  0.00     0.011 A 
ATOM     14  C   UNL     1       3.492  -4.012  -7.580  1.00  0.00     0.011 A 
ATOM     15  C   UNL     1       3.776  -6.652  -8.475  1.00  0.00     0.046 A 
ATOM     16  C   UNL     1       4.734  -4.647  -7.504  1.00  0.00     0.046 A 
ATOM     17  C   UNL     1       4.878  -5.972  -7.937  1.00  0.00     0.115 A 
BRANCH  17  18
ATOM     18  O   UNL     1       6.121  -6.593  -7.841  1.00  0.00    -0.508 OA
ATOM     19  H   UNL     1       6.429  -7.037  -6.982  1.00  0.00     0.293 HD
ENDBRANCH  17  18
ENDBRANCH   2  12
BRANCH   8  20
ATOM     20  O   UNL     1      -3.958  -2.733  -7.103  1.00  0.00    -0.507 OA
ATOM     21  H   UNL     1      -3.530  -2.281  -6.305  1.00  0.00     0.293 HD
ENDBRANCH   8  20
BRANCH   6  22
ATOM     22  O   UNL     1      -4.125  -5.286 -11.172  1.00  0.00    -0.508 OA
ATOM     23  H   UNL     1      -4.979  -5.815 -11.025  1.00  0.00     0.293 HD
ENDBRANCH   6  22
TORSDOF 4
ENDMDL
MODEL 7
REMARK VINA RESULT:    -7.164      3.580      9.634
REMARK INTER + INTRA:          -8.486
REMARK INTER:                  -8.196
REMARK INTRA:                  -0.289
REMARK UNBOUND:                -0.275
REMARK SMILES O=C1C[C@@H](c2ccc(O)cc2)Oc2cc(O)cc(O)c21
REMARK SMILES IDX 3 1 4 2 12 3 13 4 14 5 15 6 17 7 18 8 20 9 2 10 1 11 5 12
REMARK SMILES IDX 6 13 11 14 7 15 10 16 8 17 9 18 19 20 16 22
REMARK H PARENT 9 19 19 21 16 23
REMARK Flexibility Score: inf
ROOT
ATOM      1  C   UNL     1       7.746  -5.599 -10.322  1.00  0.00     0.131 C 
ATOM      2  C   UNL     1       7.235  -6.817  -9.533  1.00  0.00     0.211 C 
ATOM      3  O   UNL     1       7.545  -8.027 -10.222  1.00  0.00    -0.484 OA
ATOM      4  C   UNL     1       8.794  -8.246 -10.816  1.00  0.00     0.138 A 
ATOM      5  C   UNL     1       9.182  -9.556 -11.105  1.00  0.00     0.093 A 
ATOM      6  C   UNL     1      10.429  -9.811 -11.679  1.00  0.00     0.123 A 
ATOM      7  C   UNL     1      11.266  -8.745 -12.016  1.00  0.00     0.093 A 
ATOM      8  C   UNL     1      10.890  -7.422 -11.754  1.00  0.00     0.133 A 
ATOM      9  C   UNL     1       9.650  -7.162 -11.109  1.00  0.00     0.102 A 
ATOM     10  C   UNL     1       9.191  -5.807 -10.682  1.00  0.00     0.174 C 
ATOM     11  O   UNL     1       9.988  -4.834 -10.593  1.00  0.00    -0.294 OA
ENDROOT
BRANCH   2  12
ATOM     12  C   UNL     1       5.747  -6.763  -9.257  1.00  0.00    -0.007 A 
ATOM     13  C   UNL     1       5.252  -6.306  -8.019  1.00  0.00     0.011 A 
ATOM     14  C   UNL     1       4.834  -7.084 -10.282  1.00  0.00     0.011 A 
ATOM     15  C   UNL     1       3.873  -6.241  -7.787  1.00  0.00     0.046 A 
ATOM     16  C   UNL     1       3.458  -7.014 -10.048  1.00  0.00     0.046 A 
ATOM     17  C   UNL     1       2.973  -6.608  -8.798  1.00  0.00     0.115 A 
BRANCH  17  18
ATOM     18  O   UNL     1       1.598  -6.558  -8.580  1.00  0.00    -0.508 OA
ATOM     19  H   UNL     1       1.048  -5.743  -8.833  1.00  0.00     0.293 HD
ENDBRANCH  17  18
ENDBRANCH   2  12
BRANCH   8  20
ATOM     20  O   UNL     1      11.761  -6.413 -12.181  1.00  0.00    -0.507 OA
ATOM     21  H   UNL     1      11.482  -5.456 -12.352  1.00  0.00     0.293 HD
ENDBRANCH   8  20
BRANCH   6  22
ATOM     22  O   UNL     1      10.848 -11.125 -11.911  1.00  0.00    -0.508 OA
ATOM     23  H   UNL     1      10.187 -11.867 -12.125  1.00  0.00     0.293 HD
ENDBRANCH   6  22
TORSDOF 4
ENDMDL
MODEL 8
REMARK VINA RESULT:    -7.100      6.780     10.558
REMARK INTER + INTRA:          -8.413
REMARK INTER:                  -8.116
REMARK INTRA:                  -0.297
REMARK UNBOUND:                -0.275
REMARK SMILES O=C1C[C@@H](c2ccc(O)cc2)Oc2cc(O)cc(O)c21
REMARK SMILES IDX 3 1 4 2 12 3 13 4 14 5 15 6 17 7 18 8 20 9 2 10 1 11 5 12
REMARK SMILES IDX 6 13 11 14 7 15 10 16 8 17 9 18 19 20 16 22
REMARK H PARENT 9 19 19 21 16 23
REMARK Flexibility Score: inf
ROOT
ATOM      1  C   UNL     1      11.339  -7.657 -12.251  1.00  0.00     0.131 C 
ATOM      2  C   UNL     1      11.490  -6.310 -11.522  1.00  0.00     0.211 C 
ATOM      3  O   UNL     1      10.211  -5.735 -11.262  1.00  0.00    -0.484 OA
ATOM      4  C   UNL     1       9.136  -6.495 -10.786  1.00  0.00     0.138 A 
ATOM      5  C   UNL     1       8.067  -5.841 -10.170  1.00  0.00     0.093 A 
ATOM      6  C   UNL     1       6.989  -6.571  -9.667  1.00  0.00     0.123 A 
ATOM      7  C   UNL     1       6.956  -7.957  -9.831  1.00  0.00     0.093 A 
ATOM      8  C   UNL     1       8.007  -8.634 -10.463  1.00  0.00     0.133 A 
ATOM      9  C   UNL     1       9.137  -7.902 -10.917  1.00  0.00     0.102 A 
ATOM     10  C   UNL     1      10.361  -8.522 -11.506  1.00  0.00     0.174 C 
ATOM     11  O   UNL     1      10.610  -9.752 -11.375  1.00  0.00    -0.294 OA
ENDROOT
BRANCH   2  12
ATOM     12  C   UNL     1      12.342  -5.317 -12.283  1.00  0.00    -0.007 A 
ATOM     13  C   UNL     1      12.347  -3.949 -11.942  1.00  0.00     0.011 A 
ATOM     14  C   UNL     1      13.219  -5.774 -13.288  1.00  0.00     0.011 A 
ATOM     15  C   UNL     1      13.158  -3.047 -12.641  1.00  0.00     0.046 A 
ATOM     16  C   UNL     1      14.030  -4.870 -13.981  1.00  0.00     0.046 A 
ATOM     17  C   UNL     1      13.991  -3.504 -13.671  1.00  0.00     0.115 A 
BRANCH  17  18
ATOM     18  O   UNL     1      14.796  -2.618 -14.382  1.00  0.00    -0.508 OA
ATOM     19  H   UNL     1      15.637  -2.927 -14.859  1.00  0.00     0.293 HD
ENDBRANCH  17  18
ENDBRANCH   2  12
BRANCH   8  20
ATOM     20  O   UNL     1       7.862 -10.014 -10.641  1.00  0.00    -0.507 OA
ATOM     21  H   UNL     1       8.451 -10.575 -11.243  1.00  0.00     0.293 HD
ENDBRANCH   8  20
BRANCH   6  22
ATOM     22  O   UNL     1       5.948  -5.924  -8.993  1.00  0.00    -0.508 OA
ATOM     23  H   UNL     1       5.059  -5.728  -9.445  1.00  0.00     0.293 HD
ENDBRANCH   6  22
TORSDOF 4
ENDMDL
MODEL 9
REMARK VINA RESULT:    -6.151      3.576      5.861
REMARK INTER + INTRA:          -7.325
REMARK INTER:                  -7.028
REMARK INTRA:                  -0.297
REMARK UNBOUND:                -0.275
REMARK SMILES O=C1C[C@@H](c2ccc(O)cc2)Oc2cc(O)cc(O)c21
REMARK SMILES IDX 3 1 4 2 12 3 13 4 14 5 15 6 17 7 18 8 20 9 2 10 1 11 5 12
REMARK SMILES IDX 6 13 11 14 7 15 10 16 8 17 9 18 19 20 16 22
REMARK H PARENT 9 19 19 21 16 23
REMARK Flexibility Score: inf
ROOT
ATOM      1  C   UNL     1       5.317  -7.419 -10.668  1.00  0.00     0.131 C 
ATOM      2  C   UNL     1       6.468  -7.261  -9.659  1.00  0.00     0.211 C 
ATOM      3  O   UNL     1       6.417  -5.977  -9.039  1.00  0.00    -0.484 OA
ATOM      4  C   UNL     1       5.216  -5.414  -8.591  1.00  0.00     0.138 A 
ATOM      5  C   UNL     1       5.264  -4.384  -7.649  1.00  0.00     0.093 A 
ATOM      6  C   UNL     1       4.084  -3.814  -7.167  1.00  0.00     0.123 A 
ATOM      7  C   UNL     1       2.853  -4.241  -7.671  1.00  0.00     0.093 A 
ATOM      8  C   UNL     1       2.781  -5.260  -8.630  1.00  0.00     0.133 A 
ATOM      9  C   UNL     1       3.976  -5.888  -9.075  1.00  0.00     0.102 A 
ATOM     10  C   UNL     1       4.018  -7.052 -10.008  1.00  0.00     0.174 C 
ATOM     11  O   UNL     1       2.996  -7.752 -10.241  1.00  0.00    -0.294 OA
ENDROOT
BRANCH   2  12
ATOM     12  C   UNL     1       7.834  -7.465 -10.279  1.00  0.00    -0.007 A 
ATOM     13  C   UNL     1       8.732  -6.390 -10.434  1.00  0.00     0.011 A 
ATOM     14  C   UNL     1       8.258  -8.765 -10.624  1.00  0.00     0.011 A 
ATOM     15  C   UNL     1      10.000  -6.600 -10.989  1.00  0.00     0.046 A 
ATOM     16  C   UNL     1       9.526  -8.970 -11.174  1.00  0.00     0.046 A 
ATOM     17  C   UNL     1      10.394  -7.889 -11.372  1.00  0.00     0.115 A 
BRANCH  17  18
ATOM     18  O   UNL     1      11.649  -8.112 -11.935  1.00  0.00    -0.508 OA
ATOM     19  H   UNL     1      12.473  -8.251 -11.359  1.00  0.00     0.293 HD
ENDBRANCH  17  18
ENDBRANCH   2  12
BRANCH   8  20
ATOM     20  O   UNL     1       1.513  -5.581  -9.126  1.00  0.00    -0.507 OA
ATOM     21  H   UNL     1       1.271  -5.585 -10.108  1.00  0.00     0.293 HD
ENDBRANCH   8  20
BRANCH   6  22
ATOM     22  O   UNL     1       4.126  -2.826  -6.178  1.00  0.00    -0.508 OA
ATOM     23  H   UNL     1       3.923  -3.036  -5.205  1.00  0.00     0.293 HD
ENDBRANCH   6  22
TORSDOF 4
ENDMDL
