MODEL 1
REMARK VINA RESULT:    11.184      0.000      0.000
REMARK INTER + INTRA:          16.222
REMARK INTER:                  15.107
REMARK INTRA:                   1.114
REMARK UNBOUND:                 1.114
REMARK SMILES O=c1c(-c2ccc(O)cc2)coc2c([C@@H]3O[C@@H](CO)[C@H](O)[C@H](O)[C@H]3O)c(O)ccc12
REMARK SMILES IDX 3 1 11 2 12 3 13 4 30 5 2 6 1 7 29 8 28 9 26 10 14 11 4 12
REMARK SMILES IDX 5 13 6 14 7 15 10 16 9 17 8 18 15 20 24 21 16 22 22 23 17 24
REMARK SMILES IDX 20 25 25 26 23 28 18 30 19 31 21 33 27 35
REMARK H PARENT 8 19 25 27 23 29 19 32 21 34 27 36
REMARK Flexibility Score: inf
ROOT
ATOM      1  C   UNL     1      -2.293 -14.532 -10.249  1.00  0.00     0.065 A 
ATOM      2  C   UNL     1      -3.513 -14.222 -10.866  1.00  0.00     0.208 A 
ATOM      3  O   UNL     1      -3.613 -14.153 -12.187  1.00  0.00    -0.463 OA
ATOM      4  C   UNL     1      -2.585 -14.361 -13.007  1.00  0.00     0.147 A 
ATOM      5  C   UNL     1      -1.315 -14.672 -12.470  1.00  0.00     0.066 A 
ATOM      6  C   UNL     1      -1.178 -14.771 -11.074  1.00  0.00     0.200 A 
ATOM      7  O   UNL     1      -0.068 -15.095 -10.565  1.00  0.00    -0.288 OA
ATOM      8  C   UNL     1      -0.228 -14.873 -13.334  1.00  0.00     0.020 A 
ATOM      9  C   UNL     1      -0.396 -14.753 -14.711  1.00  0.00     0.047 A 
ATOM     10  C   UNL     1      -1.650 -14.447 -15.254  1.00  0.00     0.125 A 
ATOM     11  C   UNL     1      -2.767 -14.269 -14.407  1.00  0.00     0.069 A 
ENDROOT
BRANCH   1  12
ATOM     12  C   UNL     1      -2.208 -14.610  -8.769  1.00  0.00    -0.011 A 
ATOM     13  C   UNL     1      -1.027 -15.051  -8.147  1.00  0.00     0.013 A 
ATOM     14  C   UNL     1      -0.945 -15.124  -6.752  1.00  0.00     0.047 A 
ATOM     15  C   UNL     1      -2.040 -14.762  -5.962  1.00  0.00     0.115 A 
ATOM     16  C   UNL     1      -3.312 -14.261  -7.967  1.00  0.00     0.013 A 
ATOM     17  C   UNL     1      -3.226 -14.332  -6.574  1.00  0.00     0.047 A 
BRANCH  15  18
ATOM     18  O   UNL     1      -1.941 -14.832  -4.575  1.00  0.00    -0.508 OA
ATOM     19  H   UNL     1      -2.147 -15.689  -4.072  1.00  0.00     0.293 HD
ENDBRANCH  15  18
ENDBRANCH   1  12
BRANCH  11  20
ATOM     20  C   UNL     1      -4.133 -13.932 -14.989  1.00  0.00     0.188 C 
ATOM     21  C   UNL     1      -3.970 -13.244 -16.366  1.00  0.00     0.179 C 
ATOM     22  O   UNL     1      -4.899 -15.123 -15.089  1.00  0.00    -0.362 OA
ATOM     23  C   UNL     1      -5.347 -12.948 -16.979  1.00  0.00     0.177 C 
ATOM     24  C   UNL     1      -6.218 -14.903 -15.577  1.00  0.00     0.176 C 
ATOM     25  C   UNL     1      -6.230 -14.213 -16.966  1.00  0.00     0.177 C 
BRANCH  21  26
ATOM     26  O   UNL     1      -3.215 -12.061 -16.255  1.00  0.00    -0.387 OA
ATOM     27  H   UNL     1      -3.810 -11.298 -16.483  1.00  0.00     0.211 HD
ENDBRANCH  21  26
BRANCH  23  28
ATOM     28  O   UNL     1      -5.184 -12.477 -18.293  1.00  0.00    -0.387 OA
ATOM     29  H   UNL     1      -5.739 -13.059 -18.875  1.00  0.00     0.211 HD
ENDBRANCH  23  28
BRANCH  24  30
ATOM     30  C   UNL     1      -7.124 -14.197 -14.547  1.00  0.00     0.191 C 
BRANCH  30  31
ATOM     31  O   UNL     1      -7.101 -14.901 -13.335  1.00  0.00    -0.394 OA
ATOM     32  H   UNL     1      -7.144 -15.863 -13.573  1.00  0.00     0.210 HD
ENDBRANCH  30  31
ENDBRANCH  24  30
BRANCH  25  33
ATOM     33  O   UNL     1      -5.838 -15.112 -17.976  1.00  0.00    -0.388 OA
ATOM     34  H   UNL     1      -5.590 -14.587 -18.779  1.00  0.00     0.211 HD
ENDBRANCH  25  33
ENDBRANCH  11  20
BRANCH  10  35
ATOM     35  O   UNL     1      -1.785 -14.317 -16.637  1.00  0.00    -0.507 OA
ATOM     36  H   UNL     1      -2.620 -14.624 -17.122  1.00  0.00     0.293 HD
ENDBRANCH  10  35
TORSDOF 9
ENDMDL
MODEL 2
REMARK VINA RESULT:    13.824      1.919      4.500
REMARK INTER + INTRA:          19.787
REMARK INTER:                  15.300
REMARK INTRA:                   4.487
REMARK UNBOUND:                 1.114
REMARK SMILES O=c1c(-c2ccc(O)cc2)coc2c([C@@H]3O[C@@H](CO)[C@H](O)[C@H](O)[C@H]3O)c(O)ccc12
REMARK SMILES IDX 3 1 11 2 12 3 13 4 30 5 2 6 1 7 29 8 28 9 26 10 14 11 4 12
REMARK SMILES IDX 5 13 6 14 7 15 10 16 9 17 8 18 15 20 24 21 16 22 22 23 17 24
REMARK SMILES IDX 20 25 25 26 23 28 18 30 19 31 21 33 27 35
REMARK H PARENT 8 19 25 27 23 29 19 32 21 34 27 36
REMARK Flexibility Score: inf
ROOT
ATOM      1  C   UNL     1      -0.960 -14.985  -8.199  1.00  0.00     0.065 A 
ATOM      2  C   UNL     1      -0.416 -14.888  -9.487  1.00  0.00     0.208 A 
ATOM      3  O   UNL     1      -1.199 -14.861 -10.559  1.00  0.00    -0.463 OA
ATOM      4  C   UNL     1      -2.526 -14.928 -10.492  1.00  0.00     0.147 A 
ATOM      5  C   UNL     1      -3.159 -15.035  -9.232  1.00  0.00     0.066 A 
ATOM      6  C   UNL     1      -2.360 -15.048  -8.075  1.00  0.00     0.200 A 
ATOM      7  O   UNL     1      -2.896 -15.093  -6.933  1.00  0.00    -0.288 OA
ATOM      8  C   UNL     1      -4.557 -15.125  -9.165  1.00  0.00     0.020 A 
ATOM      9  C   UNL     1      -5.317 -15.124 -10.331  1.00  0.00     0.047 A 
ATOM     10  C   UNL     1      -4.702 -15.016 -11.584  1.00  0.00     0.125 A 
ATOM     11  C   UNL     1      -3.296 -14.895 -11.678  1.00  0.00     0.069 A 
ENDROOT
BRANCH   1  12
ATOM     12  C   UNL     1      -0.063 -15.006  -7.015  1.00  0.00    -0.011 A 
ATOM     13  C   UNL     1      -0.598 -14.944  -5.717  1.00  0.00     0.013 A 
ATOM     14  C   UNL     1       0.245 -14.966  -4.600  1.00  0.00     0.047 A 
ATOM     15  C   UNL     1       1.630 -15.045  -4.766  1.00  0.00     0.115 A 
ATOM     16  C   UNL     1       1.334 -15.072  -7.174  1.00  0.00     0.013 A 
ATOM     17  C   UNL     1       2.174 -15.096  -6.057  1.00  0.00     0.047 A 
BRANCH  15  18
ATOM     18  O   UNL     1       2.457 -15.074  -3.645  1.00  0.00    -0.508 OA
ATOM     19  H   UNL     1       3.248 -14.447  -3.555  1.00  0.00     0.293 HD
ENDBRANCH  15  18
ENDBRANCH   1  12
BRANCH  11  20
ATOM     20  C   UNL     1      -2.619 -14.783 -13.038  1.00  0.00     0.188 C 
ATOM     21  C   UNL     1      -3.623 -14.253 -14.090  1.00  0.00     0.179 C 
ATOM     22  O   UNL     1      -1.488 -13.932 -12.921  1.00  0.00    -0.362 OA
ATOM     23  C   UNL     1      -2.929 -14.092 -15.451  1.00  0.00     0.177 C 
ATOM     24  C   UNL     1      -0.754 -13.806 -14.134  1.00  0.00     0.176 C 
ATOM     25  C   UNL     1      -1.626 -13.278 -15.303  1.00  0.00     0.177 C 
BRANCH  21  26
ATOM     26  O   UNL     1      -4.736 -15.107 -14.203  1.00  0.00    -0.387 OA
ATOM     27  H   UNL     1      -5.208 -15.109 -13.328  1.00  0.00     0.211 HD
ENDBRANCH  21  26
BRANCH  23  28
ATOM     28  O   UNL     1      -3.803 -13.458 -16.351  1.00  0.00    -0.387 OA
ATOM     29  H   UNL     1      -3.296 -12.711 -16.763  1.00  0.00     0.211 HD
ENDBRANCH  23  28
BRANCH  24  30
ATOM     30  C   UNL     1       0.025 -15.087 -14.495  1.00  0.00     0.191 C 
BRANCH  30  31
ATOM     31  O   UNL     1       1.291 -14.747 -14.993  1.00  0.00    -0.394 OA
ATOM     32  H   UNL     1       1.354 -15.162 -15.892  1.00  0.00     0.210 HD
ENDBRANCH  30  31
ENDBRANCH  24  30
BRANCH  25  33
ATOM     33  O   UNL     1      -1.903 -11.907 -15.145  1.00  0.00    -0.388 OA
ATOM     34  H   UNL     1      -1.346 -11.401 -15.790  1.00  0.00     0.211 HD
ENDBRANCH  25  33
ENDBRANCH  11  20
BRANCH  10  35
ATOM     35  O   UNL     1      -5.487 -15.034 -12.737  1.00  0.00    -0.507 OA
ATOM     36  H   UNL     1      -6.296 -14.432 -12.841  1.00  0.00     0.293 HD
ENDBRANCH  10  35
TORSDOF 9
ENDMDL
