MODEL 1
REMARK VINA RESULT:    -4.293      0.000      0.000
REMARK INTER + INTRA:          -6.055
REMARK INTER:                  -5.547
REMARK INTRA:                  -0.508
REMARK UNBOUND:                -0.508
REMARK SMILES C=CC(=O)CCCCC
REMARK SMILES IDX 6 1 7 2 8 3 9 4 5 5 3 6 4 7 2 8 1 9
REMARK H PARENT
REMARK Flexibility Score: inf
ROOT
ATOM      1  C   UNL     1      20.888  22.021  28.404  1.00  0.00     0.008 C 
ENDROOT
BRANCH   1   2
ATOM      2  C   UNL     1      20.751  22.063  26.875  1.00  0.00     0.000 C 
BRANCH   2   3
ATOM      3  C   UNL     1      19.460  22.760  26.417  1.00  0.00    -0.003 C 
ATOM      4  C   UNL     1      19.769  23.926  25.483  1.00  0.00     0.004 C 
ENDBRANCH   2   3
ENDBRANCH   1   2
BRANCH   1   5
ATOM      5  C   UNL     1      22.098  22.819  28.912  1.00  0.00     0.080 C 
BRANCH   5   6
ATOM      6  C   UNL     1      21.868  24.290  28.736  1.00  0.00     0.155 C 
ATOM      7  O   UNL     1      20.950  24.854  29.393  1.00  0.00    -0.295 OA
BRANCH   6   8
ATOM      8  C   UNL     1      22.740  25.072  27.838  1.00  0.00     0.039 C 
ATOM      9  C   UNL     1      23.962  24.666  27.497  1.00  0.00     0.012 C 
ENDBRANCH   6   8
ENDBRANCH   5   6
ENDBRANCH   1   5
TORSDOF 5
ENDMDL
MODEL 2
REMARK VINA RESULT:    -4.165      1.746      3.551
REMARK INTER + INTRA:          -5.891
REMARK INTER:                  -5.369
REMARK INTRA:                  -0.522
REMARK UNBOUND:                -0.508
REMARK SMILES C=CC(=O)CCCCC
REMARK SMILES IDX 6 1 7 2 8 3 9 4 5 5 3 6 4 7 2 8 1 9
REMARK H PARENT
REMARK Flexibility Score: inf
ROOT
ATOM      1  C   UNL     1      20.895  22.191  27.909  1.00  0.00     0.008 C 
ENDROOT
BRANCH   1   2
ATOM      2  C   UNL     1      22.367  22.574  28.125  1.00  0.00     0.000 C 
BRANCH   2   3
ATOM      3  C   UNL     1      22.541  24.047  28.526  1.00  0.00    -0.003 C 
ATOM      4  C   UNL     1      21.270  24.595  29.167  1.00  0.00     0.004 C 
ENDBRANCH   2   3
ENDBRANCH   1   2
BRANCH   1   5
ATOM      5  C   UNL     1      20.536  22.037  26.424  1.00  0.00     0.080 C 
BRANCH   5   6
ATOM      6  C   UNL     1      19.417  22.965  26.056  1.00  0.00     0.155 C 
ATOM      7  O   UNL     1      18.252  22.727  26.481  1.00  0.00    -0.295 OA
BRANCH   6   8
ATOM      8  C   UNL     1      19.690  24.166  25.243  1.00  0.00     0.039 C 
ATOM      9  C   UNL     1      20.505  25.137  25.654  1.00  0.00     0.012 C 
ENDBRANCH   6   8
ENDBRANCH   5   6
ENDBRANCH   1   5
TORSDOF 5
ENDMDL
MODEL 3
REMARK VINA RESULT:    -4.146      1.436      1.785
REMARK INTER + INTRA:          -5.866
REMARK INTER:                  -5.687
REMARK INTRA:                  -0.179
REMARK UNBOUND:                -0.508
REMARK SMILES C=CC(=O)CCCCC
REMARK SMILES IDX 6 1 7 2 8 3 9 4 5 5 3 6 4 7 2 8 1 9
REMARK H PARENT
REMARK Flexibility Score: inf
ROOT
ATOM      1  C   UNL     1      21.185  23.008  27.294  1.00  0.00     0.008 C 
ENDROOT
BRANCH   1   2
ATOM      2  C   UNL     1      19.982  22.184  26.809  1.00  0.00     0.000 C 
BRANCH   2   3
ATOM      3  C   UNL     1      19.097  22.957  25.820  1.00  0.00    -0.003 C 
ATOM      4  C   UNL     1      19.766  24.258  25.388  1.00  0.00     0.004 C 
ENDBRANCH   2   3
ENDBRANCH   1   2
BRANCH   1   5
ATOM      5  C   UNL     1      21.671  22.581  28.686  1.00  0.00     0.080 C 
BRANCH   5   6
ATOM      6  C   UNL     1      21.850  23.780  29.570  1.00  0.00     0.155 C 
ATOM      7  O   UNL     1      21.010  24.720  29.513  1.00  0.00    -0.295 OA
BRANCH   6   8
ATOM      8  C   UNL     1      22.973  23.831  30.527  1.00  0.00     0.039 C 
ATOM      9  C   UNL     1      23.682  22.751  30.854  1.00  0.00     0.012 C 
ENDBRANCH   6   8
ENDBRANCH   5   6
ENDBRANCH   1   5
TORSDOF 5
ENDMDL
MODEL 4
REMARK VINA RESULT:    -3.968      1.000      1.432
REMARK INTER + INTRA:          -5.636
REMARK INTER:                  -5.246
REMARK INTRA:                  -0.390
REMARK UNBOUND:                -0.508
REMARK SMILES C=CC(=O)CCCCC
REMARK SMILES IDX 6 1 7 2 8 3 9 4 5 5 3 6 4 7 2 8 1 9
REMARK H PARENT
REMARK Flexibility Score: inf
ROOT
ATOM      1  C   UNL     1      20.809  22.371  26.918  1.00  0.00     0.008 C 
ENDROOT
BRANCH   1   2
ATOM      2  C   UNL     1      19.501  23.059  26.499  1.00  0.00     0.000 C 
BRANCH   2   3
ATOM      3  C   UNL     1      19.705  24.073  25.364  1.00  0.00    -0.003 C 
ATOM      4  C   UNL     1      20.677  25.173  25.779  1.00  0.00     0.004 C 
ENDBRANCH   2   3
ENDBRANCH   1   2
BRANCH   1   5
ATOM      5  C   UNL     1      21.026  22.387  28.438  1.00  0.00     0.080 C 
BRANCH   5   6
ATOM      6  C   UNL     1      21.683  23.667  28.861  1.00  0.00     0.155 C 
ATOM      7  O   UNL     1      21.029  24.500  29.547  1.00  0.00    -0.295 OA
BRANCH   6   8
ATOM      8  C   UNL     1      23.095  23.921  28.514  1.00  0.00     0.039 C 
ATOM      9  C   UNL     1      24.022  22.964  28.545  1.00  0.00     0.012 C 
ENDBRANCH   6   8
ENDBRANCH   5   6
ENDBRANCH   1   5
TORSDOF 5
ENDMDL
MODEL 5
REMARK VINA RESULT:    -3.822     10.475     11.840
REMARK INTER + INTRA:          -5.447
REMARK INTER:                  -4.860
REMARK INTRA:                  -0.586
REMARK UNBOUND:                -0.508
REMARK SMILES C=CC(=O)CCCCC
REMARK SMILES IDX 6 1 7 2 8 3 9 4 5 5 3 6 4 7 2 8 1 9
REMARK H PARENT
REMARK Flexibility Score: inf
ROOT
ATOM      1  C   UNL     1      21.671  30.093  38.184  1.00  0.00     0.008 C 
ENDROOT
BRANCH   1   2
ATOM      2  C   UNL     1      21.754  28.570  38.366  1.00  0.00     0.000 C 
BRANCH   2   3
ATOM      3  C   UNL     1      21.642  27.810  37.035  1.00  0.00    -0.003 C 
ATOM      4  C   UNL     1      20.716  26.605  37.168  1.00  0.00     0.004 C 
ENDBRANCH   2   3
ENDBRANCH   1   2
BRANCH   1   5
ATOM      5  C   UNL     1      20.639  30.508  37.127  1.00  0.00     0.080 C 
BRANCH   5   6
ATOM      6  C   UNL     1      19.260  30.522  37.717  1.00  0.00     0.155 C 
ATOM      7  O   UNL     1      19.038  31.208  38.752  1.00  0.00    -0.295 OA
BRANCH   6   8
ATOM      8  C   UNL     1      18.169  29.775  37.061  1.00  0.00     0.039 C 
ATOM      9  C   UNL     1      18.318  29.186  35.875  1.00  0.00     0.012 C 
ENDBRANCH   6   8
ENDBRANCH   5   6
ENDBRANCH   1   5
TORSDOF 5
ENDMDL
MODEL 6
REMARK VINA RESULT:    -3.758     11.599     13.303
REMARK INTER + INTRA:          -5.364
REMARK INTER:                  -5.176
REMARK INTRA:                  -0.188
REMARK UNBOUND:                -0.508
REMARK SMILES C=CC(=O)CCCCC
REMARK SMILES IDX 6 1 7 2 8 3 9 4 5 5 3 6 4 7 2 8 1 9
REMARK H PARENT
REMARK Flexibility Score: inf
ROOT
ATOM      1  C   UNL     1      24.105  28.721  39.483  1.00  0.00     0.008 C 
ENDROOT
BRANCH   1   2
ATOM      2  C   UNL     1      25.106  28.191  40.522  1.00  0.00     0.000 C 
BRANCH   2   3
ATOM      3  C   UNL     1      24.418  27.457  41.683  1.00  0.00    -0.003 C 
ATOM      4  C   UNL     1      25.285  26.312  42.198  1.00  0.00     0.004 C 
ENDBRANCH   2   3
ENDBRANCH   1   2
BRANCH   1   5
ATOM      5  C   UNL     1      22.661  28.293  39.781  1.00  0.00     0.080 C 
BRANCH   5   6
ATOM      6  C   UNL     1      21.780  28.558  38.596  1.00  0.00     0.155 C 
ATOM      7  O   UNL     1      21.069  29.601  38.576  1.00  0.00    -0.295 OA
BRANCH   6   8
ATOM      8  C   UNL     1      21.785  27.628  37.450  1.00  0.00     0.039 C 
ATOM      9  C   UNL     1      20.666  27.099  36.955  1.00  0.00     0.012 C 
ENDBRANCH   6   8
ENDBRANCH   5   6
ENDBRANCH   1   5
TORSDOF 5
ENDMDL
MODEL 7
REMARK VINA RESULT:    -3.741      2.036      4.488
REMARK INTER + INTRA:          -5.343
REMARK INTER:                  -5.223
REMARK INTRA:                  -0.120
REMARK UNBOUND:                -0.508
REMARK SMILES C=CC(=O)CCCCC
REMARK SMILES IDX 6 1 7 2 8 3 9 4 5 5 3 6 4 7 2 8 1 9
REMARK H PARENT
REMARK Flexibility Score: inf
ROOT
ATOM      1  C   UNL     1      21.903  23.931  29.321  1.00  0.00     0.008 C 
ENDROOT
BRANCH   1   2
ATOM      2  C   UNL     1      22.937  22.983  29.948  1.00  0.00     0.000 C 
BRANCH   2   3
ATOM      3  C   UNL     1      23.852  23.691  30.958  1.00  0.00    -0.003 C 
ATOM      4  C   UNL     1      24.654  22.682  31.773  1.00  0.00     0.004 C 
ENDBRANCH   2   3
ENDBRANCH   1   2
BRANCH   1   5
ATOM      5  C   UNL     1      20.987  23.224  28.313  1.00  0.00     0.080 C 
BRANCH   5   6
ATOM      6  C   UNL     1      20.846  24.044  27.065  1.00  0.00     0.155 C 
ATOM      7  O   UNL     1      21.547  25.085  26.928  1.00  0.00    -0.295 OA
BRANCH   6   8
ATOM      8  C   UNL     1      19.930  23.608  25.994  1.00  0.00     0.039 C 
ATOM      9  C   UNL     1      19.208  22.491  26.082  1.00  0.00     0.012 C 
ENDBRANCH   6   8
ENDBRANCH   5   6
ENDBRANCH   1   5
TORSDOF 5
ENDMDL
MODEL 8
REMARK VINA RESULT:    -3.657     10.302     11.416
REMARK INTER + INTRA:          -5.234
REMARK INTER:                  -4.618
REMARK INTRA:                  -0.615
REMARK UNBOUND:                -0.508
REMARK SMILES C=CC(=O)CCCCC
REMARK SMILES IDX 6 1 7 2 8 3 9 4 5 5 3 6 4 7 2 8 1 9
REMARK H PARENT
REMARK Flexibility Score: inf
ROOT
ATOM      1  C   UNL     1      19.223  28.519  35.921  1.00  0.00     0.008 C 
ENDROOT
BRANCH   1   2
ATOM      2  C   UNL     1      20.073  27.475  36.661  1.00  0.00     0.000 C 
BRANCH   2   3
ATOM      3  C   UNL     1      21.548  27.889  36.775  1.00  0.00    -0.003 C 
ATOM      4  C   UNL     1      21.927  28.173  38.226  1.00  0.00     0.004 C 
ENDBRANCH   2   3
ENDBRANCH   1   2
BRANCH   1   5
ATOM      5  C   UNL     1      18.350  29.351  36.871  1.00  0.00     0.080 C 
BRANCH   5   6
ATOM      6  C   UNL     1      19.088  30.576  37.324  1.00  0.00     0.155 C 
ATOM      7  O   UNL     1      19.076  30.887  38.547  1.00  0.00    -0.295 OA
BRANCH   6   8
ATOM      8  C   UNL     1      19.854  31.379  36.350  1.00  0.00     0.039 C 
ATOM      9  C   UNL     1      21.152  31.636  36.502  1.00  0.00     0.012 C 
ENDBRANCH   6   8
ENDBRANCH   5   6
ENDBRANCH   1   5
TORSDOF 5
ENDMDL
MODEL 9
REMARK VINA RESULT:    -3.651      9.892     11.369
REMARK INTER + INTRA:          -5.226
REMARK INTER:                  -4.787
REMARK INTRA:                  -0.439
REMARK UNBOUND:                -0.508
REMARK SMILES C=CC(=O)CCCCC
REMARK SMILES IDX 6 1 7 2 8 3 9 4 5 5 3 6 4 7 2 8 1 9
REMARK H PARENT
REMARK Flexibility Score: inf
ROOT
ATOM      1  C   UNL     1      20.753  28.519  36.260  1.00  0.00     0.008 C 
ENDROOT
BRANCH   1   2
ATOM      2  C   UNL     1      21.319  27.496  37.256  1.00  0.00     0.000 C 
BRANCH   2   3
ATOM      3  C   UNL     1      22.114  28.157  38.392  1.00  0.00    -0.003 C 
ATOM      4  C   UNL     1      21.827  29.654  38.465  1.00  0.00     0.004 C 
ENDBRANCH   2   3
ENDBRANCH   1   2
BRANCH   1   5
ATOM      5  C   UNL     1      19.281  28.253  35.912  1.00  0.00     0.080 C 
BRANCH   5   6
ATOM      6  C   UNL     1      18.545  29.546  35.719  1.00  0.00     0.155 C 
ATOM      7  O   UNL     1      17.622  29.609  34.862  1.00  0.00    -0.295 OA
BRANCH   6   8
ATOM      8  C   UNL     1      18.872  30.713  36.560  1.00  0.00     0.039 C 
ATOM      9  C   UNL     1      18.302  30.922  37.747  1.00  0.00     0.012 C 
ENDBRANCH   6   8
ENDBRANCH   5   6
ENDBRANCH   1   5
TORSDOF 5
ENDMDL
