MODEL 1
REMARK VINA RESULT:     6.313      0.000      0.000
REMARK INTER + INTRA:          10.426
REMARK INTER:                  10.742
REMARK INTRA:                  -0.316
REMARK UNBOUND:                -0.316
REMARK SMILES CCCCCCCCCCCCCC(=O)[O-]
REMARK SMILES IDX 8 1 9 2 10 3 11 4 12 5 13 6 14 7 15 8 16 9 7 10 6 11 5 12
REMARK SMILES IDX 4 13 3 14 2 15 1 16
REMARK H PARENT
REMARK Flexibility Score: inf
ROOT
ATOM      1  C   UNL     1      15.609 -16.205   6.858  1.00  0.00     0.000 C 
ENDROOT
BRANCH   1   2
ATOM      2  C   UNL     1      14.539 -15.362   6.140  1.00  0.00     0.000 C 
BRANCH   2   3
ATOM      3  C   UNL     1      14.223 -14.004   6.801  1.00  0.00     0.000 C 
BRANCH   3   4
ATOM      4  C   UNL     1      12.731 -13.628   6.838  1.00  0.00     0.000 C 
BRANCH   4   5
ATOM      5  C   UNL     1      12.344 -12.617   5.744  1.00  0.00     0.006 C 
BRANCH   5   6
ATOM      6  C   UNL     1      10.960 -12.002   5.988  1.00  0.00     0.053 C 
BRANCH   6   7
ATOM      7  C   UNL     1       9.863 -12.857   5.429  1.00  0.00     0.041 C 
ATOM      8  O   UNL     1      10.037 -14.095   5.279  1.00  0.00    -0.550 OA
ATOM      9  O   UNL     1       8.660 -12.279   5.044  1.00  0.00    -0.550 OA
ENDBRANCH   6   7
ENDBRANCH   5   6
ENDBRANCH   4   5
ENDBRANCH   3   4
ENDBRANCH   2   3
ENDBRANCH   1   2
BRANCH   1  10
ATOM     10  C   UNL     1      17.021 -15.618   6.724  1.00  0.00     0.000 C 
BRANCH  10  11
ATOM     11  C   UNL     1      18.085 -16.648   7.130  1.00  0.00    -0.000 C 
BRANCH  11  12
ATOM     12  C   UNL     1      19.125 -16.908   6.025  1.00  0.00    -0.000 C 
BRANCH  12  13
ATOM     13  C   UNL     1      18.752 -16.351   4.639  1.00  0.00    -0.000 C 
BRANCH  13  14
ATOM     14  C   UNL     1      19.105 -17.311   3.493  1.00  0.00    -0.000 C 
BRANCH  14  15
ATOM     15  C   UNL     1      18.489 -16.837   2.172  1.00  0.00    -0.003 C 
ATOM     16  C   UNL     1      17.088 -17.411   1.980  1.00  0.00     0.004 C 
ENDBRANCH  14  15
ENDBRANCH  13  14
ENDBRANCH  12  13
ENDBRANCH  11  12
ENDBRANCH  10  11
ENDBRANCH   1  10
TORSDOF 12
ENDMDL
MODEL 2
REMARK VINA RESULT:     6.575      1.696      2.568
REMARK INTER + INTRA:          10.872
REMARK INTER:                  11.066
REMARK INTRA:                  -0.194
REMARK UNBOUND:                -0.316
REMARK SMILES CCCCCCCCCCCCCC(=O)[O-]
REMARK SMILES IDX 8 1 9 2 10 3 11 4 12 5 13 6 14 7 15 8 16 9 7 10 6 11 5 12
REMARK SMILES IDX 4 13 3 14 2 15 1 16
REMARK H PARENT
REMARK Flexibility Score: inf
ROOT
ATOM      1  C   UNL     1      14.576 -14.160   7.297  1.00  0.00     0.000 C 
ENDROOT
BRANCH   1   2
ATOM      2  C   UNL     1      13.134 -13.657   7.104  1.00  0.00     0.000 C 
BRANCH   2   3
ATOM      3  C   UNL     1      12.584 -13.779   5.668  1.00  0.00     0.000 C 
BRANCH   3   4
ATOM      4  C   UNL     1      11.069 -14.030   5.568  1.00  0.00     0.000 C 
BRANCH   4   5
ATOM      5  C   UNL     1      10.270 -12.749   5.269  1.00  0.00     0.006 C 
BRANCH   5   6
ATOM      6  C   UNL     1      10.763 -11.554   6.094  1.00  0.00     0.053 C 
BRANCH   6   7
ATOM      7  C   UNL     1      11.470 -10.543   5.244  1.00  0.00     0.041 C 
ATOM      8  O   UNL     1      12.433 -10.892   4.511  1.00  0.00    -0.550 OA
ATOM      9  O   UNL     1      11.084  -9.209   5.283  1.00  0.00    -0.550 OA
ENDBRANCH   6   7
ENDBRANCH   5   6
ENDBRANCH   4   5
ENDBRANCH   3   4
ENDBRANCH   2   3
ENDBRANCH   1   2
BRANCH   1  10
ATOM     10  C   UNL     1      14.860 -15.464   6.537  1.00  0.00     0.000 C 
BRANCH  10  11
ATOM     11  C   UNL     1      16.069 -16.196   7.137  1.00  0.00    -0.000 C 
BRANCH  11  12
ATOM     12  C   UNL     1      17.409 -15.511   6.812  1.00  0.00    -0.000 C 
BRANCH  12  13
ATOM     13  C   UNL     1      18.661 -16.338   7.155  1.00  0.00    -0.000 C 
BRANCH  13  14
ATOM     14  C   UNL     1      19.030 -17.350   6.060  1.00  0.00    -0.000 C 
BRANCH  14  15
ATOM     15  C   UNL     1      19.125 -16.666   4.692  1.00  0.00    -0.003 C 
ATOM     16  C   UNL     1      19.125 -17.692   3.562  1.00  0.00     0.004 C 
ENDBRANCH  14  15
ENDBRANCH  13  14
ENDBRANCH  12  13
ENDBRANCH  11  12
ENDBRANCH  10  11
ENDBRANCH   1  10
TORSDOF 12
ENDMDL
MODEL 3
REMARK VINA RESULT:     7.407      3.943      7.962
REMARK INTER + INTRA:          12.288
REMARK INTER:                  12.620
REMARK INTRA:                  -0.332
REMARK UNBOUND:                -0.316
REMARK SMILES CCCCCCCCCCCCCC(=O)[O-]
REMARK SMILES IDX 8 1 9 2 10 3 11 4 12 5 13 6 14 7 15 8 16 9 7 10 6 11 5 12
REMARK SMILES IDX 4 13 3 14 2 15 1 16
REMARK H PARENT
REMARK Flexibility Score: inf
ROOT
ATOM      1  C   UNL     1      14.457 -13.873   7.070  1.00  0.00     0.000 C 
ENDROOT
BRANCH   1   2
ATOM      2  C   UNL     1      14.849 -15.273   6.567  1.00  0.00     0.000 C 
BRANCH   2   3
ATOM      3  C   UNL     1      15.878 -16.019   7.441  1.00  0.00     0.000 C 
BRANCH   3   4
ATOM      4  C   UNL     1      17.351 -15.715   7.120  1.00  0.00     0.000 C 
BRANCH   4   5
ATOM      5  C   UNL     1      18.109 -16.940   6.578  1.00  0.00     0.006 C 
BRANCH   5   6
ATOM      6  C   UNL     1      19.125 -16.558   5.493  1.00  0.00     0.053 C 
BRANCH   6   7
ATOM      7  C   UNL     1      19.073 -17.497   4.326  1.00  0.00     0.041 C 
ATOM      8  O   UNL     1      19.119 -18.741   4.510  1.00  0.00    -0.550 OA
ATOM      9  O   UNL     1      19.003 -16.994   3.033  1.00  0.00    -0.550 OA
ENDBRANCH   6   7
ENDBRANCH   5   6
ENDBRANCH   4   5
ENDBRANCH   3   4
ENDBRANCH   2   3
ENDBRANCH   1   2
BRANCH   1  10
ATOM     10  C   UNL     1      12.939 -13.637   7.056  1.00  0.00     0.000 C 
BRANCH  10  11
ATOM     11  C   UNL     1      12.357 -13.893   5.658  1.00  0.00    -0.000 C 
BRANCH  11  12
ATOM     12  C   UNL     1      11.018 -13.171   5.421  1.00  0.00    -0.000 C 
BRANCH  12  13
ATOM     13  C   UNL     1      10.849 -11.849   6.191  1.00  0.00    -0.000 C 
BRANCH  13  14
ATOM     14  C   UNL     1      11.324 -10.625   5.393  1.00  0.00    -0.000 C 
BRANCH  14  15
ATOM     15  C   UNL     1      12.413 -11.016   4.387  1.00  0.00    -0.003 C 
ATOM     16  C   UNL     1      13.375  -9.857   4.140  1.00  0.00     0.004 C 
ENDBRANCH  14  15
ENDBRANCH  13  14
ENDBRANCH  12  13
ENDBRANCH  11  12
ENDBRANCH  10  11
ENDBRANCH   1  10
TORSDOF 12
ENDMDL
MODEL 4
REMARK VINA RESULT:     8.094      4.029      8.375
REMARK INTER + INTRA:          13.457
REMARK INTER:                  14.032
REMARK INTRA:                  -0.575
REMARK UNBOUND:                -0.316
REMARK SMILES CCCCCCCCCCCCCC(=O)[O-]
REMARK SMILES IDX 8 1 9 2 10 3 11 4 12 5 13 6 14 7 15 8 16 9 7 10 6 11 5 12
REMARK SMILES IDX 4 13 3 14 2 15 1 16
REMARK H PARENT
REMARK Flexibility Score: inf
ROOT
ATOM      1  C   UNL     1      14.769 -14.300   7.315  1.00  0.00     0.000 C 
ENDROOT
BRANCH   1   2
ATOM      2  C   UNL     1      15.020 -15.689   6.702  1.00  0.00     0.000 C 
BRANCH   2   3
ATOM      3  C   UNL     1      16.358 -16.348   7.097  1.00  0.00     0.000 C 
BRANCH   3   4
ATOM      4  C   UNL     1      17.579 -15.412   7.071  1.00  0.00     0.000 C 
BRANCH   4   5
ATOM      5  C   UNL     1      18.536 -15.712   5.903  1.00  0.00     0.006 C 
BRANCH   5   6
ATOM      6  C   UNL     1      19.111 -17.132   5.976  1.00  0.00     0.053 C 
BRANCH   6   7
ATOM      7  C   UNL     1      19.114 -17.802   4.636  1.00  0.00     0.041 C 
ATOM      8  O   UNL     1      19.125 -17.114   3.582  1.00  0.00    -0.550 OA
ATOM      9  O   UNL     1      19.073 -19.188   4.552  1.00  0.00    -0.550 OA
ENDBRANCH   6   7
ENDBRANCH   5   6
ENDBRANCH   4   5
ENDBRANCH   3   4
ENDBRANCH   2   3
ENDBRANCH   1   2
BRANCH   1  10
ATOM     10  C   UNL     1      13.299 -13.864   7.226  1.00  0.00     0.000 C 
BRANCH  10  11
ATOM     11  C   UNL     1      12.770 -14.011   5.792  1.00  0.00    -0.000 C 
BRANCH  11  12
ATOM     12  C   UNL     1      11.418 -13.307   5.574  1.00  0.00    -0.000 C 
BRANCH  12  13
ATOM     13  C   UNL     1      11.471 -11.770   5.627  1.00  0.00    -0.000 C 
BRANCH  13  14
ATOM     14  C   UNL     1      10.080 -11.119   5.577  1.00  0.00    -0.000 C 
BRANCH  14  15
ATOM     15  C   UNL     1       8.978 -12.184   5.547  1.00  0.00    -0.003 C 
ATOM     16  C   UNL     1       7.735 -11.669   4.826  1.00  0.00     0.004 C 
ENDBRANCH  14  15
ENDBRANCH  13  14
ENDBRANCH  12  13
ENDBRANCH  11  12
ENDBRANCH  10  11
ENDBRANCH   1  10
TORSDOF 12
ENDMDL
MODEL 5
REMARK VINA RESULT:     8.237      3.471      7.822
REMARK INTER + INTRA:          13.700
REMARK INTER:                  14.225
REMARK INTRA:                  -0.525
REMARK UNBOUND:                -0.316
REMARK SMILES CCCCCCCCCCCCCC(=O)[O-]
REMARK SMILES IDX 8 1 9 2 10 3 11 4 12 5 13 6 14 7 15 8 16 9 7 10 6 11 5 12
REMARK SMILES IDX 4 13 3 14 2 15 1 16
REMARK H PARENT
REMARK Flexibility Score: inf
ROOT
ATOM      1  C   UNL     1      14.996 -14.546   7.138  1.00  0.00     0.000 C 
ENDROOT
BRANCH   1   2
ATOM      2  C   UNL     1      15.903 -15.790   7.116  1.00  0.00     0.000 C 
BRANCH   2   3
ATOM      3  C   UNL     1      17.397 -15.507   6.851  1.00  0.00     0.000 C 
BRANCH   3   4
ATOM      4  C   UNL     1      18.143 -16.609   6.078  1.00  0.00     0.000 C 
BRANCH   4   5
ATOM      5  C   UNL     1      18.611 -16.149   4.687  1.00  0.00     0.006 C 
BRANCH   5   6
ATOM      6  C   UNL     1      18.786 -17.325   3.717  1.00  0.00     0.053 C 
BRANCH   6   7
ATOM      7  C   UNL     1      17.983 -17.140   2.466  1.00  0.00     0.041 C 
ATOM      8  O   UNL     1      17.855 -15.995   1.957  1.00  0.00    -0.550 OA
ATOM      9  O   UNL     1      17.351 -18.228   1.877  1.00  0.00    -0.550 OA
ENDBRANCH   6   7
ENDBRANCH   5   6
ENDBRANCH   4   5
ENDBRANCH   3   4
ENDBRANCH   2   3
ENDBRANCH   1   2
BRANCH   1  10
ATOM     10  C   UNL     1      13.919 -14.575   6.043  1.00  0.00     0.000 C 
BRANCH  10  11
ATOM     11  C   UNL     1      12.740 -13.662   6.410  1.00  0.00    -0.000 C 
BRANCH  11  12
ATOM     12  C   UNL     1      11.476 -13.947   5.578  1.00  0.00    -0.000 C 
BRANCH  12  13
ATOM     13  C   UNL     1      10.582 -12.722   5.315  1.00  0.00    -0.000 C 
BRANCH  13  14
ATOM     14  C   UNL     1      10.889 -11.543   6.251  1.00  0.00    -0.000 C 
BRANCH  14  15
ATOM     15  C   UNL     1      11.308 -10.305   5.452  1.00  0.00    -0.003 C 
ATOM     16  C   UNL     1      12.498 -10.610   4.546  1.00  0.00     0.004 C 
ENDBRANCH  14  15
ENDBRANCH  13  14
ENDBRANCH  12  13
ENDBRANCH  11  12
ENDBRANCH  10  11
ENDBRANCH   1  10
TORSDOF 12
ENDMDL
MODEL 6
REMARK VINA RESULT:     8.419      3.379      7.869
REMARK INTER + INTRA:          14.009
REMARK INTER:                  14.436
REMARK INTRA:                  -0.427
REMARK UNBOUND:                -0.316
REMARK SMILES CCCCCCCCCCCCCC(=O)[O-]
REMARK SMILES IDX 8 1 9 2 10 3 11 4 12 5 13 6 14 7 15 8 16 9 7 10 6 11 5 12
REMARK SMILES IDX 4 13 3 14 2 15 1 16
REMARK H PARENT
REMARK Flexibility Score: inf
ROOT
ATOM      1  C   UNL     1      14.945 -15.581   6.667  1.00  0.00     0.000 C 
ENDROOT
BRANCH   1   2
ATOM      2  C   UNL     1      16.212 -16.378   7.025  1.00  0.00     0.000 C 
BRANCH   2   3
ATOM      3  C   UNL     1      17.542 -15.713   6.614  1.00  0.00     0.000 C 
BRANCH   3   4
ATOM      4  C   UNL     1      18.654 -16.686   6.185  1.00  0.00     0.000 C 
BRANCH   4   5
ATOM      5  C   UNL     1      19.125 -16.455   4.739  1.00  0.00     0.006 C 
BRANCH   5   6
ATOM      6  C   UNL     1      18.781 -17.636   3.822  1.00  0.00     0.053 C 
BRANCH   6   7
ATOM      7  C   UNL     1      17.951 -17.208   2.650  1.00  0.00     0.041 C 
ATOM      8  O   UNL     1      17.430 -18.068   1.894  1.00  0.00    -0.550 OA
ATOM      9  O   UNL     1      17.780 -15.857   2.376  1.00  0.00    -0.550 OA
ENDBRANCH   6   7
ENDBRANCH   5   6
ENDBRANCH   4   5
ENDBRANCH   3   4
ENDBRANCH   2   3
ENDBRANCH   1   2
BRANCH   1  10
ATOM     10  C   UNL     1      14.956 -14.155   7.238  1.00  0.00     0.000 C 
BRANCH  10  11
ATOM     11  C   UNL     1      13.526 -13.624   7.416  1.00  0.00    -0.000 C 
BRANCH  11  12
ATOM     12  C   UNL     1      12.750 -13.530   6.089  1.00  0.00    -0.000 C 
BRANCH  12  13
ATOM     13  C   UNL     1      11.594 -12.514   6.084  1.00  0.00    -0.000 C 
BRANCH  13  14
ATOM     14  C   UNL     1      10.379 -12.991   5.275  1.00  0.00    -0.000 C 
BRANCH  14  15
ATOM     15  C   UNL     1       9.131 -12.176   5.629  1.00  0.00    -0.003 C 
ATOM     16  C   UNL     1       8.055 -12.322   4.557  1.00  0.00     0.004 C 
ENDBRANCH  14  15
ENDBRANCH  13  14
ENDBRANCH  12  13
ENDBRANCH  11  12
ENDBRANCH  10  11
ENDBRANCH   1  10
TORSDOF 12
ENDMDL
MODEL 7
REMARK VINA RESULT:     8.855      1.999      3.760
REMARK INTER + INTRA:          14.751
REMARK INTER:                  12.591
REMARK INTRA:                   2.160
REMARK UNBOUND:                -0.316
REMARK SMILES CCCCCCCCCCCCCC(=O)[O-]
REMARK SMILES IDX 8 1 9 2 10 3 11 4 12 5 13 6 14 7 15 8 16 9 7 10 6 11 5 12
REMARK SMILES IDX 4 13 3 14 2 15 1 16
REMARK H PARENT
REMARK Flexibility Score: inf
ROOT
ATOM      1  C   UNL     1      12.741 -14.447   5.861  1.00  0.00     0.000 C 
ENDROOT
BRANCH   1   2
ATOM      2  C   UNL     1      11.563 -13.596   5.353  1.00  0.00     0.000 C 
BRANCH   2   3
ATOM      3  C   UNL     1      10.199 -14.317   5.326  1.00  0.00     0.000 C 
BRANCH   3   4
ATOM      4  C   UNL     1       8.996 -13.424   4.973  1.00  0.00     0.000 C 
BRANCH   4   5
ATOM      5  C   UNL     1       9.236 -11.941   5.302  1.00  0.00     0.006 C 
BRANCH   5   6
ATOM      6  C   UNL     1      10.582 -11.714   6.002  1.00  0.00     0.053 C 
BRANCH   6   7
ATOM      7  C   UNL     1      11.307 -10.526   5.445  1.00  0.00     0.041 C 
ATOM      8  O   UNL     1      10.884  -9.362   5.670  1.00  0.00    -0.550 OA
ATOM      9  O   UNL     1      12.433 -10.708   4.653  1.00  0.00    -0.550 OA
ENDBRANCH   6   7
ENDBRANCH   5   6
ENDBRANCH   4   5
ENDBRANCH   3   4
ENDBRANCH   2   3
ENDBRANCH   1   2
BRANCH   1  10
ATOM     10  C   UNL     1      13.350 -13.906   7.163  1.00  0.00     0.000 C 
BRANCH  10  11
ATOM     11  C   UNL     1      14.884 -13.947   7.111  1.00  0.00    -0.000 C 
BRANCH  11  12
ATOM     12  C   UNL     1      15.437 -15.347   6.787  1.00  0.00    -0.000 C 
BRANCH  12  13
ATOM     13  C   UNL     1      16.971 -15.434   6.693  1.00  0.00    -0.000 C 
BRANCH  13  14
ATOM     14  C   UNL     1      17.513 -16.837   7.000  1.00  0.00    -0.000 C 
BRANCH  14  15
ATOM     15  C   UNL     1      18.970 -16.974   6.544  1.00  0.00    -0.003 C 
ATOM     16  C   UNL     1      19.096 -16.773   5.037  1.00  0.00     0.004 C 
ENDBRANCH  14  15
ENDBRANCH  13  14
ENDBRANCH  12  13
ENDBRANCH  11  12
ENDBRANCH  10  11
ENDBRANCH   1  10
TORSDOF 12
ENDMDL
