MODEL 1
REMARK VINA RESULT:    -2.689      0.000      0.000
REMARK INTER + INTRA:         -13.021
REMARK INTER:                  -7.092
REMARK INTRA:                  -5.930
REMARK UNBOUND:                -5.930
REMARK SMILES CCCCCCCCCCCCCCCCCCCCCCCCCCCCCC(=O)[O-]
REMARK SMILES IDX 16 1 17 2 18 3 19 4 20 5 21 6 22 7 23 8 24 9 25 10 26 11
REMARK SMILES IDX 27 12 28 13 29 14 30 15 31 16 32 17 15 18 14 19 13 20 12 21
REMARK SMILES IDX 11 22 10 23 9 24 8 25 7 26 6 27 5 28 4 29 3 30 2 31 1 32
REMARK H PARENT
REMARK Flexibility Score: inf
ROOT
ATOM      1  C   UNL     1    -107.869 -46.536 -55.094  1.00  0.00     0.000 C 
ENDROOT
BRANCH   1   2
ATOM      2  C   UNL     1    -109.239 -46.226 -54.453  1.00  0.00     0.000 C 
BRANCH   2   3
ATOM      3  C   UNL     1    -110.394 -46.008 -55.449  1.00  0.00     0.000 C 
BRANCH   3   4
ATOM      4  C   UNL     1    -110.086 -44.926 -56.494  1.00  0.00     0.000 C 
BRANCH   4   5
ATOM      5  C   UNL     1    -110.857 -45.173 -57.801  1.00  0.00     0.000 C 
BRANCH   5   6
ATOM      6  C   UNL     1    -110.189 -44.496 -59.011  1.00  0.00     0.000 C 
BRANCH   6   7
ATOM      7  C   UNL     1    -110.829 -44.910 -60.348  1.00  0.00     0.000 C 
BRANCH   7   8
ATOM      8  C   UNL     1    -109.863 -44.777 -61.534  1.00  0.00     0.000 C 
BRANCH   8   9
ATOM      9  C   UNL     1    -110.075 -45.862 -62.602  1.00  0.00     0.000 C 
BRANCH   9  10
ATOM     10  C   UNL     1    -109.868 -47.269 -62.025  1.00  0.00     0.000 C 
BRANCH  10  11
ATOM     11  C   UNL     1    -108.987 -48.153 -62.930  1.00  0.00     0.000 C 
BRANCH  11  12
ATOM     12  C   UNL     1    -107.907 -48.906 -62.136  1.00  0.00     0.000 C 
BRANCH  12  13
ATOM     13  C   UNL     1    -108.204 -50.416 -62.056  1.00  0.00     0.006 C 
BRANCH  13  14
ATOM     14  C   UNL     1    -109.218 -50.867 -63.119  1.00  0.00     0.053 C 
BRANCH  14  15
ATOM     15  C   UNL     1    -108.541 -51.454 -64.320  1.00  0.00     0.041 C 
ATOM     16  O   UNL     1    -107.283 -51.512 -64.370  1.00  0.00    -0.550 OA
ATOM     17  O   UNL     1    -109.298 -51.999 -65.350  1.00  0.00    -0.550 OA
ENDBRANCH  14  15
ENDBRANCH  13  14
ENDBRANCH  12  13
ENDBRANCH  11  12
ENDBRANCH  10  11
ENDBRANCH   9  10
ENDBRANCH   8   9
ENDBRANCH   7   8
ENDBRANCH   6   7
ENDBRANCH   5   6
ENDBRANCH   4   5
ENDBRANCH   3   4
ENDBRANCH   2   3
ENDBRANCH   1   2
BRANCH   1  18
ATOM     18  C   UNL     1    -107.489 -48.026 -55.119  1.00  0.00     0.000 C 
BRANCH  18  19
ATOM     19  C   UNL     1    -107.361 -48.579 -56.546  1.00  0.00     0.000 C 
BRANCH  19  20
ATOM     20  C   UNL     1    -107.327 -47.438 -57.573  1.00  0.00     0.000 C 
BRANCH  20  21
ATOM     21  C   UNL     1    -108.287 -47.664 -58.757  1.00  0.00     0.000 C 
BRANCH  21  22
ATOM     22  C   UNL     1    -109.123 -48.956 -58.678  1.00  0.00     0.000 C 
BRANCH  22  23
ATOM     23  C   UNL     1    -110.635 -48.695 -58.796  1.00  0.00     0.000 C 
BRANCH  23  24
ATOM     24  C   UNL     1    -111.365 -48.833 -57.449  1.00  0.00    -0.000 C 
BRANCH  24  25
ATOM     25  C   UNL     1    -110.856 -50.024 -56.621  1.00  0.00    -0.000 C 
BRANCH  25  26
ATOM     26  C   UNL     1    -110.698 -49.691 -55.127  1.00  0.00    -0.000 C 
BRANCH  26  27
ATOM     27  C   UNL     1    -110.170 -50.866 -54.277  1.00  0.00    -0.000 C 
BRANCH  27  28
ATOM     28  C   UNL     1    -108.875 -51.476 -54.849  1.00  0.00    -0.000 C 
BRANCH  28  29
ATOM     29  C   UNL     1    -109.002 -52.998 -55.089  1.00  0.00    -0.000 C 
BRANCH  29  30
ATOM     30  C   UNL     1    -108.563 -53.445 -56.498  1.00  0.00    -0.000 C 
BRANCH  30  31
ATOM     31  C   UNL     1    -108.181 -52.297 -57.444  1.00  0.00    -0.003 C 
ATOM     32  C   UNL     1    -108.642 -52.533 -58.883  1.00  0.00     0.004 C 
ENDBRANCH  30  31
ENDBRANCH  29  30
ENDBRANCH  28  29
ENDBRANCH  27  28
ENDBRANCH  26  27
ENDBRANCH  25  26
ENDBRANCH  24  25
ENDBRANCH  23  24
ENDBRANCH  22  23
ENDBRANCH  21  22
ENDBRANCH  20  21
ENDBRANCH  19  20
ENDBRANCH  18  19
ENDBRANCH   1  18
TORSDOF 28
ENDMDL
MODEL 2
REMARK VINA RESULT:    -2.680      1.318      2.749
REMARK INTER + INTRA:         -12.998
REMARK INTER:                  -6.656
REMARK INTRA:                  -6.342
REMARK UNBOUND:                -5.930
REMARK SMILES CCCCCCCCCCCCCCCCCCCCCCCCCCCCCC(=O)[O-]
REMARK SMILES IDX 16 1 17 2 18 3 19 4 20 5 21 6 22 7 23 8 24 9 25 10 26 11
REMARK SMILES IDX 27 12 28 13 29 14 30 15 31 16 32 17 15 18 14 19 13 20 12 21
REMARK SMILES IDX 11 22 10 23 9 24 8 25 7 26 6 27 5 28 4 29 3 30 2 31 1 32
REMARK H PARENT
REMARK Flexibility Score: inf
ROOT
ATOM      1  C   UNL     1    -108.272 -48.013 -58.331  1.00  0.00     0.000 C 
ENDROOT
BRANCH   1   2
ATOM      2  C   UNL     1    -108.825 -46.759 -59.042  1.00  0.00     0.000 C 
BRANCH   2   3
ATOM      3  C   UNL     1    -109.636 -45.803 -58.148  1.00  0.00     0.000 C 
BRANCH   3   4
ATOM      4  C   UNL     1    -110.263 -44.640 -58.931  1.00  0.00     0.000 C 
BRANCH   4   5
ATOM      5  C   UNL     1    -109.719 -44.574 -60.367  1.00  0.00     0.000 C 
BRANCH   5   6
ATOM      6  C   UNL     1    -110.843 -44.473 -61.414  1.00  0.00     0.000 C 
BRANCH   6   7
ATOM      7  C   UNL     1    -112.141 -45.161 -60.954  1.00  0.00     0.000 C 
BRANCH   7   8
ATOM      8  C   UNL     1    -112.336 -46.544 -61.593  1.00  0.00     0.000 C 
BRANCH   8   9
ATOM      9  C   UNL     1    -111.855 -47.693 -60.691  1.00  0.00     0.000 C 
BRANCH   9  10
ATOM     10  C   UNL     1    -110.877 -48.618 -61.428  1.00  0.00     0.000 C 
BRANCH  10  11
ATOM     11  C   UNL     1    -109.977 -47.853 -62.418  1.00  0.00     0.000 C 
BRANCH  11  12
ATOM     12  C   UNL     1    -108.501 -48.271 -62.307  1.00  0.00     0.000 C 
BRANCH  12  13
ATOM     13  C   UNL     1    -108.353 -49.781 -62.036  1.00  0.00     0.006 C 
BRANCH  13  14
ATOM     14  C   UNL     1    -107.309 -50.437 -62.951  1.00  0.00     0.053 C 
BRANCH  14  15
ATOM     15  C   UNL     1    -107.643 -50.249 -64.401  1.00  0.00     0.041 C 
ATOM     16  O   UNL     1    -106.802 -49.723 -65.178  1.00  0.00    -0.550 OA
ATOM     17  O   UNL     1    -108.850 -50.718 -64.905  1.00  0.00    -0.550 OA
ENDBRANCH  14  15
ENDBRANCH  13  14
ENDBRANCH  12  13
ENDBRANCH  11  12
ENDBRANCH  10  11
ENDBRANCH   9  10
ENDBRANCH   8   9
ENDBRANCH   7   8
ENDBRANCH   6   7
ENDBRANCH   5   6
ENDBRANCH   4   5
ENDBRANCH   3   4
ENDBRANCH   2   3
ENDBRANCH   1   2
BRANCH   1  18
ATOM     18  C   UNL     1    -107.122 -47.745 -57.347  1.00  0.00     0.000 C 
BRANCH  18  19
ATOM     19  C   UNL     1    -107.474 -48.137 -55.905  1.00  0.00     0.000 C 
BRANCH  19  20
ATOM     20  C   UNL     1    -107.827 -46.895 -55.073  1.00  0.00     0.000 C 
BRANCH  20  21
ATOM     21  C   UNL     1    -109.296 -46.881 -54.605  1.00  0.00     0.000 C 
BRANCH  21  22
ATOM     22  C   UNL     1    -110.113 -48.128 -54.992  1.00  0.00     0.000 C 
BRANCH  22  23
ATOM     23  C   UNL     1    -111.430 -47.779 -55.709  1.00  0.00     0.000 C 
BRANCH  23  24
ATOM     24  C   UNL     1    -111.660 -48.630 -56.969  1.00  0.00    -0.000 C 
BRANCH  24  25
ATOM     25  C   UNL     1    -111.148 -50.071 -56.810  1.00  0.00    -0.000 C 
BRANCH  25  26
ATOM     26  C   UNL     1    -111.255 -50.891 -58.107  1.00  0.00    -0.000 C 
BRANCH  26  27
ATOM     27  C   UNL     1    -109.929 -50.998 -58.890  1.00  0.00    -0.000 C 
BRANCH  27  28
ATOM     28  C   UNL     1    -109.486 -52.458 -59.106  1.00  0.00    -0.000 C 
BRANCH  28  29
ATOM     29  C   UNL     1    -108.323 -52.860 -58.169  1.00  0.00    -0.000 C 
BRANCH  29  30
ATOM     30  C   UNL     1    -107.797 -51.703 -57.296  1.00  0.00    -0.000 C 
BRANCH  30  31
ATOM     31  C   UNL     1    -107.834 -51.973 -55.784  1.00  0.00    -0.003 C 
ATOM     32  C   UNL     1    -109.075 -52.752 -55.349  1.00  0.00     0.004 C 
ENDBRANCH  30  31
ENDBRANCH  29  30
ENDBRANCH  28  29
ENDBRANCH  27  28
ENDBRANCH  26  27
ENDBRANCH  25  26
ENDBRANCH  24  25
ENDBRANCH  23  24
ENDBRANCH  22  23
ENDBRANCH  21  22
ENDBRANCH  20  21
ENDBRANCH  19  20
ENDBRANCH  18  19
ENDBRANCH   1  18
TORSDOF 28
ENDMDL
MODEL 3
REMARK VINA RESULT:    -2.643      1.557      4.345
REMARK INTER + INTRA:         -12.900
REMARK INTER:                  -6.915
REMARK INTRA:                  -5.985
REMARK UNBOUND:                -5.930
REMARK SMILES CCCCCCCCCCCCCCCCCCCCCCCCCCCCCC(=O)[O-]
REMARK SMILES IDX 16 1 17 2 18 3 19 4 20 5 21 6 22 7 23 8 24 9 25 10 26 11
REMARK SMILES IDX 27 12 28 13 29 14 30 15 31 16 32 17 15 18 14 19 13 20 12 21
REMARK SMILES IDX 11 22 10 23 9 24 8 25 7 26 6 27 5 28 4 29 3 30 2 31 1 32
REMARK H PARENT
REMARK Flexibility Score: inf
ROOT
ATOM      1  C   UNL     1    -110.829 -45.227 -59.449  1.00  0.00     0.000 C 
ENDROOT
BRANCH   1   2
ATOM      2  C   UNL     1    -109.590 -45.148 -60.366  1.00  0.00     0.000 C 
BRANCH   2   3
ATOM      3  C   UNL     1    -109.483 -46.266 -61.421  1.00  0.00     0.000 C 
BRANCH   3   4
ATOM      4  C   UNL     1    -110.668 -47.243 -61.378  1.00  0.00     0.000 C 
BRANCH   4   5
ATOM      5  C   UNL     1    -111.341 -47.367 -62.755  1.00  0.00     0.000 C 
BRANCH   5   6
ATOM      6  C   UNL     1    -111.730 -48.819 -63.086  1.00  0.00     0.000 C 
BRANCH   6   7
ATOM      7  C   UNL     1    -112.014 -49.656 -61.826  1.00  0.00     0.000 C 
BRANCH   7   8
ATOM      8  C   UNL     1    -111.339 -51.035 -61.866  1.00  0.00     0.000 C 
BRANCH   8   9
ATOM      9  C   UNL     1    -110.583 -51.368 -60.570  1.00  0.00     0.000 C 
BRANCH   9  10
ATOM     10  C   UNL     1    -109.062 -51.302 -60.771  1.00  0.00     0.000 C 
BRANCH  10  11
ATOM     11  C   UNL     1    -108.676 -50.836 -62.189  1.00  0.00     0.000 C 
BRANCH  11  12
ATOM     12  C   UNL     1    -107.915 -49.500 -62.177  1.00  0.00     0.000 C 
BRANCH  12  13
ATOM     13  C   UNL     1    -107.937 -48.816 -63.557  1.00  0.00     0.006 C 
BRANCH  13  14
ATOM     14  C   UNL     1    -108.216 -49.809 -64.695  1.00  0.00     0.053 C 
BRANCH  14  15
ATOM     15  C   UNL     1    -106.951 -50.270 -65.355  1.00  0.00     0.041 C 
ATOM     16  O   UNL     1    -106.687 -49.909 -66.532  1.00  0.00    -0.550 OA
ATOM     17  O   UNL     1    -106.034 -51.035 -64.645  1.00  0.00    -0.550 OA
ENDBRANCH  14  15
ENDBRANCH  13  14
ENDBRANCH  12  13
ENDBRANCH  11  12
ENDBRANCH  10  11
ENDBRANCH   9  10
ENDBRANCH   8   9
ENDBRANCH   7   8
ENDBRANCH   6   7
ENDBRANCH   5   6
ENDBRANCH   4   5
ENDBRANCH   3   4
ENDBRANCH   2   3
ENDBRANCH   1   2
BRANCH   1  18
ATOM     18  C   UNL     1    -110.547 -44.979 -57.957  1.00  0.00     0.000 C 
BRANCH  18  19
ATOM     19  C   UNL     1    -111.690 -45.459 -57.052  1.00  0.00     0.000 C 
BRANCH  19  20
ATOM     20  C   UNL     1    -111.143 -46.002 -55.724  1.00  0.00     0.000 C 
BRANCH  20  21
ATOM     21  C   UNL     1    -109.647 -45.696 -55.518  1.00  0.00     0.000 C 
BRANCH  21  22
ATOM     22  C   UNL     1    -108.795 -46.895 -55.060  1.00  0.00     0.000 C 
BRANCH  22  23
ATOM     23  C   UNL     1    -107.362 -46.855 -55.620  1.00  0.00     0.000 C 
BRANCH  23  24
ATOM     24  C   UNL     1    -107.142 -47.873 -56.752  1.00  0.00    -0.000 C 
BRANCH  24  25
ATOM     25  C   UNL     1    -107.861 -47.476 -58.052  1.00  0.00    -0.000 C 
BRANCH  25  26
ATOM     26  C   UNL     1    -108.716 -48.614 -58.635  1.00  0.00    -0.000 C 
BRANCH  26  27
ATOM     27  C   UNL     1    -110.120 -48.728 -58.003  1.00  0.00    -0.000 C 
BRANCH  27  28
ATOM     28  C   UNL     1    -110.213 -49.871 -56.972  1.00  0.00    -0.000 C 
BRANCH  28  29
ATOM     29  C   UNL     1    -109.080 -50.909 -57.146  1.00  0.00    -0.000 C 
BRANCH  29  30
ATOM     30  C   UNL     1    -109.543 -52.370 -56.974  1.00  0.00    -0.000 C 
BRANCH  30  31
ATOM     31  C   UNL     1    -108.655 -53.219 -56.052  1.00  0.00    -0.003 C 
ATOM     32  C   UNL     1    -107.497 -52.426 -55.447  1.00  0.00     0.004 C 
ENDBRANCH  30  31
ENDBRANCH  29  30
ENDBRANCH  28  29
ENDBRANCH  27  28
ENDBRANCH  26  27
ENDBRANCH  25  26
ENDBRANCH  24  25
ENDBRANCH  23  24
ENDBRANCH  22  23
ENDBRANCH  21  22
ENDBRANCH  20  21
ENDBRANCH  19  20
ENDBRANCH  18  19
ENDBRANCH   1  18
TORSDOF 28
ENDMDL
MODEL 4
REMARK VINA RESULT:    -2.634      2.207      6.120
REMARK INTER + INTRA:         -12.876
REMARK INTER:                  -6.608
REMARK INTRA:                  -6.268
REMARK UNBOUND:                -5.930
REMARK SMILES CCCCCCCCCCCCCCCCCCCCCCCCCCCCCC(=O)[O-]
REMARK SMILES IDX 16 1 17 2 18 3 19 4 20 5 21 6 22 7 23 8 24 9 25 10 26 11
REMARK SMILES IDX 27 12 28 13 29 14 30 15 31 16 32 17 15 18 14 19 13 20 12 21
REMARK SMILES IDX 11 22 10 23 9 24 8 25 7 26 6 27 5 28 4 29 3 30 2 31 1 32
REMARK H PARENT
REMARK Flexibility Score: inf
ROOT
ATOM      1  C   UNL     1    -109.820 -44.936 -60.496  1.00  0.00     0.000 C 
ENDROOT
BRANCH   1   2
ATOM      2  C   UNL     1    -110.449 -44.668 -59.111  1.00  0.00     0.000 C 
BRANCH   2   3
ATOM      3  C   UNL     1    -111.303 -45.818 -58.545  1.00  0.00     0.000 C 
BRANCH   3   4
ATOM      4  C   UNL     1    -110.730 -46.406 -57.247  1.00  0.00     0.000 C 
BRANCH   4   5
ATOM      5  C   UNL     1    -109.282 -45.943 -57.015  1.00  0.00     0.000 C 
BRANCH   5   6
ATOM      6  C   UNL     1    -108.813 -46.194 -55.571  1.00  0.00     0.000 C 
BRANCH   6   7
ATOM      7  C   UNL     1    -107.524 -47.033 -55.506  1.00  0.00     0.000 C 
BRANCH   7   8
ATOM      8  C   UNL     1    -107.147 -47.646 -56.862  1.00  0.00     0.000 C 
BRANCH   8   9
ATOM      9  C   UNL     1    -107.290 -49.176 -56.887  1.00  0.00     0.000 C 
BRANCH   9  10
ATOM     10  C   UNL     1    -108.206 -49.676 -55.760  1.00  0.00     0.000 C 
BRANCH  10  11
ATOM     11  C   UNL     1    -109.665 -49.854 -56.224  1.00  0.00     0.000 C 
BRANCH  11  12
ATOM     12  C   UNL     1    -110.146 -51.308 -56.088  1.00  0.00     0.000 C 
BRANCH  12  13
ATOM     13  C   UNL     1    -108.985 -52.267 -55.761  1.00  0.00     0.006 C 
BRANCH  13  14
ATOM     14  C   UNL     1    -109.095 -53.596 -56.523  1.00  0.00     0.053 C 
BRANCH  14  15
ATOM     15  C   UNL     1    -109.023 -53.395 -58.006  1.00  0.00     0.041 C 
ATOM     16  O   UNL     1    -110.003 -53.708 -58.734  1.00  0.00    -0.550 OA
ATOM     17  O   UNL     1    -107.905 -52.796 -58.575  1.00  0.00    -0.550 OA
ENDBRANCH  14  15
ENDBRANCH  13  14
ENDBRANCH  12  13
ENDBRANCH  11  12
ENDBRANCH  10  11
ENDBRANCH   9  10
ENDBRANCH   8   9
ENDBRANCH   7   8
ENDBRANCH   6   7
ENDBRANCH   5   6
ENDBRANCH   4   5
ENDBRANCH   3   4
ENDBRANCH   2   3
ENDBRANCH   1   2
BRANCH   1  18
ATOM     18  C   UNL     1    -110.158 -46.307 -61.105  1.00  0.00     0.000 C 
BRANCH  18  19
ATOM     19  C   UNL     1    -108.983 -46.914 -61.884  1.00  0.00     0.000 C 
BRANCH  19  20
ATOM     20  C   UNL     1    -108.295 -48.015 -61.065  1.00  0.00     0.000 C 
BRANCH  20  21
ATOM     21  C   UNL     1    -109.171 -48.546 -59.914  1.00  0.00     0.000 C 
BRANCH  21  22
ATOM     22  C   UNL     1    -109.422 -50.066 -59.936  1.00  0.00     0.000 C 
BRANCH  22  23
ATOM     23  C   UNL     1    -110.889 -50.432 -59.646  1.00  0.00     0.000 C 
BRANCH  23  24
ATOM     24  C   UNL     1    -111.877 -49.390 -60.198  1.00  0.00    -0.000 C 
BRANCH  24  25
ATOM     25  C   UNL     1    -112.503 -49.819 -61.535  1.00  0.00    -0.000 C 
BRANCH  25  26
ATOM     26  C   UNL     1    -112.162 -48.861 -62.690  1.00  0.00    -0.000 C 
BRANCH  26  27
ATOM     27  C   UNL     1    -111.009 -49.353 -63.590  1.00  0.00    -0.000 C 
BRANCH  27  28
ATOM     28  C   UNL     1    -110.701 -50.851 -63.392  1.00  0.00    -0.000 C 
BRANCH  28  29
ATOM     29  C   UNL     1    -109.387 -51.275 -64.088  1.00  0.00    -0.000 C 
BRANCH  29  30
ATOM     30  C   UNL     1    -108.118 -50.944 -63.276  1.00  0.00    -0.000 C 
BRANCH  30  31
ATOM     31  C   UNL     1    -107.113 -50.037 -64.001  1.00  0.00    -0.003 C 
ATOM     32  C   UNL     1    -107.704 -49.363 -65.239  1.00  0.00     0.004 C 
ENDBRANCH  30  31
ENDBRANCH  29  30
ENDBRANCH  28  29
ENDBRANCH  27  28
ENDBRANCH  26  27
ENDBRANCH  25  26
ENDBRANCH  24  25
ENDBRANCH  23  24
ENDBRANCH  22  23
ENDBRANCH  21  22
ENDBRANCH  20  21
ENDBRANCH  19  20
ENDBRANCH  18  19
ENDBRANCH   1  18
TORSDOF 28
ENDMDL
MODEL 5
REMARK VINA RESULT:    -2.634      2.370      6.441
REMARK INTER + INTRA:         -12.875
REMARK INTER:                  -6.492
REMARK INTRA:                  -6.383
REMARK UNBOUND:                -5.930
REMARK SMILES CCCCCCCCCCCCCCCCCCCCCCCCCCCCCC(=O)[O-]
REMARK SMILES IDX 16 1 17 2 18 3 19 4 20 5 21 6 22 7 23 8 24 9 25 10 26 11
REMARK SMILES IDX 27 12 28 13 29 14 30 15 31 16 32 17 15 18 14 19 13 20 12 21
REMARK SMILES IDX 11 22 10 23 9 24 8 25 7 26 6 27 5 28 4 29 3 30 2 31 1 32
REMARK H PARENT
REMARK Flexibility Score: inf
ROOT
ATOM      1  C   UNL     1    -108.411 -48.018 -59.167  1.00  0.00     0.000 C 
ENDROOT
BRANCH   1   2
ATOM      2  C   UNL     1    -107.744 -47.309 -57.969  1.00  0.00     0.000 C 
BRANCH   2   3
ATOM      3  C   UNL     1    -107.088 -48.245 -56.936  1.00  0.00     0.000 C 
BRANCH   3   4
ATOM      4  C   UNL     1    -107.565 -47.978 -55.501  1.00  0.00     0.000 C 
BRANCH   4   5
ATOM      5  C   UNL     1    -107.945 -46.501 -55.303  1.00  0.00     0.000 C 
BRANCH   5   6
ATOM      6  C   UNL     1    -109.065 -46.322 -54.262  1.00  0.00     0.000 C 
BRANCH   6   7
ATOM      7  C   UNL     1    -110.313 -45.639 -54.850  1.00  0.00     0.000 C 
BRANCH   7   8
ATOM      8  C   UNL     1    -110.071 -45.073 -56.257  1.00  0.00     0.000 C 
BRANCH   8   9
ATOM      9  C   UNL     1    -111.007 -45.680 -57.315  1.00  0.00     0.000 C 
BRANCH   9  10
ATOM     10  C   UNL     1    -111.797 -46.870 -56.752  1.00  0.00     0.000 C 
BRANCH  10  11
ATOM     11  C   UNL     1    -111.543 -48.170 -57.540  1.00  0.00     0.000 C 
BRANCH  11  12
ATOM     12  C   UNL     1    -110.880 -49.256 -56.675  1.00  0.00     0.000 C 
BRANCH  12  13
ATOM     13  C   UNL     1    -110.710 -50.578 -57.449  1.00  0.00     0.006 C 
BRANCH  13  14
ATOM     14  C   UNL     1    -109.269 -51.106 -57.389  1.00  0.00     0.053 C 
BRANCH  14  15
ATOM     15  C   UNL     1    -109.201 -52.574 -57.687  1.00  0.00     0.041 C 
ATOM     16  O   UNL     1    -108.286 -53.026 -58.426  1.00  0.00    -0.550 OA
ATOM     17  O   UNL     1    -110.103 -53.448 -57.092  1.00  0.00    -0.550 OA
ENDBRANCH  14  15
ENDBRANCH  13  14
ENDBRANCH  12  13
ENDBRANCH  11  12
ENDBRANCH  10  11
ENDBRANCH   9  10
ENDBRANCH   8   9
ENDBRANCH   7   8
ENDBRANCH   6   7
ENDBRANCH   5   6
ENDBRANCH   4   5
ENDBRANCH   3   4
ENDBRANCH   2   3
ENDBRANCH   1   2
BRANCH   1  18
ATOM     18  C   UNL     1    -108.427 -47.205 -60.473  1.00  0.00     0.000 C 
BRANCH  18  19
ATOM     19  C   UNL     1    -109.501 -46.108 -60.474  1.00  0.00     0.000 C 
BRANCH  19  20
ATOM     20  C   UNL     1    -110.790 -46.608 -61.142  1.00  0.00     0.000 C 
BRANCH  20  21
ATOM     21  C   UNL     1    -110.526 -47.547 -62.336  1.00  0.00     0.000 C 
BRANCH  21  22
ATOM     22  C   UNL     1    -111.367 -48.838 -62.347  1.00  0.00     0.000 C 
BRANCH  22  23
ATOM     23  C   UNL     1    -111.264 -49.626 -61.029  1.00  0.00     0.000 C 
BRANCH  23  24
ATOM     24  C   UNL     1    -110.565 -50.985 -61.208  1.00  0.00    -0.000 C 
BRANCH  24  25
ATOM     25  C   UNL     1    -109.035 -50.881 -61.097  1.00  0.00    -0.000 C 
BRANCH  25  26
ATOM     26  C   UNL     1    -108.327 -51.011 -62.457  1.00  0.00    -0.000 C 
BRANCH  26  27
ATOM     27  C   UNL     1    -107.579 -49.735 -62.897  1.00  0.00    -0.000 C 
BRANCH  27  28
ATOM     28  C   UNL     1    -107.430 -49.635 -64.428  1.00  0.00    -0.000 C 
BRANCH  28  29
ATOM     29  C   UNL     1    -108.720 -50.056 -65.170  1.00  0.00    -0.000 C 
BRANCH  29  30
ATOM     30  C   UNL     1    -109.576 -48.868 -65.652  1.00  0.00    -0.000 C 
BRANCH  30  31
ATOM     31  C   UNL     1    -108.797 -47.561 -65.865  1.00  0.00    -0.003 C 
ATOM     32  C   UNL     1    -109.672 -46.316 -65.715  1.00  0.00     0.004 C 
ENDBRANCH  30  31
ENDBRANCH  29  30
ENDBRANCH  28  29
ENDBRANCH  27  28
ENDBRANCH  26  27
ENDBRANCH  25  26
ENDBRANCH  24  25
ENDBRANCH  23  24
ENDBRANCH  22  23
ENDBRANCH  21  22
ENDBRANCH  20  21
ENDBRANCH  19  20
ENDBRANCH  18  19
ENDBRANCH   1  18
TORSDOF 28
ENDMDL
MODEL 6
REMARK VINA RESULT:    -2.625      1.744      3.729
REMARK INTER + INTRA:         -12.851
REMARK INTER:                  -6.102
REMARK INTRA:                  -6.749
REMARK UNBOUND:                -5.930
REMARK SMILES CCCCCCCCCCCCCCCCCCCCCCCCCCCCCC(=O)[O-]
REMARK SMILES IDX 16 1 17 2 18 3 19 4 20 5 21 6 22 7 23 8 24 9 25 10 26 11
REMARK SMILES IDX 27 12 28 13 29 14 30 15 31 16 32 17 15 18 14 19 13 20 12 21
REMARK SMILES IDX 11 22 10 23 9 24 8 25 7 26 6 27 5 28 4 29 3 30 2 31 1 32
REMARK H PARENT
REMARK Flexibility Score: inf
ROOT
ATOM      1  C   UNL     1    -109.376 -49.957 -59.922  1.00  0.00     0.000 C 
ENDROOT
BRANCH   1   2
ATOM      2  C   UNL     1    -109.275 -48.426 -59.754  1.00  0.00     0.000 C 
BRANCH   2   3
ATOM      3  C   UNL     1    -108.390 -47.709 -60.792  1.00  0.00     0.000 C 
BRANCH   3   4
ATOM      4  C   UNL     1    -109.046 -46.444 -61.365  1.00  0.00     0.000 C 
BRANCH   4   5
ATOM      5  C   UNL     1    -109.871 -45.708 -60.296  1.00  0.00     0.000 C 
BRANCH   5   6
ATOM      6  C   UNL     1    -111.331 -45.492 -60.732  1.00  0.00     0.000 C 
BRANCH   6   7
ATOM      7  C   UNL     1    -112.338 -45.871 -59.631  1.00  0.00     0.000 C 
BRANCH   7   8
ATOM      8  C   UNL     1    -113.125 -47.147 -59.961  1.00  0.00     0.000 C 
BRANCH   8   9
ATOM      9  C   UNL     1    -112.984 -47.572 -61.432  1.00  0.00     0.000 C 
BRANCH   9  10
ATOM     10  C   UNL     1    -112.677 -49.071 -61.560  1.00  0.00     0.000 C 
BRANCH  10  11
ATOM     11  C   UNL     1    -112.155 -49.447 -62.960  1.00  0.00     0.000 C 
BRANCH  11  12
ATOM     12  C   UNL     1    -110.755 -48.873 -63.235  1.00  0.00     0.000 C 
BRANCH  12  13
ATOM     13  C   UNL     1    -109.908 -49.822 -64.105  1.00  0.00     0.006 C 
BRANCH  13  14
ATOM     14  C   UNL     1    -108.553 -49.208 -64.486  1.00  0.00     0.053 C 
BRANCH  14  15
ATOM     15  C   UNL     1    -107.407 -50.056 -64.021  1.00  0.00     0.041 C 
ATOM     16  O   UNL     1    -107.258 -50.297 -62.794  1.00  0.00    -0.550 OA
ATOM     17  O   UNL     1    -106.549 -50.637 -64.948  1.00  0.00    -0.550 OA
ENDBRANCH  14  15
ENDBRANCH  13  14
ENDBRANCH  12  13
ENDBRANCH  11  12
ENDBRANCH  10  11
ENDBRANCH   9  10
ENDBRANCH   8   9
ENDBRANCH   7   8
ENDBRANCH   6   7
ENDBRANCH   5   6
ENDBRANCH   4   5
ENDBRANCH   3   4
ENDBRANCH   2   3
ENDBRANCH   1   2
BRANCH   1  18
ATOM     18  C   UNL     1    -110.429 -50.638 -59.031  1.00  0.00     0.000 C 
BRANCH  18  19
ATOM     19  C   UNL     1    -111.254 -49.632 -58.216  1.00  0.00     0.000 C 
BRANCH  19  20
ATOM     20  C   UNL     1    -111.282 -50.025 -56.732  1.00  0.00     0.000 C 
BRANCH  20  21
ATOM     21  C   UNL     1    -111.178 -48.812 -55.786  1.00  0.00     0.000 C 
BRANCH  21  22
ATOM     22  C   UNL     1    -111.502 -47.452 -56.435  1.00  0.00     0.000 C 
BRANCH  22  23
ATOM     23  C   UNL     1    -110.602 -46.316 -55.917  1.00  0.00     0.000 C 
BRANCH  23  24
ATOM     24  C   UNL     1    -109.308 -46.169 -56.735  1.00  0.00    -0.000 C 
BRANCH  24  25
ATOM     25  C   UNL     1    -108.072 -46.695 -55.986  1.00  0.00    -0.000 C 
BRANCH  25  26
ATOM     26  C   UNL     1    -107.198 -47.621 -56.849  1.00  0.00    -0.000 C 
BRANCH  26  27
ATOM     27  C   UNL     1    -107.534 -49.120 -56.695  1.00  0.00    -0.000 C 
BRANCH  27  28
ATOM     28  C   UNL     1    -107.656 -49.550 -55.220  1.00  0.00    -0.000 C 
BRANCH  28  29
ATOM     29  C   UNL     1    -108.123 -51.017 -55.076  1.00  0.00    -0.000 C 
BRANCH  29  30
ATOM     30  C   UNL     1    -107.993 -51.842 -56.372  1.00  0.00    -0.000 C 
BRANCH  30  31
ATOM     31  C   UNL     1    -108.927 -53.059 -56.453  1.00  0.00    -0.003 C 
ATOM     32  C   UNL     1    -108.909 -53.732 -57.826  1.00  0.00     0.004 C 
ENDBRANCH  30  31
ENDBRANCH  29  30
ENDBRANCH  28  29
ENDBRANCH  27  28
ENDBRANCH  26  27
ENDBRANCH  25  26
ENDBRANCH  24  25
ENDBRANCH  23  24
ENDBRANCH  22  23
ENDBRANCH  21  22
ENDBRANCH  20  21
ENDBRANCH  19  20
ENDBRANCH  18  19
ENDBRANCH   1  18
TORSDOF 28
ENDMDL
MODEL 7
REMARK VINA RESULT:    -2.612      1.243      3.683
REMARK INTER + INTRA:         -12.818
REMARK INTER:                  -6.651
REMARK INTRA:                  -6.168
REMARK UNBOUND:                -5.930
REMARK SMILES CCCCCCCCCCCCCCCCCCCCCCCCCCCCCC(=O)[O-]
REMARK SMILES IDX 16 1 17 2 18 3 19 4 20 5 21 6 22 7 23 8 24 9 25 10 26 11
REMARK SMILES IDX 27 12 28 13 29 14 30 15 31 16 32 17 15 18 14 19 13 20 12 21
REMARK SMILES IDX 11 22 10 23 9 24 8 25 7 26 6 27 5 28 4 29 3 30 2 31 1 32
REMARK H PARENT
REMARK Flexibility Score: inf
ROOT
ATOM      1  C   UNL     1    -108.327 -48.948 -58.086  1.00  0.00     0.000 C 
ENDROOT
BRANCH   1   2
ATOM      2  C   UNL     1    -107.761 -47.582 -57.643  1.00  0.00     0.000 C 
BRANCH   2   3
ATOM      3  C   UNL     1    -107.521 -47.431 -56.129  1.00  0.00     0.000 C 
BRANCH   3   4
ATOM      4  C   UNL     1    -108.219 -46.199 -55.533  1.00  0.00     0.000 C 
BRANCH   4   5
ATOM      5  C   UNL     1    -109.748 -46.318 -55.635  1.00  0.00     0.000 C 
BRANCH   5   6
ATOM      6  C   UNL     1    -110.375 -45.139 -56.402  1.00  0.00     0.000 C 
BRANCH   6   7
ATOM      7  C   UNL     1    -110.645 -45.474 -57.880  1.00  0.00     0.000 C 
BRANCH   7   8
ATOM      8  C   UNL     1    -110.388 -44.281 -58.813  1.00  0.00     0.000 C 
BRANCH   8   9
ATOM      9  C   UNL     1    -109.716 -44.691 -60.134  1.00  0.00     0.000 C 
BRANCH   9  10
ATOM     10  C   UNL     1    -109.979 -46.166 -60.467  1.00  0.00     0.000 C 
BRANCH  10  11
ATOM     11  C   UNL     1    -108.789 -46.827 -61.190  1.00  0.00     0.000 C 
BRANCH  11  12
ATOM     12  C   UNL     1    -109.121 -48.244 -61.685  1.00  0.00     0.000 C 
BRANCH  12  13
ATOM     13  C   UNL     1    -107.848 -49.048 -62.016  1.00  0.00     0.006 C 
BRANCH  13  14
ATOM     14  C   UNL     1    -108.157 -50.513 -62.359  1.00  0.00     0.053 C 
BRANCH  14  15
ATOM     15  C   UNL     1    -107.545 -50.919 -63.666  1.00  0.00     0.041 C 
ATOM     16  O   UNL     1    -107.533 -52.132 -64.007  1.00  0.00    -0.550 OA
ATOM     17  O   UNL     1    -107.056 -49.952 -64.537  1.00  0.00    -0.550 OA
ENDBRANCH  14  15
ENDBRANCH  13  14
ENDBRANCH  12  13
ENDBRANCH  11  12
ENDBRANCH  10  11
ENDBRANCH   9  10
ENDBRANCH   8   9
ENDBRANCH   7   8
ENDBRANCH   6   7
ENDBRANCH   5   6
ENDBRANCH   4   5
ENDBRANCH   3   4
ENDBRANCH   2   3
ENDBRANCH   1   2
BRANCH   1  18
ATOM     18  C   UNL     1    -109.862 -49.028 -58.134  1.00  0.00     0.000 C 
BRANCH  18  19
ATOM     19  C   UNL     1    -110.368 -50.403 -58.593  1.00  0.00     0.000 C 
BRANCH  19  20
ATOM     20  C   UNL     1    -109.193 -51.336 -58.920  1.00  0.00     0.000 C 
BRANCH  20  21
ATOM     21  C   UNL     1    -109.458 -52.801 -58.520  1.00  0.00     0.000 C 
BRANCH  21  22
ATOM     22  C   UNL     1    -110.668 -53.012 -57.589  1.00  0.00     0.000 C 
BRANCH  22  23
ATOM     23  C   UNL     1    -110.472 -54.188 -56.616  1.00  0.00     0.000 C 
BRANCH  23  24
ATOM     24  C   UNL     1    -109.106 -54.873 -56.786  1.00  0.00    -0.000 C 
BRANCH  24  25
ATOM     25  C   UNL     1    -108.333 -54.986 -55.461  1.00  0.00    -0.000 C 
BRANCH  25  26
ATOM     26  C   UNL     1    -108.234 -53.648 -54.710  1.00  0.00    -0.000 C 
BRANCH  26  27
ATOM     27  C   UNL     1    -107.350 -52.598 -55.416  1.00  0.00    -0.000 C 
BRANCH  27  28
ATOM     28  C   UNL     1    -107.903 -51.166 -55.273  1.00  0.00    -0.000 C 
BRANCH  28  29
ATOM     29  C   UNL     1    -109.337 -51.148 -54.693  1.00  0.00    -0.000 C 
BRANCH  29  30
ATOM     30  C   UNL     1    -109.942 -49.735 -54.572  1.00  0.00    -0.000 C 
BRANCH  30  31
ATOM     31  C   UNL     1    -111.458 -49.707 -54.321  1.00  0.00    -0.003 C 
ATOM     32  C   UNL     1    -112.256 -50.403 -55.424  1.00  0.00     0.004 C 
ENDBRANCH  30  31
ENDBRANCH  29  30
ENDBRANCH  28  29
ENDBRANCH  27  28
ENDBRANCH  26  27
ENDBRANCH  25  26
ENDBRANCH  24  25
ENDBRANCH  23  24
ENDBRANCH  22  23
ENDBRANCH  21  22
ENDBRANCH  20  21
ENDBRANCH  19  20
ENDBRANCH  18  19
ENDBRANCH   1  18
TORSDOF 28
ENDMDL
MODEL 8
REMARK VINA RESULT:    -2.585      1.574      3.294
REMARK INTER + INTRA:         -12.745
REMARK INTER:                  -6.309
REMARK INTRA:                  -6.435
REMARK UNBOUND:                -5.930
REMARK SMILES CCCCCCCCCCCCCCCCCCCCCCCCCCCCCC(=O)[O-]
REMARK SMILES IDX 16 1 17 2 18 3 19 4 20 5 21 6 22 7 23 8 24 9 25 10 26 11
REMARK SMILES IDX 27 12 28 13 29 14 30 15 31 16 32 17 15 18 14 19 13 20 12 21
REMARK SMILES IDX 11 22 10 23 9 24 8 25 7 26 6 27 5 28 4 29 3 30 2 31 1 32
REMARK H PARENT
REMARK Flexibility Score: inf
ROOT
ATOM      1  C   UNL     1    -108.684 -48.530 -58.370  1.00  0.00     0.000 C 
ENDROOT
BRANCH   1   2
ATOM      2  C   UNL     1    -108.219 -47.538 -59.458  1.00  0.00     0.000 C 
BRANCH   2   3
ATOM      3  C   UNL     1    -109.273 -46.503 -59.895  1.00  0.00     0.000 C 
BRANCH   3   4
ATOM      4  C   UNL     1    -110.633 -47.137 -60.222  1.00  0.00     0.000 C 
BRANCH   4   5
ATOM      5  C   UNL     1    -110.959 -47.023 -61.720  1.00  0.00     0.000 C 
BRANCH   5   6
ATOM      6  C   UNL     1    -112.221 -47.816 -62.105  1.00  0.00     0.000 C 
BRANCH   6   7
ATOM      7  C   UNL     1    -111.895 -49.108 -62.875  1.00  0.00     0.000 C 
BRANCH   7   8
ATOM      8  C   UNL     1    -112.369 -50.370 -62.140  1.00  0.00     0.000 C 
BRANCH   8   9
ATOM      9  C   UNL     1    -111.211 -51.301 -61.742  1.00  0.00     0.000 C 
BRANCH   9  10
ATOM     10  C   UNL     1    -110.169 -50.569 -60.885  1.00  0.00     0.000 C 
BRANCH  10  11
ATOM     11  C   UNL     1    -108.752 -51.150 -61.060  1.00  0.00     0.000 C 
BRANCH  11  12
ATOM     12  C   UNL     1    -108.159 -50.835 -62.444  1.00  0.00     0.000 C 
BRANCH  12  13
ATOM     13  C   UNL     1    -107.942 -49.323 -62.643  1.00  0.00     0.006 C 
BRANCH  13  14
ATOM     14  C   UNL     1    -108.478 -48.831 -63.996  1.00  0.00     0.053 C 
BRANCH  14  15
ATOM     15  C   UNL     1    -107.856 -49.570 -65.143  1.00  0.00     0.041 C 
ATOM     16  O   UNL     1    -106.603 -49.591 -65.274  1.00  0.00    -0.550 OA
ATOM     17  O   UNL     1    -108.655 -50.293 -66.021  1.00  0.00    -0.550 OA
ENDBRANCH  14  15
ENDBRANCH  13  14
ENDBRANCH  12  13
ENDBRANCH  11  12
ENDBRANCH  10  11
ENDBRANCH   9  10
ENDBRANCH   8   9
ENDBRANCH   7   8
ENDBRANCH   6   7
ENDBRANCH   5   6
ENDBRANCH   4   5
ENDBRANCH   3   4
ENDBRANCH   2   3
ENDBRANCH   1   2
BRANCH   1  18
ATOM     18  C   UNL     1    -107.732 -48.667 -57.170  1.00  0.00     0.000 C 
BRANCH  18  19
ATOM     19  C   UNL     1    -107.231 -47.310 -56.654  1.00  0.00     0.000 C 
BRANCH  19  20
ATOM     20  C   UNL     1    -107.532 -47.151 -55.156  1.00  0.00     0.000 C 
BRANCH  20  21
ATOM     21  C   UNL     1    -108.861 -46.421 -54.883  1.00  0.00     0.000 C 
BRANCH  21  22
ATOM     22  C   UNL     1    -109.425 -45.629 -56.079  1.00  0.00     0.000 C 
BRANCH  22  23
ATOM     23  C   UNL     1    -110.798 -46.149 -56.542  1.00  0.00     0.000 C 
BRANCH  23  24
ATOM     24  C   UNL     1    -111.310 -47.314 -55.680  1.00  0.00    -0.000 C 
BRANCH  24  25
ATOM     25  C   UNL     1    -111.725 -48.533 -56.520  1.00  0.00    -0.000 C 
BRANCH  25  26
ATOM     26  C   UNL     1    -111.116 -49.850 -56.008  1.00  0.00    -0.000 C 
BRANCH  26  27
ATOM     27  C   UNL     1    -110.521 -49.752 -54.587  1.00  0.00    -0.000 C 
BRANCH  27  28
ATOM     28  C   UNL     1    -109.171 -50.485 -54.459  1.00  0.00    -0.000 C 
BRANCH  28  29
ATOM     29  C   UNL     1    -109.211 -51.897 -55.089  1.00  0.00    -0.000 C 
BRANCH  29  30
ATOM     30  C   UNL     1    -107.986 -52.220 -55.969  1.00  0.00    -0.000 C 
BRANCH  30  31
ATOM     31  C   UNL     1    -108.271 -52.247 -57.479  1.00  0.00    -0.003 C 
ATOM     32  C   UNL     1    -109.649 -52.818 -57.814  1.00  0.00     0.004 C 
ENDBRANCH  30  31
ENDBRANCH  29  30
ENDBRANCH  28  29
ENDBRANCH  27  28
ENDBRANCH  26  27
ENDBRANCH  25  26
ENDBRANCH  24  25
ENDBRANCH  23  24
ENDBRANCH  22  23
ENDBRANCH  21  22
ENDBRANCH  20  21
ENDBRANCH  19  20
ENDBRANCH  18  19
ENDBRANCH   1  18
TORSDOF 28
ENDMDL
MODEL 9
REMARK VINA RESULT:    -2.563      1.918      4.212
REMARK INTER + INTRA:         -12.689
REMARK INTER:                  -6.473
REMARK INTRA:                  -6.216
REMARK UNBOUND:                -5.930
REMARK SMILES CCCCCCCCCCCCCCCCCCCCCCCCCCCCCC(=O)[O-]
REMARK SMILES IDX 16 1 17 2 18 3 19 4 20 5 21 6 22 7 23 8 24 9 25 10 26 11
REMARK SMILES IDX 27 12 28 13 29 14 30 15 31 16 32 17 15 18 14 19 13 20 12 21
REMARK SMILES IDX 11 22 10 23 9 24 8 25 7 26 6 27 5 28 4 29 3 30 2 31 1 32
REMARK H PARENT
REMARK Flexibility Score: inf
ROOT
ATOM      1  C   UNL     1    -109.345 -50.460 -60.330  1.00  0.00     0.000 C 
ENDROOT
BRANCH   1   2
ATOM      2  C   UNL     1    -109.064 -48.978 -60.005  1.00  0.00     0.000 C 
BRANCH   2   3
ATOM      3  C   UNL     1    -108.487 -48.149 -61.169  1.00  0.00     0.000 C 
BRANCH   3   4
ATOM      4  C   UNL     1    -108.952 -46.686 -61.148  1.00  0.00     0.000 C 
BRANCH   4   5
ATOM      5  C   UNL     1    -110.483 -46.586 -61.050  1.00  0.00     0.000 C 
BRANCH   5   6
ATOM      6  C   UNL     1    -111.184 -47.068 -62.333  1.00  0.00     0.000 C 
BRANCH   6   7
ATOM      7  C   UNL     1    -112.193 -48.199 -62.066  1.00  0.00     0.000 C 
BRANCH   7   8
ATOM      8  C   UNL     1    -111.906 -49.457 -62.898  1.00  0.00     0.000 C 
BRANCH   8   9
ATOM      9  C   UNL     1    -111.177 -49.148 -64.217  1.00  0.00     0.000 C 
BRANCH   9  10
ATOM     10  C   UNL     1    -110.453 -50.386 -64.764  1.00  0.00     0.000 C 
BRANCH  10  11
ATOM     11  C   UNL     1    -109.692 -51.156 -63.667  1.00  0.00     0.000 C 
BRANCH  11  12
ATOM     12  C   UNL     1    -108.208 -51.355 -64.016  1.00  0.00     0.000 C 
BRANCH  12  13
ATOM     13  C   UNL     1    -107.475 -50.010 -64.186  1.00  0.00     0.006 C 
BRANCH  13  14
ATOM     14  C   UNL     1    -106.679 -49.943 -65.498  1.00  0.00     0.053 C 
BRANCH  14  15
ATOM     15  C   UNL     1    -107.445 -49.241 -66.579  1.00  0.00     0.041 C 
ATOM     16  O   UNL     1    -108.158 -48.240 -66.298  1.00  0.00    -0.550 OA
ATOM     17  O   UNL     1    -107.316 -49.647 -67.902  1.00  0.00    -0.550 OA
ENDBRANCH  14  15
ENDBRANCH  13  14
ENDBRANCH  12  13
ENDBRANCH  11  12
ENDBRANCH  10  11
ENDBRANCH   9  10
ENDBRANCH   8   9
ENDBRANCH   7   8
ENDBRANCH   6   7
ENDBRANCH   5   6
ENDBRANCH   4   5
ENDBRANCH   3   4
ENDBRANCH   2   3
ENDBRANCH   1   2
BRANCH   1  18
ATOM     18  C   UNL     1    -110.572 -51.058 -59.620  1.00  0.00     0.000 C 
BRANCH  18  19
ATOM     19  C   UNL     1    -111.440 -49.990 -58.940  1.00  0.00     0.000 C 
BRANCH  19  20
ATOM     20  C   UNL     1    -111.259 -50.029 -57.415  1.00  0.00     0.000 C 
BRANCH  20  21
ATOM     21  C   UNL     1    -111.194 -48.626 -56.780  1.00  0.00     0.000 C 
BRANCH  21  22
ATOM     22  C   UNL     1    -111.663 -47.477 -57.693  1.00  0.00     0.000 C 
BRANCH  22  23
ATOM     23  C   UNL     1    -111.182 -46.097 -57.209  1.00  0.00     0.000 C 
BRANCH  23  24
ATOM     24  C   UNL     1    -109.654 -45.943 -57.290  1.00  0.00    -0.000 C 
BRANCH  24  25
ATOM     25  C   UNL     1    -108.991 -45.877 -55.904  1.00  0.00    -0.000 C 
BRANCH  25  26
ATOM     26  C   UNL     1    -107.787 -46.824 -55.770  1.00  0.00    -0.000 C 
BRANCH  26  27
ATOM     27  C   UNL     1    -107.430 -47.570 -57.074  1.00  0.00    -0.000 C 
BRANCH  27  28
ATOM     28  C   UNL     1    -107.182 -49.074 -56.846  1.00  0.00    -0.000 C 
BRANCH  28  29
ATOM     29  C   UNL     1    -107.844 -49.585 -55.544  1.00  0.00    -0.000 C 
BRANCH  29  30
ATOM     30  C   UNL     1    -108.183 -51.089 -55.567  1.00  0.00    -0.000 C 
BRANCH  30  31
ATOM     31  C   UNL     1    -107.812 -51.810 -56.872  1.00  0.00    -0.003 C 
ATOM     32  C   UNL     1    -108.709 -53.013 -57.164  1.00  0.00     0.004 C 
ENDBRANCH  30  31
ENDBRANCH  29  30
ENDBRANCH  28  29
ENDBRANCH  27  28
ENDBRANCH  26  27
ENDBRANCH  25  26
ENDBRANCH  24  25
ENDBRANCH  23  24
ENDBRANCH  22  23
ENDBRANCH  21  22
ENDBRANCH  20  21
ENDBRANCH  19  20
ENDBRANCH  18  19
ENDBRANCH   1  18
TORSDOF 28
ENDMDL
