MODEL 1
REMARK VINA RESULT:    -5.315      0.000      0.000
REMARK INTER + INTRA:          -9.123
REMARK INTER:                  -7.801
REMARK INTRA:                  -1.322
REMARK UNBOUND:                -1.322
REMARK SMILES O=c1c(O[C@H]2O[C@H](CO)[C@H](O)[C@@H](O)[C@@H]2O)c(-c2ccc(O)c(O)c2)oc2cc(O)cc(O)c12
REMARK SMILES IDX 4 1 3 2 16 3 25 4 2 5 26 6 1 7 33 8 27 9 31 10 28 11 30 12
REMARK SMILES IDX 17 13 18 14 19 15 20 16 24 17 22 18 21 19 23 21 32 23 29 25
REMARK SMILES IDX 5 27 14 28 6 29 12 30 7 31 10 32 15 33 13 35 8 37 9 38 11 40
REMARK H PARENT 21 20 23 22 32 24 29 26 15 34 13 36 9 39 11 41
REMARK Flexibility Score: inf
ROOT
ATOM      1  O   UNL     1       2.505  12.530  75.581  1.00  0.00    -0.454 OA
ENDROOT
BRANCH   1   2
ATOM      2  C   UNL     1       2.849  13.883  75.492  1.00  0.00     0.214 A 
ATOM      3  C   UNL     1       4.171  14.267  75.216  1.00  0.00     0.180 A 
ATOM      4  O   UNL     1       4.500  15.554  75.236  1.00  0.00    -0.452 OA
ATOM      5  C   UNL     1       1.883  14.872  75.714  1.00  0.00     0.239 A 
ATOM      6  C   UNL     1       3.625  16.528  75.456  1.00  0.00     0.146 A 
ATOM      7  O   UNL     1       0.710  14.512  75.984  1.00  0.00    -0.285 OA
ATOM      8  C   UNL     1       2.249  16.239  75.667  1.00  0.00     0.111 A 
ATOM      9  C   UNL     1       4.086  17.846  75.481  1.00  0.00     0.094 A 
ATOM     10  C   UNL     1       1.347  17.329  75.854  1.00  0.00     0.134 A 
ATOM     11  C   UNL     1       3.204  18.898  75.718  1.00  0.00     0.123 A 
ATOM     12  C   UNL     1       1.845  18.636  75.907  1.00  0.00     0.093 A 
BRANCH   3  13
ATOM     13  C   UNL     1       5.227  13.276  74.921  1.00  0.00     0.025 A 
ATOM     14  C   UNL     1       5.485  12.863  73.603  1.00  0.00     0.016 A 
ATOM     15  C   UNL     1       6.494  11.933  73.339  1.00  0.00     0.051 A 
ATOM     16  C   UNL     1       7.267  11.414  74.383  1.00  0.00     0.157 A 
ATOM     17  C   UNL     1       6.018  12.772  75.964  1.00  0.00     0.062 A 
ATOM     18  C   UNL     1       7.032  11.837  75.702  1.00  0.00     0.158 A 
BRANCH  16  19
ATOM     19  O   UNL     1       8.264  10.484  74.090  1.00  0.00    -0.504 OA
ATOM     20  H   UNL     1       9.103  10.399  74.651  1.00  0.00     0.293 HD
ENDBRANCH  16  19
BRANCH  18  21
ATOM     21  O   UNL     1       7.805  11.331  76.746  1.00  0.00    -0.504 OA
ATOM     22  H   UNL     1       8.785  11.105  76.620  1.00  0.00     0.293 HD
ENDBRANCH  18  21
ENDBRANCH   3  13
BRANCH  10  23
ATOM     23  O   UNL     1      -0.039  17.187  75.969  1.00  0.00    -0.507 OA
ATOM     24  H   UNL     1      -0.717  17.624  75.364  1.00  0.00     0.293 HD
ENDBRANCH  10  23
BRANCH  11  25
ATOM     25  O   UNL     1       3.689  20.204  75.758  1.00  0.00    -0.508 OA
ATOM     26  H   UNL     1       4.643  20.407  76.035  1.00  0.00     0.293 HD
ENDBRANCH  11  25
ENDBRANCH   1   2
BRANCH   1  27
ATOM     27  C   UNL     1       2.027  11.799  74.448  1.00  0.00     0.339 C 
ATOM     28  C   UNL     1       0.507  11.531  74.563  1.00  0.00     0.214 C 
ATOM     29  O   UNL     1       2.768  10.602  74.259  1.00  0.00    -0.332 OA
ATOM     30  C   UNL     1       0.173  10.401  75.566  1.00  0.00     0.180 C 
ATOM     31  C   UNL     1       2.612   9.717  75.357  1.00  0.00     0.179 C 
ATOM     32  C   UNL     1       1.152   9.214  75.460  1.00  0.00     0.177 C 
BRANCH  28  33
ATOM     33  O   UNL     1      -0.046  11.249  73.299  1.00  0.00    -0.384 OA
ATOM     34  H   UNL     1      -0.002  10.268  73.156  1.00  0.00     0.211 HD
ENDBRANCH  28  33
BRANCH  30  35
ATOM     35  O   UNL     1       0.106  10.892  76.884  1.00  0.00    -0.387 OA
ATOM     36  H   UNL     1      -0.393  11.747  76.875  1.00  0.00     0.211 HD
ENDBRANCH  30  35
BRANCH  31  37
ATOM     37  C   UNL     1       3.586   8.539  75.189  1.00  0.00     0.191 C 
BRANCH  37  38
ATOM     38  O   UNL     1       4.913   8.986  75.245  1.00  0.00    -0.394 OA
ATOM     39  H   UNL     1       4.912   9.813  75.796  1.00  0.00     0.210 HD
ENDBRANCH  37  38
ENDBRANCH  31  37
BRANCH  32  40
ATOM     40  O   UNL     1       0.819   8.441  74.332  1.00  0.00    -0.387 OA
ATOM     41  H   UNL     1       1.653   8.300  73.814  1.00  0.00     0.211 HD
ENDBRANCH  32  40
ENDBRANCH   1  27
TORSDOF 12
ENDMDL
MODEL 2
REMARK VINA RESULT:    -5.303      1.142      2.237
REMARK INTER + INTRA:          -9.104
REMARK INTER:                  -7.641
REMARK INTRA:                  -1.463
REMARK UNBOUND:                -1.322
REMARK SMILES O=c1c(O[C@H]2O[C@H](CO)[C@H](O)[C@@H](O)[C@@H]2O)c(-c2ccc(O)c(O)c2)oc2cc(O)cc(O)c12
REMARK SMILES IDX 4 1 3 2 16 3 25 4 2 5 26 6 1 7 33 8 27 9 31 10 28 11 30 12
REMARK SMILES IDX 17 13 18 14 19 15 20 16 24 17 22 18 21 19 23 21 32 23 29 25
REMARK SMILES IDX 5 27 14 28 6 29 12 30 7 31 10 32 15 33 13 35 8 37 9 38 11 40
REMARK H PARENT 21 20 23 22 32 24 29 26 15 34 13 36 9 39 11 41
REMARK Flexibility Score: inf
ROOT
ATOM      1  O   UNL     1       2.440  12.265  74.535  1.00  0.00    -0.454 OA
ENDROOT
BRANCH   1   2
ATOM      2  C   UNL     1       2.583  13.609  74.899  1.00  0.00     0.214 A 
ATOM      3  C   UNL     1       3.859  14.164  75.091  1.00  0.00     0.180 A 
ATOM      4  O   UNL     1       3.973  15.411  75.535  1.00  0.00    -0.452 OA
ATOM      5  C   UNL     1       1.452  14.406  75.112  1.00  0.00     0.239 A 
ATOM      6  C   UNL     1       2.932  16.202  75.766  1.00  0.00     0.146 A 
ATOM      7  O   UNL     1       0.318  13.887  74.960  1.00  0.00    -0.285 OA
ATOM      8  C   UNL     1       1.606  15.751  75.525  1.00  0.00     0.111 A 
ATOM      9  C   UNL     1       3.168  17.488  76.258  1.00  0.00     0.094 A 
ATOM     10  C   UNL     1       0.528  16.660  75.749  1.00  0.00     0.134 A 
ATOM     11  C   UNL     1       2.104  18.347  76.524  1.00  0.00     0.123 A 
ATOM     12  C   UNL     1       0.795  17.931  76.273  1.00  0.00     0.093 A 
BRANCH   3  13
ATOM     13  C   UNL     1       5.094  13.394  74.833  1.00  0.00     0.025 A 
ATOM     14  C   UNL     1       5.556  13.184  73.523  1.00  0.00     0.016 A 
ATOM     15  C   UNL     1       6.730  12.462  73.296  1.00  0.00     0.051 A 
ATOM     16  C   UNL     1       7.466  11.953  74.371  1.00  0.00     0.157 A 
ATOM     17  C   UNL     1       5.844  12.902  75.911  1.00  0.00     0.062 A 
ATOM     18  C   UNL     1       7.024  12.176  75.686  1.00  0.00     0.158 A 
BRANCH  16  19
ATOM     19  O   UNL     1       8.633  11.233  74.114  1.00  0.00    -0.504 OA
ATOM     20  H   UNL     1       8.797  10.774  73.226  1.00  0.00     0.293 HD
ENDBRANCH  16  19
BRANCH  18  21
ATOM     21  O   UNL     1       7.758  11.680  76.762  1.00  0.00    -0.504 OA
ATOM     22  H   UNL     1       7.366  11.634  77.695  1.00  0.00     0.293 HD
ENDBRANCH  18  21
ENDBRANCH   3  13
BRANCH  10  23
ATOM     23  O   UNL     1      -0.809  16.377  75.455  1.00  0.00    -0.507 OA
ATOM     24  H   UNL     1      -1.124  15.614  74.877  1.00  0.00     0.293 HD
ENDBRANCH  10  23
BRANCH  11  25
ATOM     25  O   UNL     1       2.362  19.619  77.032  1.00  0.00    -0.508 OA
ATOM     26  H   UNL     1       2.797  20.338  76.465  1.00  0.00     0.293 HD
ENDBRANCH  11  25
ENDBRANCH   1   2
BRANCH   1  27
ATOM     27  C   UNL     1       2.605  11.207  75.482  1.00  0.00     0.339 C 
ATOM     28  C   UNL     1       3.393  10.027  74.864  1.00  0.00     0.214 C 
ATOM     29  O   UNL     1       1.354  10.794  76.013  1.00  0.00    -0.332 OA
ATOM     30  C   UNL     1       2.534   9.173  73.900  1.00  0.00     0.180 C 
ATOM     31  C   UNL     1       0.515  10.254  75.005  1.00  0.00     0.179 C 
ATOM     32  C   UNL     1       1.106   8.941  74.436  1.00  0.00     0.177 C 
BRANCH  28  33
ATOM     33  O   UNL     1       3.954   9.220  75.872  1.00  0.00    -0.384 OA
ATOM     34  H   UNL     1       4.924   9.423  75.925  1.00  0.00     0.211 HD
ENDBRANCH  28  33
BRANCH  30  35
ATOM     35  O   UNL     1       2.509   9.732  72.608  1.00  0.00    -0.387 OA
ATOM     36  H   UNL     1       2.530  10.718  72.693  1.00  0.00     0.211 HD
ENDBRANCH  30  35
BRANCH  31  37
ATOM     37  C   UNL     1      -0.884  10.013  75.595  1.00  0.00     0.191 C 
BRANCH  37  38
ATOM     38  O   UNL     1      -0.801   9.773  76.974  1.00  0.00    -0.394 OA
ATOM     39  H   UNL     1      -0.776  10.662  77.416  1.00  0.00     0.210 HD
ENDBRANCH  37  38
ENDBRANCH  31  37
BRANCH  32  40
ATOM     40  O   UNL     1       1.145   7.949  75.434  1.00  0.00    -0.387 OA
ATOM     41  H   UNL     1       1.062   7.071  74.981  1.00  0.00     0.211 HD
ENDBRANCH  32  40
ENDBRANCH   1  27
TORSDOF 12
ENDMDL
MODEL 3
REMARK VINA RESULT:    -5.269     12.007     14.528
REMARK INTER + INTRA:          -9.054
REMARK INTER:                  -7.443
REMARK INTRA:                  -1.611
REMARK UNBOUND:                -1.322
REMARK SMILES O=c1c(O[C@H]2O[C@H](CO)[C@H](O)[C@@H](O)[C@@H]2O)c(-c2ccc(O)c(O)c2)oc2cc(O)cc(O)c12
REMARK SMILES IDX 4 1 3 2 16 3 25 4 2 5 26 6 1 7 33 8 27 9 31 10 28 11 30 12
REMARK SMILES IDX 17 13 18 14 19 15 20 16 24 17 22 18 21 19 23 21 32 23 29 25
REMARK SMILES IDX 5 27 14 28 6 29 12 30 7 31 10 32 15 33 13 35 8 37 9 38 11 40
REMARK H PARENT 21 20 23 22 32 24 29 26 15 34 13 36 9 39 11 41
REMARK Flexibility Score: inf
ROOT
ATOM      1  O   UNL     1       9.513  10.626  63.483  1.00  0.00    -0.454 OA
ENDROOT
BRANCH   1   2
ATOM      2  C   UNL     1       8.891  11.866  63.301  1.00  0.00     0.214 A 
ATOM      3  C   UNL     1       9.121  12.616  62.136  1.00  0.00     0.180 A 
ATOM      4  O   UNL     1       8.603  13.834  62.025  1.00  0.00    -0.452 OA
ATOM      5  C   UNL     1       8.058  12.390  64.297  1.00  0.00     0.239 A 
ATOM      6  C   UNL     1       7.821  14.381  62.948  1.00  0.00     0.146 A 
ATOM      7  O   UNL     1       7.882  11.718  65.344  1.00  0.00    -0.285 OA
ATOM      8  C   UNL     1       7.469  13.666  64.124  1.00  0.00     0.111 A 
ATOM      9  C   UNL     1       7.353  15.681  62.739  1.00  0.00     0.094 A 
ATOM     10  C   UNL     1       6.588  14.288  65.059  1.00  0.00     0.134 A 
ATOM     11  C   UNL     1       6.537  16.297  63.685  1.00  0.00     0.123 A 
ATOM     12  C   UNL     1       6.163  15.603  64.838  1.00  0.00     0.093 A 
BRANCH   3  13
ATOM     13  C   UNL     1       9.946  12.098  61.024  1.00  0.00     0.025 A 
ATOM     14  C   UNL     1      11.327  12.353  60.967  1.00  0.00     0.016 A 
ATOM     15  C   UNL     1      12.095  11.848  59.916  1.00  0.00     0.051 A 
ATOM     16  C   UNL     1      11.501  11.072  58.915  1.00  0.00     0.157 A 
ATOM     17  C   UNL     1       9.355  11.301  60.032  1.00  0.00     0.062 A 
ATOM     18  C   UNL     1      10.125  10.793  58.974  1.00  0.00     0.158 A 
BRANCH  16  19
ATOM     19  O   UNL     1      12.292  10.585  57.875  1.00  0.00    -0.504 OA
ATOM     20  H   UNL     1      12.351   9.597  57.660  1.00  0.00     0.293 HD
ENDBRANCH  16  19
BRANCH  18  21
ATOM     21  O   UNL     1       9.528  10.013  57.986  1.00  0.00    -0.504 OA
ATOM     22  H   UNL     1       9.449   9.007  58.079  1.00  0.00     0.293 HD
ENDBRANCH  18  21
ENDBRANCH   3  13
BRANCH  10  23
ATOM     23  O   UNL     1       6.086  13.656  66.201  1.00  0.00    -0.507 OA
ATOM     24  H   UNL     1       5.398  14.049  66.824  1.00  0.00     0.293 HD
ENDBRANCH  10  23
BRANCH  11  25
ATOM     25  O   UNL     1       6.097  17.601  63.465  1.00  0.00    -0.508 OA
ATOM     26  H   UNL     1       5.115  17.845  63.516  1.00  0.00     0.293 HD
ENDBRANCH  11  25
ENDBRANCH   1   2
BRANCH   1  27
ATOM     27  C   UNL     1       8.880   9.403  63.098  1.00  0.00     0.339 C 
ATOM     28  C   UNL     1       8.821   8.411  64.285  1.00  0.00     0.214 C 
ATOM     29  O   UNL     1       9.510   8.835  61.958  1.00  0.00    -0.332 OA
ATOM     30  C   UNL     1      10.185   7.738  64.570  1.00  0.00     0.180 C 
ATOM     31  C   UNL     1      10.855   8.479  62.233  1.00  0.00     0.179 C 
ATOM     32  C   UNL     1      10.925   7.339  63.276  1.00  0.00     0.177 C 
BRANCH  28  33
ATOM     33  O   UNL     1       7.826   7.438  64.073  1.00  0.00    -0.384 OA
ATOM     34  H   UNL     1       8.104   6.875  63.305  1.00  0.00     0.211 HD
ENDBRANCH  28  33
BRANCH  30  35
ATOM     35  O   UNL     1      10.992   8.550  65.390  1.00  0.00    -0.387 OA
ATOM     36  H   UNL     1      11.915   8.191  65.376  1.00  0.00     0.211 HD
ENDBRANCH  30  35
BRANCH  31  37
ATOM     37  C   UNL     1      11.538   8.062  60.920  1.00  0.00     0.191 C 
BRANCH  37  38
ATOM     38  O   UNL     1      10.582   7.690  59.965  1.00  0.00    -0.394 OA
ATOM     39  H   UNL     1       9.759   7.448  60.465  1.00  0.00     0.210 HD
ENDBRANCH  37  38
ENDBRANCH  31  37
BRANCH  32  40
ATOM     40  O   UNL     1      10.346   6.165  62.759  1.00  0.00    -0.387 OA
ATOM     41  H   UNL     1       9.927   6.399  61.892  1.00  0.00     0.211 HD
ENDBRANCH  32  40
ENDBRANCH   1  27
TORSDOF 12
ENDMDL
MODEL 4
REMARK VINA RESULT:    -5.257      1.514      4.787
REMARK INTER + INTRA:          -9.038
REMARK INTER:                  -7.354
REMARK INTRA:                  -1.683
REMARK UNBOUND:                -1.322
REMARK SMILES O=c1c(O[C@H]2O[C@H](CO)[C@H](O)[C@@H](O)[C@@H]2O)c(-c2ccc(O)c(O)c2)oc2cc(O)cc(O)c12
REMARK SMILES IDX 4 1 3 2 16 3 25 4 2 5 26 6 1 7 33 8 27 9 31 10 28 11 30 12
REMARK SMILES IDX 17 13 18 14 19 15 20 16 24 17 22 18 21 19 23 21 32 23 29 25
REMARK SMILES IDX 5 27 14 28 6 29 12 30 7 31 10 32 15 33 13 35 8 37 9 38 11 40
REMARK H PARENT 21 20 23 22 32 24 29 26 15 34 13 36 9 39 11 41
REMARK Flexibility Score: inf
ROOT
ATOM      1  O   UNL     1       4.296  14.036  74.585  1.00  0.00    -0.454 OA
ENDROOT
BRANCH   1   2
ATOM      2  C   UNL     1       3.568  15.161  74.989  1.00  0.00     0.214 A 
ATOM      3  C   UNL     1       2.200  15.057  75.290  1.00  0.00     0.180 A 
ATOM      4  O   UNL     1       1.504  16.152  75.572  1.00  0.00    -0.452 OA
ATOM      5  C   UNL     1       4.190  16.413  75.063  1.00  0.00     0.239 A 
ATOM      6  C   UNL     1       2.044  17.363  75.640  1.00  0.00     0.146 A 
ATOM      7  O   UNL     1       5.408  16.494  74.768  1.00  0.00    -0.285 OA
ATOM      8  C   UNL     1       3.436  17.554  75.429  1.00  0.00     0.111 A 
ATOM      9  C   UNL     1       1.211  18.449  75.920  1.00  0.00     0.094 A 
ATOM     10  C   UNL     1       3.968  18.872  75.559  1.00  0.00     0.134 A 
ATOM     11  C   UNL     1       1.733  19.738  75.992  1.00  0.00     0.123 A 
ATOM     12  C   UNL     1       3.102  19.944  75.807  1.00  0.00     0.093 A 
BRANCH   3  13
ATOM     13  C   UNL     1       1.496  13.757  75.282  1.00  0.00     0.025 A 
ATOM     14  C   UNL     1       1.096  13.157  74.076  1.00  0.00     0.016 A 
ATOM     15  C   UNL     1       0.440  11.924  74.084  1.00  0.00     0.051 A 
ATOM     16  C   UNL     1       0.187  11.266  75.292  1.00  0.00     0.157 A 
ATOM     17  C   UNL     1       1.261  13.086  76.491  1.00  0.00     0.062 A 
ATOM     18  C   UNL     1       0.602  11.847  76.503  1.00  0.00     0.158 A 
BRANCH  16  19
ATOM     19  O   UNL     1      -0.474  10.038  75.270  1.00  0.00    -0.504 OA
ATOM     20  H   UNL     1       0.018   9.165  75.124  1.00  0.00     0.293 HD
ENDBRANCH  16  19
BRANCH  18  21
ATOM     21  O   UNL     1       0.361  11.193  77.710  1.00  0.00    -0.504 OA
ATOM     22  H   UNL     1       0.897  10.380  77.989  1.00  0.00     0.293 HD
ENDBRANCH  18  21
ENDBRANCH   3  13
BRANCH  10  23
ATOM     23  O   UNL     1       5.329  19.178  75.477  1.00  0.00    -0.507 OA
ATOM     24  H   UNL     1       6.080  18.533  75.671  1.00  0.00     0.293 HD
ENDBRANCH  10  23
BRANCH  11  25
ATOM     25  O   UNL     1       0.881  20.810  76.253  1.00  0.00    -0.508 OA
ATOM     26  H   UNL     1       0.626  21.065  77.200  1.00  0.00     0.293 HD
ENDBRANCH  11  25
ENDBRANCH   1   2
BRANCH   1  27
ATOM     27  C   UNL     1       4.979  13.204  75.526  1.00  0.00     0.339 C 
ATOM     28  C   UNL     1       6.483  13.090  75.177  1.00  0.00     0.214 C 
ATOM     29  O   UNL     1       4.357  11.931  75.633  1.00  0.00    -0.332 OA
ATOM     30  C   UNL     1       6.748  12.140  73.984  1.00  0.00     0.180 C 
ATOM     31  C   UNL     1       4.417  11.220  74.408  1.00  0.00     0.179 C 
ATOM     32  C   UNL     1       5.878  10.867  74.042  1.00  0.00     0.177 C 
BRANCH  28  33
ATOM     33  O   UNL     1       7.227  12.689  76.302  1.00  0.00    -0.384 OA
ATOM     34  H   UNL     1       7.635  11.807  76.104  1.00  0.00     0.211 HD
ENDBRANCH  28  33
BRANCH  30  35
ATOM     35  O   UNL     1       6.593  12.809  72.755  1.00  0.00    -0.387 OA
ATOM     36  H   UNL     1       7.462  12.797  72.279  1.00  0.00     0.211 HD
ENDBRANCH  30  35
BRANCH  31  37
ATOM     37  C   UNL     1       3.560   9.949  74.526  1.00  0.00     0.191 C 
BRANCH  37  38
ATOM     38  O   UNL     1       3.726   9.360  75.787  1.00  0.00    -0.394 OA
ATOM     39  H   UNL     1       4.626   8.938  75.788  1.00  0.00     0.210 HD
ENDBRANCH  37  38
ENDBRANCH  31  37
BRANCH  32  40
ATOM     40  O   UNL     1       6.421   9.982  74.991  1.00  0.00    -0.387 OA
ATOM     41  H   UNL     1       6.741  10.528  75.755  1.00  0.00     0.211 HD
ENDBRANCH  32  40
ENDBRANCH   1  27
TORSDOF 12
ENDMDL
MODEL 5
REMARK VINA RESULT:    -5.235      1.408      4.866
REMARK INTER + INTRA:          -9.004
REMARK INTER:                  -7.511
REMARK INTRA:                  -1.493
REMARK UNBOUND:                -1.322
REMARK SMILES O=c1c(O[C@H]2O[C@H](CO)[C@H](O)[C@@H](O)[C@@H]2O)c(-c2ccc(O)c(O)c2)oc2cc(O)cc(O)c12
REMARK SMILES IDX 4 1 3 2 16 3 25 4 2 5 26 6 1 7 33 8 27 9 31 10 28 11 30 12
REMARK SMILES IDX 17 13 18 14 19 15 20 16 24 17 22 18 21 19 23 21 32 23 29 25
REMARK SMILES IDX 5 27 14 28 6 29 12 30 7 31 10 32 15 33 13 35 8 37 9 38 11 40
REMARK H PARENT 21 20 23 22 32 24 29 26 15 34 13 36 9 39 11 41
REMARK Flexibility Score: inf
ROOT
ATOM      1  O   UNL     1       4.617  13.411  74.662  1.00  0.00    -0.454 OA
ENDROOT
BRANCH   1   2
ATOM      2  C   UNL     1       3.796  14.490  75.008  1.00  0.00     0.214 A 
ATOM      3  C   UNL     1       2.437  14.289  75.300  1.00  0.00     0.180 A 
ATOM      4  O   UNL     1       1.651  15.335  75.527  1.00  0.00    -0.452 OA
ATOM      5  C   UNL     1       4.314  15.790  75.032  1.00  0.00     0.239 A 
ATOM      6  C   UNL     1       2.090  16.588  75.546  1.00  0.00     0.146 A 
ATOM      7  O   UNL     1       5.525  15.957  74.745  1.00  0.00    -0.285 OA
ATOM      8  C   UNL     1       3.465  16.882  75.340  1.00  0.00     0.111 A 
ATOM      9  C   UNL     1       1.170  17.614  75.770  1.00  0.00     0.094 A 
ATOM     10  C   UNL     1       3.888  18.243  75.416  1.00  0.00     0.134 A 
ATOM     11  C   UNL     1       1.585  18.943  75.788  1.00  0.00     0.123 A 
ATOM     12  C   UNL     1       2.936  19.251  75.608  1.00  0.00     0.093 A 
BRANCH   3  13
ATOM     13  C   UNL     1       1.839  12.937  75.344  1.00  0.00     0.025 A 
ATOM     14  C   UNL     1       1.306  12.418  76.536  1.00  0.00     0.016 A 
ATOM     15  C   UNL     1       0.735  11.144  76.558  1.00  0.00     0.051 A 
ATOM     16  C   UNL     1       0.675  10.376  75.391  1.00  0.00     0.157 A 
ATOM     17  C   UNL     1       1.758  12.175  74.168  1.00  0.00     0.062 A 
ATOM     18  C   UNL     1       1.185  10.894  74.188  1.00  0.00     0.158 A 
BRANCH  16  19
ATOM     19  O   UNL     1       0.103   9.105  75.444  1.00  0.00    -0.504 OA
ATOM     20  H   UNL     1      -0.757   8.880  74.958  1.00  0.00     0.293 HD
ENDBRANCH  16  19
BRANCH  18  21
ATOM     21  O   UNL     1       1.120  10.138  73.019  1.00  0.00    -0.504 OA
ATOM     22  H   UNL     1       0.690   9.221  73.003  1.00  0.00     0.293 HD
ENDBRANCH  18  21
ENDBRANCH   3  13
BRANCH  10  23
ATOM     23  O   UNL     1       5.221  18.654  75.333  1.00  0.00    -0.507 OA
ATOM     24  H   UNL     1       5.804  18.887  76.122  1.00  0.00     0.293 HD
ENDBRANCH  10  23
BRANCH  11  25
ATOM     25  O   UNL     1       0.646  19.952  75.993  1.00  0.00    -0.508 OA
ATOM     26  H   UNL     1      -0.115  20.108  75.343  1.00  0.00     0.293 HD
ENDBRANCH  11  25
ENDBRANCH   1   2
BRANCH   1  27
ATOM     27  C   UNL     1       5.299  12.636  75.651  1.00  0.00     0.339 C 
ATOM     28  C   UNL     1       6.833  12.777  75.505  1.00  0.00     0.214 C 
ATOM     29  O   UNL     1       4.880  11.279  75.620  1.00  0.00    -0.332 OA
ATOM     30  C   UNL     1       7.398  11.955  74.320  1.00  0.00     0.180 C 
ATOM     31  C   UNL     1       5.209  10.664  74.385  1.00  0.00     0.179 C 
ATOM     32  C   UNL     1       6.743  10.563  74.206  1.00  0.00     0.177 C 
BRANCH  28  33
ATOM     33  O   UNL     1       7.483  12.425  76.703  1.00  0.00    -0.384 OA
ATOM     34  H   UNL     1       8.349  12.001  76.471  1.00  0.00     0.211 HD
ENDBRANCH  28  33
BRANCH  30  35
ATOM     35  O   UNL     1       7.296  12.668  73.111  1.00  0.00    -0.387 OA
ATOM     36  H   UNL     1       6.587  12.250  72.559  1.00  0.00     0.211 HD
ENDBRANCH  30  35
BRANCH  31  37
ATOM     37  C   UNL     1       4.560   9.272  74.333  1.00  0.00     0.191 C 
BRANCH  37  38
ATOM     38  O   UNL     1       4.532   8.694  75.609  1.00  0.00    -0.394 OA
ATOM     39  H   UNL     1       5.318   8.090  75.666  1.00  0.00     0.210 HD
ENDBRANCH  37  38
ENDBRANCH  31  37
BRANCH  32  40
ATOM     40  O   UNL     1       7.295   9.714  75.183  1.00  0.00    -0.387 OA
ATOM     41  H   UNL     1       7.882   9.066  74.714  1.00  0.00     0.211 HD
ENDBRANCH  32  40
ENDBRANCH   1  27
TORSDOF 12
ENDMDL
MODEL 6
REMARK VINA RESULT:    -5.127      1.807      7.022
REMARK INTER + INTRA:          -8.846
REMARK INTER:                  -7.232
REMARK INTRA:                  -1.614
REMARK UNBOUND:                -1.322
REMARK SMILES O=c1c(O[C@H]2O[C@H](CO)[C@H](O)[C@@H](O)[C@@H]2O)c(-c2ccc(O)c(O)c2)oc2cc(O)cc(O)c12
REMARK SMILES IDX 4 1 3 2 16 3 25 4 2 5 26 6 1 7 33 8 27 9 31 10 28 11 30 12
REMARK SMILES IDX 17 13 18 14 19 15 20 16 24 17 22 18 21 19 23 21 32 23 29 25
REMARK SMILES IDX 5 27 14 28 6 29 12 30 7 31 10 32 15 33 13 35 8 37 9 38 11 40
REMARK H PARENT 21 20 23 22 32 24 29 26 15 34 13 36 9 39 11 41
REMARK Flexibility Score: inf
ROOT
ATOM      1  O   UNL     1       4.656  11.747  75.337  1.00  0.00    -0.454 OA
ENDROOT
BRANCH   1   2
ATOM      2  C   UNL     1       3.303  11.391  75.336  1.00  0.00     0.214 A 
ATOM      3  C   UNL     1       2.305  12.379  75.280  1.00  0.00     0.180 A 
ATOM      4  O   UNL     1       1.028  12.029  75.383  1.00  0.00    -0.452 OA
ATOM      5  C   UNL     1       2.927  10.046  75.427  1.00  0.00     0.239 A 
ATOM      6  C   UNL     1       0.622  10.769  75.486  1.00  0.00     0.146 A 
ATOM      7  O   UNL     1       3.831   9.176  75.501  1.00  0.00    -0.285 OA
ATOM      8  C   UNL     1       1.555   9.698  75.471  1.00  0.00     0.111 A 
ATOM      9  C   UNL     1      -0.747  10.519  75.614  1.00  0.00     0.094 A 
ATOM     10  C   UNL     1       1.057   8.362  75.540  1.00  0.00     0.134 A 
ATOM     11  C   UNL     1      -1.216   9.213  75.735  1.00  0.00     0.123 A 
ATOM     12  C   UNL     1      -0.316   8.145  75.701  1.00  0.00     0.093 A 
BRANCH   3  13
ATOM     13  C   UNL     1       2.633  13.812  75.131  1.00  0.00     0.025 A 
ATOM     14  C   UNL     1       2.541  14.450  73.882  1.00  0.00     0.016 A 
ATOM     15  C   UNL     1       2.844  15.808  73.760  1.00  0.00     0.051 A 
ATOM     16  C   UNL     1       3.228  16.551  74.881  1.00  0.00     0.157 A 
ATOM     17  C   UNL     1       2.997  14.563  76.259  1.00  0.00     0.062 A 
ATOM     18  C   UNL     1       3.302  15.928  76.138  1.00  0.00     0.158 A 
BRANCH  16  19
ATOM     19  O   UNL     1       3.528  17.904  74.727  1.00  0.00    -0.504 OA
ATOM     20  H   UNL     1       3.216  18.604  75.390  1.00  0.00     0.293 HD
ENDBRANCH  16  19
BRANCH  18  21
ATOM     21  O   UNL     1       3.675  16.664  77.261  1.00  0.00    -0.504 OA
ATOM     22  H   UNL     1       4.644  16.896  77.446  1.00  0.00     0.293 HD
ENDBRANCH  18  21
ENDBRANCH   3  13
BRANCH  10  23
ATOM     23  O   UNL     1       1.859   7.222  75.433  1.00  0.00    -0.507 OA
ATOM     24  H   UNL     1       2.788   7.203  75.041  1.00  0.00     0.293 HD
ENDBRANCH  10  23
BRANCH  11  25
ATOM     25  O   UNL     1      -2.584   8.987  75.881  1.00  0.00    -0.508 OA
ATOM     26  H   UNL     1      -3.033   9.026  76.789  1.00  0.00     0.293 HD
ENDBRANCH  11  25
ENDBRANCH   1   2
BRANCH   1  27
ATOM     27  C   UNL     1       5.473  11.601  74.173  1.00  0.00     0.339 C 
ATOM     28  C   UNL     1       6.800  10.879  74.513  1.00  0.00     0.214 C 
ATOM     29  O   UNL     1       5.693  12.854  73.541  1.00  0.00    -0.332 OA
ATOM     30  C   UNL     1       7.812  11.799  75.238  1.00  0.00     0.180 C 
ATOM     31  C   UNL     1       6.412  13.741  74.382  1.00  0.00     0.179 C 
ATOM     32  C   UNL     1       7.847  13.221  74.639  1.00  0.00     0.177 C 
BRANCH  28  33
ATOM     33  O   UNL     1       7.377  10.327  73.354  1.00  0.00    -0.384 OA
ATOM     34  H   UNL     1       6.649   9.946  72.798  1.00  0.00     0.211 HD
ENDBRANCH  28  33
BRANCH  30  35
ATOM     35  O   UNL     1       7.567  11.834  76.624  1.00  0.00    -0.387 OA
ATOM     36  H   UNL     1       8.421  11.668  77.097  1.00  0.00     0.211 HD
ENDBRANCH  30  35
BRANCH  31  37
ATOM     37  C   UNL     1       6.444  15.133  73.729  1.00  0.00     0.191 C 
BRANCH  37  38
ATOM     38  O   UNL     1       7.699  15.730  73.907  1.00  0.00    -0.394 OA
ATOM     39  H   UNL     1       8.377  15.044  73.672  1.00  0.00     0.210 HD
ENDBRANCH  37  38
ENDBRANCH  31  37
BRANCH  32  40
ATOM     40  O   UNL     1       8.582  13.197  73.440  1.00  0.00    -0.387 OA
ATOM     41  H   UNL     1       7.930  13.134  72.695  1.00  0.00     0.211 HD
ENDBRANCH  32  40
ENDBRANCH   1  27
TORSDOF 12
ENDMDL
MODEL 7
REMARK VINA RESULT:    -5.122      2.377      7.303
REMARK INTER + INTRA:          -8.840
REMARK INTER:                  -7.348
REMARK INTRA:                  -1.492
REMARK UNBOUND:                -1.322
REMARK SMILES O=c1c(O[C@H]2O[C@H](CO)[C@H](O)[C@@H](O)[C@@H]2O)c(-c2ccc(O)c(O)c2)oc2cc(O)cc(O)c12
REMARK SMILES IDX 4 1 3 2 16 3 25 4 2 5 26 6 1 7 33 8 27 9 31 10 28 11 30 12
REMARK SMILES IDX 17 13 18 14 19 15 20 16 24 17 22 18 21 19 23 21 32 23 29 25
REMARK SMILES IDX 5 27 14 28 6 29 12 30 7 31 10 32 15 33 13 35 8 37 9 38 11 40
REMARK H PARENT 21 20 23 22 32 24 29 26 15 34 13 36 9 39 11 41
REMARK Flexibility Score: inf
ROOT
ATOM      1  O   UNL     1       0.231  15.587  75.079  1.00  0.00    -0.454 OA
ENDROOT
BRANCH   1   2
ATOM      2  C   UNL     1       1.463  14.986  75.363  1.00  0.00     0.214 A 
ATOM      3  C   UNL     1       2.596  15.772  75.631  1.00  0.00     0.180 A 
ATOM      4  O   UNL     1       3.776  15.187  75.797  1.00  0.00    -0.452 OA
ATOM      5  C   UNL     1       1.587  13.592  75.348  1.00  0.00     0.239 A 
ATOM      6  C   UNL     1       3.949  13.871  75.777  1.00  0.00     0.146 A 
ATOM      7  O   UNL     1       0.569  12.904  75.083  1.00  0.00    -0.285 OA
ATOM      8  C   UNL     1       2.846  12.993  75.592  1.00  0.00     0.111 A 
ATOM      9  C   UNL     1       5.241  13.365  75.938  1.00  0.00     0.094 A 
ATOM     10  C   UNL     1       3.085  11.586  75.623  1.00  0.00     0.134 A 
ATOM     11  C   UNL     1       5.469  11.991  75.913  1.00  0.00     0.123 A 
ATOM     12  C   UNL     1       4.395  11.111  75.753  1.00  0.00     0.093 A 
BRANCH   3  13
ATOM     13  C   UNL     1       2.523  17.246  75.714  1.00  0.00     0.025 A 
ATOM     14  C   UNL     1       2.911  18.053  74.630  1.00  0.00     0.016 A 
ATOM     15  C   UNL     1       2.826  19.444  74.720  1.00  0.00     0.051 A 
ATOM     16  C   UNL     1       2.341  20.049  75.884  1.00  0.00     0.157 A 
ATOM     17  C   UNL     1       2.015  17.853  76.872  1.00  0.00     0.062 A 
ATOM     18  C   UNL     1       1.929  19.250  76.965  1.00  0.00     0.158 A 
BRANCH  16  19
ATOM     19  O   UNL     1       2.271  21.440  75.947  1.00  0.00    -0.504 OA
ATOM     20  H   UNL     1       1.407  21.928  76.152  1.00  0.00     0.293 HD
ENDBRANCH  16  19
BRANCH  18  21
ATOM     21  O   UNL     1       1.436  19.846  78.125  1.00  0.00    -0.504 OA
ATOM     22  H   UNL     1       1.240  20.839  78.169  1.00  0.00     0.293 HD
ENDBRANCH  18  21
ENDBRANCH   3  13
BRANCH  10  23
ATOM     23  O   UNL     1       2.077  10.620  75.556  1.00  0.00    -0.507 OA
ATOM     24  H   UNL     1       2.024   9.887  74.865  1.00  0.00     0.293 HD
ENDBRANCH  10  23
BRANCH  11  25
ATOM     25  O   UNL     1       6.768  11.509  76.056  1.00  0.00    -0.508 OA
ATOM     26  H   UNL     1       7.015  10.563  75.788  1.00  0.00     0.293 HD
ENDBRANCH  11  25
ENDBRANCH   1   2
BRANCH   1  27
ATOM     27  C   UNL     1      -0.873  15.505  75.984  1.00  0.00     0.339 C 
ATOM     28  C   UNL     1      -2.127  14.935  75.278  1.00  0.00     0.214 C 
ATOM     29  O   UNL     1      -1.129  16.760  76.598  1.00  0.00    -0.332 OA
ATOM     30  C   UNL     1      -2.820  15.972  74.361  1.00  0.00     0.180 C 
ATOM     31  C   UNL     1      -1.512  17.736  75.643  1.00  0.00     0.179 C 
ATOM     32  C   UNL     1      -2.873  17.376  74.998  1.00  0.00     0.177 C 
BRANCH  28  33
ATOM     33  O   UNL     1      -3.039  14.422  76.220  1.00  0.00    -0.384 OA
ATOM     34  H   UNL     1      -3.953  14.515  75.846  1.00  0.00     0.211 HD
ENDBRANCH  28  33
BRANCH  30  35
ATOM     35  O   UNL     1      -2.217  16.011  73.089  1.00  0.00    -0.387 OA
ATOM     36  H   UNL     1      -1.841  15.116  72.893  1.00  0.00     0.211 HD
ENDBRANCH  30  35
BRANCH  31  37
ATOM     37  C   UNL     1      -1.580  19.109  76.332  1.00  0.00     0.191 C 
BRANCH  37  38
ATOM     38  O   UNL     1      -1.664  18.957  77.722  1.00  0.00    -0.394 OA
ATOM     39  H   UNL     1      -2.602  18.703  77.925  1.00  0.00     0.210 HD
ENDBRANCH  37  38
ENDBRANCH  31  37
BRANCH  32  40
ATOM     40  O   UNL     1      -3.896  17.405  75.964  1.00  0.00    -0.387 OA
ATOM     41  H   UNL     1      -3.895  16.524  76.421  1.00  0.00     0.211 HD
ENDBRANCH  32  40
ENDBRANCH   1  27
TORSDOF 12
ENDMDL
MODEL 8
REMARK VINA RESULT:    -5.078      2.436      6.582
REMARK INTER + INTRA:          -8.774
REMARK INTER:                  -7.193
REMARK INTRA:                  -1.581
REMARK UNBOUND:                -1.322
REMARK SMILES O=c1c(O[C@H]2O[C@H](CO)[C@H](O)[C@@H](O)[C@@H]2O)c(-c2ccc(O)c(O)c2)oc2cc(O)cc(O)c12
REMARK SMILES IDX 4 1 3 2 16 3 25 4 2 5 26 6 1 7 33 8 27 9 31 10 28 11 30 12
REMARK SMILES IDX 17 13 18 14 19 15 20 16 24 17 22 18 21 19 23 21 32 23 29 25
REMARK SMILES IDX 5 27 14 28 6 29 12 30 7 31 10 32 15 33 13 35 8 37 9 38 11 40
REMARK H PARENT 21 20 23 22 32 24 29 26 15 34 13 36 9 39 11 41
REMARK Flexibility Score: inf
ROOT
ATOM      1  O   UNL     1       1.946  14.730  74.639  1.00  0.00    -0.454 OA
ENDROOT
BRANCH   1   2
ATOM      2  C   UNL     1       3.322  14.969  74.552  1.00  0.00     0.214 A 
ATOM      3  C   UNL     1       3.833  16.267  74.718  1.00  0.00     0.180 A 
ATOM      4  O   UNL     1       5.128  16.492  74.533  1.00  0.00    -0.452 OA
ATOM      5  C   UNL     1       4.204  13.921  74.263  1.00  0.00     0.239 A 
ATOM      6  C   UNL     1       6.002  15.536  74.243  1.00  0.00     0.146 A 
ATOM      7  O   UNL     1       3.729  12.770  74.094  1.00  0.00    -0.285 OA
ATOM      8  C   UNL     1       5.589  14.180  74.133  1.00  0.00     0.111 A 
ATOM      9  C   UNL     1       7.338  15.891  74.042  1.00  0.00     0.094 A 
ATOM     10  C   UNL     1       6.580  13.188  73.864  1.00  0.00     0.134 A 
ATOM     11  C   UNL     1       8.286  14.920  73.727  1.00  0.00     0.123 A 
ATOM     12  C   UNL     1       7.905  13.580  73.635  1.00  0.00     0.093 A 
BRANCH   3  13
ATOM     13  C   UNL     1       2.964  17.408  75.076  1.00  0.00     0.025 A 
ATOM     14  C   UNL     1       2.266  18.125  74.089  1.00  0.00     0.016 A 
ATOM     15  C   UNL     1       1.441  19.195  74.444  1.00  0.00     0.051 A 
ATOM     16  C   UNL     1       1.289  19.555  75.787  1.00  0.00     0.157 A 
ATOM     17  C   UNL     1       2.794  17.757  76.424  1.00  0.00     0.062 A 
ATOM     18  C   UNL     1       1.966  18.831  76.784  1.00  0.00     0.158 A 
BRANCH  16  19
ATOM     19  O   UNL     1       0.462  20.630  76.112  1.00  0.00    -0.504 OA
ATOM     20  H   UNL     1      -0.519  20.650  75.861  1.00  0.00     0.293 HD
ENDBRANCH  16  19
BRANCH  18  21
ATOM     21  O   UNL     1       1.812  19.179  78.125  1.00  0.00    -0.504 OA
ATOM     22  H   UNL     1       2.255  18.647  78.865  1.00  0.00     0.293 HD
ENDBRANCH  18  21
ENDBRANCH   3  13
BRANCH  10  23
ATOM     23  O   UNL     1       6.324  11.814  73.833  1.00  0.00    -0.507 OA
ATOM     24  H   UNL     1       6.993  11.096  74.062  1.00  0.00     0.293 HD
ENDBRANCH  10  23
BRANCH  11  25
ATOM     25  O   UNL     1       9.610  15.300  73.512  1.00  0.00    -0.508 OA
ATOM     26  H   UNL     1      10.135  15.809  74.213  1.00  0.00     0.293 HD
ENDBRANCH  11  25
ENDBRANCH   1   2
BRANCH   1  27
ATOM     27  C   UNL     1       1.298  14.511  75.894  1.00  0.00     0.339 C 
ATOM     28  C   UNL     1       0.584  13.137  75.917  1.00  0.00     0.214 C 
ATOM     29  O   UNL     1       0.414  15.578  76.209  1.00  0.00    -0.332 OA
ATOM     30  C   UNL     1      -0.739  13.138  75.114  1.00  0.00     0.180 C 
ATOM     31  C   UNL     1      -0.640  15.673  75.265  1.00  0.00     0.179 C 
ATOM     32  C   UNL     1      -1.557  14.428  75.330  1.00  0.00     0.177 C 
BRANCH  28  33
ATOM     33  O   UNL     1       0.358  12.716  77.241  1.00  0.00    -0.384 OA
ATOM     34  H   UNL     1       0.978  13.214  77.834  1.00  0.00     0.211 HD
ENDBRANCH  28  33
BRANCH  30  35
ATOM     35  O   UNL     1      -0.504  12.905  73.746  1.00  0.00    -0.387 OA
ATOM     36  H   UNL     1      -1.046  13.547  73.221  1.00  0.00     0.211 HD
ENDBRANCH  30  35
BRANCH  31  37
ATOM     37  C   UNL     1      -1.441  16.956  75.541  1.00  0.00     0.191 C 
BRANCH  37  38
ATOM     38  O   UNL     1      -1.497  17.216  76.917  1.00  0.00    -0.394 OA
ATOM     39  H   UNL     1      -1.810  16.379  77.351  1.00  0.00     0.210 HD
ENDBRANCH  37  38
ENDBRANCH  31  37
BRANCH  32  40
ATOM     40  O   UNL     1      -2.203  14.360  76.578  1.00  0.00    -0.387 OA
ATOM     41  H   UNL     1      -2.738  13.524  76.589  1.00  0.00     0.211 HD
ENDBRANCH  32  40
ENDBRANCH   1  27
TORSDOF 12
ENDMDL
MODEL 9
REMARK VINA RESULT:    -5.012      2.045      5.198
REMARK INTER + INTRA:          -8.678
REMARK INTER:                  -7.276
REMARK INTRA:                  -1.402
REMARK UNBOUND:                -1.322
REMARK SMILES O=c1c(O[C@H]2O[C@H](CO)[C@H](O)[C@@H](O)[C@@H]2O)c(-c2ccc(O)c(O)c2)oc2cc(O)cc(O)c12
REMARK SMILES IDX 4 1 3 2 16 3 25 4 2 5 26 6 1 7 33 8 27 9 31 10 28 11 30 12
REMARK SMILES IDX 17 13 18 14 19 15 20 16 24 17 22 18 21 19 23 21 32 23 29 25
REMARK SMILES IDX 5 27 14 28 6 29 12 30 7 31 10 32 15 33 13 35 8 37 9 38 11 40
REMARK H PARENT 21 20 23 22 32 24 29 26 15 34 13 36 9 39 11 41
REMARK Flexibility Score: inf
ROOT
ATOM      1  O   UNL     1       5.016  12.994  74.022  1.00  0.00    -0.454 OA
ENDROOT
BRANCH   1   2
ATOM      2  C   UNL     1       4.571  14.319  73.979  1.00  0.00     0.214 A 
ATOM      3  C   UNL     1       3.240  14.636  74.296  1.00  0.00     0.180 A 
ATOM      4  O   UNL     1       2.809  15.884  74.151  1.00  0.00    -0.452 OA
ATOM      5  C   UNL     1       5.440  15.343  73.583  1.00  0.00     0.239 A 
ATOM      6  C   UNL     1       3.589  16.886  73.765  1.00  0.00     0.146 A 
ATOM      7  O   UNL     1       6.621  15.040  73.279  1.00  0.00    -0.285 OA
ATOM      8  C   UNL     1       4.969  16.675  73.498  1.00  0.00     0.111 A 
ATOM      9  C   UNL     1       3.023  18.155  73.621  1.00  0.00     0.094 A 
ATOM     10  C   UNL     1       5.769  17.798  73.129  1.00  0.00     0.134 A 
ATOM     11  C   UNL     1       3.803  19.233  73.208  1.00  0.00     0.123 A 
ATOM     12  C   UNL     1       5.165  19.050  72.961  1.00  0.00     0.093 A 
BRANCH   3  13
ATOM     13  C   UNL     1       2.285  13.612  74.771  1.00  0.00     0.025 A 
ATOM     14  C   UNL     1       1.862  12.570  73.929  1.00  0.00     0.016 A 
ATOM     15  C   UNL     1       0.968  11.604  74.396  1.00  0.00     0.051 A 
ATOM     16  C   UNL     1       0.494  11.656  75.711  1.00  0.00     0.157 A 
ATOM     17  C   UNL     1       1.826  13.651  76.096  1.00  0.00     0.062 A 
ATOM     18  C   UNL     1       0.927  12.682  76.567  1.00  0.00     0.158 A 
BRANCH  16  19
ATOM     19  O   UNL     1      -0.402  10.681  76.148  1.00  0.00    -0.504 OA
ATOM     20  H   UNL     1      -0.751  10.658  77.098  1.00  0.00     0.293 HD
ENDBRANCH  16  19
BRANCH  18  21
ATOM     21  O   UNL     1       0.466  12.735  77.882  1.00  0.00    -0.504 OA
ATOM     22  H   UNL     1      -0.490  12.995  78.099  1.00  0.00     0.293 HD
ENDBRANCH  18  21
ENDBRANCH   3  13
BRANCH  10  23
ATOM     23  O   UNL     1       7.153  17.745  72.940  1.00  0.00    -0.507 OA
ATOM     24  H   UNL     1       7.704  18.463  72.497  1.00  0.00     0.293 HD
ENDBRANCH  10  23
BRANCH  11  25
ATOM     25  O   UNL     1       3.213  20.486  73.053  1.00  0.00    -0.508 OA
ATOM     26  H   UNL     1       2.483  20.809  73.677  1.00  0.00     0.293 HD
ENDBRANCH  11  25
ENDBRANCH   1   2
BRANCH   1  27
ATOM     27  C   UNL     1       5.481  12.395  75.235  1.00  0.00     0.339 C 
ATOM     28  C   UNL     1       7.008  12.591  75.399  1.00  0.00     0.214 C 
ATOM     29  O   UNL     1       5.107  11.027  75.309  1.00  0.00    -0.332 OA
ATOM     30  C   UNL     1       7.833  11.646  74.493  1.00  0.00     0.180 C 
ATOM     31  C   UNL     1       5.708  10.268  74.273  1.00  0.00     0.179 C 
ATOM     32  C   UNL     1       7.246  10.220  74.442  1.00  0.00     0.177 C 
BRANCH  28  33
ATOM     33  O   UNL     1       7.387  12.438  76.747  1.00  0.00    -0.384 OA
ATOM     34  H   UNL     1       8.297  12.817  76.855  1.00  0.00     0.211 HD
ENDBRANCH  28  33
BRANCH  30  35
ATOM     35  O   UNL     1       7.983  12.183  73.200  1.00  0.00    -0.387 OA
ATOM     36  H   UNL     1       7.251  11.836  72.630  1.00  0.00     0.211 HD
ENDBRANCH  30  35
BRANCH  31  37
ATOM     37  C   UNL     1       5.114   8.850  74.284  1.00  0.00     0.191 C 
BRANCH  37  38
ATOM     38  O   UNL     1       4.902   8.415  75.599  1.00  0.00    -0.394 OA
ATOM     39  H   UNL     1       4.374   9.124  76.052  1.00  0.00     0.210 HD
ENDBRANCH  37  38
ENDBRANCH  31  37
BRANCH  32  40
ATOM     40  O   UNL     1       7.589   9.540  75.625  1.00  0.00    -0.387 OA
ATOM     41  H   UNL     1       7.006   9.891  76.347  1.00  0.00     0.211 HD
ENDBRANCH  32  40
ENDBRANCH   1  27
TORSDOF 12
ENDMDL
