MODEL 1
REMARK VINA RESULT:    -6.020      0.000      0.000
REMARK INTER + INTRA:          -7.139
REMARK INTER:                  -7.076
REMARK INTRA:                  -0.063
REMARK UNBOUND:                -0.063
REMARK SMILES Oc1ccc(-c2[o+]c3cc(O)cc(O)c3cc2O)cc1.[Cl-]
REMARK SMILES IDX 6 1 7 2 8 3 9 4 10 5 12 6 13 7 15 8 16 9 17 10 5 11 4 12
REMARK SMILES IDX 3 13 2 14 19 15 20 16 1 17 18 19 11 21 14 23
REMARK H PARENT 1 18 18 20 11 22 14 24
REMARK Flexibility Score: inf
ROOT
ATOM      1  C   UNL     1      14.907 -51.623   7.355  1.00  0.00     0.401 A 
ATOM      2  O   UNL     1      14.064 -50.860   6.665  1.00  0.00    -0.202 OA
ATOM      3  C   UNL     1      14.451 -49.816   5.939  1.00  0.00     0.368 A 
ATOM      4  C   UNL     1      13.489 -49.076   5.246  1.00  0.00     0.162 A 
ATOM      5  C   UNL     1      13.869 -47.975   4.473  1.00  0.00     0.128 A 
ATOM      6  C   UNL     1      15.216 -47.613   4.392  1.00  0.00     0.093 A 
ATOM      7  C   UNL     1      16.198 -48.339   5.077  1.00  0.00     0.136 A 
ATOM      8  C   UNL     1      15.818 -49.456   5.865  1.00  0.00     0.125 A 
ATOM      9  C   UNL     1      16.731 -50.233   6.595  1.00  0.00     0.078 A 
ATOM     10  C   UNL     1      16.281 -51.317   7.354  1.00  0.00     0.223 A 
ENDROOT
BRANCH   1  11
ATOM     11  C   UNL     1      14.354 -52.766   8.118  1.00  0.00     0.084 A 
ATOM     12  C   UNL     1      14.867 -54.055   7.899  1.00  0.00     0.022 A 
ATOM     13  C   UNL     1      14.375 -55.145   8.625  1.00  0.00     0.047 A 
ATOM     14  C   UNL     1      13.375 -54.957   9.587  1.00  0.00     0.115 A 
ATOM     15  C   UNL     1      13.364 -52.581   9.101  1.00  0.00     0.022 A 
ATOM     16  C   UNL     1      12.875 -53.673   9.824  1.00  0.00     0.047 A 
BRANCH  14  17
ATOM     17  O   UNL     1      12.876 -56.035  10.315  1.00  0.00    -0.508 OA
ATOM     18  H   UNL     1      13.417 -56.471  11.053  1.00  0.00     0.293 HD
ENDBRANCH  14  17
ENDBRANCH   1  11
BRANCH  10  19
ATOM     19  O   UNL     1      17.182 -52.058   8.121  1.00  0.00    -0.500 OA
ATOM     20  H   UNL     1      17.297 -51.892   9.113  1.00  0.00     0.294 HD
ENDBRANCH  10  19
BRANCH   5  21
ATOM     21  O   UNL     1      12.916 -47.233   3.780  1.00  0.00    -0.507 OA
ATOM     22  H   UNL     1      13.120 -46.817   2.878  1.00  0.00     0.293 HD
ENDBRANCH   5  21
BRANCH   7  23
ATOM     23  O   UNL     1      17.524 -47.914   4.941  1.00  0.00    -0.507 OA
ATOM     24  H   UNL     1      18.212 -47.948   5.679  1.00  0.00     0.293 HD
ENDBRANCH   7  23
TORSDOF 5
ENDMDL
MODEL 2
REMARK VINA RESULT:    -5.888     11.436     12.671
REMARK INTER + INTRA:          -6.984
REMARK INTER:                  -6.743
REMARK INTRA:                  -0.241
REMARK UNBOUND:                -0.063
REMARK SMILES Oc1ccc(-c2[o+]c3cc(O)cc(O)c3cc2O)cc1.[Cl-]
REMARK SMILES IDX 6 1 7 2 8 3 9 4 10 5 12 6 13 7 15 8 16 9 17 10 5 11 4 12
REMARK SMILES IDX 3 13 2 14 19 15 20 16 1 17 18 19 11 21 14 23
REMARK H PARENT 1 18 18 20 11 22 14 24
REMARK Flexibility Score: inf
ROOT
ATOM      1  C   UNL     1      15.708 -54.556  -3.330  1.00  0.00     0.401 A 
ATOM      2  O   UNL     1      16.627 -54.472  -4.287  1.00  0.00    -0.202 OA
ATOM      3  C   UNL     1      16.812 -55.414  -5.207  1.00  0.00     0.368 A 
ATOM      4  C   UNL     1      17.803 -55.232  -6.176  1.00  0.00     0.162 A 
ATOM      5  C   UNL     1      18.017 -56.206  -7.156  1.00  0.00     0.128 A 
ATOM      6  C   UNL     1      17.236 -57.364  -7.168  1.00  0.00     0.093 A 
ATOM      7  C   UNL     1      16.237 -57.569  -6.208  1.00  0.00     0.136 A 
ATOM      8  C   UNL     1      16.018 -56.585  -5.210  1.00  0.00     0.125 A 
ATOM      9  C   UNL     1      15.049 -56.711  -4.201  1.00  0.00     0.078 A 
ATOM     10  C   UNL     1      14.894 -55.701  -3.247  1.00  0.00     0.223 A 
ENDROOT
BRANCH   1  11
ATOM     11  C   UNL     1      15.592 -53.435  -2.369  1.00  0.00     0.084 A 
ATOM     12  C   UNL     1      16.645 -53.181  -1.474  1.00  0.00     0.022 A 
ATOM     13  C   UNL     1      16.566 -52.115  -0.573  1.00  0.00     0.047 A 
ATOM     14  C   UNL     1      15.441 -51.280  -0.566  1.00  0.00     0.115 A 
ATOM     15  C   UNL     1      14.474 -52.580  -2.370  1.00  0.00     0.022 A 
ATOM     16  C   UNL     1      14.400 -51.514  -1.469  1.00  0.00     0.047 A 
BRANCH  14  17
ATOM     17  O   UNL     1      15.352 -50.215   0.327  1.00  0.00    -0.508 OA
ATOM     18  H   UNL     1      14.889 -50.313   1.223  1.00  0.00     0.293 HD
ENDBRANCH  14  17
ENDBRANCH   1  11
BRANCH  10  19
ATOM     19  O   UNL     1      13.966 -55.849  -2.215  1.00  0.00    -0.500 OA
ATOM     20  H   UNL     1      12.969 -55.802  -2.386  1.00  0.00     0.294 HD
ENDBRANCH  10  19
BRANCH   5  21
ATOM     21  O   UNL     1      19.002 -56.033  -8.125  1.00  0.00    -0.507 OA
ATOM     22  H   UNL     1      18.825 -56.227  -9.103  1.00  0.00     0.293 HD
ENDBRANCH   5  21
BRANCH   7  23
ATOM     23  O   UNL     1      15.497 -58.753  -6.292  1.00  0.00    -0.507 OA
ATOM     24  H   UNL     1      15.215 -59.188  -7.158  1.00  0.00     0.293 HD
ENDBRANCH   7  23
TORSDOF 5
ENDMDL
MODEL 3
REMARK VINA RESULT:    -5.566      3.050      4.215
REMARK INTER + INTRA:          -6.605
REMARK INTER:                  -6.288
REMARK INTRA:                  -0.318
REMARK UNBOUND:                -0.063
REMARK SMILES Oc1ccc(-c2[o+]c3cc(O)cc(O)c3cc2O)cc1.[Cl-]
REMARK SMILES IDX 6 1 7 2 8 3 9 4 10 5 12 6 13 7 15 8 16 9 17 10 5 11 4 12
REMARK SMILES IDX 3 13 2 14 19 15 20 16 1 17 18 19 11 21 14 23
REMARK H PARENT 1 18 18 20 11 22 14 24
REMARK Flexibility Score: inf
ROOT
ATOM      1  C   UNL     1      15.143 -53.610   8.002  1.00  0.00     0.401 A 
ATOM      2  O   UNL     1      16.355 -53.158   7.694  1.00  0.00    -0.202 OA
ATOM      3  C   UNL     1      16.726 -51.892   7.857  1.00  0.00     0.368 A 
ATOM      4  C   UNL     1      18.025 -51.514   7.507  1.00  0.00     0.162 A 
ATOM      5  C   UNL     1      18.442 -50.189   7.670  1.00  0.00     0.128 A 
ATOM      6  C   UNL     1      17.556 -49.240   8.185  1.00  0.00     0.093 A 
ATOM      7  C   UNL     1      16.250 -49.595   8.543  1.00  0.00     0.136 A 
ATOM      8  C   UNL     1      15.821 -50.937   8.377  1.00  0.00     0.125 A 
ATOM      9  C   UNL     1      14.527 -51.379   8.696  1.00  0.00     0.078 A 
ATOM     10  C   UNL     1      14.175 -52.718   8.501  1.00  0.00     0.223 A 
ENDROOT
BRANCH   1  11
ATOM     11  C   UNL     1      14.854 -55.046   7.784  1.00  0.00     0.084 A 
ATOM     12  C   UNL     1      15.035 -55.954   8.841  1.00  0.00     0.022 A 
ATOM     13  C   UNL     1      14.748 -57.312   8.664  1.00  0.00     0.047 A 
ATOM     14  C   UNL     1      14.263 -57.775   7.434  1.00  0.00     0.115 A 
ATOM     15  C   UNL     1      14.348 -55.516   6.558  1.00  0.00     0.022 A 
ATOM     16  C   UNL     1      14.061 -56.873   6.386  1.00  0.00     0.047 A 
BRANCH  14  17
ATOM     17  O   UNL     1      13.974 -59.124   7.247  1.00  0.00    -0.508 OA
ATOM     18  H   UNL     1      14.636 -59.751   6.804  1.00  0.00     0.293 HD
ENDBRANCH  14  17
ENDBRANCH   1  11
BRANCH  10  19
ATOM     19  O   UNL     1      12.875 -53.147   8.770  1.00  0.00    -0.500 OA
ATOM     20  H   UNL     1      12.521 -53.211   9.717  1.00  0.00     0.294 HD
ENDBRANCH  10  19
BRANCH   5  21
ATOM     21  O   UNL     1      19.734 -49.805   7.323  1.00  0.00    -0.507 OA
ATOM     22  H   UNL     1      20.545 -50.322   7.642  1.00  0.00     0.293 HD
ENDBRANCH   5  21
BRANCH   7  23
ATOM     23  O   UNL     1      15.426 -48.586   9.055  1.00  0.00    -0.507 OA
ATOM     24  H   UNL     1      14.595 -48.242   8.597  1.00  0.00     0.293 HD
ENDBRANCH   7  23
TORSDOF 5
ENDMDL
MODEL 4
REMARK VINA RESULT:    -5.538     10.659     12.085
REMARK INTER + INTRA:          -6.572
REMARK INTER:                  -6.541
REMARK INTRA:                  -0.031
REMARK UNBOUND:                -0.063
REMARK SMILES Oc1ccc(-c2[o+]c3cc(O)cc(O)c3cc2O)cc1.[Cl-]
REMARK SMILES IDX 6 1 7 2 8 3 9 4 10 5 12 6 13 7 15 8 16 9 17 10 5 11 4 12
REMARK SMILES IDX 3 13 2 14 19 15 20 16 1 17 18 19 11 21 14 23
REMARK H PARENT 1 18 18 20 11 22 14 24
REMARK Flexibility Score: inf
ROOT
ATOM      1  C   UNL     1      15.577 -54.247  -4.061  1.00  0.00     0.401 A 
ATOM      2  O   UNL     1      16.421 -53.580  -3.279  1.00  0.00    -0.202 OA
ATOM      3  C   UNL     1      16.027 -52.698  -2.365  1.00  0.00     0.368 A 
ATOM      4  C   UNL     1      16.990 -52.049  -1.587  1.00  0.00     0.162 A 
ATOM      5  C   UNL     1      16.603 -51.120  -0.617  1.00  0.00     0.128 A 
ATOM      6  C   UNL     1      15.249 -50.839  -0.424  1.00  0.00     0.093 A 
ATOM      7  C   UNL     1      14.265 -51.476  -1.190  1.00  0.00     0.136 A 
ATOM      8  C   UNL     1      14.652 -52.418  -2.178  1.00  0.00     0.125 A 
ATOM      9  C   UNL     1      13.737 -53.095  -3.000  1.00  0.00     0.078 A 
ATOM     10  C   UNL     1      14.194 -54.007  -3.956  1.00  0.00     0.223 A 
ENDROOT
BRANCH   1  11
ATOM     11  C   UNL     1      16.139 -55.211  -5.035  1.00  0.00     0.084 A 
ATOM     12  C   UNL     1      17.229 -54.829  -5.835  1.00  0.00     0.022 A 
ATOM     13  C   UNL     1      17.789 -55.732  -6.745  1.00  0.00     0.047 A 
ATOM     14  C   UNL     1      17.275 -57.030  -6.857  1.00  0.00     0.115 A 
ATOM     15  C   UNL     1      15.641 -56.523  -5.138  1.00  0.00     0.022 A 
ATOM     16  C   UNL     1      16.204 -57.423  -6.049  1.00  0.00     0.047 A 
BRANCH  14  17
ATOM     17  O   UNL     1      17.824 -57.936  -7.760  1.00  0.00    -0.508 OA
ATOM     18  H   UNL     1      17.251 -58.416  -8.445  1.00  0.00     0.293 HD
ENDBRANCH  14  17
ENDBRANCH   1  11
BRANCH  10  19
ATOM     19  O   UNL     1      13.289 -54.641  -4.808  1.00  0.00    -0.500 OA
ATOM     20  H   UNL     1      12.854 -55.522  -4.561  1.00  0.00     0.294 HD
ENDBRANCH  10  19
BRANCH   5  21
ATOM     21  O   UNL     1      17.557 -50.469   0.161  1.00  0.00    -0.507 OA
ATOM     22  H   UNL     1      18.324 -49.956  -0.258  1.00  0.00     0.293 HD
ENDBRANCH   5  21
BRANCH   7  23
ATOM     23  O   UNL     1      12.932 -51.142  -0.932  1.00  0.00    -0.507 OA
ATOM     24  H   UNL     1      12.154 -51.411  -1.516  1.00  0.00     0.293 HD
ENDBRANCH   7  23
TORSDOF 5
ENDMDL
MODEL 5
REMARK VINA RESULT:    -5.310      2.447      3.102
REMARK INTER + INTRA:          -6.304
REMARK INTER:                  -6.083
REMARK INTRA:                  -0.221
REMARK UNBOUND:                -0.063
REMARK SMILES Oc1ccc(-c2[o+]c3cc(O)cc(O)c3cc2O)cc1.[Cl-]
REMARK SMILES IDX 6 1 7 2 8 3 9 4 10 5 12 6 13 7 15 8 16 9 17 10 5 11 4 12
REMARK SMILES IDX 3 13 2 14 19 15 20 16 1 17 18 19 11 21 14 23
REMARK H PARENT 1 18 18 20 11 22 14 24
REMARK Flexibility Score: inf
ROOT
ATOM      1  C   UNL     1      14.216 -50.928   7.768  1.00  0.00     0.401 A 
ATOM      2  O   UNL     1      14.754 -50.163   6.822  1.00  0.00    -0.202 OA
ATOM      3  C   UNL     1      14.684 -48.836   6.829  1.00  0.00     0.368 A 
ATOM      4  C   UNL     1      15.284 -48.118   5.791  1.00  0.00     0.162 A 
ATOM      5  C   UNL     1      15.228 -46.721   5.776  1.00  0.00     0.128 A 
ATOM      6  C   UNL     1      14.568 -46.040   6.802  1.00  0.00     0.093 A 
ATOM      7  C   UNL     1      13.959 -46.737   7.853  1.00  0.00     0.136 A 
ATOM      8  C   UNL     1      14.012 -48.155   7.872  1.00  0.00     0.125 A 
ATOM      9  C   UNL     1      13.419 -48.936   8.877  1.00  0.00     0.078 A 
ATOM     10  C   UNL     1      13.508 -50.330   8.827  1.00  0.00     0.223 A 
ENDROOT
BRANCH   1  11
ATOM     11  C   UNL     1      14.371 -52.396   7.653  1.00  0.00     0.084 A 
ATOM     12  C   UNL     1      13.266 -53.181   7.283  1.00  0.00     0.022 A 
ATOM     13  C   UNL     1      13.396 -54.567   7.147  1.00  0.00     0.047 A 
ATOM     14  C   UNL     1      14.635 -55.184   7.366  1.00  0.00     0.115 A 
ATOM     15  C   UNL     1      15.617 -53.020   7.851  1.00  0.00     0.022 A 
ATOM     16  C   UNL     1      15.743 -54.406   7.714  1.00  0.00     0.047 A 
BRANCH  14  17
ATOM     17  O   UNL     1      14.776 -56.563   7.234  1.00  0.00    -0.508 OA
ATOM     18  H   UNL     1      14.844 -57.004   6.324  1.00  0.00     0.293 HD
ENDBRANCH  14  17
ENDBRANCH   1  11
BRANCH  10  19
ATOM     19  O   UNL     1      12.876 -51.108   9.797  1.00  0.00    -0.500 OA
ATOM     20  H   UNL     1      11.991 -50.831  10.207  1.00  0.00     0.294 HD
ENDBRANCH  10  19
BRANCH   5  21
ATOM     21  O   UNL     1      15.823 -45.999   4.745  1.00  0.00    -0.507 OA
ATOM     22  H   UNL     1      16.688 -46.304   4.314  1.00  0.00     0.293 HD
ENDBRANCH   5  21
BRANCH   7  23
ATOM     23  O   UNL     1      13.323 -45.981   8.843  1.00  0.00    -0.507 OA
ATOM     24  H   UNL     1      13.486 -46.087   9.833  1.00  0.00     0.293 HD
ENDBRANCH   7  23
TORSDOF 5
ENDMDL
MODEL 6
REMARK VINA RESULT:    -5.287     11.275     12.177
REMARK INTER + INTRA:          -6.277
REMARK INTER:                  -5.965
REMARK INTRA:                  -0.312
REMARK UNBOUND:                -0.063
REMARK SMILES Oc1ccc(-c2[o+]c3cc(O)cc(O)c3cc2O)cc1.[Cl-]
REMARK SMILES IDX 6 1 7 2 8 3 9 4 10 5 12 6 13 7 15 8 16 9 17 10 5 11 4 12
REMARK SMILES IDX 3 13 2 14 19 15 20 16 1 17 18 19 11 21 14 23
REMARK H PARENT 1 18 18 20 11 22 14 24
REMARK Flexibility Score: inf
ROOT
ATOM      1  C   UNL     1      15.665 -55.277  -4.102  1.00  0.00     0.401 A 
ATOM      2  O   UNL     1      14.829 -55.134  -3.078  1.00  0.00    -0.202 OA
ATOM      3  C   UNL     1      15.014 -54.249  -2.103  1.00  0.00     0.368 A 
ATOM      4  C   UNL     1      14.077 -54.171  -1.069  1.00  0.00     0.162 A 
ATOM      5  C   UNL     1      14.246 -53.247  -0.034  1.00  0.00     0.128 A 
ATOM      6  C   UNL     1      15.355 -52.399  -0.032  1.00  0.00     0.093 A 
ATOM      7  C   UNL     1      16.307 -52.457  -1.057  1.00  0.00     0.136 A 
ATOM      8  C   UNL     1      16.142 -53.394  -2.110  1.00  0.00     0.125 A 
ATOM      9  C   UNL     1      17.052 -53.533  -3.170  1.00  0.00     0.078 A 
ATOM     10  C   UNL     1      16.825 -54.483  -4.170  1.00  0.00     0.223 A 
ENDROOT
BRANCH   1  11
ATOM     11  C   UNL     1      15.343 -56.293  -5.131  1.00  0.00     0.084 A 
ATOM     12  C   UNL     1      14.546 -55.934  -6.232  1.00  0.00     0.022 A 
ATOM     13  C   UNL     1      14.249 -56.871  -7.226  1.00  0.00     0.047 A 
ATOM     14  C   UNL     1      14.756 -58.174  -7.141  1.00  0.00     0.115 A 
ATOM     15  C   UNL     1      15.865 -57.598  -5.063  1.00  0.00     0.022 A 
ATOM     16  C   UNL     1      15.566 -58.532  -6.060  1.00  0.00     0.047 A 
BRANCH  14  17
ATOM     17  O   UNL     1      14.465 -59.115  -8.125  1.00  0.00    -0.508 OA
ATOM     18  H   UNL     1      14.776 -60.077  -8.046  1.00  0.00     0.293 HD
ENDBRANCH  14  17
ENDBRANCH   1  11
BRANCH  10  19
ATOM     19  O   UNL     1      17.754 -54.656  -5.196  1.00  0.00    -0.500 OA
ATOM     20  H   UNL     1      17.850 -55.539  -5.683  1.00  0.00     0.294 HD
ENDBRANCH  10  19
BRANCH   5  21
ATOM     21  O   UNL     1      13.317 -53.164   1.001  1.00  0.00    -0.507 OA
ATOM     22  H   UNL     1      12.327 -53.304   0.837  1.00  0.00     0.293 HD
ENDBRANCH   5  21
BRANCH   7  23
ATOM     23  O   UNL     1      17.386 -51.570  -0.985  1.00  0.00    -0.507 OA
ATOM     24  H   UNL     1      18.287 -51.733  -1.410  1.00  0.00     0.293 HD
ENDBRANCH   7  23
TORSDOF 5
ENDMDL
MODEL 7
REMARK VINA RESULT:    -5.146     11.437     12.612
REMARK INTER + INTRA:          -6.112
REMARK INTER:                  -5.913
REMARK INTRA:                  -0.199
REMARK UNBOUND:                -0.063
REMARK SMILES Oc1ccc(-c2[o+]c3cc(O)cc(O)c3cc2O)cc1.[Cl-]
REMARK SMILES IDX 6 1 7 2 8 3 9 4 10 5 12 6 13 7 15 8 16 9 17 10 5 11 4 12
REMARK SMILES IDX 3 13 2 14 19 15 20 16 1 17 18 19 11 21 14 23
REMARK H PARENT 1 18 18 20 11 22 14 24
REMARK Flexibility Score: inf
ROOT
ATOM      1  C   UNL     1      15.981 -54.264  -3.589  1.00  0.00     0.401 A 
ATOM      2  O   UNL     1      14.969 -55.061  -3.921  1.00  0.00    -0.202 OA
ATOM      3  C   UNL     1      15.048 -55.984  -4.874  1.00  0.00     0.368 A 
ATOM      4  C   UNL     1      13.930 -56.776  -5.147  1.00  0.00     0.162 A 
ATOM      5  C   UNL     1      13.987 -57.756  -6.143  1.00  0.00     0.128 A 
ATOM      6  C   UNL     1      15.166 -57.945  -6.866  1.00  0.00     0.093 A 
ATOM      7  C   UNL     1      16.300 -57.165  -6.610  1.00  0.00     0.136 A 
ATOM      8  C   UNL     1      16.248 -56.167  -5.603  1.00  0.00     0.125 A 
ATOM      9  C   UNL     1      17.330 -55.330  -5.287  1.00  0.00     0.078 A 
ATOM     10  C   UNL     1      17.201 -54.365  -4.284  1.00  0.00     0.223 A 
ENDROOT
BRANCH   1  11
ATOM     11  C   UNL     1      15.772 -53.281  -2.502  1.00  0.00     0.084 A 
ATOM     12  C   UNL     1      14.793 -52.284  -2.651  1.00  0.00     0.022 A 
ATOM     13  C   UNL     1      14.563 -51.359  -1.628  1.00  0.00     0.047 A 
ATOM     14  C   UNL     1      15.299 -51.428  -0.437  1.00  0.00     0.115 A 
ATOM     15  C   UNL     1      16.493 -53.356  -1.296  1.00  0.00     0.022 A 
ATOM     16  C   UNL     1      16.260 -52.430  -0.275  1.00  0.00     0.047 A 
BRANCH  14  17
ATOM     17  O   UNL     1      15.079 -50.511   0.588  1.00  0.00    -0.508 OA
ATOM     18  H   UNL     1      15.834 -49.955   0.972  1.00  0.00     0.293 HD
ENDBRANCH  14  17
ENDBRANCH   1  11
BRANCH  10  19
ATOM     19  O   UNL     1      18.259 -53.499  -4.005  1.00  0.00    -0.500 OA
ATOM     20  H   UNL     1      18.461 -52.699  -4.594  1.00  0.00     0.294 HD
ENDBRANCH  10  19
BRANCH   5  21
ATOM     21  O   UNL     1      12.876 -58.549  -6.422  1.00  0.00    -0.507 OA
ATOM     22  H   UNL     1      12.746 -58.979  -7.330  1.00  0.00     0.293 HD
ENDBRANCH   5  21
BRANCH   7  23
ATOM     23  O   UNL     1      17.443 -57.420  -7.375  1.00  0.00    -0.507 OA
ATOM     24  H   UNL     1      17.657 -58.310  -7.801  1.00  0.00     0.293 HD
ENDBRANCH   7  23
TORSDOF 5
ENDMDL
MODEL 8
REMARK VINA RESULT:    -4.902     16.967     18.531
REMARK INTER + INTRA:          -5.824
REMARK INTER:                  -5.583
REMARK INTRA:                  -0.241
REMARK UNBOUND:                -0.063
REMARK SMILES Oc1ccc(-c2[o+]c3cc(O)cc(O)c3cc2O)cc1.[Cl-]
REMARK SMILES IDX 6 1 7 2 8 3 9 4 10 5 12 6 13 7 15 8 16 9 17 10 5 11 4 12
REMARK SMILES IDX 3 13 2 14 19 15 20 16 1 17 18 19 11 21 14 23
REMARK H PARENT 1 18 18 20 11 22 14 24
REMARK Flexibility Score: inf
ROOT
ATOM      1  C   UNL     1      21.587 -43.565  -7.059  1.00  0.00     0.401 A 
ATOM      2  O   UNL     1      22.909 -43.454  -6.978  1.00  0.00    -0.202 OA
ATOM      3  C   UNL     1      23.742 -44.468  -7.197  1.00  0.00     0.368 A 
ATOM      4  C   UNL     1      25.118 -44.252  -7.091  1.00  0.00     0.162 A 
ATOM      5  C   UNL     1      26.015 -45.299  -7.319  1.00  0.00     0.128 A 
ATOM      6  C   UNL     1      25.534 -46.567  -7.655  1.00  0.00     0.093 A 
ATOM      7  C   UNL     1      24.159 -46.808  -7.768  1.00  0.00     0.136 A 
ATOM      8  C   UNL     1      23.244 -45.749  -7.535  1.00  0.00     0.125 A 
ATOM      9  C   UNL     1      21.851 -45.902  -7.612  1.00  0.00     0.078 A 
ATOM     10  C   UNL     1      21.011 -44.812  -7.364  1.00  0.00     0.223 A 
ENDROOT
BRANCH   1  11
ATOM     11  C   UNL     1      20.766 -42.359  -6.802  1.00  0.00     0.084 A 
ATOM     12  C   UNL     1      20.744 -41.800  -5.513  1.00  0.00     0.022 A 
ATOM     13  C   UNL     1      19.994 -40.649  -5.253  1.00  0.00     0.047 A 
ATOM     14  C   UNL     1      19.268 -40.034  -6.282  1.00  0.00     0.115 A 
ATOM     15  C   UNL     1      20.051 -41.724  -7.834  1.00  0.00     0.022 A 
ATOM     16  C   UNL     1      19.303 -40.573  -7.571  1.00  0.00     0.047 A 
BRANCH  14  17
ATOM     17  O   UNL     1      18.517 -38.888  -6.034  1.00  0.00    -0.508 OA
ATOM     18  H   UNL     1      18.934 -37.964  -6.065  1.00  0.00     0.293 HD
ENDBRANCH  14  17
ENDBRANCH   1  11
BRANCH  10  19
ATOM     19  O   UNL     1      19.625 -44.975  -7.391  1.00  0.00    -0.500 OA
ATOM     20  H   UNL     1      19.011 -44.396  -6.831  1.00  0.00     0.294 HD
ENDBRANCH  10  19
BRANCH   5  21
ATOM     21  O   UNL     1      27.389 -45.092  -7.215  1.00  0.00    -0.507 OA
ATOM     22  H   UNL     1      27.768 -44.256  -6.787  1.00  0.00     0.293 HD
ENDBRANCH   5  21
BRANCH   7  23
ATOM     23  O   UNL     1      23.759 -48.103  -8.112  1.00  0.00    -0.507 OA
ATOM     24  H   UNL     1      22.823 -48.355  -8.394  1.00  0.00     0.293 HD
ENDBRANCH   7  23
TORSDOF 5
ENDMDL
MODEL 9
REMARK VINA RESULT:    -4.103      2.277      3.272
REMARK INTER + INTRA:          -4.886
REMARK INTER:                  -4.574
REMARK INTRA:                  -0.313
REMARK UNBOUND:                -0.063
REMARK SMILES Oc1ccc(-c2[o+]c3cc(O)cc(O)c3cc2O)cc1.[Cl-]
REMARK SMILES IDX 6 1 7 2 8 3 9 4 10 5 12 6 13 7 15 8 16 9 17 10 5 11 4 12
REMARK SMILES IDX 3 13 2 14 19 15 20 16 1 17 18 19 11 21 14 23
REMARK H PARENT 1 18 18 20 11 22 14 24
REMARK Flexibility Score: inf
ROOT
ATOM      1  C   UNL     1      13.899 -50.945   7.368  1.00  0.00     0.401 A 
ATOM      2  O   UNL     1      14.328 -49.943   8.130  1.00  0.00    -0.202 OA
ATOM      3  C   UNL     1      14.202 -48.663   7.792  1.00  0.00     0.368 A 
ATOM      4  C   UNL     1      14.682 -47.680   8.662  1.00  0.00     0.162 A 
ATOM      5  C   UNL     1      14.560 -46.327   8.332  1.00  0.00     0.128 A 
ATOM      6  C   UNL     1      13.957 -45.956   7.128  1.00  0.00     0.093 A 
ATOM      7  C   UNL     1      13.469 -46.922   6.241  1.00  0.00     0.136 A 
ATOM      8  C   UNL     1      13.591 -48.297   6.569  1.00  0.00     0.125 A 
ATOM      9  C   UNL     1      13.143 -49.334   5.735  1.00  0.00     0.078 A 
ATOM     10  C   UNL     1      13.303 -50.667   6.124  1.00  0.00     0.223 A 
ENDROOT
BRANCH   1  11
ATOM     11  C   UNL     1      14.088 -52.329   7.861  1.00  0.00     0.084 A 
ATOM     12  C   UNL     1      13.033 -52.975   8.527  1.00  0.00     0.022 A 
ATOM     13  C   UNL     1      13.181 -54.290   8.980  1.00  0.00     0.047 A 
ATOM     14  C   UNL     1      14.381 -54.979   8.761  1.00  0.00     0.115 A 
ATOM     15  C   UNL     1      15.282 -53.035   7.626  1.00  0.00     0.022 A 
ATOM     16  C   UNL     1      15.427 -54.350   8.080  1.00  0.00     0.047 A 
BRANCH  14  17
ATOM     17  O   UNL     1      14.540 -56.288   9.209  1.00  0.00    -0.508 OA
ATOM     18  H   UNL     1      14.476 -57.077   8.575  1.00  0.00     0.293 HD
ENDBRANCH  14  17
ENDBRANCH   1  11
BRANCH  10  19
ATOM     19  O   UNL     1      12.905 -51.698   5.273  1.00  0.00    -0.500 OA
ATOM     20  H   UNL     1      13.356 -51.854   4.379  1.00  0.00     0.294 HD
ENDBRANCH  10  19
BRANCH   5  21
ATOM     21  O   UNL     1      15.035 -45.342   9.194  1.00  0.00    -0.507 OA
ATOM     22  H   UNL     1      16.027 -45.206   9.350  1.00  0.00     0.293 HD
ENDBRANCH   5  21
BRANCH   7  23
ATOM     23  O   UNL     1      12.875 -46.468   5.058  1.00  0.00    -0.507 OA
ATOM     24  H   UNL     1      13.018 -46.887   4.151  1.00  0.00     0.293 HD
ENDBRANCH   7  23
TORSDOF 5
ENDMDL
