MODEL 1
REMARK VINA RESULT:    -4.455      0.000      0.000
REMARK INTER + INTRA:         -12.540
REMARK INTER:                  -9.663
REMARK INTRA:                  -2.878
REMARK UNBOUND:                -2.878
REMARK SMILES CCCCCCCCCCCCCCCCCCCCCC(=O)[O-]
REMARK SMILES IDX 12 1 11 2 10 3 9 4 8 5 7 6 6 7 5 8 4 9 3 10 2 11 1 12 13 13
REMARK SMILES IDX 14 14 15 15 16 16 17 17 18 18 19 19 20 20 21 21 22 22 23 23
REMARK SMILES IDX 24 24
REMARK H PARENT
REMARK Flexibility Score: inf
ROOT
ATOM      1  C   UNL     1      -3.057  26.193  58.834  1.00  0.00     0.000 C 
ENDROOT
BRANCH   1   2
ATOM      2  C   UNL     1      -2.100  26.337  57.645  1.00  0.00     0.000 C 
BRANCH   2   3
ATOM      3  C   UNL     1      -2.408  25.289  56.565  1.00  0.00     0.000 C 
BRANCH   3   4
ATOM      4  C   UNL     1      -3.788  25.494  55.920  1.00  0.00    -0.000 C 
BRANCH   4   5
ATOM      5  C   UNL     1      -4.746  24.323  56.197  1.00  0.00    -0.000 C 
BRANCH   5   6
ATOM      6  C   UNL     1      -5.801  24.653  57.268  1.00  0.00    -0.000 C 
BRANCH   6   7
ATOM      7  C   UNL     1      -6.502  26.017  57.109  1.00  0.00    -0.000 C 
BRANCH   7   8
ATOM      8  C   UNL     1      -7.197  26.546  58.378  1.00  0.00    -0.000 C 
BRANCH   8   9
ATOM      9  C   UNL     1      -7.324  25.511  59.513  1.00  0.00    -0.000 C 
BRANCH   9  10
ATOM     10  C   UNL     1      -8.067  26.048  60.758  1.00  0.00    -0.000 C 
BRANCH  10  11
ATOM     11  C   UNL     1      -7.511  25.516  62.089  1.00  0.00    -0.003 C 
ATOM     12  C   UNL     1      -6.787  26.594  62.896  1.00  0.00     0.004 C 
ENDBRANCH  10  11
ENDBRANCH   9  10
ENDBRANCH   8   9
ENDBRANCH   7   8
ENDBRANCH   6   7
ENDBRANCH   5   6
ENDBRANCH   4   5
ENDBRANCH   3   4
ENDBRANCH   2   3
ENDBRANCH   1   2
BRANCH   1  13
ATOM     13  C   UNL     1      -3.387  27.563  59.449  1.00  0.00     0.000 C 
BRANCH  13  14
ATOM     14  C   UNL     1      -2.147  28.457  59.601  1.00  0.00     0.000 C 
BRANCH  14  15
ATOM     15  C   UNL     1      -2.445  29.941  59.335  1.00  0.00     0.000 C 
BRANCH  15  16
ATOM     16  C   UNL     1      -3.293  30.150  58.060  1.00  0.00     0.000 C 
BRANCH  16  17
ATOM     17  C   UNL     1      -2.528  29.855  56.758  1.00  0.00     0.000 C 
BRANCH  17  18
ATOM     18  C   UNL     1      -3.390  29.286  55.612  1.00  0.00     0.000 C 
BRANCH  18  19
ATOM     19  C   UNL     1      -4.896  29.192  55.942  1.00  0.00     0.000 C 
BRANCH  19  20
ATOM     20  C   UNL     1      -5.765  30.078  55.039  1.00  0.00     0.006 C 
BRANCH  20  21
ATOM     21  C   UNL     1      -5.342  31.549  55.139  1.00  0.00     0.053 C 
BRANCH  21  22
ATOM     22  C   UNL     1      -5.953  32.365  54.040  1.00  0.00     0.041 C 
ATOM     23  O   UNL     1      -5.236  33.129  53.338  1.00  0.00    -0.550 OA
ATOM     24  O   UNL     1      -7.311  32.253  53.766  1.00  0.00    -0.550 OA
ENDBRANCH  21  22
ENDBRANCH  20  21
ENDBRANCH  19  20
ENDBRANCH  18  19
ENDBRANCH  17  18
ENDBRANCH  16  17
ENDBRANCH  15  16
ENDBRANCH  14  15
ENDBRANCH  13  14
ENDBRANCH   1  13
TORSDOF 20
ENDMDL
MODEL 2
REMARK VINA RESULT:    -4.365      2.706      6.572
REMARK INTER + INTRA:         -12.347
REMARK INTER:                  -8.465
REMARK INTRA:                  -3.882
REMARK UNBOUND:                -2.878
REMARK SMILES CCCCCCCCCCCCCCCCCCCCCC(=O)[O-]
REMARK SMILES IDX 12 1 11 2 10 3 9 4 8 5 7 6 6 7 5 8 4 9 3 10 2 11 1 12 13 13
REMARK SMILES IDX 14 14 15 15 16 16 17 17 18 18 19 19 20 20 21 21 22 22 23 23
REMARK SMILES IDX 24 24
REMARK H PARENT
REMARK Flexibility Score: inf
ROOT
ATOM      1  C   UNL     1      -4.669  29.425  56.335  1.00  0.00     0.000 C 
ENDROOT
BRANCH   1   2
ATOM      2  C   UNL     1      -4.137  29.152  54.924  1.00  0.00     0.000 C 
BRANCH   2   3
ATOM      3  C   UNL     1      -2.738  28.518  54.980  1.00  0.00     0.000 C 
BRANCH   3   4
ATOM      4  C   UNL     1      -1.767  29.142  53.965  1.00  0.00    -0.000 C 
BRANCH   4   5
ATOM      5  C   UNL     1      -2.185  30.562  53.547  1.00  0.00    -0.000 C 
BRANCH   5   6
ATOM      6  C   UNL     1      -1.481  31.660  54.364  1.00  0.00    -0.000 C 
BRANCH   6   7
ATOM      7  C   UNL     1      -2.343  32.895  54.694  1.00  0.00    -0.000 C 
BRANCH   7   8
ATOM      8  C   UNL     1      -3.571  33.095  53.786  1.00  0.00    -0.000 C 
BRANCH   8   9
ATOM      9  C   UNL     1      -4.926  32.950  54.505  1.00  0.00    -0.000 C 
BRANCH   9  10
ATOM     10  C   UNL     1      -5.970  32.141  53.699  1.00  0.00    -0.000 C 
BRANCH  10  11
ATOM     11  C   UNL     1      -7.371  32.136  54.332  1.00  0.00    -0.003 C 
ATOM     12  C   UNL     1      -7.338  31.831  55.829  1.00  0.00     0.004 C 
ENDBRANCH  10  11
ENDBRANCH   9  10
ENDBRANCH   8   9
ENDBRANCH   7   8
ENDBRANCH   6   7
ENDBRANCH   5   6
ENDBRANCH   4   5
ENDBRANCH   3   4
ENDBRANCH   2   3
ENDBRANCH   1   2
BRANCH   1  13
ATOM     13  C   UNL     1      -3.897  30.574  57.005  1.00  0.00     0.000 C 
BRANCH  13  14
ATOM     14  C   UNL     1      -3.230  30.150  58.322  1.00  0.00     0.000 C 
BRANCH  14  15
ATOM     15  C   UNL     1      -1.701  30.034  58.207  1.00  0.00     0.000 C 
BRANCH  15  16
ATOM     16  C   UNL     1      -1.206  28.585  58.417  1.00  0.00     0.000 C 
BRANCH  16  17
ATOM     17  C   UNL     1      -2.320  27.609  58.831  1.00  0.00     0.000 C 
BRANCH  17  18
ATOM     18  C   UNL     1      -2.485  26.382  57.911  1.00  0.00     0.000 C 
BRANCH  18  19
ATOM     19  C   UNL     1      -3.954  26.004  57.618  1.00  0.00     0.000 C 
BRANCH  19  20
ATOM     20  C   UNL     1      -4.850  26.069  58.863  1.00  0.00     0.006 C 
BRANCH  20  21
ATOM     21  C   UNL     1      -6.155  25.294  58.643  1.00  0.00     0.053 C 
BRANCH  21  22
ATOM     22  C   UNL     1      -7.181  26.143  57.956  1.00  0.00     0.041 C 
ATOM     23  O   UNL     1      -8.080  25.612  57.249  1.00  0.00    -0.550 OA
ATOM     24  O   UNL     1      -7.167  27.523  58.128  1.00  0.00    -0.550 OA
ENDBRANCH  21  22
ENDBRANCH  20  21
ENDBRANCH  19  20
ENDBRANCH  18  19
ENDBRANCH  17  18
ENDBRANCH  16  17
ENDBRANCH  15  16
ENDBRANCH  14  15
ENDBRANCH  13  14
ENDBRANCH   1  13
TORSDOF 20
ENDMDL
MODEL 3
REMARK VINA RESULT:    -4.345      1.528      2.796
REMARK INTER + INTRA:         -12.304
REMARK INTER:                  -9.108
REMARK INTRA:                  -3.196
REMARK UNBOUND:                -2.878
REMARK SMILES CCCCCCCCCCCCCCCCCCCCCC(=O)[O-]
REMARK SMILES IDX 12 1 11 2 10 3 9 4 8 5 7 6 6 7 5 8 4 9 3 10 2 11 1 12 13 13
REMARK SMILES IDX 14 14 15 15 16 16 17 17 18 18 19 19 20 20 21 21 22 22 23 23
REMARK SMILES IDX 24 24
REMARK H PARENT
REMARK Flexibility Score: inf
ROOT
ATOM      1  C   UNL     1      -1.554  28.522  58.889  1.00  0.00     0.000 C 
ENDROOT
BRANCH   1   2
ATOM      2  C   UNL     1      -2.839  27.789  59.290  1.00  0.00     0.000 C 
BRANCH   2   3
ATOM      3  C   UNL     1      -3.019  26.507  58.461  1.00  0.00     0.000 C 
BRANCH   3   4
ATOM      4  C   UNL     1      -1.930  26.339  57.390  1.00  0.00    -0.000 C 
BRANCH   4   5
ATOM      5  C   UNL     1      -2.317  25.309  56.315  1.00  0.00    -0.000 C 
BRANCH   5   6
ATOM      6  C   UNL     1      -3.839  25.192  56.117  1.00  0.00    -0.000 C 
BRANCH   6   7
ATOM      7  C   UNL     1      -4.401  23.756  56.149  1.00  0.00    -0.000 C 
BRANCH   7   8
ATOM      8  C   UNL     1      -5.329  23.445  57.338  1.00  0.00    -0.000 C 
BRANCH   8   9
ATOM      9  C   UNL     1      -6.601  24.313  57.399  1.00  0.00    -0.000 C 
BRANCH   9  10
ATOM     10  C   UNL     1      -7.020  24.696  58.837  1.00  0.00    -0.000 C 
BRANCH  10  11
ATOM     11  C   UNL     1      -7.355  26.187  59.008  1.00  0.00    -0.003 C 
ATOM     12  C   UNL     1      -6.680  27.065  57.954  1.00  0.00     0.004 C 
ENDBRANCH  10  11
ENDBRANCH   9  10
ENDBRANCH   8   9
ENDBRANCH   7   8
ENDBRANCH   6   7
ENDBRANCH   5   6
ENDBRANCH   4   5
ENDBRANCH   3   4
ENDBRANCH   2   3
ENDBRANCH   1   2
BRANCH   1  13
ATOM     13  C   UNL     1      -1.848  29.978  58.493  1.00  0.00     0.000 C 
BRANCH  13  14
ATOM     14  C   UNL     1      -0.787  30.559  57.547  1.00  0.00     0.000 C 
BRANCH  14  15
ATOM     15  C   UNL     1      -1.227  30.544  56.074  1.00  0.00     0.000 C 
BRANCH  15  16
ATOM     16  C   UNL     1      -1.286  29.113  55.494  1.00  0.00     0.000 C 
BRANCH  16  17
ATOM     17  C   UNL     1      -2.241  28.976  54.295  1.00  0.00     0.000 C 
BRANCH  17  18
ATOM     18  C   UNL     1      -3.666  29.513  54.534  1.00  0.00     0.000 C 
BRANCH  18  19
ATOM     19  C   UNL     1      -4.269  29.118  55.901  1.00  0.00     0.000 C 
BRANCH  19  20
ATOM     20  C   UNL     1      -5.235  30.172  56.458  1.00  0.00     0.006 C 
BRANCH  20  21
ATOM     21  C   UNL     1      -5.590  31.214  55.390  1.00  0.00     0.053 C 
BRANCH  21  22
ATOM     22  C   UNL     1      -7.038  31.595  55.463  1.00  0.00     0.041 C 
ATOM     23  O   UNL     1      -7.671  31.493  56.548  1.00  0.00    -0.550 OA
ATOM     24  O   UNL     1      -7.679  32.101  54.337  1.00  0.00    -0.550 OA
ENDBRANCH  21  22
ENDBRANCH  20  21
ENDBRANCH  19  20
ENDBRANCH  18  19
ENDBRANCH  17  18
ENDBRANCH  16  17
ENDBRANCH  15  16
ENDBRANCH  14  15
ENDBRANCH  13  14
ENDBRANCH   1  13
TORSDOF 20
ENDMDL
MODEL 4
REMARK VINA RESULT:    -4.342      1.920      4.422
REMARK INTER + INTRA:         -12.296
REMARK INTER:                  -8.922
REMARK INTRA:                  -3.374
REMARK UNBOUND:                -2.878
REMARK SMILES CCCCCCCCCCCCCCCCCCCCCC(=O)[O-]
REMARK SMILES IDX 12 1 11 2 10 3 9 4 8 5 7 6 6 7 5 8 4 9 3 10 2 11 1 12 13 13
REMARK SMILES IDX 14 14 15 15 16 16 17 17 18 18 19 19 20 20 21 21 22 22 23 23
REMARK SMILES IDX 24 24
REMARK H PARENT
REMARK Flexibility Score: inf
ROOT
ATOM      1  C   UNL     1      -5.482  25.670  58.538  1.00  0.00     0.000 C 
ENDROOT
BRANCH   1   2
ATOM      2  C   UNL     1      -5.992  26.773  57.604  1.00  0.00     0.000 C 
BRANCH   2   3
ATOM      3  C   UNL     1      -5.900  26.333  56.135  1.00  0.00     0.000 C 
BRANCH   3   4
ATOM      4  C   UNL     1      -5.353  27.440  55.221  1.00  0.00    -0.000 C 
BRANCH   4   5
ATOM      5  C   UNL     1      -4.314  26.913  54.216  1.00  0.00    -0.000 C 
BRANCH   5   6
ATOM      6  C   UNL     1      -3.988  25.422  54.417  1.00  0.00    -0.000 C 
BRANCH   6   7
ATOM      7  C   UNL     1      -2.696  25.128  55.206  1.00  0.00    -0.000 C 
BRANCH   7   8
ATOM      8  C   UNL     1      -2.790  23.950  56.194  1.00  0.00    -0.000 C 
BRANCH   8   9
ATOM      9  C   UNL     1      -4.051  23.081  56.033  1.00  0.00    -0.000 C 
BRANCH   9  10
ATOM     10  C   UNL     1      -3.826  21.818  55.169  1.00  0.00    -0.000 C 
BRANCH  10  11
ATOM     11  C   UNL     1      -2.718  20.894  55.700  1.00  0.00    -0.003 C 
ATOM     12  C   UNL     1      -1.494  20.859  54.785  1.00  0.00     0.004 C 
ENDBRANCH  10  11
ENDBRANCH   9  10
ENDBRANCH   8   9
ENDBRANCH   7   8
ENDBRANCH   6   7
ENDBRANCH   5   6
ENDBRANCH   4   5
ENDBRANCH   3   4
ENDBRANCH   2   3
ENDBRANCH   1   2
BRANCH   1  13
ATOM     13  C   UNL     1      -4.409  26.210  59.497  1.00  0.00     0.000 C 
BRANCH  13  14
ATOM     14  C   UNL     1      -3.003  26.198  58.880  1.00  0.00     0.000 C 
BRANCH  14  15
ATOM     15  C   UNL     1      -2.357  27.592  58.837  1.00  0.00     0.000 C 
BRANCH  15  16
ATOM     16  C   UNL     1      -1.710  27.897  57.466  1.00  0.00     0.000 C 
BRANCH  16  17
ATOM     17  C   UNL     1      -2.363  29.079  56.729  1.00  0.00     0.000 C 
BRANCH  17  18
ATOM     18  C   UNL     1      -3.580  29.699  57.445  1.00  0.00     0.000 C 
BRANCH  18  19
ATOM     19  C   UNL     1      -4.137  30.967  56.761  1.00  0.00     0.000 C 
BRANCH  19  20
ATOM     20  C   UNL     1      -4.454  30.758  55.274  1.00  0.00     0.006 C 
BRANCH  20  21
ATOM     21  C   UNL     1      -5.213  31.960  54.698  1.00  0.00     0.053 C 
BRANCH  21  22
ATOM     22  C   UNL     1      -6.618  31.590  54.332  1.00  0.00     0.041 C 
ATOM     23  O   UNL     1      -7.014  30.398  54.440  1.00  0.00    -0.550 OA
ATOM     24  O   UNL     1      -7.505  32.573  53.907  1.00  0.00    -0.550 OA
ENDBRANCH  21  22
ENDBRANCH  20  21
ENDBRANCH  19  20
ENDBRANCH  18  19
ENDBRANCH  17  18
ENDBRANCH  16  17
ENDBRANCH  15  16
ENDBRANCH  14  15
ENDBRANCH  13  14
ENDBRANCH   1  13
TORSDOF 20
ENDMDL
MODEL 5
REMARK VINA RESULT:    -4.310      1.878      4.831
REMARK INTER + INTRA:         -12.226
REMARK INTER:                  -8.577
REMARK INTRA:                  -3.649
REMARK UNBOUND:                -2.878
REMARK SMILES CCCCCCCCCCCCCCCCCCCCCC(=O)[O-]
REMARK SMILES IDX 12 1 11 2 10 3 9 4 8 5 7 6 6 7 5 8 4 9 3 10 2 11 1 12 13 13
REMARK SMILES IDX 14 14 15 15 16 16 17 17 18 18 19 19 20 20 21 21 22 22 23 23
REMARK SMILES IDX 24 24
REMARK H PARENT
REMARK Flexibility Score: inf
ROOT
ATOM      1  C   UNL     1      -5.811  25.913  58.934  1.00  0.00     0.000 C 
ENDROOT
BRANCH   1   2
ATOM      2  C   UNL     1      -6.179  26.869  57.794  1.00  0.00     0.000 C 
BRANCH   2   3
ATOM      3  C   UNL     1      -6.175  26.138  56.443  1.00  0.00     0.000 C 
BRANCH   3   4
ATOM      4  C   UNL     1      -5.276  26.824  55.402  1.00  0.00    -0.000 C 
BRANCH   4   5
ATOM      5  C   UNL     1      -4.096  25.938  54.969  1.00  0.00    -0.000 C 
BRANCH   5   6
ATOM      6  C   UNL     1      -4.361  24.437  55.187  1.00  0.00    -0.000 C 
BRANCH   6   7
ATOM      7  C   UNL     1      -3.271  23.680  55.973  1.00  0.00    -0.000 C 
BRANCH   7   8
ATOM      8  C   UNL     1      -2.286  22.872  55.109  1.00  0.00    -0.000 C 
BRANCH   8   9
ATOM      9  C   UNL     1      -0.866  23.465  55.037  1.00  0.00    -0.000 C 
BRANCH   9  10
ATOM     10  C   UNL     1      -0.654  24.678  55.973  1.00  0.00    -0.000 C 
BRANCH  10  11
ATOM     11  C   UNL     1      -0.290  25.975  55.233  1.00  0.00    -0.003 C 
ATOM     12  C   UNL     1       0.104  25.729  53.777  1.00  0.00     0.004 C 
ENDBRANCH  10  11
ENDBRANCH   9  10
ENDBRANCH   8   9
ENDBRANCH   7   8
ENDBRANCH   6   7
ENDBRANCH   5   6
ENDBRANCH   4   5
ENDBRANCH   3   4
ENDBRANCH   2   3
ENDBRANCH   1   2
BRANCH   1  13
ATOM     13  C   UNL     1      -4.303  25.613  58.939  1.00  0.00     0.000 C 
BRANCH  13  14
ATOM     14  C   UNL     1      -3.453  26.862  59.214  1.00  0.00     0.000 C 
BRANCH  14  15
ATOM     15  C   UNL     1      -2.275  27.009  58.238  1.00  0.00     0.000 C 
BRANCH  15  16
ATOM     16  C   UNL     1      -2.434  28.232  57.305  1.00  0.00     0.000 C 
BRANCH  16  17
ATOM     17  C   UNL     1      -3.327  29.339  57.893  1.00  0.00     0.000 C 
BRANCH  17  18
ATOM     18  C   UNL     1      -4.286  30.003  56.884  1.00  0.00     0.000 C 
BRANCH  18  19
ATOM     19  C   UNL     1      -3.961  31.482  56.582  1.00  0.00     0.000 C 
BRANCH  19  20
ATOM     20  C   UNL     1      -4.768  32.046  55.404  1.00  0.00     0.006 C 
BRANCH  20  21
ATOM     21  C   UNL     1      -5.828  31.043  54.932  1.00  0.00     0.053 C 
BRANCH  21  22
ATOM     22  C   UNL     1      -7.211  31.532  55.238  1.00  0.00     0.041 C 
ATOM     23  O   UNL     1      -7.994  31.858  54.305  1.00  0.00    -0.550 OA
ATOM     24  O   UNL     1      -7.650  31.592  56.556  1.00  0.00    -0.550 OA
ENDBRANCH  21  22
ENDBRANCH  20  21
ENDBRANCH  19  20
ENDBRANCH  18  19
ENDBRANCH  17  18
ENDBRANCH  16  17
ENDBRANCH  15  16
ENDBRANCH  14  15
ENDBRANCH  13  14
ENDBRANCH   1  13
TORSDOF 20
ENDMDL
MODEL 6
REMARK VINA RESULT:    -4.262      3.302      6.091
REMARK INTER + INTRA:         -12.123
REMARK INTER:                  -8.364
REMARK INTRA:                  -3.758
REMARK UNBOUND:                -2.878
REMARK SMILES CCCCCCCCCCCCCCCCCCCCCC(=O)[O-]
REMARK SMILES IDX 12 1 11 2 10 3 9 4 8 5 7 6 6 7 5 8 4 9 3 10 2 11 1 12 13 13
REMARK SMILES IDX 14 14 15 15 16 16 17 17 18 18 19 19 20 20 21 21 22 22 23 23
REMARK SMILES IDX 24 24
REMARK H PARENT
REMARK Flexibility Score: inf
ROOT
ATOM      1  C   UNL     1      -5.212  29.428  55.447  1.00  0.00     0.000 C 
ENDROOT
BRANCH   1   2
ATOM      2  C   UNL     1      -3.859  29.061  54.827  1.00  0.00     0.000 C 
BRANCH   2   3
ATOM      3  C   UNL     1      -3.627  27.543  54.880  1.00  0.00     0.000 C 
BRANCH   3   4
ATOM      4  C   UNL     1      -2.990  26.999  53.591  1.00  0.00    -0.000 C 
BRANCH   4   5
ATOM      5  C   UNL     1      -1.483  27.295  53.509  1.00  0.00    -0.000 C 
BRANCH   5   6
ATOM      6  C   UNL     1      -0.747  27.028  54.834  1.00  0.00    -0.000 C 
BRANCH   6   7
ATOM      7  C   UNL     1      -0.239  25.584  55.030  1.00  0.00    -0.000 C 
BRANCH   7   8
ATOM      8  C   UNL     1      -0.765  24.874  56.291  1.00  0.00    -0.000 C 
BRANCH   8   9
ATOM      9  C   UNL     1      -2.216  24.368  56.180  1.00  0.00    -0.000 C 
BRANCH   9  10
ATOM     10  C   UNL     1      -2.455  23.435  54.970  1.00  0.00    -0.000 C 
BRANCH  10  11
ATOM     11  C   UNL     1      -1.962  21.996  55.191  1.00  0.00    -0.003 C 
ATOM     12  C   UNL     1      -3.111  20.997  55.331  1.00  0.00     0.004 C 
ENDBRANCH  10  11
ENDBRANCH   9  10
ENDBRANCH   8   9
ENDBRANCH   7   8
ENDBRANCH   6   7
ENDBRANCH   5   6
ENDBRANCH   4   5
ENDBRANCH   3   4
ENDBRANCH   2   3
ENDBRANCH   1   2
BRANCH   1  13
ATOM     13  C   UNL     1      -5.037  30.408  56.618  1.00  0.00     0.000 C 
BRANCH  13  14
ATOM     14  C   UNL     1      -3.561  30.674  56.951  1.00  0.00     0.000 C 
BRANCH  14  15
ATOM     15  C   UNL     1      -3.094  29.948  58.222  1.00  0.00     0.000 C 
BRANCH  15  16
ATOM     16  C   UNL     1      -1.902  29.002  57.953  1.00  0.00     0.000 C 
BRANCH  16  17
ATOM     17  C   UNL     1      -2.145  27.557  58.423  1.00  0.00     0.000 C 
BRANCH  17  18
ATOM     18  C   UNL     1      -3.529  27.304  59.054  1.00  0.00     0.000 C 
BRANCH  18  19
ATOM     19  C   UNL     1      -4.370  26.232  58.327  1.00  0.00     0.000 C 
BRANCH  19  20
ATOM     20  C   UNL     1      -5.780  26.718  57.963  1.00  0.00     0.006 C 
BRANCH  20  21
ATOM     21  C   UNL     1      -6.375  25.880  56.825  1.00  0.00     0.053 C 
BRANCH  21  22
ATOM     22  C   UNL     1      -7.558  25.090  57.295  1.00  0.00     0.041 C 
ATOM     23  O   UNL     1      -8.338  25.564  58.165  1.00  0.00    -0.550 OA
ATOM     24  O   UNL     1      -7.821  23.841  56.743  1.00  0.00    -0.550 OA
ENDBRANCH  21  22
ENDBRANCH  20  21
ENDBRANCH  19  20
ENDBRANCH  18  19
ENDBRANCH  17  18
ENDBRANCH  16  17
ENDBRANCH  15  16
ENDBRANCH  14  15
ENDBRANCH  13  14
ENDBRANCH   1  13
TORSDOF 20
ENDMDL
MODEL 7
REMARK VINA RESULT:    -4.236      2.277      4.076
REMARK INTER + INTRA:         -12.067
REMARK INTER:                  -8.556
REMARK INTRA:                  -3.511
REMARK UNBOUND:                -2.878
REMARK SMILES CCCCCCCCCCCCCCCCCCCCCC(=O)[O-]
REMARK SMILES IDX 12 1 11 2 10 3 9 4 8 5 7 6 6 7 5 8 4 9 3 10 2 11 1 12 13 13
REMARK SMILES IDX 14 14 15 15 16 16 17 17 18 18 19 19 20 20 21 21 22 22 23 23
REMARK SMILES IDX 24 24
REMARK H PARENT
REMARK Flexibility Score: inf
ROOT
ATOM      1  C   UNL     1      -0.780  24.790  56.070  1.00  0.00     0.000 C 
ENDROOT
BRANCH   1   2
ATOM      2  C   UNL     1      -2.038  24.000  55.690  1.00  0.00     0.000 C 
BRANCH   2   3
ATOM      3  C   UNL     1      -3.209  24.357  56.619  1.00  0.00     0.000 C 
BRANCH   3   4
ATOM      4  C   UNL     1      -4.506  23.625  56.241  1.00  0.00    -0.000 C 
BRANCH   4   5
ATOM      5  C   UNL     1      -5.612  23.806  57.295  1.00  0.00    -0.000 C 
BRANCH   5   6
ATOM      6  C   UNL     1      -5.449  25.095  58.120  1.00  0.00    -0.000 C 
BRANCH   6   7
ATOM      7  C   UNL     1      -6.327  26.282  57.672  1.00  0.00    -0.000 C 
BRANCH   7   8
ATOM      8  C   UNL     1      -5.608  27.336  56.809  1.00  0.00    -0.000 C 
BRANCH   8   9
ATOM      9  C   UNL     1      -5.699  27.087  55.291  1.00  0.00    -0.000 C 
BRANCH   9  10
ATOM     10  C   UNL     1      -4.357  27.288  54.550  1.00  0.00    -0.000 C 
BRANCH  10  11
ATOM     11  C   UNL     1      -4.083  26.231  53.468  1.00  0.00    -0.003 C 
ATOM     12  C   UNL     1      -5.347  25.482  53.046  1.00  0.00     0.004 C 
ENDBRANCH  10  11
ENDBRANCH   9  10
ENDBRANCH   8   9
ENDBRANCH   7   8
ENDBRANCH   6   7
ENDBRANCH   5   6
ENDBRANCH   4   5
ENDBRANCH   3   4
ENDBRANCH   2   3
ENDBRANCH   1   2
BRANCH   1  13
ATOM     13  C   UNL     1      -1.118  26.262  56.360  1.00  0.00     0.000 C 
BRANCH  13  14
ATOM     14  C   UNL     1      -0.687  27.203  55.225  1.00  0.00     0.000 C 
BRANCH  14  15
ATOM     15  C   UNL     1      -1.094  28.664  55.474  1.00  0.00     0.000 C 
BRANCH  15  16
ATOM     16  C   UNL     1      -1.682  28.877  56.888  1.00  0.00     0.000 C 
BRANCH  16  17
ATOM     17  C   UNL     1      -2.908  29.806  56.909  1.00  0.00     0.000 C 
BRANCH  17  18
ATOM     18  C   UNL     1      -3.209  30.516  55.573  1.00  0.00     0.000 C 
BRANCH  18  19
ATOM     19  C   UNL     1      -3.464  32.033  55.707  1.00  0.00     0.000 C 
BRANCH  19  20
ATOM     20  C   UNL     1      -4.816  32.468  55.124  1.00  0.00     0.006 C 
BRANCH  20  21
ATOM     21  C   UNL     1      -5.810  31.300  55.107  1.00  0.00     0.053 C 
BRANCH  21  22
ATOM     22  C   UNL     1      -7.209  31.782  54.869  1.00  0.00     0.041 C 
ATOM     23  O   UNL     1      -7.503  32.389  53.803  1.00  0.00    -0.550 OA
ATOM     24  O   UNL     1      -8.200  31.525  55.810  1.00  0.00    -0.550 OA
ENDBRANCH  21  22
ENDBRANCH  20  21
ENDBRANCH  19  20
ENDBRANCH  18  19
ENDBRANCH  17  18
ENDBRANCH  16  17
ENDBRANCH  15  16
ENDBRANCH  14  15
ENDBRANCH  13  14
ENDBRANCH   1  13
TORSDOF 20
ENDMDL
MODEL 8
REMARK VINA RESULT:    -4.205      1.740      4.384
REMARK INTER + INTRA:         -12.000
REMARK INTER:                  -8.481
REMARK INTRA:                  -3.519
REMARK UNBOUND:                -2.878
REMARK SMILES CCCCCCCCCCCCCCCCCCCCCC(=O)[O-]
REMARK SMILES IDX 12 1 11 2 10 3 9 4 8 5 7 6 6 7 5 8 4 9 3 10 2 11 1 12 13 13
REMARK SMILES IDX 14 14 15 15 16 16 17 17 18 18 19 19 20 20 21 21 22 22 23 23
REMARK SMILES IDX 24 24
REMARK H PARENT
REMARK Flexibility Score: inf
ROOT
ATOM      1  C   UNL     1      -4.628  26.294  59.624  1.00  0.00     0.000 C 
ENDROOT
BRANCH   1   2
ATOM      2  C   UNL     1      -5.799  26.068  58.661  1.00  0.00     0.000 C 
BRANCH   2   3
ATOM      3  C   UNL     1      -6.050  24.568  58.446  1.00  0.00     0.000 C 
BRANCH   3   4
ATOM      4  C   UNL     1      -6.027  24.172  56.961  1.00  0.00    -0.000 C 
BRANCH   4   5
ATOM      5  C   UNL     1      -4.637  23.704  56.498  1.00  0.00    -0.000 C 
BRANCH   5   6
ATOM      6  C   UNL     1      -3.991  24.660  55.481  1.00  0.00    -0.000 C 
BRANCH   6   7
ATOM      7  C   UNL     1      -4.795  25.939  55.170  1.00  0.00    -0.000 C 
BRANCH   7   8
ATOM      8  C   UNL     1      -3.947  27.169  54.796  1.00  0.00    -0.000 C 
BRANCH   8   9
ATOM      9  C   UNL     1      -2.972  26.939  53.626  1.00  0.00    -0.000 C 
BRANCH   9  10
ATOM     10  C   UNL     1      -1.677  27.778  53.726  1.00  0.00    -0.000 C 
BRANCH  10  11
ATOM     11  C   UNL     1      -0.991  27.696  55.099  1.00  0.00    -0.003 C 
ATOM     12  C   UNL     1      -0.345  26.334  55.353  1.00  0.00     0.004 C 
ENDBRANCH  10  11
ENDBRANCH   9  10
ENDBRANCH   8   9
ENDBRANCH   7   8
ENDBRANCH   6   7
ENDBRANCH   5   6
ENDBRANCH   4   5
ENDBRANCH   3   4
ENDBRANCH   2   3
ENDBRANCH   1   2
BRANCH   1  13
ATOM     13  C   UNL     1      -3.287  25.950  58.955  1.00  0.00     0.000 C 
BRANCH  13  14
ATOM     14  C   UNL     1      -2.638  27.163  58.273  1.00  0.00     0.000 C 
BRANCH  14  15
ATOM     15  C   UNL     1      -2.068  28.178  59.276  1.00  0.00     0.000 C 
BRANCH  15  16
ATOM     16  C   UNL     1      -2.655  29.594  59.076  1.00  0.00     0.000 C 
BRANCH  16  17
ATOM     17  C   UNL     1      -3.389  29.770  57.736  1.00  0.00     0.000 C 
BRANCH  17  18
ATOM     18  C   UNL     1      -2.701  30.725  56.739  1.00  0.00     0.000 C 
BRANCH  18  19
ATOM     19  C   UNL     1      -3.306  30.697  55.318  1.00  0.00     0.000 C 
BRANCH  19  20
ATOM     20  C   UNL     1      -4.840  30.699  55.318  1.00  0.00     0.006 C 
BRANCH  20  21
ATOM     21  C   UNL     1      -5.390  31.984  54.687  1.00  0.00     0.053 C 
BRANCH  21  22
ATOM     22  C   UNL     1      -6.825  31.820  54.286  1.00  0.00     0.041 C 
ATOM     23  O   UNL     1      -7.423  30.728  54.484  1.00  0.00    -0.550 OA
ATOM     24  O   UNL     1      -7.515  32.891  53.727  1.00  0.00    -0.550 OA
ENDBRANCH  21  22
ENDBRANCH  20  21
ENDBRANCH  19  20
ENDBRANCH  18  19
ENDBRANCH  17  18
ENDBRANCH  16  17
ENDBRANCH  15  16
ENDBRANCH  14  15
ENDBRANCH  13  14
ENDBRANCH   1  13
TORSDOF 20
ENDMDL
MODEL 9
REMARK VINA RESULT:    -4.186      2.713      3.910
REMARK INTER + INTRA:         -11.958
REMARK INTER:                  -7.823
REMARK INTRA:                  -4.134
REMARK UNBOUND:                -2.878
REMARK SMILES CCCCCCCCCCCCCCCCCCCCCC(=O)[O-]
REMARK SMILES IDX 12 1 11 2 10 3 9 4 8 5 7 6 6 7 5 8 4 9 3 10 2 11 1 12 13 13
REMARK SMILES IDX 14 14 15 15 16 16 17 17 18 18 19 19 20 20 21 21 22 22 23 23
REMARK SMILES IDX 24 24
REMARK H PARENT
REMARK Flexibility Score: inf
ROOT
ATOM      1  C   UNL     1      -1.567  24.747  56.543  1.00  0.00     0.000 C 
ENDROOT
BRANCH   1   2
ATOM      2  C   UNL     1      -1.580  23.831  55.314  1.00  0.00     0.000 C 
BRANCH   2   3
ATOM      3  C   UNL     1      -2.783  22.876  55.355  1.00  0.00     0.000 C 
BRANCH   3   4
ATOM      4  C   UNL     1      -4.126  23.622  55.417  1.00  0.00    -0.000 C 
BRANCH   4   5
ATOM      5  C   UNL     1      -4.451  24.357  54.105  1.00  0.00    -0.000 C 
BRANCH   5   6
ATOM      6  C   UNL     1      -4.714  25.860  54.310  1.00  0.00    -0.000 C 
BRANCH   6   7
ATOM      7  C   UNL     1      -5.218  26.258  55.712  1.00  0.00    -0.000 C 
BRANCH   7   8
ATOM      8  C   UNL     1      -4.584  27.535  56.295  1.00  0.00    -0.000 C 
BRANCH   8   9
ATOM      9  C   UNL     1      -3.986  27.364  57.705  1.00  0.00    -0.000 C 
BRANCH   9  10
ATOM     10  C   UNL     1      -3.176  28.590  58.186  1.00  0.00    -0.000 C 
BRANCH  10  11
ATOM     11  C   UNL     1      -1.893  28.224  58.948  1.00  0.00    -0.003 C 
ATOM     12  C   UNL     1      -0.860  29.351  58.935  1.00  0.00     0.004 C 
ENDBRANCH  10  11
ENDBRANCH   9  10
ENDBRANCH   8   9
ENDBRANCH   7   8
ENDBRANCH   6   7
ENDBRANCH   5   6
ENDBRANCH   4   5
ENDBRANCH   3   4
ENDBRANCH   2   3
ENDBRANCH   1   2
BRANCH   1  13
ATOM     13  C   UNL     1      -0.787  26.041  56.261  1.00  0.00     0.000 C 
BRANCH  13  14
ATOM     14  C   UNL     1      -0.617  26.313  54.759  1.00  0.00     0.000 C 
BRANCH  14  15
ATOM     15  C   UNL     1      -1.472  27.491  54.264  1.00  0.00     0.000 C 
BRANCH  15  16
ATOM     16  C   UNL     1      -1.147  28.806  55.009  1.00  0.00     0.000 C 
BRANCH  16  17
ATOM     17  C   UNL     1      -2.185  29.917  54.773  1.00  0.00     0.000 C 
BRANCH  17  18
ATOM     18  C   UNL     1      -2.096  31.107  55.751  1.00  0.00     0.000 C 
BRANCH  18  19
ATOM     19  C   UNL     1      -3.463  31.717  56.129  1.00  0.00     0.000 C 
BRANCH  19  20
ATOM     20  C   UNL     1      -4.613  31.210  55.248  1.00  0.00     0.006 C 
BRANCH  20  21
ATOM     21  C   UNL     1      -5.909  31.075  56.057  1.00  0.00     0.053 C 
BRANCH  21  22
ATOM     22  C   UNL     1      -7.089  31.570  55.276  1.00  0.00     0.041 C 
ATOM     23  O   UNL     1      -8.211  31.709  55.834  1.00  0.00    -0.550 OA
ATOM     24  O   UNL     1      -6.939  31.916  53.938  1.00  0.00    -0.550 OA
ENDBRANCH  21  22
ENDBRANCH  20  21
ENDBRANCH  19  20
ENDBRANCH  18  19
ENDBRANCH  17  18
ENDBRANCH  16  17
ENDBRANCH  15  16
ENDBRANCH  14  15
ENDBRANCH  13  14
ENDBRANCH   1  13
TORSDOF 20
ENDMDL
