MODEL 1
REMARK VINA RESULT:    -2.314      0.000      0.000
REMARK INTER + INTRA:          -2.314
REMARK INTER:                  -2.314
REMARK INTRA:                   0.000
REMARK UNBOUND:                 0.000
REMARK SMILES CC(=O)[O-]
REMARK SMILES IDX 1 1 2 2 3 3 4 4
REMARK H PARENT
REMARK Flexibility Score: inf
ROOT
ATOM      1  C   UNL     1     474.898  33.638 463.803  1.00  0.00     0.063 C 
ATOM      2  C   UNL     1     476.095  34.281 463.188  1.00  0.00     0.038 C 
ATOM      3  O   UNL     1     477.159  33.625 463.043  1.00  0.00    -0.550 OA
ATOM      4  O   UNL     1     476.056  35.621 462.824  1.00  0.00    -0.550 OA
ENDROOT
TORSDOF 0
ENDMDL
MODEL 2
REMARK VINA RESULT:    -2.283      0.120      1.624
REMARK INTER + INTRA:          -2.283
REMARK INTER:                  -2.283
REMARK INTRA:                   0.000
REMARK UNBOUND:                 0.000
REMARK SMILES CC(=O)[O-]
REMARK SMILES IDX 1 1 2 2 3 3 4 4
REMARK H PARENT
REMARK Flexibility Score: inf
ROOT
ATOM      1  C   UNL     1     474.902  33.809 463.867  1.00  0.00     0.063 C 
ATOM      2  C   UNL     1     476.100  34.392 463.199  1.00  0.00     0.038 C 
ATOM      3  O   UNL     1     476.075  35.579 462.781  1.00  0.00    -0.550 OA
ATOM      4  O   UNL     1     477.229  33.610 462.989  1.00  0.00    -0.550 OA
ENDROOT
TORSDOF 0
ENDMDL
MODEL 3
REMARK VINA RESULT:    -2.173      1.204      2.037
REMARK INTER + INTRA:          -2.173
REMARK INTER:                  -2.173
REMARK INTRA:                   0.000
REMARK UNBOUND:                 0.000
REMARK SMILES CC(=O)[O-]
REMARK SMILES IDX 1 1 2 2 3 3 4 4
REMARK H PARENT
REMARK Flexibility Score: inf
ROOT
ATOM      1  C   UNL     1     476.028  33.894 463.140  1.00  0.00     0.063 C 
ATOM      2  C   UNL     1     476.843  34.899 462.399  1.00  0.00     0.038 C 
ATOM      3  O   UNL     1     476.485  36.106 462.373  1.00  0.00    -0.550 OA
ATOM      4  O   UNL     1     477.968  34.497 461.691  1.00  0.00    -0.550 OA
ENDROOT
TORSDOF 0
ENDMDL
MODEL 4
REMARK VINA RESULT:    -2.145      1.707      2.847
REMARK INTER + INTRA:          -2.145
REMARK INTER:                  -2.145
REMARK INTRA:                   0.000
REMARK UNBOUND:                 0.000
REMARK SMILES CC(=O)[O-]
REMARK SMILES IDX 1 1 2 2 3 3 4 4
REMARK H PARENT
REMARK Flexibility Score: inf
ROOT
ATOM      1  C   UNL     1     478.176  34.983 461.161  1.00  0.00     0.063 C 
ATOM      2  C   UNL     1     477.189  34.849 462.270  1.00  0.00     0.038 C 
ATOM      3  O   UNL     1     476.382  35.785 462.513  1.00  0.00    -0.550 OA
ATOM      4  O   UNL     1     477.191  33.716 463.072  1.00  0.00    -0.550 OA
ENDROOT
TORSDOF 0
ENDMDL
MODEL 5
REMARK VINA RESULT:    -2.113      1.429      1.784
REMARK INTER + INTRA:          -2.113
REMARK INTER:                  -2.113
REMARK INTRA:                   0.000
REMARK UNBOUND:                 0.000
REMARK SMILES CC(=O)[O-]
REMARK SMILES IDX 1 1 2 2 3 3 4 4
REMARK H PARENT
REMARK Flexibility Score: inf
ROOT
ATOM      1  C   UNL     1     476.320  35.667 462.698  1.00  0.00     0.063 C 
ATOM      2  C   UNL     1     476.287  34.226 463.080  1.00  0.00     0.038 C 
ATOM      3  O   UNL     1     477.325  33.521 462.974  1.00  0.00    -0.550 OA
ATOM      4  O   UNL     1     475.100  33.645 463.503  1.00  0.00    -0.550 OA
ENDROOT
TORSDOF 0
ENDMDL
MODEL 6
REMARK VINA RESULT:    -2.085      2.221      2.483
REMARK INTER + INTRA:          -2.085
REMARK INTER:                  -2.085
REMARK INTRA:                   0.000
REMARK UNBOUND:                 0.000
REMARK SMILES CC(=O)[O-]
REMARK SMILES IDX 1 1 2 2 3 3 4 4
REMARK H PARENT
REMARK Flexibility Score: inf
ROOT
ATOM      1  C   UNL     1     476.748  36.028 462.320  1.00  0.00     0.063 C 
ATOM      2  C   UNL     1     477.498  34.767 462.054  1.00  0.00     0.038 C 
ATOM      3  O   UNL     1     477.281  33.744 462.754  1.00  0.00    -0.550 OA
ATOM      4  O   UNL     1     478.476  34.734 461.068  1.00  0.00    -0.550 OA
ENDROOT
TORSDOF 0
ENDMDL
MODEL 7
REMARK VINA RESULT:    -2.034      2.614      3.054
REMARK INTER + INTRA:          -2.034
REMARK INTER:                  -2.034
REMARK INTRA:                   0.000
REMARK UNBOUND:                 0.000
REMARK SMILES CC(=O)[O-]
REMARK SMILES IDX 1 1 2 2 3 3 4 4
REMARK H PARENT
REMARK Flexibility Score: inf
ROOT
ATOM      1  C   UNL     1     477.258  36.400 461.998  1.00  0.00     0.063 C 
ATOM      2  C   UNL     1     477.853  35.078 461.651  1.00  0.00     0.038 C 
ATOM      3  O   UNL     1     478.611  34.970 460.651  1.00  0.00    -0.550 OA
ATOM      4  O   UNL     1     477.531  33.951 462.396  1.00  0.00    -0.550 OA
ENDROOT
TORSDOF 0
ENDMDL
MODEL 8
REMARK VINA RESULT:    -2.013      3.005      3.548
REMARK INTER + INTRA:          -2.013
REMARK INTER:                  -2.013
REMARK INTRA:                   0.000
REMARK UNBOUND:                 0.000
REMARK SMILES CC(=O)[O-]
REMARK SMILES IDX 1 1 2 2 3 3 4 4
REMARK H PARENT
REMARK Flexibility Score: inf
ROOT
ATOM      1  C   UNL     1     477.848  36.643 461.517  1.00  0.00     0.063 C 
ATOM      2  C   UNL     1     478.189  35.218 461.240  1.00  0.00     0.038 C 
ATOM      3  O   UNL     1     477.719  34.304 461.967  1.00  0.00    -0.550 OA
ATOM      4  O   UNL     1     479.068  34.899 460.213  1.00  0.00    -0.550 OA
ENDROOT
TORSDOF 0
ENDMDL
