MODEL 1
REMARK VINA RESULT:    18.128      0.000      0.000
REMARK INTER + INTRA:          33.107
REMARK INTER:                  28.196
REMARK INTRA:                   4.911
REMARK UNBOUND:                 4.911
REMARK SMILES C=C(C)[C@H]1CC=C2C(=CC[C@@]3(C)[C@H]([C@H](CCC=C(C)C)C(=O)[O-])[C@@H](O)C[C@]23C)[C@]1(C)CCC(=O)[O-]
REMARK SMILES IDX 29 1 8 2 4 3 30 4 7 5 9 6 5 7 27 8 6 9 10 10 11 11 26 12
REMARK SMILES IDX 28 13 13 14 12 15 24 16 31 17 32 18 33 19 34 20 35 21 2 22
REMARK SMILES IDX 1 23 3 24 14 25 21 26 22 27 23 28 15 29 16 30 17 31 18 32
REMARK SMILES IDX 19 33 20 34 25 35
REMARK H PARENT 25 36
REMARK Flexibility Score: inf
ROOT
ATOM      1  C   UNL     1      50.712 -58.861 320.008  1.00  0.00    -0.000 C 
ATOM      2  C   UNL     1      49.772 -57.990 319.159  1.00  0.00    -0.042 C 
ATOM      3  C   UNL     1      52.190 -58.695 319.487  1.00  0.00     0.028 C 
ATOM      4  C   UNL     1      50.314 -60.364 319.944  1.00  0.00     0.017 C 
ATOM      5  C   UNL     1      50.282 -56.675 318.638  1.00  0.00    -0.042 C 
ATOM      6  C   UNL     1      48.444 -58.283 319.047  1.00  0.00    -0.022 C 
ATOM      7  C   UNL     1      52.616 -57.214 319.386  1.00  0.00     0.036 C 
ATOM      8  C   UNL     1      49.238 -55.668 318.190  1.00  0.00     0.001 C 
ATOM      9  C   UNL     1      51.574 -56.325 318.765  1.00  0.00    -0.022 C 
ATOM     10  C   UNL     1      47.434 -57.417 318.307  1.00  0.00     0.035 C 
ATOM     11  C   UNL     1      48.142 -56.414 317.366  1.00  0.00    -0.014 C 
ATOM     12  C   UNL     1      49.663 -54.551 317.225  1.00  0.00     0.044 C 
ATOM     13  C   UNL     1      48.725 -54.984 319.500  1.00  0.00     0.017 C 
ATOM     14  C   UNL     1      47.290 -55.230 316.816  1.00  0.00     0.034 C 
ATOM     15  C   UNL     1      48.738 -57.236 316.168  1.00  0.00     0.013 C 
ATOM     16  C   UNL     1      48.364 -54.150 316.483  1.00  0.00     0.119 C 
ENDROOT
BRANCH   1  17
ATOM     17  C   UNL     1      50.554 -58.349 321.481  1.00  0.00     0.018 C 
BRANCH  17  18
ATOM     18  C   UNL     1      50.255 -56.847 321.648  1.00  0.00     0.053 C 
BRANCH  18  19
ATOM     19  C   UNL     1      51.514 -56.103 321.967  1.00  0.00     0.041 C 
ATOM     20  O   UNL     1      51.505 -54.848 322.051  1.00  0.00    -0.550 OA
ATOM     21  O   UNL     1      52.709 -56.795 322.120  1.00  0.00    -0.550 OA
ENDBRANCH  18  19
ENDBRANCH  17  18
ENDBRANCH   1  17
BRANCH   3  22
ATOM     22  C   UNL     1      52.500 -59.480 318.200  1.00  0.00    -0.076 C 
ATOM     23  C   UNL     1      52.041 -59.110 316.993  1.00  0.00     0.008 C 
ATOM     24  C   UNL     1      53.378 -60.706 318.266  1.00  0.00     0.039 C 
ENDBRANCH   3  22
BRANCH  14  25
ATOM     25  C   UNL     1      46.337 -55.527 315.607  1.00  0.00     0.042 C 
BRANCH  25  26
ATOM     26  C   UNL     1      46.405 -54.453 314.550  1.00  0.00     0.045 C 
ATOM     27  O   UNL     1      47.502 -53.910 314.248  1.00  0.00    -0.550 OA
ATOM     28  O   UNL     1      45.252 -54.081 313.869  1.00  0.00    -0.550 OA
ENDBRANCH  25  26
BRANCH  25  29
ATOM     29  C   UNL     1      46.551 -56.924 314.964  1.00  0.00     0.014 C 
BRANCH  29  30
ATOM     30  C   UNL     1      47.193 -56.910 313.565  1.00  0.00     0.028 C 
BRANCH  30  31
ATOM     31  C   UNL     1      48.680 -57.158 313.650  1.00  0.00    -0.028 C 
ATOM     32  C   UNL     1      49.308 -58.115 312.935  1.00  0.00    -0.080 C 
ATOM     33  C   UNL     1      50.796 -58.281 313.099  1.00  0.00     0.039 C 
ATOM     34  C   UNL     1      48.553 -59.015 311.985  1.00  0.00     0.039 C 
ENDBRANCH  30  31
ENDBRANCH  29  30
ENDBRANCH  25  29
ENDBRANCH  14  25
BRANCH  16  35
ATOM     35  O   UNL     1      47.922 -52.887 316.909  1.00  0.00    -0.393 OA
ATOM     36  H   UNL     1      48.675 -52.477 317.411  1.00  0.00     0.210 HD
ENDBRANCH  16  35
TORSDOF 10
ENDMDL
MODEL 2
REMARK VINA RESULT:    18.551      1.560      2.286
REMARK INTER + INTRA:          33.765
REMARK INTER:                  34.582
REMARK INTRA:                  -0.817
REMARK UNBOUND:                 4.911
REMARK SMILES C=C(C)[C@H]1CC=C2C(=CC[C@@]3(C)[C@H]([C@H](CCC=C(C)C)C(=O)[O-])[C@@H](O)C[C@]23C)[C@]1(C)CCC(=O)[O-]
REMARK SMILES IDX 29 1 8 2 4 3 30 4 7 5 9 6 5 7 27 8 6 9 10 10 11 11 26 12
REMARK SMILES IDX 28 13 13 14 12 15 24 16 31 17 32 18 33 19 34 20 35 21 2 22
REMARK SMILES IDX 1 23 3 24 14 25 21 26 22 27 23 28 15 29 16 30 17 31 18 32
REMARK SMILES IDX 19 33 20 34 25 35
REMARK H PARENT 25 36
REMARK Flexibility Score: inf
ROOT
ATOM      1  C   UNL     1      50.774 -58.927 320.822  1.00  0.00    -0.000 C 
ATOM      2  C   UNL     1      49.861 -57.932 320.087  1.00  0.00    -0.042 C 
ATOM      3  C   UNL     1      51.569 -59.785 319.766  1.00  0.00     0.028 C 
ATOM      4  C   UNL     1      49.959 -59.880 321.744  1.00  0.00     0.017 C 
ATOM      5  C   UNL     1      50.334 -57.342 318.787  1.00  0.00    -0.042 C 
ATOM      6  C   UNL     1      48.742 -57.425 320.682  1.00  0.00    -0.022 C 
ATOM      7  C   UNL     1      52.294 -58.908 318.721  1.00  0.00     0.036 C 
ATOM      8  C   UNL     1      49.637 -56.079 318.317  1.00  0.00     0.001 C 
ATOM      9  C   UNL     1      51.454 -57.782 318.186  1.00  0.00    -0.022 C 
ATOM     10  C   UNL     1      47.844 -56.366 320.059  1.00  0.00     0.035 C 
ATOM     11  C   UNL     1      48.100 -56.241 318.539  1.00  0.00    -0.014 C 
ATOM     12  C   UNL     1      49.712 -55.709 316.829  1.00  0.00     0.044 C 
ATOM     13  C   UNL     1      50.297 -54.911 319.123  1.00  0.00     0.017 C 
ATOM     14  C   UNL     1      47.535 -54.977 317.822  1.00  0.00     0.034 C 
ATOM     15  C   UNL     1      47.523 -57.534 317.859  1.00  0.00     0.013 C 
ATOM     16  C   UNL     1      48.453 -54.845 316.569  1.00  0.00     0.119 C 
ENDROOT
BRANCH   1  17
ATOM     17  C   UNL     1      51.734 -58.054 321.702  1.00  0.00     0.018 C 
BRANCH  17  18
ATOM     18  C   UNL     1      51.203 -56.667 322.114  1.00  0.00     0.053 C 
BRANCH  18  19
ATOM     19  C   UNL     1      52.134 -55.597 321.637  1.00  0.00     0.041 C 
ATOM     20  O   UNL     1      52.071 -54.439 322.125  1.00  0.00    -0.550 OA
ATOM     21  O   UNL     1      53.036 -55.866 320.616  1.00  0.00    -0.550 OA
ENDBRANCH  18  19
ENDBRANCH  17  18
ENDBRANCH   1  17
BRANCH   3  22
ATOM     22  C   UNL     1      50.744 -60.908 319.111  1.00  0.00    -0.076 C 
ATOM     23  C   UNL     1      49.405 -60.861 319.006  1.00  0.00     0.008 C 
ATOM     24  C   UNL     1      51.448 -62.110 318.532  1.00  0.00     0.039 C 
ENDBRANCH   3  22
BRANCH  14  25
ATOM     25  C   UNL     1      46.011 -54.975 317.457  1.00  0.00     0.042 C 
BRANCH  25  26
ATOM     26  C   UNL     1      45.224 -53.996 318.293  1.00  0.00     0.045 C 
ATOM     27  O   UNL     1      45.788 -53.311 319.188  1.00  0.00    -0.550 OA
ATOM     28  O   UNL     1      43.868 -53.816 318.050  1.00  0.00    -0.550 OA
ENDBRANCH  25  26
BRANCH  25  29
ATOM     29  C   UNL     1      45.725 -54.741 315.949  1.00  0.00     0.014 C 
BRANCH  29  30
ATOM     30  C   UNL     1      45.260 -55.985 315.170  1.00  0.00     0.028 C 
BRANCH  30  31
ATOM     31  C   UNL     1      46.434 -56.851 314.784  1.00  0.00    -0.028 C 
ATOM     32  C   UNL     1      47.045 -56.772 313.583  1.00  0.00    -0.080 C 
ATOM     33  C   UNL     1      48.207 -57.688 313.300  1.00  0.00     0.039 C 
ATOM     34  C   UNL     1      46.588 -55.792 312.528  1.00  0.00     0.039 C 
ENDBRANCH  30  31
ENDBRANCH  29  30
ENDBRANCH  25  29
ENDBRANCH  14  25
BRANCH  16  35
ATOM     35  O   UNL     1      48.809 -53.501 316.374  1.00  0.00    -0.393 OA
ATOM     36  H   UNL     1      48.657 -53.038 317.239  1.00  0.00     0.210 HD
ENDBRANCH  16  35
TORSDOF 10
ENDMDL
MODEL 3
REMARK VINA RESULT:    19.016      1.644      7.306
REMARK INTER + INTRA:          34.487
REMARK INTER:                  32.380
REMARK INTRA:                   2.107
REMARK UNBOUND:                 4.911
REMARK SMILES C=C(C)[C@H]1CC=C2C(=CC[C@@]3(C)[C@H]([C@H](CCC=C(C)C)C(=O)[O-])[C@@H](O)C[C@]23C)[C@]1(C)CCC(=O)[O-]
REMARK SMILES IDX 29 1 8 2 4 3 30 4 7 5 9 6 5 7 27 8 6 9 10 10 11 11 26 12
REMARK SMILES IDX 28 13 13 14 12 15 24 16 31 17 32 18 33 19 34 20 35 21 2 22
REMARK SMILES IDX 1 23 3 24 14 25 21 26 22 27 23 28 15 29 16 30 17 31 18 32
REMARK SMILES IDX 19 33 20 34 25 35
REMARK H PARENT 25 36
REMARK Flexibility Score: inf
ROOT
ATOM      1  C   UNL     1      47.174 -55.082 314.556  1.00  0.00    -0.000 C 
ATOM      2  C   UNL     1      48.007 -55.208 315.841  1.00  0.00    -0.042 C 
ATOM      3  C   UNL     1      46.715 -56.515 314.088  1.00  0.00     0.028 C 
ATOM      4  C   UNL     1      47.985 -54.407 313.411  1.00  0.00     0.017 C 
ATOM      5  C   UNL     1      47.651 -56.283 316.830  1.00  0.00    -0.042 C 
ATOM      6  C   UNL     1      48.914 -54.251 316.194  1.00  0.00    -0.022 C 
ATOM      7  C   UNL     1      46.024 -57.309 315.219  1.00  0.00     0.036 C 
ATOM      8  C   UNL     1      48.186 -56.118 318.241  1.00  0.00     0.001 C 
ATOM      9  C   UNL     1      46.732 -57.222 316.542  1.00  0.00    -0.022 C 
ATOM     10  C   UNL     1      49.704 -54.256 317.495  1.00  0.00     0.035 C 
ATOM     11  C   UNL     1      49.673 -55.651 318.162  1.00  0.00    -0.014 C 
ATOM     12  C   UNL     1      48.283 -57.360 319.139  1.00  0.00     0.044 C 
ATOM     13  C   UNL     1      47.216 -55.109 318.941  1.00  0.00     0.017 C 
ATOM     14  C   UNL     1      50.118 -55.738 319.654  1.00  0.00     0.034 C 
ATOM     15  C   UNL     1      50.563 -56.607 317.290  1.00  0.00     0.013 C 
ATOM     16  C   UNL     1      49.401 -57.027 320.159  1.00  0.00     0.119 C 
ENDROOT
BRANCH   1  17
ATOM     17  C   UNL     1      45.953 -54.172 314.927  1.00  0.00     0.018 C 
BRANCH  17  18
ATOM     18  C   UNL     1      44.612 -54.532 314.259  1.00  0.00     0.053 C 
BRANCH  18  19
ATOM     19  C   UNL     1      44.672 -54.240 312.793  1.00  0.00     0.041 C 
ATOM     20  O   UNL     1      44.900 -55.166 311.970  1.00  0.00    -0.550 OA
ATOM     21  O   UNL     1      44.528 -52.936 312.338  1.00  0.00    -0.550 OA
ENDBRANCH  18  19
ENDBRANCH  17  18
ENDBRANCH   1  17
BRANCH   3  22
ATOM     22  C   UNL     1      47.813 -57.335 313.388  1.00  0.00    -0.076 C 
ATOM     23  C   UNL     1      47.556 -58.465 312.708  1.00  0.00     0.008 C 
ATOM     24  C   UNL     1      49.244 -56.857 313.430  1.00  0.00     0.039 C 
ENDBRANCH   3  22
BRANCH  14  25
ATOM     25  C   UNL     1      51.658 -55.751 319.949  1.00  0.00     0.042 C 
BRANCH  25  26
ATOM     26  C   UNL     1      51.959 -55.599 321.419  1.00  0.00     0.045 C 
ATOM     27  O   UNL     1      52.257 -56.599 322.124  1.00  0.00    -0.550 OA
ATOM     28  O   UNL     1      51.948 -54.336 321.998  1.00  0.00    -0.550 OA
ENDBRANCH  25  26
BRANCH  25  29
ATOM     29  C   UNL     1      52.399 -56.989 319.376  1.00  0.00     0.014 C 
BRANCH  29  30
ATOM     30  C   UNL     1      51.655 -58.328 319.532  1.00  0.00     0.028 C 
BRANCH  30  31
ATOM     31  C   UNL     1      52.145 -59.339 318.524  1.00  0.00    -0.028 C 
ATOM     32  C   UNL     1      51.777 -60.638 318.545  1.00  0.00    -0.080 C 
ATOM     33  C   UNL     1      52.329 -61.565 317.494  1.00  0.00     0.039 C 
ATOM     34  C   UNL     1      50.831 -61.173 319.595  1.00  0.00     0.039 C 
ENDBRANCH  30  31
ENDBRANCH  29  30
ENDBRANCH  25  29
ENDBRANCH  14  25
BRANCH  16  35
ATOM     35  O   UNL     1      48.853 -56.804 321.433  1.00  0.00    -0.393 OA
ATOM     36  H   UNL     1      48.050 -56.234 321.302  1.00  0.00     0.210 HD
ENDBRANCH  16  35
TORSDOF 10
ENDMDL
MODEL 4
REMARK VINA RESULT:    20.720      1.891      6.820
REMARK INTER + INTRA:          37.138
REMARK INTER:                  35.630
REMARK INTRA:                   1.508
REMARK UNBOUND:                 4.911
REMARK SMILES C=C(C)[C@H]1CC=C2C(=CC[C@@]3(C)[C@H]([C@H](CCC=C(C)C)C(=O)[O-])[C@@H](O)C[C@]23C)[C@]1(C)CCC(=O)[O-]
REMARK SMILES IDX 29 1 8 2 4 3 30 4 7 5 9 6 5 7 27 8 6 9 10 10 11 11 26 12
REMARK SMILES IDX 28 13 13 14 12 15 24 16 31 17 32 18 33 19 34 20 35 21 2 22
REMARK SMILES IDX 1 23 3 24 14 25 21 26 22 27 23 28 15 29 16 30 17 31 18 32
REMARK SMILES IDX 19 33 20 34 25 35
REMARK H PARENT 25 36
REMARK Flexibility Score: inf
ROOT
ATOM      1  C   UNL     1      47.001 -54.760 315.736  1.00  0.00    -0.000 C 
ATOM      2  C   UNL     1      48.001 -55.170 316.829  1.00  0.00    -0.042 C 
ATOM      3  C   UNL     1      46.550 -56.041 314.935  1.00  0.00     0.028 C 
ATOM      4  C   UNL     1      47.624 -53.734 314.745  1.00  0.00     0.017 C 
ATOM      5  C   UNL     1      47.826 -56.501 317.506  1.00  0.00    -0.042 C 
ATOM      6  C   UNL     1      48.902 -54.278 317.334  1.00  0.00    -0.022 C 
ATOM      7  C   UNL     1      46.049 -57.169 315.865  1.00  0.00     0.036 C 
ATOM      8  C   UNL     1      48.534 -56.689 318.835  1.00  0.00     0.001 C 
ATOM      9  C   UNL     1      46.920 -57.394 317.069  1.00  0.00    -0.022 C 
ATOM     10  C   UNL     1      49.856 -54.579 318.482  1.00  0.00     0.035 C 
ATOM     11  C   UNL     1      49.975 -56.101 318.724  1.00  0.00    -0.014 C 
ATOM     12  C   UNL     1      48.804 -58.119 319.326  1.00  0.00     0.044 C 
ATOM     13  C   UNL     1      47.620 -55.994 319.898  1.00  0.00     0.017 C 
ATOM     14  C   UNL     1      50.616 -56.561 320.069  1.00  0.00     0.034 C 
ATOM     15  C   UNL     1      50.785 -56.705 317.521  1.00  0.00     0.013 C 
ATOM     16  C   UNL     1      50.030 -57.992 320.266  1.00  0.00     0.119 C 
ENDROOT
BRANCH   1  17
ATOM     17  C   UNL     1      45.800 -54.090 316.486  1.00  0.00     0.018 C 
BRANCH  17  18
ATOM     18  C   UNL     1      45.749 -54.302 318.011  1.00  0.00     0.053 C 
BRANCH  18  19
ATOM     19  C   UNL     1      44.859 -53.278 318.644  1.00  0.00     0.041 C 
ATOM     20  O   UNL     1      45.284 -52.569 319.593  1.00  0.00    -0.550 OA
ATOM     21  O   UNL     1      43.544 -53.143 318.219  1.00  0.00    -0.550 OA
ENDBRANCH  18  19
ENDBRANCH  17  18
ENDBRANCH   1  17
BRANCH   3  22
ATOM     22  C   UNL     1      47.581 -56.545 313.911  1.00  0.00    -0.076 C 
ATOM     23  C   UNL     1      48.741 -57.120 314.269  1.00  0.00     0.008 C 
ATOM     24  C   UNL     1      47.289 -56.425 312.436  1.00  0.00     0.039 C 
ENDBRANCH   3  22
BRANCH  14  25
ATOM     25  C   UNL     1      52.180 -56.531 320.171  1.00  0.00     0.042 C 
BRANCH  25  26
ATOM     26  C   UNL     1      52.655 -56.003 321.502  1.00  0.00     0.045 C 
ATOM     27  O   UNL     1      53.593 -56.569 322.125  1.00  0.00    -0.550 OA
ATOM     28  O   UNL     1      52.081 -54.854 322.033  1.00  0.00    -0.550 OA
ENDBRANCH  25  26
BRANCH  25  29
ATOM     29  C   UNL     1      52.858 -57.894 319.864  1.00  0.00     0.014 C 
BRANCH  29  30
ATOM     30  C   UNL     1      52.071 -58.817 318.916  1.00  0.00     0.028 C 
BRANCH  30  31
ATOM     31  C   UNL     1      53.006 -59.692 318.115  1.00  0.00    -0.028 C 
ATOM     32  C   UNL     1      52.734 -60.980 317.816  1.00  0.00    -0.080 C 
ATOM     33  C   UNL     1      53.739 -61.765 317.014  1.00  0.00     0.039 C 
ATOM     34  C   UNL     1      51.453 -61.641 318.267  1.00  0.00     0.039 C 
ENDBRANCH  30  31
ENDBRANCH  29  30
ENDBRANCH  25  29
ENDBRANCH  14  25
BRANCH  16  35
ATOM     35  O   UNL     1      49.645 -58.174 321.604  1.00  0.00    -0.393 OA
ATOM     36  H   UNL     1      48.698 -58.473 321.590  1.00  0.00     0.210 HD
ENDBRANCH  16  35
TORSDOF 10
ENDMDL
MODEL 5
REMARK VINA RESULT:    20.836      2.164      3.567
REMARK INTER + INTRA:          37.319
REMARK INTER:                  32.649
REMARK INTRA:                   4.670
REMARK UNBOUND:                 4.911
REMARK SMILES C=C(C)[C@H]1CC=C2C(=CC[C@@]3(C)[C@H]([C@H](CCC=C(C)C)C(=O)[O-])[C@@H](O)C[C@]23C)[C@]1(C)CCC(=O)[O-]
REMARK SMILES IDX 29 1 8 2 4 3 30 4 7 5 9 6 5 7 27 8 6 9 10 10 11 11 26 12
REMARK SMILES IDX 28 13 13 14 12 15 24 16 31 17 32 18 33 19 34 20 35 21 2 22
REMARK SMILES IDX 1 23 3 24 14 25 21 26 22 27 23 28 15 29 16 30 17 31 18 32
REMARK SMILES IDX 19 33 20 34 25 35
REMARK H PARENT 25 36
REMARK Flexibility Score: inf
ROOT
ATOM      1  C   UNL     1      50.918 -58.051 319.515  1.00  0.00    -0.000 C 
ATOM      2  C   UNL     1      49.896 -57.286 318.659  1.00  0.00    -0.042 C 
ATOM      3  C   UNL     1      51.121 -57.297 320.884  1.00  0.00     0.028 C 
ATOM      4  C   UNL     1      52.292 -58.176 318.793  1.00  0.00     0.017 C 
ATOM      5  C   UNL     1      48.760 -56.583 319.348  1.00  0.00    -0.042 C 
ATOM      6  C   UNL     1      49.882 -57.404 317.299  1.00  0.00    -0.022 C 
ATOM      7  C   UNL     1      49.783 -57.006 321.599  1.00  0.00     0.036 C 
ATOM      8  C   UNL     1      47.563 -56.217 318.489  1.00  0.00     0.001 C 
ATOM      9  C   UNL     1      48.710 -56.480 320.688  1.00  0.00    -0.022 C 
ATOM     10  C   UNL     1      48.844 -56.758 316.393  1.00  0.00     0.035 C 
ATOM     11  C   UNL     1      48.076 -55.638 317.133  1.00  0.00    -0.014 C 
ATOM     12  C   UNL     1      46.620 -55.107 318.979  1.00  0.00     0.044 C 
ATOM     13  C   UNL     1      46.718 -57.528 318.367  1.00  0.00     0.017 C 
ATOM     14  C   UNL     1      46.756 -55.127 316.480  1.00  0.00     0.034 C 
ATOM     15  C   UNL     1      49.069 -54.437 317.324  1.00  0.00     0.013 C 
ATOM     16  C   UNL     1      45.968 -54.542 317.692  1.00  0.00     0.119 C 
ENDROOT
BRANCH   1  17
ATOM     17  C   UNL     1      50.314 -59.482 319.723  1.00  0.00     0.018 C 
BRANCH  17  18
ATOM     18  C   UNL     1      51.305 -60.658 319.625  1.00  0.00     0.053 C 
BRANCH  18  19
ATOM     19  C   UNL     1      50.925 -61.558 318.492  1.00  0.00     0.041 C 
ATOM     20  O   UNL     1      49.795 -62.112 318.473  1.00  0.00    -0.550 OA
ATOM     21  O   UNL     1      51.840 -61.826 317.482  1.00  0.00    -0.550 OA
ENDBRANCH  18  19
ENDBRANCH  17  18
ENDBRANCH   1  17
BRANCH   3  22
ATOM     22  C   UNL     1      52.017 -56.048 320.793  1.00  0.00    -0.076 C 
ATOM     23  C   UNL     1      52.955 -55.757 321.709  1.00  0.00     0.008 C 
ATOM     24  C   UNL     1      51.871 -55.109 319.621  1.00  0.00     0.039 C 
ENDBRANCH   3  22
BRANCH  14  25
ATOM     25  C   UNL     1      46.883 -54.108 315.296  1.00  0.00     0.042 C 
BRANCH  25  26
ATOM     26  C   UNL     1      48.295 -53.604 315.125  1.00  0.00     0.045 C 
ATOM     27  O   UNL     1      49.030 -53.391 316.126  1.00  0.00    -0.550 OA
ATOM     28  O   UNL     1      48.808 -53.409 313.849  1.00  0.00    -0.550 OA
ENDBRANCH  25  26
BRANCH  25  29
ATOM     29  C   UNL     1      46.339 -54.643 313.943  1.00  0.00     0.014 C 
BRANCH  29  30
ATOM     30  C   UNL     1      45.658 -56.021 314.011  1.00  0.00     0.028 C 
BRANCH  30  31
ATOM     31  C   UNL     1      46.680 -57.132 313.973  1.00  0.00    -0.028 C 
ATOM     32  C   UNL     1      47.647 -57.211 313.034  1.00  0.00    -0.080 C 
ATOM     33  C   UNL     1      48.614 -58.365 313.086  1.00  0.00     0.039 C 
ATOM     34  C   UNL     1      47.775 -56.173 311.943  1.00  0.00     0.039 C 
ENDBRANCH  30  31
ENDBRANCH  29  30
ENDBRANCH  25  29
ENDBRANCH  14  25
BRANCH  16  35
ATOM     35  O   UNL     1      44.618 -54.923 317.616  1.00  0.00    -0.393 OA
ATOM     36  H   UNL     1      44.487 -55.643 318.287  1.00  0.00     0.210 HD
ENDBRANCH  16  35
TORSDOF 10
ENDMDL
