MODEL 1
REMARK VINA RESULT:    -2.941      0.000      0.000
REMARK INTER + INTRA:          -2.885
REMARK INTER:                  -3.628
REMARK INTRA:                   0.743
REMARK UNBOUND:                 0.743
REMARK SMILES CC1=CC=CC(C)(C)CC1=O
REMARK SMILES IDX 1 1 2 2 3 3 10 4 11 5 9 6 4 8 5 9 6 10 7 11 8 12
REMARK H PARENT
REMARK Flexibility Score: 80.00
ROOT
ATOM      1  C   UNL     1       2.782 -24.303 -46.528  1.00  0.00     0.048 C 
ATOM      2  C   UNL     1       1.424 -24.687 -45.991  1.00  0.00    -0.008 C 
ATOM      3  C   UNL     1       0.570 -23.691 -45.677  1.00  0.00     0.007 C 
ENDROOT
BRANCH   2   4
ATOM      4  C   UNL     1       1.111 -26.137 -45.923  1.00  0.00     0.159 C 
ATOM      5  O   UNL     1       1.877 -26.954 -46.505  1.00  0.00    -0.295 OA
BRANCH   4   6
ATOM      6  C   UNL     1      -0.068 -26.694 -45.185  1.00  0.00     0.091 CG0
ATOM      7  G   UNL     1      -1.421 -26.159 -45.706  1.00  0.00     0.000 G0
ENDBRANCH   4   6
ENDBRANCH   2   4
BRANCH   3   8
ATOM      8  C   UNL     1      -0.819 -23.754 -45.162  1.00  0.00    -0.003 C 
ATOM      9  C   UNL     1      -1.677 -24.781 -45.175  1.00  0.00    -0.020 C 
BRANCH   9  10
ATOM     10  C   UNL     1      -1.412 -26.167 -45.713  1.00  0.00    -0.010 CG0
ATOM     11  C   UNL     1      -2.511 -27.113 -45.179  1.00  0.00     0.016 C 
ATOM     12  C   UNL     1      -1.496 -26.160 -47.257  1.00  0.00     0.016 C 
ATOM     13  G   UNL     1      -0.048 -26.674 -45.193  1.00  0.00     0.000 G0
ENDBRANCH   9  10
ENDBRANCH   3   8
TORSDOF 0
ENDMDL
MODEL 2
REMARK VINA RESULT:    -2.928     15.504     16.971
REMARK INTER + INTRA:          -2.869
REMARK INTER:                  -3.614
REMARK INTRA:                   0.745
REMARK UNBOUND:                 0.743
REMARK SMILES CC1=CC=CC(C)(C)CC1=O
REMARK SMILES IDX 1 1 2 2 3 3 10 4 11 5 9 6 4 8 5 9 6 10 7 11 8 12
REMARK H PARENT
REMARK Flexibility Score: 80.00
ROOT
ATOM      1  C   UNL     1      -3.780  -7.741 -40.867  1.00  0.00     0.048 C 
ATOM      2  C   UNL     1      -2.442  -8.414 -41.058  1.00  0.00    -0.008 C 
ATOM      3  C   UNL     1      -1.747  -8.751 -39.952  1.00  0.00     0.007 C 
ENDROOT
BRANCH   2   4
ATOM      4  C   UNL     1      -2.033  -8.720 -42.453  1.00  0.00     0.159 C 
ATOM      5  O   UNL     1      -2.883  -8.600 -43.377  1.00  0.00    -0.295 OA
BRANCH   4   6
ATOM      6  C   UNL     1      -0.650  -9.155 -42.832  1.00  0.00     0.091 CG0
ATOM      7  G   UNL     1      -0.213 -10.466 -42.141  1.00  0.00     0.000 G0
ENDBRANCH   4   6
ENDBRANCH   2   4
BRANCH   3   8
ATOM      8  C   UNL     1      -0.438  -9.435 -39.821  1.00  0.00    -0.003 C 
ATOM      9  C   UNL     1       0.224 -10.170 -40.723  1.00  0.00    -0.020 C 
BRANCH   9  10
ATOM     10  C   UNL     1      -0.214 -10.462 -42.139  1.00  0.00    -0.010 CG0
ATOM     11  C   UNL     1       1.000 -11.019 -42.916  1.00  0.00     0.016 C 
ATOM     12  C   UNL     1      -1.319 -11.543 -42.138  1.00  0.00     0.016 C 
ATOM     13  G   UNL     1      -0.663  -9.152 -42.825  1.00  0.00     0.000 G0
ENDBRANCH   9  10
ENDBRANCH   3   8
TORSDOF 0
ENDMDL
MODEL 3
REMARK VINA RESULT:    -2.857      2.000      3.525
REMARK INTER + INTRA:          -2.782
REMARK INTER:                  -3.547
REMARK INTRA:                   0.766
REMARK UNBOUND:                 0.743
REMARK SMILES CC1=CC=CC(C)(C)CC1=O
REMARK SMILES IDX 1 1 2 2 3 3 10 4 11 5 9 6 4 8 5 9 6 10 7 11 8 12
REMARK H PARENT
REMARK Flexibility Score: 80.00
ROOT
ATOM      1  C   UNL     1      -1.455 -25.095 -47.236  1.00  0.00     0.048 C 
ATOM      2  C   UNL     1      -0.343 -24.623 -46.329  1.00  0.00    -0.008 C 
ATOM      3  C   UNL     1      -0.651 -23.711 -45.383  1.00  0.00     0.007 C 
ENDROOT
BRANCH   2   4
ATOM      4  C   UNL     1       0.987 -25.259 -46.505  1.00  0.00     0.159 C 
ATOM      5  O   UNL     1       1.082 -26.279 -47.241  1.00  0.00    -0.295 OA
BRANCH   4   6
ATOM      6  C   UNL     1       2.240 -24.746 -45.862  1.00  0.00     0.091 CG0
ATOM      7  G   UNL     1       2.161 -24.707 -44.320  1.00  0.00     0.000 G0
ENDBRANCH   4   6
ENDBRANCH   2   4
BRANCH   3   8
ATOM      8  C   UNL     1       0.206 -23.088 -44.346  1.00  0.00    -0.003 C 
ATOM      9  C   UNL     1       1.390 -23.496 -43.874  1.00  0.00    -0.020 C 
BRANCH   9  10
ATOM     10  C   UNL     1       2.164 -24.714 -44.320  1.00  0.00    -0.010 CG0
ATOM     11  C   UNL     1       3.605 -24.600 -43.773  1.00  0.00     0.016 C 
ATOM     12  C   UNL     1       1.527 -25.992 -43.728  1.00  0.00     0.016 C 
ATOM     13  G   UNL     1       2.238 -24.746 -45.864  1.00  0.00     0.000 G0
ENDBRANCH   9  10
ENDBRANCH   3   8
TORSDOF 0
ENDMDL
MODEL 4
REMARK VINA RESULT:    -2.810     15.102     16.163
REMARK INTER + INTRA:          -2.724
REMARK INTER:                  -3.463
REMARK INTRA:                   0.739
REMARK UNBOUND:                 0.743
REMARK SMILES CC1=CC=CC(C)(C)CC1=O
REMARK SMILES IDX 1 1 2 2 3 3 10 4 11 5 9 6 4 8 5 9 6 10 7 11 8 12
REMARK H PARENT
REMARK Flexibility Score: 80.00
ROOT
ATOM      1  C   UNL     1       2.682 -11.311 -42.227  1.00  0.00     0.048 C 
ATOM      2  C   UNL     1       1.249 -11.154 -41.775  1.00  0.00    -0.008 C 
ATOM      3  C   UNL     1       0.774 -12.045 -40.879  1.00  0.00     0.007 C 
ENDROOT
BRANCH   2   4
ATOM      4  C   UNL     1       0.501  -9.984 -42.298  1.00  0.00     0.159 C 
ATOM      5  O   UNL     1       1.133  -9.082 -42.914  1.00  0.00    -0.295 OA
BRANCH   4   6
ATOM      6  C   UNL     1      -0.980  -9.815 -42.148  1.00  0.00     0.091 CG0
ATOM      7  G   UNL     1      -1.442  -9.770 -40.674  1.00  0.00     0.000 G0
ENDBRANCH   4   6
ENDBRANCH   2   4
BRANCH   3   8
ATOM      8  C   UNL     1      -0.560 -12.132 -40.239  1.00  0.00    -0.003 C 
ATOM      9  C   UNL     1      -1.508 -11.193 -40.133  1.00  0.00    -0.020 C 
BRANCH   9  10
ATOM     10  C   UNL     1      -1.445  -9.787 -40.683  1.00  0.00    -0.010 CG0
ATOM     11  C   UNL     1      -2.872  -9.195 -40.666  1.00  0.00     0.016 C 
ATOM     12  C   UNL     1      -0.551  -8.906 -39.780  1.00  0.00     0.016 C 
ATOM     13  G   UNL     1      -0.958  -9.823 -42.149  1.00  0.00     0.000 G0
ENDBRANCH   9  10
ENDBRANCH   3   8
TORSDOF 0
ENDMDL
MODEL 5
REMARK VINA RESULT:    -2.797     14.239     15.039
REMARK INTER + INTRA:          -2.708
REMARK INTER:                  -3.458
REMARK INTRA:                   0.750
REMARK UNBOUND:                 0.743
REMARK SMILES CC1=CC=CC(C)(C)CC1=O
REMARK SMILES IDX 1 1 2 2 3 3 10 4 11 5 9 6 4 8 5 9 6 10 7 11 8 12
REMARK H PARENT
REMARK Flexibility Score: 80.00
ROOT
ATOM      1  C   UNL     1       2.306 -10.027 -44.893  1.00  0.00     0.048 C 
ATOM      2  C   UNL     1       1.664 -10.262 -43.546  1.00  0.00    -0.008 C 
ATOM      3  C   UNL     1       1.156  -9.191 -42.899  1.00  0.00     0.007 C 
ENDROOT
BRANCH   2   4
ATOM      4  C   UNL     1       1.577 -11.667 -43.076  1.00  0.00     0.159 C 
ATOM      5  O   UNL     1       1.853 -12.598 -43.882  1.00  0.00    -0.295 OA
BRANCH   4   6
ATOM      6  C   UNL     1       1.188 -12.049 -41.680  1.00  0.00     0.091 CG0
ATOM      7  G   UNL     1      -0.212 -11.537 -41.276  1.00  0.00     0.000 G0
ENDBRANCH   4   6
ENDBRANCH   2   4
BRANCH   3   8
ATOM      8  C   UNL     1       0.454  -9.112 -41.596  1.00  0.00    -0.003 C 
ATOM      9  C   UNL     1      -0.140 -10.086 -40.897  1.00  0.00    -0.020 C 
BRANCH   9  10
ATOM     10  C   UNL     1      -0.214 -11.546 -41.276  1.00  0.00    -0.010 CG0
ATOM     11  C   UNL     1      -0.656 -12.348 -40.030  1.00  0.00     0.016 C 
ATOM     12  C   UNL     1      -1.277 -11.753 -42.379  1.00  0.00     0.016 C 
ATOM     13  G   UNL     1       1.187 -12.046 -41.696  1.00  0.00     0.000 G0
ENDBRANCH   9  10
ENDBRANCH   3   8
TORSDOF 0
ENDMDL
MODEL 6
REMARK VINA RESULT:    -2.748     14.586     15.969
REMARK INTER + INTRA:          -2.648
REMARK INTER:                  -3.399
REMARK INTRA:                   0.751
REMARK UNBOUND:                 0.743
REMARK SMILES CC1=CC=CC(C)(C)CC1=O
REMARK SMILES IDX 1 1 2 2 3 3 10 4 11 5 9 6 4 8 5 9 6 10 7 11 8 12
REMARK H PARENT
REMARK Flexibility Score: 80.00
ROOT
ATOM      1  C   UNL     1      -5.173 -11.712 -42.711  1.00  0.00     0.048 C 
ATOM      2  C   UNL     1      -3.826 -11.031 -42.681  1.00  0.00    -0.008 C 
ATOM      3  C   UNL     1      -3.778  -9.722 -43.008  1.00  0.00     0.007 C 
ENDROOT
BRANCH   2   4
ATOM      4  C   UNL     1      -2.670 -11.840 -42.218  1.00  0.00     0.159 C 
ATOM      5  O   UNL     1      -2.887 -12.969 -41.697  1.00  0.00    -0.295 OA
BRANCH   4   6
ATOM      6  C   UNL     1      -1.245 -11.396 -42.348  1.00  0.00     0.091 CG0
ATOM      7  G   UNL     1      -0.947 -10.078 -41.598  1.00  0.00     0.000 G0
ENDBRANCH   4   6
ENDBRANCH   2   4
BRANCH   3   8
ATOM      8  C   UNL     1      -2.625  -8.791 -43.045  1.00  0.00    -0.003 C 
ATOM      9  C   UNL     1      -1.428  -8.907 -42.457  1.00  0.00    -0.020 C 
BRANCH   9  10
ATOM     10  C   UNL     1      -0.951 -10.065 -41.612  1.00  0.00    -0.010 CG0
ATOM     11  C   UNL     1       0.583  -9.950 -41.454  1.00  0.00     0.016 C 
ATOM     12  C   UNL     1      -1.584  -9.989 -40.204  1.00  0.00     0.016 C 
ATOM     13  G   UNL     1      -1.260 -11.397 -42.333  1.00  0.00     0.000 G0
ENDBRANCH   9  10
ENDBRANCH   3   8
TORSDOF 0
ENDMDL
MODEL 7
REMARK VINA RESULT:    -2.738     14.530     15.604
REMARK INTER + INTRA:          -2.635
REMARK INTER:                  -3.396
REMARK INTRA:                   0.761
REMARK UNBOUND:                 0.743
REMARK SMILES CC1=CC=CC(C)(C)CC1=O
REMARK SMILES IDX 1 1 2 2 3 3 10 4 11 5 9 6 4 8 5 9 6 10 7 11 8 12
REMARK H PARENT
REMARK Flexibility Score: 80.00
ROOT
ATOM      1  C   UNL     1       1.579 -10.022 -43.213  1.00  0.00     0.048 C 
ATOM      2  C   UNL     1       0.415 -10.068 -42.251  1.00  0.00    -0.008 C 
ATOM      3  C   UNL     1      -0.573  -9.163 -42.419  1.00  0.00     0.007 C 
ENDROOT
BRANCH   2   4
ATOM      4  C   UNL     1       0.416 -11.156 -41.242  1.00  0.00     0.159 C 
ATOM      5  O   UNL     1       1.265 -12.084 -41.347  1.00  0.00    -0.295 OA
BRANCH   4   6
ATOM      6  C   UNL     1      -0.534 -11.212 -40.085  1.00  0.00     0.091 CG0
ATOM      7  G   UNL     1      -2.018 -11.246 -40.517  1.00  0.00     0.000 G0
ENDBRANCH   4   6
ENDBRANCH   2   4
BRANCH   3   8
ATOM      8  C   UNL     1      -1.834  -8.979 -41.663  1.00  0.00    -0.003 C 
ATOM      9  C   UNL     1      -2.471  -9.842 -40.863  1.00  0.00    -0.020 C 
BRANCH   9  10
ATOM     10  C   UNL     1      -2.023 -11.242 -40.513  1.00  0.00    -0.010 CG0
ATOM     11  C   UNL     1      -2.864 -11.734 -39.313  1.00  0.00     0.016 C 
ATOM     12  C   UNL     1      -2.286 -12.193 -41.703  1.00  0.00     0.016 C 
ATOM     13  G   UNL     1      -0.539 -11.221 -40.084  1.00  0.00     0.000 G0
ENDBRANCH   9  10
ENDBRANCH   3   8
TORSDOF 0
ENDMDL
MODEL 8
REMARK VINA RESULT:    -2.681      1.623      2.384
REMARK INTER + INTRA:          -2.564
REMARK INTER:                  -3.316
REMARK INTRA:                   0.752
REMARK UNBOUND:                 0.743
REMARK SMILES CC1=CC=CC(C)(C)CC1=O
REMARK SMILES IDX 1 1 2 2 3 3 10 4 11 5 9 6 4 8 5 9 6 10 7 11 8 12
REMARK H PARENT
REMARK Flexibility Score: 80.00
ROOT
ATOM      1  C   UNL     1       2.399 -24.486 -45.429  1.00  0.00     0.048 C 
ATOM      2  C   UNL     1       0.991 -24.854 -45.835  1.00  0.00    -0.008 C 
ATOM      3  C   UNL     1       0.835 -25.590 -46.956  1.00  0.00     0.007 C 
ENDROOT
BRANCH   2   4
ATOM      4  C   UNL     1      -0.104 -24.438 -44.924  1.00  0.00     0.159 C 
ATOM      5  O   UNL     1       0.189 -24.006 -43.775  1.00  0.00    -0.295 OA
BRANCH   4   6
ATOM      6  C   UNL     1      -1.555 -24.488 -45.298  1.00  0.00     0.091 CG0
ATOM      7  G   UNL     1      -2.046 -25.913 -45.639  1.00  0.00     0.000 G0
ENDBRANCH   4   6
ENDBRANCH   2   4
BRANCH   3   8
ATOM      8  C   UNL     1      -0.400 -26.118 -47.583  1.00  0.00    -0.003 C 
ATOM      9  C   UNL     1      -1.617 -26.276 -47.048  1.00  0.00    -0.020 C 
BRANCH   9  10
ATOM     10  C   UNL     1      -2.033 -25.918 -45.641  1.00  0.00    -0.010 CG0
ATOM     11  C   UNL     1      -3.577 -25.922 -45.576  1.00  0.00     0.016 C 
ATOM     12  C   UNL     1      -1.510 -26.981 -44.648  1.00  0.00     0.016 C 
ATOM     13  G   UNL     1      -1.542 -24.492 -45.301  1.00  0.00     0.000 G0
ENDBRANCH   9  10
ENDBRANCH   3   8
TORSDOF 0
ENDMDL
MODEL 9
REMARK VINA RESULT:    -2.671     17.430     18.203
REMARK INTER + INTRA:          -2.552
REMARK INTER:                  -3.302
REMARK INTRA:                   0.750
REMARK UNBOUND:                 0.743
REMARK SMILES CC1=CC=CC(C)(C)CC1=O
REMARK SMILES IDX 1 1 2 2 3 3 10 4 11 5 9 6 4 8 5 9 6 10 7 11 8 12
REMARK H PARENT
REMARK Flexibility Score: 80.00
ROOT
ATOM      1  C   UNL     1      -3.087  -8.994 -48.751  1.00  0.00     0.048 C 
ATOM      2  C   UNL     1      -4.341  -8.752 -47.944  1.00  0.00    -0.008 C 
ATOM      3  C   UNL     1      -5.427  -9.498 -48.236  1.00  0.00     0.007 C 
ENDROOT
BRANCH   2   4
ATOM      4  C   UNL     1      -4.252  -7.763 -46.840  1.00  0.00     0.159 C 
ATOM      5  O   UNL     1      -3.119  -7.320 -46.509  1.00  0.00    -0.295 OA
BRANCH   4   6
ATOM      6  C   UNL     1      -5.446  -7.245 -46.097  1.00  0.00     0.091 CG0
ATOM      7  G   UNL     1      -6.252  -8.357 -45.389  1.00  0.00     0.000 G0
ENDBRANCH   4   6
ENDBRANCH   2   4
BRANCH   3   8
ATOM      8  C   UNL     1      -6.771  -9.509 -47.610  1.00  0.00    -0.003 C 
ATOM      9  C   UNL     1      -7.147  -9.047 -46.411  1.00  0.00    -0.020 C 
BRANCH   9  10
ATOM     10  C   UNL     1      -6.264  -8.362 -45.395  1.00  0.00    -0.010 CG0
ATOM     11  C   UNL     1      -7.170  -7.691 -44.338  1.00  0.00     0.016 C 
ATOM     12  C   UNL     1      -5.381  -9.406 -44.674  1.00  0.00     0.016 C 
ATOM     13  G   UNL     1      -5.434  -7.257 -46.087  1.00  0.00     0.000 G0
ENDBRANCH   9  10
ENDBRANCH   3   8
TORSDOF 0
ENDMDL
