MODEL 1
REMARK VINA RESULT:    13.137      0.000      0.000
REMARK INTER + INTRA:          15.516
REMARK INTER:                  15.057
REMARK INTRA:                   0.459
REMARK UNBOUND:                 0.459
REMARK SMILES C=C(C)[C@H]1CC[C@@]2(C(=O)[O-])CC[C@@]3(C)[C@H](CC[C@H]4[C@@]5(C)CC[C@@H](O)C(C)(C)[C@H]5CC[C@@]43C)[C@H]12
REMARK SMILES IDX 7 1 6 2 33 3 11 4 5 5 15 6 4 7 12 8 16 9 13 10 17 11 31 12
REMARK SMILES IDX 14 13 18 14 30 15 32 16 19 17 29 18 21 19 20 20 28 21 22 22
REMARK SMILES IDX 25 23 23 24 26 25 27 26 8 27 9 28 10 29 2 30 3 31 1 32 24 33
REMARK H PARENT 24 34
REMARK Flexibility Score: inf
ROOT
ATOM      1  C   UNL     1     -26.450  13.510 -30.788  1.00  0.00     0.014 C 
ATOM      2  C   UNL     1     -27.964  13.503 -30.490  1.00  0.00     0.014 C 
ATOM      3  C   UNL     1     -25.895  12.870 -29.513  1.00  0.00     0.012 C 
ATOM      4  C   UNL     1     -25.848  14.930 -30.883  1.00  0.00     0.014 C 
ATOM      5  C   UNL     1     -28.218  12.246 -29.624  1.00  0.00     0.009 C 
ATOM      6  C   UNL     1     -24.352  12.712 -29.443  1.00  0.00     0.000 C 
ATOM      7  C   UNL     1     -26.833  11.695 -29.216  1.00  0.00     0.018 C 
ATOM      8  C   UNL     1     -24.307  14.861 -30.975  1.00  0.00     0.008 C 
ATOM      9  C   UNL     1     -23.807  11.462 -30.152  1.00  0.00     0.005 C 
ATOM     10  C   UNL     1     -23.578  14.069 -29.812  1.00  0.00    -0.024 C 
ATOM     11  C   UNL     1     -22.300  11.241 -29.876  1.00  0.00     0.005 C 
ATOM     12  C   UNL     1     -22.005  13.770 -30.170  1.00  0.00    -0.024 C 
ATOM     13  C   UNL     1     -23.693  14.981 -28.537  1.00  0.00     0.012 C 
ATOM     14  C   UNL     1     -21.528  12.505 -29.363  1.00  0.00     0.002 C 
ATOM     15  C   UNL     1     -21.107  14.977 -29.780  1.00  0.00     0.008 C 
ATOM     16  C   UNL     1     -21.788  13.543 -31.710  1.00  0.00     0.012 C 
ATOM     17  C   UNL     1     -19.951  12.245 -29.114  1.00  0.00    -0.026 C 
ATOM     18  C   UNL     1     -19.620  14.710 -29.969  1.00  0.00     0.005 C 
ATOM     19  C   UNL     1     -19.349  11.301 -30.213  1.00  0.00     0.010 C 
ATOM     20  C   UNL     1     -19.858  11.478 -27.740  1.00  0.00     0.012 C 
ATOM     21  C   UNL     1     -19.114  13.605 -29.005  1.00  0.00     0.003 C 
ATOM     22  C   UNL     1     -17.826  11.138 -30.187  1.00  0.00     0.033 C 
ATOM     23  C   UNL     1     -17.525  13.444 -29.065  1.00  0.00    -0.006 C 
ATOM     24  C   UNL     1     -17.072  12.479 -30.200  1.00  0.00     0.120 C 
ATOM     25  C   UNL     1     -16.977  12.922 -27.703  1.00  0.00     0.014 C 
ATOM     26  C   UNL     1     -16.796  14.805 -29.271  1.00  0.00     0.014 C 
ENDROOT
BRANCH   1  27
ATOM     27  C   UNL     1     -26.218  12.712 -32.085  1.00  0.00     0.048 C 
ATOM     28  O   UNL     1     -26.058  13.299 -33.187  1.00  0.00    -0.550 OA
ATOM     29  O   UNL     1     -26.345  11.333 -32.104  1.00  0.00    -0.550 OA
ENDBRANCH   1  27
BRANCH   7  30
ATOM     30  C   UNL     1     -26.784  11.149 -27.790  1.00  0.00    -0.077 C 
ATOM     31  C   UNL     1     -25.444  10.875 -27.152  1.00  0.00     0.039 C 
ATOM     32  C   UNL     1     -27.895  10.875 -27.084  1.00  0.00     0.008 C 
ENDBRANCH   7  30
BRANCH  24  33
ATOM     33  O   UNL     1     -17.104  13.090 -31.474  1.00  0.00    -0.393 OA
ATOM     34  H   UNL     1     -16.879  14.052 -31.384  1.00  0.00     0.210 HD
ENDBRANCH  24  33
TORSDOF 3
ENDMDL
MODEL 2
REMARK VINA RESULT:    13.488      3.678      7.045
REMARK INTER + INTRA:          15.919
REMARK INTER:                  15.715
REMARK INTRA:                   0.204
REMARK UNBOUND:                 0.459
REMARK SMILES C=C(C)[C@H]1CC[C@@]2(C(=O)[O-])CC[C@@]3(C)[C@H](CC[C@H]4[C@@]5(C)CC[C@@H](O)C(C)(C)[C@H]5CC[C@@]43C)[C@H]12
REMARK SMILES IDX 7 1 6 2 33 3 11 4 5 5 15 6 4 7 12 8 16 9 13 10 17 11 31 12
REMARK SMILES IDX 14 13 18 14 30 15 32 16 19 17 29 18 21 19 20 20 28 21 22 22
REMARK SMILES IDX 25 23 23 24 26 25 27 26 8 27 9 28 10 29 2 30 3 31 1 32 24 33
REMARK H PARENT 24 34
REMARK Flexibility Score: inf
ROOT
ATOM      1  C   UNL     1     -20.046  11.720 -29.658  1.00  0.00     0.014 C 
ATOM      2  C   UNL     1     -21.581  11.586 -29.751  1.00  0.00     0.014 C 
ATOM      3  C   UNL     1     -19.856  13.192 -30.036  1.00  0.00     0.012 C 
ATOM      4  C   UNL     1     -19.290  10.878 -30.709  1.00  0.00     0.014 C 
ATOM      5  C   UNL     1     -22.151  12.966 -29.346  1.00  0.00     0.009 C 
ATOM      6  C   UNL     1     -18.391  13.707 -30.059  1.00  0.00     0.000 C 
ATOM      7  C   UNL     1     -20.956  13.944 -29.280  1.00  0.00     0.018 C 
ATOM      8  C   UNL     1     -17.782  11.218 -30.694  1.00  0.00     0.008 C 
ATOM      9  C   UNL     1     -17.842  14.124 -28.686  1.00  0.00     0.005 C 
ATOM     10  C   UNL     1     -17.414  12.747 -30.895  1.00  0.00    -0.024 C 
ATOM     11  C   UNL     1     -16.464  14.822 -28.792  1.00  0.00     0.005 C 
ATOM     12  C   UNL     1     -15.843  13.048 -30.534  1.00  0.00    -0.024 C 
ATOM     13  C   UNL     1     -17.707  13.061 -32.407  1.00  0.00     0.012 C 
ATOM     14  C   UNL     1     -15.692  14.563 -30.130  1.00  0.00     0.002 C 
ATOM     15  C   UNL     1     -14.928  12.766 -31.759  1.00  0.00     0.008 C 
ATOM     16  C   UNL     1     -15.320  12.125 -29.375  1.00  0.00     0.012 C 
ATOM     17  C   UNL     1     -14.245  15.283 -30.194  1.00  0.00    -0.026 C 
ATOM     18  C   UNL     1     -13.472  13.151 -31.527  1.00  0.00     0.005 C 
ATOM     19  C   UNL     1     -13.522  15.232 -28.802  1.00  0.00     0.010 C 
ATOM     20  C   UNL     1     -14.537  16.798 -30.512  1.00  0.00     0.012 C 
ATOM     21  C   UNL     1     -13.311  14.684 -31.348  1.00  0.00     0.003 C 
ATOM     22  C   UNL     1     -12.067  15.714 -28.792  1.00  0.00     0.033 C 
ATOM     23  C   UNL     1     -11.774  15.117 -31.286  1.00  0.00    -0.006 C 
ATOM     24  C   UNL     1     -11.190  15.019 -29.846  1.00  0.00     0.120 C 
ATOM     25  C   UNL     1     -11.596  16.573 -31.810  1.00  0.00     0.014 C 
ATOM     26  C   UNL     1     -10.875  14.262 -32.229  1.00  0.00     0.014 C 
ENDROOT
BRANCH   1  27
ATOM     27  C   UNL     1     -19.623  11.344 -28.225  1.00  0.00     0.048 C 
ATOM     28  O   UNL     1     -18.409  11.300 -27.898  1.00  0.00    -0.550 OA
ATOM     29  O   UNL     1     -20.553  10.883 -27.307  1.00  0.00    -0.550 OA
ENDBRANCH   1  27
BRANCH   7  30
ATOM     30  C   UNL     1     -21.279  15.345 -29.797  1.00  0.00    -0.077 C 
ATOM     31  C   UNL     1     -22.270  15.504 -30.924  1.00  0.00     0.039 C 
ATOM     32  C   UNL     1     -20.691  16.449 -29.302  1.00  0.00     0.008 C 
ENDBRANCH   7  30
BRANCH  24  33
ATOM     33  O   UNL     1     -10.877  13.690 -29.479  1.00  0.00    -0.393 OA
ATOM     34  H   UNL     1     -11.052  13.087 -30.245  1.00  0.00     0.210 HD
ENDBRANCH  24  33
TORSDOF 3
ENDMDL
MODEL 3
REMARK VINA RESULT:    14.134      3.503     10.100
REMARK INTER + INTRA:          16.659
REMARK INTER:                  16.016
REMARK INTRA:                   0.642
REMARK UNBOUND:                 0.459
REMARK SMILES C=C(C)[C@H]1CC[C@@]2(C(=O)[O-])CC[C@@]3(C)[C@H](CC[C@H]4[C@@]5(C)CC[C@@H](O)C(C)(C)[C@H]5CC[C@@]43C)[C@H]12
REMARK SMILES IDX 7 1 6 2 33 3 11 4 5 5 15 6 4 7 12 8 16 9 13 10 17 11 31 12
REMARK SMILES IDX 14 13 18 14 30 15 32 16 19 17 29 18 21 19 20 20 28 21 22 22
REMARK SMILES IDX 25 23 23 24 26 25 27 26 8 27 9 28 10 29 2 30 3 31 1 32 24 33
REMARK H PARENT 24 34
REMARK Flexibility Score: inf
ROOT
ATOM      1  C   UNL     1     -12.709  14.809 -31.746  1.00  0.00     0.014 C 
ATOM      2  C   UNL     1     -11.175  14.962 -31.669  1.00  0.00     0.014 C 
ATOM      3  C   UNL     1     -13.044  14.458 -30.294  1.00  0.00     0.012 C 
ATOM      4  C   UNL     1     -13.166  13.620 -32.620  1.00  0.00     0.014 C 
ATOM      5  C   UNL     1     -10.876  15.504 -30.251  1.00  0.00     0.009 C 
ATOM      6  C   UNL     1     -14.545  14.217 -29.979  1.00  0.00     0.000 C 
ATOM      7  C   UNL     1     -12.192  15.409 -29.447  1.00  0.00     0.018 C 
ATOM      8  C   UNL     1     -14.690  13.402 -32.485  1.00  0.00     0.008 C 
ATOM      9  C   UNL     1     -15.355  15.496 -29.719  1.00  0.00     0.005 C 
ATOM     10  C   UNL     1     -15.234  13.199 -31.010  1.00  0.00    -0.024 C 
ATOM     11  C   UNL     1     -16.784  15.192 -29.207  1.00  0.00     0.005 C 
ATOM     12  C   UNL     1     -16.870  13.310 -30.943  1.00  0.00    -0.024 C 
ATOM     13  C   UNL     1     -14.757  11.766 -30.573  1.00  0.00     0.012 C 
ATOM     14  C   UNL     1     -17.294  13.738 -29.488  1.00  0.00     0.002 C 
ATOM     15  C   UNL     1     -17.533  11.943 -31.273  1.00  0.00     0.008 C 
ATOM     16  C   UNL     1     -17.431  14.334 -31.994  1.00  0.00     0.012 C 
ATOM     17  C   UNL     1     -18.800  13.466 -28.966  1.00  0.00    -0.026 C 
ATOM     18  C   UNL     1     -19.046  11.949 -31.101  1.00  0.00     0.005 C 
ATOM     19  C   UNL     1     -19.716  14.719 -29.193  1.00  0.00     0.010 C 
ATOM     20  C   UNL     1     -18.679  13.254 -27.409  1.00  0.00     0.012 C 
ATOM     21  C   UNL     1     -19.449  12.155 -29.616  1.00  0.00     0.003 C 
ATOM     22  C   UNL     1     -21.208  14.510 -28.911  1.00  0.00     0.033 C 
ATOM     23  C   UNL     1     -21.022  11.982 -29.397  1.00  0.00    -0.006 C 
ATOM     24  C   UNL     1     -21.804  13.303 -29.655  1.00  0.00     0.120 C 
ATOM     25  C   UNL     1     -21.320  11.487 -27.949  1.00  0.00     0.014 C 
ATOM     26  C   UNL     1     -21.633  10.875 -30.308  1.00  0.00     0.014 C 
ENDROOT
BRANCH   1  27
ATOM     27  C   UNL     1     -13.293  16.140 -32.258  1.00  0.00     0.048 C 
ATOM     28  O   UNL     1     -14.379  16.589 -31.805  1.00  0.00    -0.550 OA
ATOM     29  O   UNL     1     -12.731  16.793 -33.343  1.00  0.00    -0.550 OA
ENDBRANCH   1  27
BRANCH   7  30
ATOM     30  C   UNL     1     -11.994  15.003 -27.988  1.00  0.00    -0.077 C 
ATOM     31  C   UNL     1     -12.211  13.564 -27.588  1.00  0.00     0.039 C 
ATOM     32  C   UNL     1     -11.658  15.887 -27.032  1.00  0.00     0.008 C 
ENDBRANCH   7  30
BRANCH  24  33
ATOM     33  O   UNL     1     -21.980  13.566 -31.033  1.00  0.00    -0.393 OA
ATOM     34  H   UNL     1     -21.920  14.543 -31.192  1.00  0.00     0.210 HD
ENDBRANCH  24  33
TORSDOF 3
ENDMDL
MODEL 4
REMARK VINA RESULT:    14.706      4.227      7.562
REMARK INTER + INTRA:          17.315
REMARK INTER:                  17.300
REMARK INTRA:                   0.015
REMARK UNBOUND:                 0.459
REMARK SMILES C=C(C)[C@H]1CC[C@@]2(C(=O)[O-])CC[C@@]3(C)[C@H](CC[C@H]4[C@@]5(C)CC[C@@H](O)C(C)(C)[C@H]5CC[C@@]43C)[C@H]12
REMARK SMILES IDX 7 1 6 2 33 3 11 4 5 5 15 6 4 7 12 8 16 9 13 10 17 11 31 12
REMARK SMILES IDX 14 13 18 14 30 15 32 16 19 17 29 18 21 19 20 20 28 21 22 22
REMARK SMILES IDX 25 23 23 24 26 25 27 26 8 27 9 28 10 29 2 30 3 31 1 32 24 33
REMARK H PARENT 24 34
REMARK Flexibility Score: inf
ROOT
ATOM      1  C   UNL     1     -25.285  19.904 -32.682  1.00  0.00     0.014 C 
ATOM      2  C   UNL     1     -25.634  21.370 -33.014  1.00  0.00     0.014 C 
ATOM      3  C   UNL     1     -26.633  19.387 -32.173  1.00  0.00     0.012 C 
ATOM      4  C   UNL     1     -24.274  19.759 -31.523  1.00  0.00     0.014 C 
ATOM      5  C   UNL     1     -27.113  21.360 -33.467  1.00  0.00     0.009 C 
ATOM      6  C   UNL     1     -26.670  17.901 -31.725  1.00  0.00     0.000 C 
ATOM      7  C   UNL     1     -27.671  19.955 -33.146  1.00  0.00     0.018 C 
ATOM      8  C   UNL     1     -24.130  18.276 -31.111  1.00  0.00     0.008 C 
ATOM      9  C   UNL     1     -26.865  16.895 -32.870  1.00  0.00     0.005 C 
ATOM     10  C   UNL     1     -25.474  17.531 -30.720  1.00  0.00    -0.024 C 
ATOM     11  C   UNL     1     -27.105  15.456 -32.353  1.00  0.00     0.005 C 
ATOM     12  C   UNL     1     -25.266  15.907 -30.626  1.00  0.00    -0.024 C 
ATOM     13  C   UNL     1     -25.897  18.119 -29.325  1.00  0.00     0.012 C 
ATOM     14  C   UNL     1     -26.650  15.198 -30.876  1.00  0.00     0.002 C 
ATOM     15  C   UNL     1     -24.743  15.495 -29.221  1.00  0.00     0.008 C 
ATOM     16  C   UNL     1     -24.200  15.392 -31.658  1.00  0.00     0.012 C 
ATOM     17  C   UNL     1     -26.888  13.678 -30.380  1.00  0.00    -0.026 C 
ATOM     18  C   UNL     1     -24.652  13.987 -29.029  1.00  0.00     0.005 C 
ATOM     19  C   UNL     1     -26.584  12.651 -31.527  1.00  0.00     0.010 C 
ATOM     20  C   UNL     1     -28.427  13.572 -30.055  1.00  0.00     0.012 C 
ATOM     21  C   UNL     1     -26.056  13.325 -29.059  1.00  0.00     0.003 C 
ATOM     22  C   UNL     1     -26.592  11.175 -31.115  1.00  0.00     0.033 C 
ATOM     23  C   UNL     1     -25.990  11.775 -28.678  1.00  0.00    -0.006 C 
ATOM     24  C   UNL     1     -25.684  10.875 -29.911  1.00  0.00     0.120 C 
ATOM     25  C   UNL     1     -27.332  11.314 -28.032  1.00  0.00     0.014 C 
ATOM     26  C   UNL     1     -24.921  11.474 -27.585  1.00  0.00     0.014 C 
ENDROOT
BRANCH   1  27
ATOM     27  C   UNL     1     -24.764  19.238 -33.970  1.00  0.00     0.048 C 
ATOM     28  O   UNL     1     -23.851  18.372 -33.929  1.00  0.00    -0.550 OA
ATOM     29  O   UNL     1     -25.163  19.691 -35.217  1.00  0.00    -0.550 OA
ENDBRANCH   1  27
BRANCH   7  30
ATOM     30  C   UNL     1     -29.115  19.966 -32.646  1.00  0.00    -0.077 C 
ATOM     31  C   UNL     1     -30.163  19.189 -33.405  1.00  0.00     0.039 C 
ATOM     32  C   UNL     1     -29.499  20.668 -31.565  1.00  0.00     0.008 C 
ENDBRANCH   7  30
BRANCH  24  33
ATOM     33  O   UNL     1     -24.315  10.892 -30.265  1.00  0.00    -0.393 OA
ATOM     34  H   UNL     1     -23.780  11.219 -29.497  1.00  0.00     0.210 HD
ENDBRANCH  24  33
TORSDOF 3
ENDMDL
