MODEL 1
REMARK VINA RESULT:    17.090      0.000      0.000
REMARK INTER + INTRA:          27.257
REMARK INTER:                  26.081
REMARK INTRA:                   1.176
REMARK UNBOUND:                 1.176
REMARK SMILES CC1=CCC[C@H](C)C(=O)C[C@H](C(C)C)C(=O)C1
REMARK SMILES IDX 8 1 9 2 6 3 7 4 5 5 4 6 3 7 2 8 1 9 10 11 11 12 15 13 16 14
REMARK SMILES IDX 17 15 12 17 13 18 14 19
REMARK H PARENT
REMARK Flexibility Score: 70.00
ROOT
ATOM      1  C   UNL     1      33.283  11.498  42.467  1.00  0.00     0.136 C 
ATOM      2  O   UNL     1      33.779  10.668  43.217  1.00  0.00    -0.299 OA
ENDROOT
BRANCH   1   3
ATOM      3  C   UNL     1      32.198  11.086  41.485  1.00  0.00     0.053 C 
ATOM      4  C   UNL     1      31.008  12.060  41.483  1.00  0.00     0.016 C 
BRANCH   3   5
ATOM      5  C   UNL     1      32.764  10.892  40.061  1.00  0.00     0.015 C 
BRANCH   5   6
ATOM      6  C   UNL     1      33.526   9.561  39.862  1.00  0.00     0.028 C 
BRANCH   6   7
ATOM      7  C   UNL     1      35.016   9.797  39.814  1.00  0.00    -0.028 C 
ATOM      8  C   UNL     1      35.619  10.999  39.644  1.00  0.00    -0.070 CG0
ATOM      9  C   UNL     1      37.124  11.047  39.716  1.00  0.00     0.039 C 
ATOM     10  G   UNL     1      34.859  12.284  39.352  1.00  0.00     0.000 G0
ENDBRANCH   6   7
ENDBRANCH   5   6
ENDBRANCH   3   5
ENDBRANCH   1   3
BRANCH   1  11
ATOM     11  C   UNL     1      33.754  12.932  42.552  1.00  0.00     0.087 C 
BRANCH  11  12
ATOM     12  C   UNL     1      35.123  13.185  41.858  1.00  0.00     0.066 C 
BRANCH  12  13
ATOM     13  C   UNL     1      34.933  13.417  40.362  1.00  0.00     0.140 C 
ATOM     14  O   UNL     1      34.829  14.568  39.963  1.00  0.00    -0.299 OA
BRANCH  13  15
ATOM     15  C   UNL     1      34.881  12.310  39.324  1.00  0.00     0.106 CG0
ATOM     16  G   UNL     1      35.630  11.033  39.678  1.00  0.00     0.000 G0
ENDBRANCH  13  15
ENDBRANCH  12  13
BRANCH  12  17
ATOM     17  C   UNL     1      35.878  14.392  42.499  1.00  0.00    -0.006 C 
ATOM     18  C   UNL     1      37.074  13.921  43.346  1.00  0.00     0.008 C 
ATOM     19  C   UNL     1      34.956  15.255  43.380  1.00  0.00     0.008 C 
ENDBRANCH  12  17
ENDBRANCH  11  12
ENDBRANCH   1  11
TORSDOF 1
ENDMDL
MODEL 2
REMARK VINA RESULT:    18.215      1.564      3.352
REMARK INTER + INTRA:          28.974
REMARK INTER:                  26.514
REMARK INTRA:                   2.460
REMARK UNBOUND:                 1.176
REMARK SMILES CC1=CCC[C@H](C)C(=O)C[C@H](C(C)C)C(=O)C1
REMARK SMILES IDX 8 1 9 2 6 3 7 4 5 5 4 6 3 7 2 8 1 9 10 11 11 12 15 13 16 14
REMARK SMILES IDX 17 15 12 17 13 18 14 19
REMARK H PARENT
REMARK Flexibility Score: 70.00
ROOT
ATOM      1  C   UNL     1      34.662  12.152  39.632  1.00  0.00     0.136 C 
ATOM      2  O   UNL     1      33.641  12.708  39.250  1.00  0.00    -0.299 OA
ENDROOT
BRANCH   1   3
ATOM      3  C   UNL     1      34.950  10.718  39.218  1.00  0.00     0.053 C 
ATOM      4  C   UNL     1      35.859   9.989  40.221  1.00  0.00     0.016 C 
BRANCH   3   5
ATOM      5  C   UNL     1      33.649   9.927  38.964  1.00  0.00     0.015 C 
BRANCH   5   6
ATOM      6  C   UNL     1      32.988   9.371  40.246  1.00  0.00     0.028 C 
BRANCH   6   7
ATOM      7  C   UNL     1      32.165  10.434  40.932  1.00  0.00    -0.028 C 
ATOM      8  C   UNL     1      32.602  11.256  41.917  1.00  0.00    -0.070 CG0
ATOM      9  C   UNL     1      31.657  12.320  42.415  1.00  0.00     0.039 C 
ATOM     10  G   UNL     1      33.974  11.136  42.562  1.00  0.00     0.000 G0
ENDBRANCH   6   7
ENDBRANCH   5   6
ENDBRANCH   3   5
ENDBRANCH   1   3
BRANCH   1  11
ATOM     11  C   UNL     1      35.631  12.923  40.500  1.00  0.00     0.087 C 
BRANCH  11  12
ATOM     12  C   UNL     1      34.992  13.497  41.797  1.00  0.00     0.066 C 
BRANCH  12  13
ATOM     13  C   UNL     1      34.774  12.392  42.826  1.00  0.00     0.140 C 
ATOM     14  O   UNL     1      35.260  12.534  43.939  1.00  0.00    -0.299 OA
BRANCH  13  15
ATOM     15  C   UNL     1      33.977  11.126  42.567  1.00  0.00     0.106 CG0
ATOM     16  G   UNL     1      32.619  11.320  41.910  1.00  0.00     0.000 G0
ENDBRANCH  13  15
ENDBRANCH  12  13
BRANCH  12  17
ATOM     17  C   UNL     1      35.861  14.641  42.409  1.00  0.00    -0.006 C 
ATOM     18  C   UNL     1      37.074  14.078  43.172  1.00  0.00     0.008 C 
ATOM     19  C   UNL     1      35.052  15.542  43.360  1.00  0.00     0.008 C 
ENDBRANCH  12  17
ENDBRANCH  11  12
ENDBRANCH   1  11
TORSDOF 1
ENDMDL
MODEL 3
REMARK VINA RESULT:    18.397      1.763      3.232
REMARK INTER + INTRA:          29.253
REMARK INTER:                  26.722
REMARK INTRA:                   2.530
REMARK UNBOUND:                 1.176
REMARK SMILES CC1=CCC[C@H](C)C(=O)C[C@H](C(C)C)C(=O)C1
REMARK SMILES IDX 8 1 9 2 6 3 7 4 5 5 4 6 3 7 2 8 1 9 10 11 11 12 15 13 16 14
REMARK SMILES IDX 17 15 12 17 13 18 14 19
REMARK H PARENT
REMARK Flexibility Score: 70.00
ROOT
ATOM      1  C   UNL     1      35.514  10.075  39.894  1.00  0.00     0.136 C 
ATOM      2  O   UNL     1      36.588  10.185  39.317  1.00  0.00    -0.299 OA
ENDROOT
BRANCH   1   3
ATOM      3  C   UNL     1      34.462   9.109  39.374  1.00  0.00     0.053 C 
ATOM      4  C   UNL     1      34.380   7.823  40.213  1.00  0.00     0.016 C 
BRANCH   3   5
ATOM      5  C   UNL     1      33.080   9.786  39.249  1.00  0.00     0.015 C 
BRANCH   5   6
ATOM      6  C   UNL     1      32.074   9.375  40.349  1.00  0.00     0.028 C 
BRANCH   6   7
ATOM      7  C   UNL     1      31.978  10.440  41.414  1.00  0.00    -0.028 C 
ATOM      8  C   UNL     1      32.284  11.750  41.249  1.00  0.00    -0.070 CG0
ATOM      9  C   UNL     1      32.035  12.682  42.408  1.00  0.00     0.039 C 
ATOM     10  G   UNL     1      32.894  12.315  39.975  1.00  0.00     0.000 G0
ENDBRANCH   6   7
ENDBRANCH   5   6
ENDBRANCH   3   5
ENDBRANCH   1   3
BRANCH   1  11
ATOM     11  C   UNL     1      35.267  10.900  41.137  1.00  0.00     0.087 C 
BRANCH  11  12
ATOM     12  C   UNL     1      35.444  12.430  40.920  1.00  0.00     0.066 C 
BRANCH  12  13
ATOM     13  C   UNL     1      34.256  13.007  40.155  1.00  0.00     0.140 C 
ATOM     14  O   UNL     1      34.384  14.102  39.627  1.00  0.00    -0.299 OA
BRANCH  13  15
ATOM     15  C   UNL     1      32.921  12.302  39.990  1.00  0.00     0.106 CG0
ATOM     16  G   UNL     1      32.281  11.784  41.269  1.00  0.00     0.000 G0
ENDBRANCH  13  15
ENDBRANCH  12  13
BRANCH  12  17
ATOM     17  C   UNL     1      35.632  13.186  42.273  1.00  0.00    -0.006 C 
ATOM     18  C   UNL     1      34.790  14.473  42.320  1.00  0.00     0.008 C 
ATOM     19  C   UNL     1      37.105  13.548  42.538  1.00  0.00     0.008 C 
ENDBRANCH  12  17
ENDBRANCH  11  12
ENDBRANCH   1  11
TORSDOF 1
ENDMDL
MODEL 4
REMARK VINA RESULT:    19.657      1.590      3.995
REMARK INTER + INTRA:          31.175
REMARK INTER:                  28.498
REMARK INTRA:                   2.678
REMARK UNBOUND:                 1.176
REMARK SMILES CC1=CCC[C@H](C)C(=O)C[C@H](C(C)C)C(=O)C1
REMARK SMILES IDX 8 1 9 2 6 3 7 4 5 5 4 6 3 7 2 8 1 9 10 11 11 12 15 13 16 14
REMARK SMILES IDX 17 15 12 17 13 18 14 19
REMARK H PARENT
REMARK Flexibility Score: 70.00
ROOT
ATOM      1  C   UNL     1      34.743  13.318  40.022  1.00  0.00     0.136 C 
ATOM      2  O   UNL     1      34.008  14.285  39.872  1.00  0.00    -0.299 OA
ENDROOT
BRANCH   1   3
ATOM      3  C   UNL     1      36.022  13.451  40.833  1.00  0.00     0.053 C 
ATOM      4  C   UNL     1      35.750  13.580  42.341  1.00  0.00     0.016 C 
BRANCH   3   5
ATOM      5  C   UNL     1      37.005  12.297  40.538  1.00  0.00     0.015 C 
BRANCH   5   6
ATOM      6  C   UNL     1      36.423  11.189  39.631  1.00  0.00     0.028 C 
BRANCH   6   7
ATOM      7  C   UNL     1      36.359   9.872  40.366  1.00  0.00    -0.028 C 
ATOM      8  C   UNL     1      35.415   8.915  40.188  1.00  0.00    -0.070 CG0
ATOM      9  C   UNL     1      35.572   7.624  40.951  1.00  0.00     0.039 C 
ATOM     10  G   UNL     1      34.199   9.092  39.292  1.00  0.00     0.000 G0
ENDBRANCH   6   7
ENDBRANCH   5   6
ENDBRANCH   3   5
ENDBRANCH   1   3
BRANCH   1  11
ATOM     11  C   UNL     1      34.345  11.996  39.406  1.00  0.00     0.087 C 
BRANCH  11  12
ATOM     12  C   UNL     1      33.039  11.395  40.000  1.00  0.00     0.066 C 
BRANCH  12  13
ATOM     13  C   UNL     1      33.023   9.878  39.841  1.00  0.00     0.140 C 
ATOM     14  O   UNL     1      32.013   9.272  40.169  1.00  0.00    -0.299 OA
BRANCH  13  15
ATOM     15  C   UNL     1      34.177   9.063  39.284  1.00  0.00     0.106 CG0
ATOM     16  G   UNL     1      35.387   8.916  40.194  1.00  0.00     0.000 G0
ENDBRANCH  13  15
ENDBRANCH  12  13
BRANCH  12  17
ATOM     17  C   UNL     1      32.859  11.782  41.502  1.00  0.00    -0.006 C 
ATOM     18  C   UNL     1      33.518  10.747  42.432  1.00  0.00     0.008 C 
ATOM     19  C   UNL     1      31.376  11.925  41.893  1.00  0.00     0.008 C 
ENDBRANCH  12  17
ENDBRANCH  11  12
ENDBRANCH   1  11
TORSDOF 1
ENDMDL
