MODEL 1
REMARK VINA RESULT:    -5.741      0.000      0.000
REMARK INTER + INTRA:         -15.754
REMARK INTER:                 -12.454
REMARK INTRA:                  -3.300
REMARK UNBOUND:                -3.300
REMARK SMILES CCCCCCCCCCCCCCCCCCCCCC(=O)[O-]
REMARK SMILES IDX 12 1 11 2 10 3 9 4 8 5 7 6 6 7 5 8 4 9 3 10 2 11 1 12 13 13
REMARK SMILES IDX 14 14 15 15 16 16 17 17 18 18 19 19 20 20 21 21 22 22 23 23
REMARK SMILES IDX 24 24
REMARK H PARENT
REMARK Flexibility Score: inf
ROOT
ATOM      1  C   UNL     1     101.782  20.728 195.876  1.00  0.00     0.000 C 
ENDROOT
BRANCH   1   2
ATOM      2  C   UNL     1     101.082  20.950 197.228  1.00  0.00     0.000 C 
BRANCH   2   3
ATOM      3  C   UNL     1      99.604  21.370 197.129  1.00  0.00     0.000 C 
BRANCH   3   4
ATOM      4  C   UNL     1      99.249  22.532 198.072  1.00  0.00    -0.000 C 
BRANCH   4   5
ATOM      5  C   UNL     1     100.502  23.280 198.574  1.00  0.00    -0.000 C 
BRANCH   5   6
ATOM      6  C   UNL     1     100.299  23.978 199.930  1.00  0.00    -0.000 C 
BRANCH   6   7
ATOM      7  C   UNL     1     101.550  23.931 200.818  1.00  0.00    -0.000 C 
BRANCH   7   8
ATOM      8  C   UNL     1     102.438  22.733 200.455  1.00  0.00    -0.000 C 
BRANCH   8   9
ATOM      9  C   UNL     1     103.867  23.148 200.057  1.00  0.00    -0.000 C 
BRANCH   9  10
ATOM     10  C   UNL     1     104.158  23.123 198.543  1.00  0.00    -0.000 C 
BRANCH  10  11
ATOM     11  C   UNL     1     104.459  24.495 197.917  1.00  0.00    -0.003 C 
ATOM     12  C   UNL     1     103.282  25.056 197.119  1.00  0.00     0.004 C 
ENDBRANCH  10  11
ENDBRANCH   9  10
ENDBRANCH   8   9
ENDBRANCH   7   8
ENDBRANCH   6   7
ENDBRANCH   5   6
ENDBRANCH   4   5
ENDBRANCH   3   4
ENDBRANCH   2   3
ENDBRANCH   1   2
BRANCH   1  13
ATOM     13  C   UNL     1     102.534  21.972 195.381  1.00  0.00     0.000 C 
BRANCH  13  14
ATOM     14  C   UNL     1     102.029  22.407 194.000  1.00  0.00     0.000 C 
BRANCH  14  15
ATOM     15  C   UNL     1     103.190  22.866 193.110  1.00  0.00     0.000 C 
BRANCH  15  16
ATOM     16  C   UNL     1     104.531  22.750 193.849  1.00  0.00     0.000 C 
BRANCH  16  17
ATOM     17  C   UNL     1     105.490  21.753 193.180  1.00  0.00     0.000 C 
BRANCH  17  18
ATOM     18  C   UNL     1     106.185  20.829 194.196  1.00  0.00     0.000 C 
BRANCH  18  19
ATOM     19  C   UNL     1     106.231  21.437 195.608  1.00  0.00     0.000 C 
BRANCH  19  20
ATOM     20  C   UNL     1     107.259  20.741 196.516  1.00  0.00     0.006 C 
BRANCH  20  21
ATOM     21  C   UNL     1     107.825  21.689 197.581  1.00  0.00     0.053 C 
BRANCH  21  22
ATOM     22  C   UNL     1     107.337  21.334 198.953  1.00  0.00     0.041 C 
ATOM     23  O   UNL     1     107.287  22.210 199.855  1.00  0.00    -0.550 OA
ATOM     24  O   UNL     1     106.966  20.027 199.241  1.00  0.00    -0.550 OA
ENDBRANCH  21  22
ENDBRANCH  20  21
ENDBRANCH  19  20
ENDBRANCH  18  19
ENDBRANCH  17  18
ENDBRANCH  16  17
ENDBRANCH  15  16
ENDBRANCH  14  15
ENDBRANCH  13  14
ENDBRANCH   1  13
TORSDOF 20
ENDMDL
MODEL 2
REMARK VINA RESULT:    -5.683      1.961      6.218
REMARK INTER + INTRA:         -15.628
REMARK INTER:                 -11.813
REMARK INTRA:                  -3.815
REMARK UNBOUND:                -3.300
REMARK SMILES CCCCCCCCCCCCCCCCCCCCCC(=O)[O-]
REMARK SMILES IDX 12 1 11 2 10 3 9 4 8 5 7 6 6 7 5 8 4 9 3 10 2 11 1 12 13 13
REMARK SMILES IDX 14 14 15 15 16 16 17 17 18 18 19 19 20 20 21 21 22 22 23 23
REMARK SMILES IDX 24 24
REMARK H PARENT
REMARK Flexibility Score: inf
ROOT
ATOM      1  C   UNL     1     105.812  23.230 199.962  1.00  0.00     0.000 C 
ENDROOT
BRANCH   1   2
ATOM      2  C   UNL     1     106.514  21.978 199.407  1.00  0.00     0.000 C 
BRANCH   2   3
ATOM      3  C   UNL     1     106.100  21.586 197.977  1.00  0.00     0.000 C 
BRANCH   3   4
ATOM      4  C   UNL     1     107.016  20.516 197.361  1.00  0.00    -0.000 C 
BRANCH   4   5
ATOM      5  C   UNL     1     107.264  20.756 195.856  1.00  0.00    -0.000 C 
BRANCH   5   6
ATOM      6  C   UNL     1     105.984  20.695 195.005  1.00  0.00    -0.000 C 
BRANCH   6   7
ATOM      7  C   UNL     1     105.885  21.845 193.994  1.00  0.00    -0.000 C 
BRANCH   7   8
ATOM      8  C   UNL     1     104.497  22.501 194.040  1.00  0.00    -0.000 C 
BRANCH   8   9
ATOM      9  C   UNL     1     104.554  23.991 194.423  1.00  0.00    -0.000 C 
BRANCH   9  10
ATOM     10  C   UNL     1     105.465  24.324 195.623  1.00  0.00    -0.000 C 
BRANCH  10  11
ATOM     11  C   UNL     1     104.893  25.365 196.601  1.00  0.00    -0.003 C 
ATOM     12  C   UNL     1     103.383  25.235 196.793  1.00  0.00     0.004 C 
ENDBRANCH  10  11
ENDBRANCH   9  10
ENDBRANCH   8   9
ENDBRANCH   7   8
ENDBRANCH   6   7
ENDBRANCH   5   6
ENDBRANCH   4   5
ENDBRANCH   3   4
ENDBRANCH   2   3
ENDBRANCH   1   2
BRANCH   1  13
ATOM     13  C   UNL     1     104.320  23.287 199.601  1.00  0.00     0.000 C 
BRANCH  13  14
ATOM     14  C   UNL     1     103.447  23.212 200.859  1.00  0.00     0.000 C 
BRANCH  14  15
ATOM     15  C   UNL     1     102.004  22.830 200.505  1.00  0.00     0.000 C 
BRANCH  15  16
ATOM     16  C   UNL     1     101.297  23.976 199.765  1.00  0.00     0.000 C 
BRANCH  16  17
ATOM     17  C   UNL     1     100.358  23.473 198.658  1.00  0.00     0.000 C 
BRANCH  17  18
ATOM     18  C   UNL     1     100.762  22.085 198.127  1.00  0.00     0.000 C 
BRANCH  18  19
ATOM     19  C   UNL     1     101.492  22.163 196.776  1.00  0.00     0.000 C 
BRANCH  19  20
ATOM     20  C   UNL     1     102.720  21.238 196.717  1.00  0.00     0.006 C 
BRANCH  20  21
ATOM     21  C   UNL     1     102.730  20.216 197.861  1.00  0.00     0.053 C 
BRANCH  21  22
ATOM     22  C   UNL     1     102.772  18.810 197.346  1.00  0.00     0.041 C 
ATOM     23  O   UNL     1     101.775  18.054 197.482  1.00  0.00    -0.550 OA
ATOM     24  O   UNL     1     103.926  18.325 196.742  1.00  0.00    -0.550 OA
ENDBRANCH  21  22
ENDBRANCH  20  21
ENDBRANCH  19  20
ENDBRANCH  18  19
ENDBRANCH  17  18
ENDBRANCH  16  17
ENDBRANCH  15  16
ENDBRANCH  14  15
ENDBRANCH  13  14
ENDBRANCH   1  13
TORSDOF 20
ENDMDL
MODEL 3
REMARK VINA RESULT:    -5.674      2.434      6.608
REMARK INTER + INTRA:         -15.609
REMARK INTER:                 -12.117
REMARK INTRA:                  -3.492
REMARK UNBOUND:                -3.300
REMARK SMILES CCCCCCCCCCCCCCCCCCCCCC(=O)[O-]
REMARK SMILES IDX 12 1 11 2 10 3 9 4 8 5 7 6 6 7 5 8 4 9 3 10 2 11 1 12 13 13
REMARK SMILES IDX 14 14 15 15 16 16 17 17 18 18 19 19 20 20 21 21 22 22 23 23
REMARK SMILES IDX 24 24
REMARK H PARENT
REMARK Flexibility Score: inf
ROOT
ATOM      1  C   UNL     1     106.068  21.600 198.226  1.00  0.00     0.000 C 
ENDROOT
BRANCH   1   2
ATOM      2  C   UNL     1     106.872  20.464 197.570  1.00  0.00     0.000 C 
BRANCH   2   3
ATOM      3  C   UNL     1     107.431  20.790 196.173  1.00  0.00     0.000 C 
BRANCH   3   4
ATOM      4  C   UNL     1     106.491  20.353 195.037  1.00  0.00    -0.000 C 
BRANCH   4   5
ATOM      5  C   UNL     1     106.857  21.016 193.690  1.00  0.00    -0.000 C 
BRANCH   5   6
ATOM      6  C   UNL     1     105.635  21.496 192.889  1.00  0.00    -0.000 C 
BRANCH   6   7
ATOM      7  C   UNL     1     104.441  21.857 193.783  1.00  0.00    -0.000 C 
BRANCH   7   8
ATOM      8  C   UNL     1     103.904  23.256 193.448  1.00  0.00    -0.000 C 
BRANCH   8   9
ATOM      9  C   UNL     1     104.519  24.357 194.331  1.00  0.00    -0.000 C 
BRANCH   9  10
ATOM     10  C   UNL     1     105.255  23.854 195.589  1.00  0.00    -0.000 C 
BRANCH  10  11
ATOM     11  C   UNL     1     106.110  24.912 196.307  1.00  0.00    -0.003 C 
ATOM     12  C   UNL     1     105.285  25.838 197.200  1.00  0.00     0.004 C 
ENDBRANCH  10  11
ENDBRANCH   9  10
ENDBRANCH   8   9
ENDBRANCH   7   8
ENDBRANCH   6   7
ENDBRANCH   5   6
ENDBRANCH   4   5
ENDBRANCH   3   4
ENDBRANCH   2   3
ENDBRANCH   1   2
BRANCH   1  13
ATOM     13  C   UNL     1     106.788  22.223 199.431  1.00  0.00     0.000 C 
BRANCH  13  14
ATOM     14  C   UNL     1     105.891  23.243 200.141  1.00  0.00     0.000 C 
BRANCH  14  15
ATOM     15  C   UNL     1     104.482  23.251 199.536  1.00  0.00     0.000 C 
BRANCH  15  16
ATOM     16  C   UNL     1     103.410  23.205 200.635  1.00  0.00     0.000 C 
BRANCH  16  17
ATOM     17  C   UNL     1     102.003  22.939 200.077  1.00  0.00     0.000 C 
BRANCH  17  18
ATOM     18  C   UNL     1     101.644  23.878 198.910  1.00  0.00     0.000 C 
BRANCH  18  19
ATOM     19  C   UNL     1     101.125  23.114 197.681  1.00  0.00     0.000 C 
BRANCH  19  20
ATOM     20  C   UNL     1     102.263  22.624 196.769  1.00  0.00     0.006 C 
BRANCH  20  21
ATOM     21  C   UNL     1     102.507  21.116 196.909  1.00  0.00     0.053 C 
BRANCH  21  22
ATOM     22  C   UNL     1     101.410  20.316 196.275  1.00  0.00     0.041 C 
ATOM     23  O   UNL     1     100.887  19.354 196.895  1.00  0.00    -0.550 OA
ATOM     24  O   UNL     1     100.988  20.616 194.986  1.00  0.00    -0.550 OA
ENDBRANCH  21  22
ENDBRANCH  20  21
ENDBRANCH  19  20
ENDBRANCH  18  19
ENDBRANCH  17  18
ENDBRANCH  16  17
ENDBRANCH  15  16
ENDBRANCH  14  15
ENDBRANCH  13  14
ENDBRANCH   1  13
TORSDOF 20
ENDMDL
MODEL 4
REMARK VINA RESULT:    -5.652      1.138      2.585
REMARK INTER + INTRA:         -15.560
REMARK INTER:                 -12.295
REMARK INTRA:                  -3.264
REMARK UNBOUND:                -3.300
REMARK SMILES CCCCCCCCCCCCCCCCCCCCCC(=O)[O-]
REMARK SMILES IDX 12 1 11 2 10 3 9 4 8 5 7 6 6 7 5 8 4 9 3 10 2 11 1 12 13 13
REMARK SMILES IDX 14 14 15 15 16 16 17 17 18 18 19 19 20 20 21 21 22 22 23 23
REMARK SMILES IDX 24 24
REMARK H PARENT
REMARK Flexibility Score: inf
ROOT
ATOM      1  C   UNL     1      99.444  22.009 197.557  1.00  0.00     0.000 C 
ENDROOT
BRANCH   1   2
ATOM      2  C   UNL     1      99.456  23.159 198.581  1.00  0.00     0.000 C 
BRANCH   2   3
ATOM      3  C   UNL     1     100.858  23.658 198.975  1.00  0.00     0.000 C 
BRANCH   3   4
ATOM      4  C   UNL     1     101.049  23.764 200.497  1.00  0.00    -0.000 C 
BRANCH   4   5
ATOM      5  C   UNL     1     102.443  23.275 200.947  1.00  0.00    -0.000 C 
BRANCH   5   6
ATOM      6  C   UNL     1     103.383  22.938 199.776  1.00  0.00    -0.000 C 
BRANCH   6   7
ATOM      7  C   UNL     1     104.847  23.293 200.067  1.00  0.00    -0.000 C 
BRANCH   7   8
ATOM      8  C   UNL     1     105.743  22.965 198.864  1.00  0.00    -0.000 C 
BRANCH   8   9
ATOM      9  C   UNL     1     105.068  23.272 197.515  1.00  0.00    -0.000 C 
BRANCH   9  10
ATOM     10  C   UNL     1     105.666  24.463 196.739  1.00  0.00    -0.000 C 
BRANCH  10  11
ATOM     11  C   UNL     1     104.641  25.506 196.261  1.00  0.00    -0.003 C 
ATOM     12  C   UNL     1     103.255  25.302 196.871  1.00  0.00     0.004 C 
ENDBRANCH  10  11
ENDBRANCH   9  10
ENDBRANCH   8   9
ENDBRANCH   7   8
ENDBRANCH   6   7
ENDBRANCH   5   6
ENDBRANCH   4   5
ENDBRANCH   3   4
ENDBRANCH   2   3
ENDBRANCH   1   2
BRANCH   1  13
ATOM     13  C   UNL     1     100.851  21.617 197.083  1.00  0.00     0.000 C 
BRANCH  13  14
ATOM     14  C   UNL     1     101.215  22.342 195.783  1.00  0.00     0.000 C 
BRANCH  14  15
ATOM     15  C   UNL     1     102.513  21.784 195.186  1.00  0.00     0.000 C 
BRANCH  15  16
ATOM     16  C   UNL     1     102.851  22.477 193.858  1.00  0.00     0.000 C 
BRANCH  16  17
ATOM     17  C   UNL     1     104.346  22.813 193.732  1.00  0.00     0.000 C 
BRANCH  17  18
ATOM     18  C   UNL     1     105.152  21.680 193.071  1.00  0.00     0.000 C 
BRANCH  18  19
ATOM     19  C   UNL     1     106.318  21.198 193.950  1.00  0.00     0.000 C 
BRANCH  19  20
ATOM     20  C   UNL     1     105.839  20.567 195.269  1.00  0.00     0.006 C 
BRANCH  20  21
ATOM     21  C   UNL     1     106.976  20.428 196.289  1.00  0.00     0.053 C 
BRANCH  21  22
ATOM     22  C   UNL     1     106.564  19.600 197.468  1.00  0.00     0.041 C 
ATOM     23  O   UNL     1     107.119  19.766 198.586  1.00  0.00    -0.550 OA
ATOM     24  O   UNL     1     105.587  18.623 197.323  1.00  0.00    -0.550 OA
ENDBRANCH  21  22
ENDBRANCH  20  21
ENDBRANCH  19  20
ENDBRANCH  18  19
ENDBRANCH  17  18
ENDBRANCH  16  17
ENDBRANCH  15  16
ENDBRANCH  14  15
ENDBRANCH  13  14
ENDBRANCH   1  13
TORSDOF 20
ENDMDL
MODEL 5
REMARK VINA RESULT:    -5.642      1.949      5.952
REMARK INTER + INTRA:         -15.538
REMARK INTER:                 -11.518
REMARK INTRA:                  -4.020
REMARK UNBOUND:                -3.300
REMARK SMILES CCCCCCCCCCCCCCCCCCCCCC(=O)[O-]
REMARK SMILES IDX 12 1 11 2 10 3 9 4 8 5 7 6 6 7 5 8 4 9 3 10 2 11 1 12 13 13
REMARK SMILES IDX 14 14 15 15 16 16 17 17 18 18 19 19 20 20 21 21 22 22 23 23
REMARK SMILES IDX 24 24
REMARK H PARENT
REMARK Flexibility Score: inf
ROOT
ATOM      1  C   UNL     1     103.648  22.886 199.494  1.00  0.00     0.000 C 
ENDROOT
BRANCH   1   2
ATOM      2  C   UNL     1     105.016  23.581 199.371  1.00  0.00     0.000 C 
BRANCH   2   3
ATOM      3  C   UNL     1     105.308  24.193 197.989  1.00  0.00     0.000 C 
BRANCH   3   4
ATOM      4  C   UNL     1     104.207  25.157 197.517  1.00  0.00    -0.000 C 
BRANCH   4   5
ATOM      5  C   UNL     1     103.842  24.943 196.032  1.00  0.00    -0.000 C 
BRANCH   5   6
ATOM      6  C   UNL     1     104.861  24.082 195.266  1.00  0.00    -0.000 C 
BRANCH   6   7
ATOM      7  C   UNL     1     104.255  23.394 194.035  1.00  0.00    -0.000 C 
BRANCH   7   8
ATOM      8  C   UNL     1     104.938  22.046 193.765  1.00  0.00    -0.000 C 
BRANCH   8   9
ATOM      9  C   UNL     1     106.172  21.813 194.656  1.00  0.00    -0.000 C 
BRANCH   9  10
ATOM     10  C   UNL     1     106.083  20.589 195.590  1.00  0.00    -0.000 C 
BRANCH  10  11
ATOM     11  C   UNL     1     106.338  20.889 197.077  1.00  0.00    -0.003 C 
ATOM     12  C   UNL     1     106.735  19.648 197.875  1.00  0.00     0.004 C 
ENDBRANCH  10  11
ENDBRANCH   9  10
ENDBRANCH   8   9
ENDBRANCH   7   8
ENDBRANCH   6   7
ENDBRANCH   5   6
ENDBRANCH   4   5
ENDBRANCH   3   4
ENDBRANCH   2   3
ENDBRANCH   1   2
BRANCH   1  13
ATOM     13  C   UNL     1     102.941  23.190 200.823  1.00  0.00     0.000 C 
BRANCH  13  14
ATOM     14  C   UNL     1     101.621  23.932 200.587  1.00  0.00     0.000 C 
BRANCH  14  15
ATOM     15  C   UNL     1     101.220  23.884 199.107  1.00  0.00     0.000 C 
BRANCH  15  16
ATOM     16  C   UNL     1      99.846  23.220 198.930  1.00  0.00     0.000 C 
BRANCH  16  17
ATOM     17  C   UNL     1      99.667  22.597 197.537  1.00  0.00     0.000 C 
BRANCH  17  18
ATOM     18  C   UNL     1     100.826  22.941 196.583  1.00  0.00     0.000 C 
BRANCH  18  19
ATOM     19  C   UNL     1     101.336  21.713 195.812  1.00  0.00     0.000 C 
BRANCH  19  20
ATOM     20  C   UNL     1     102.611  21.116 196.432  1.00  0.00     0.006 C 
BRANCH  20  21
ATOM     21  C   UNL     1     102.302  20.223 197.641  1.00  0.00     0.053 C 
BRANCH  21  22
ATOM     22  C   UNL     1     102.455  18.770 197.309  1.00  0.00     0.041 C 
ATOM     23  O   UNL     1     101.498  17.972 197.492  1.00  0.00    -0.550 OA
ATOM     24  O   UNL     1     103.667  18.292 196.827  1.00  0.00    -0.550 OA
ENDBRANCH  21  22
ENDBRANCH  20  21
ENDBRANCH  19  20
ENDBRANCH  18  19
ENDBRANCH  17  18
ENDBRANCH  16  17
ENDBRANCH  15  16
ENDBRANCH  14  15
ENDBRANCH  13  14
ENDBRANCH   1  13
TORSDOF 20
ENDMDL
MODEL 6
REMARK VINA RESULT:    -5.642      2.232      4.767
REMARK INTER + INTRA:         -15.538
REMARK INTER:                 -11.967
REMARK INTRA:                  -3.570
REMARK UNBOUND:                -3.300
REMARK SMILES CCCCCCCCCCCCCCCCCCCCCC(=O)[O-]
REMARK SMILES IDX 12 1 11 2 10 3 9 4 8 5 7 6 6 7 5 8 4 9 3 10 2 11 1 12 13 13
REMARK SMILES IDX 14 14 15 15 16 16 17 17 18 18 19 19 20 20 21 21 22 22 23 23
REMARK SMILES IDX 24 24
REMARK H PARENT
REMARK Flexibility Score: inf
ROOT
ATOM      1  C   UNL     1     102.659  22.541 193.455  1.00  0.00     0.000 C 
ENDROOT
BRANCH   1   2
ATOM      2  C   UNL     1     102.112  22.301 194.874  1.00  0.00     0.000 C 
BRANCH   2   3
ATOM      3  C   UNL     1     101.277  21.018 195.036  1.00  0.00     0.000 C 
BRANCH   3   4
ATOM      4  C   UNL     1     101.164  20.559 196.500  1.00  0.00    -0.000 C 
BRANCH   4   5
ATOM      5  C   UNL     1     101.802  19.171 196.727  1.00  0.00    -0.000 C 
BRANCH   5   6
ATOM      6  C   UNL     1     103.018  19.200 197.668  1.00  0.00    -0.000 C 
BRANCH   6   7
ATOM      7  C   UNL     1     104.123  20.148 197.185  1.00  0.00    -0.000 C 
BRANCH   7   8
ATOM      8  C   UNL     1     105.502  19.679 197.669  1.00  0.00    -0.000 C 
BRANCH   8   9
ATOM      9  C   UNL     1     106.662  20.409 196.967  1.00  0.00    -0.000 C 
BRANCH   9  10
ATOM     10  C   UNL     1     107.422  21.426 197.844  1.00  0.00    -0.000 C 
BRANCH  10  11
ATOM     11  C   UNL     1     107.032  21.419 199.332  1.00  0.00    -0.003 C 
ATOM     12  C   UNL     1     106.141  22.598 199.720  1.00  0.00     0.004 C 
ENDBRANCH  10  11
ENDBRANCH   9  10
ENDBRANCH   8   9
ENDBRANCH   7   8
ENDBRANCH   6   7
ENDBRANCH   5   6
ENDBRANCH   4   5
ENDBRANCH   3   4
ENDBRANCH   2   3
ENDBRANCH   1   2
BRANCH   1  13
ATOM     13  C   UNL     1     104.190  22.448 193.383  1.00  0.00     0.000 C 
BRANCH  13  14
ATOM     14  C   UNL     1     104.821  22.692 194.758  1.00  0.00     0.000 C 
BRANCH  14  15
ATOM     15  C   UNL     1     105.183  24.171 194.943  1.00  0.00     0.000 C 
BRANCH  15  16
ATOM     16  C   UNL     1     105.900  24.399 196.282  1.00  0.00     0.000 C 
BRANCH  16  17
ATOM     17  C   UNL     1     105.028  25.157 197.296  1.00  0.00     0.000 C 
BRANCH  17  18
ATOM     18  C   UNL     1     103.635  25.499 196.738  1.00  0.00     0.000 C 
BRANCH  18  19
ATOM     19  C   UNL     1     102.505  24.788 197.501  1.00  0.00     0.000 C 
BRANCH  19  20
ATOM     20  C   UNL     1     102.988  23.514 198.215  1.00  0.00     0.006 C 
BRANCH  20  21
ATOM     21  C   UNL     1     101.860  22.826 198.996  1.00  0.00     0.053 C 
BRANCH  21  22
ATOM     22  C   UNL     1     101.771  23.335 200.402  1.00  0.00     0.041 C 
ATOM     23  O   UNL     1     102.739  23.190 201.193  1.00  0.00    -0.550 OA
ATOM     24  O   UNL     1     100.603  23.943 200.847  1.00  0.00    -0.550 OA
ENDBRANCH  21  22
ENDBRANCH  20  21
ENDBRANCH  19  20
ENDBRANCH  18  19
ENDBRANCH  17  18
ENDBRANCH  16  17
ENDBRANCH  15  16
ENDBRANCH  14  15
ENDBRANCH  13  14
ENDBRANCH   1  13
TORSDOF 20
ENDMDL
MODEL 7
REMARK VINA RESULT:    -5.632      2.143      5.240
REMARK INTER + INTRA:         -15.516
REMARK INTER:                 -12.529
REMARK INTRA:                  -2.987
REMARK UNBOUND:                -3.300
REMARK SMILES CCCCCCCCCCCCCCCCCCCCCC(=O)[O-]
REMARK SMILES IDX 12 1 11 2 10 3 9 4 8 5 7 6 6 7 5 8 4 9 3 10 2 11 1 12 13 13
REMARK SMILES IDX 14 14 15 15 16 16 17 17 18 18 19 19 20 20 21 21 22 22 23 23
REMARK SMILES IDX 24 24
REMARK H PARENT
REMARK Flexibility Score: inf
ROOT
ATOM      1  C   UNL     1     104.761  25.658 197.279  1.00  0.00     0.000 C 
ENDROOT
BRANCH   1   2
ATOM      2  C   UNL     1     103.313  25.208 197.015  1.00  0.00     0.000 C 
BRANCH   2   3
ATOM      3  C   UNL     1     102.703  24.316 198.112  1.00  0.00     0.000 C 
BRANCH   3   4
ATOM      4  C   UNL     1     103.520  23.038 198.366  1.00  0.00    -0.000 C 
BRANCH   4   5
ATOM      5  C   UNL     1     104.194  23.044 199.755  1.00  0.00    -0.000 C 
BRANCH   5   6
ATOM      6  C   UNL     1     105.708  23.312 199.703  1.00  0.00    -0.000 C 
BRANCH   6   7
ATOM      7  C   UNL     1     106.523  22.060 199.351  1.00  0.00    -0.000 C 
BRANCH   7   8
ATOM      8  C   UNL     1     106.758  21.963 197.837  1.00  0.00    -0.000 C 
BRANCH   8   9
ATOM      9  C   UNL     1     108.164  21.444 197.484  1.00  0.00    -0.000 C 
BRANCH   9  10
ATOM     10  C   UNL     1     108.205  20.348 196.400  1.00  0.00    -0.000 C 
BRANCH  10  11
ATOM     11  C   UNL     1     109.485  20.327 195.547  1.00  0.00    -0.003 C 
ATOM     12  C   UNL     1     110.732  20.726 196.335  1.00  0.00     0.004 C 
ENDBRANCH  10  11
ENDBRANCH   9  10
ENDBRANCH   8   9
ENDBRANCH   7   8
ENDBRANCH   6   7
ENDBRANCH   5   6
ENDBRANCH   4   5
ENDBRANCH   3   4
ENDBRANCH   2   3
ENDBRANCH   1   2
BRANCH   1  13
ATOM     13  C   UNL     1     105.737  25.199 196.186  1.00  0.00     0.000 C 
BRANCH  13  14
ATOM     14  C   UNL     1     104.983  24.609 194.988  1.00  0.00     0.000 C 
BRANCH  14  15
ATOM     15  C   UNL     1     105.379  23.146 194.755  1.00  0.00     0.000 C 
BRANCH  15  16
ATOM     16  C   UNL     1     104.138  22.243 194.694  1.00  0.00     0.000 C 
BRANCH  16  17
ATOM     17  C   UNL     1     103.281  22.502 193.444  1.00  0.00     0.000 C 
BRANCH  17  18
ATOM     18  C   UNL     1     101.773  22.507 193.753  1.00  0.00     0.000 C 
BRANCH  18  19
ATOM     19  C   UNL     1     101.475  22.191 195.228  1.00  0.00     0.000 C 
BRANCH  19  20
ATOM     20  C   UNL     1     101.113  20.712 195.452  1.00  0.00     0.006 C 
BRANCH  20  21
ATOM     21  C   UNL     1     101.184  20.318 196.933  1.00  0.00     0.053 C 
BRANCH  21  22
ATOM     22  C   UNL     1     102.240  19.284 197.180  1.00  0.00     0.041 C 
ATOM     23  O   UNL     1     101.918  18.122 197.541  1.00  0.00    -0.550 OA
ATOM     24  O   UNL     1     103.582  19.615 197.042  1.00  0.00    -0.550 OA
ENDBRANCH  21  22
ENDBRANCH  20  21
ENDBRANCH  19  20
ENDBRANCH  18  19
ENDBRANCH  17  18
ENDBRANCH  16  17
ENDBRANCH  15  16
ENDBRANCH  14  15
ENDBRANCH  13  14
ENDBRANCH   1  13
TORSDOF 20
ENDMDL
MODEL 8
REMARK VINA RESULT:    -5.574      1.809      3.980
REMARK INTER + INTRA:         -15.390
REMARK INTER:                 -11.676
REMARK INTRA:                  -3.714
REMARK UNBOUND:                -3.300
REMARK SMILES CCCCCCCCCCCCCCCCCCCCCC(=O)[O-]
REMARK SMILES IDX 12 1 11 2 10 3 9 4 8 5 7 6 6 7 5 8 4 9 3 10 2 11 1 12 13 13
REMARK SMILES IDX 14 14 15 15 16 16 17 17 18 18 19 19 20 20 21 21 22 22 23 23
REMARK SMILES IDX 24 24
REMARK H PARENT
REMARK Flexibility Score: inf
ROOT
ATOM      1  C   UNL     1     100.479  22.533 198.295  1.00  0.00     0.000 C 
ENDROOT
BRANCH   1   2
ATOM      2  C   UNL     1     100.637  23.767 199.201  1.00  0.00     0.000 C 
BRANCH   2   3
ATOM      3  C   UNL     1     101.604  23.581 200.384  1.00  0.00     0.000 C 
BRANCH   3   4
ATOM      4  C   UNL     1     102.759  22.616 200.066  1.00  0.00    -0.000 C 
BRANCH   4   5
ATOM      5  C   UNL     1     104.140  23.288 200.222  1.00  0.00    -0.000 C 
BRANCH   5   6
ATOM      6  C   UNL     1     104.990  23.251 198.941  1.00  0.00    -0.000 C 
BRANCH   6   7
ATOM      7  C   UNL     1     104.154  23.423 197.666  1.00  0.00    -0.000 C 
BRANCH   7   8
ATOM      8  C   UNL     1     104.612  24.651 196.867  1.00  0.00    -0.000 C 
BRANCH   8   9
ATOM      9  C   UNL     1     104.714  24.376 195.356  1.00  0.00    -0.000 C 
BRANCH   9  10
ATOM     10  C   UNL     1     105.447  23.074 194.975  1.00  0.00    -0.000 C 
BRANCH  10  11
ATOM     11  C   UNL     1     104.666  22.141 194.034  1.00  0.00    -0.003 C 
ATOM     12  C   UNL     1     103.498  22.840 193.338  1.00  0.00     0.004 C 
ENDBRANCH  10  11
ENDBRANCH   9  10
ENDBRANCH   8   9
ENDBRANCH   7   8
ENDBRANCH   6   7
ENDBRANCH   5   6
ENDBRANCH   4   5
ENDBRANCH   3   4
ENDBRANCH   2   3
ENDBRANCH   1   2
BRANCH   1  13
ATOM     13  C   UNL     1     100.724  22.846 196.812  1.00  0.00     0.000 C 
BRANCH  13  14
ATOM     14  C   UNL     1     101.288  21.624 196.078  1.00  0.00     0.000 C 
BRANCH  14  15
ATOM     15  C   UNL     1     100.893  20.325 196.790  1.00  0.00     0.000 C 
BRANCH  15  16
ATOM     16  C   UNL     1     102.093  19.372 196.902  1.00  0.00     0.000 C 
BRANCH  16  17
ATOM     17  C   UNL     1     103.373  20.087 197.363  1.00  0.00     0.000 C 
BRANCH  17  18
ATOM     18  C   UNL     1     104.629  19.580 196.631  1.00  0.00     0.000 C 
BRANCH  18  19
ATOM     19  C   UNL     1     105.552  18.760 197.546  1.00  0.00     0.000 C 
BRANCH  19  20
ATOM     20  C   UNL     1     106.678  19.609 198.161  1.00  0.00     0.006 C 
BRANCH  20  21
ATOM     21  C   UNL     1     107.158  20.710 197.206  1.00  0.00     0.053 C 
BRANCH  21  22
ATOM     22  C   UNL     1     108.069  20.167 196.148  1.00  0.00     0.041 C 
ATOM     23  O   UNL     1     107.916  20.502 194.945  1.00  0.00    -0.550 OA
ATOM     24  O   UNL     1     109.070  19.265 196.490  1.00  0.00    -0.550 OA
ENDBRANCH  21  22
ENDBRANCH  20  21
ENDBRANCH  19  20
ENDBRANCH  18  19
ENDBRANCH  17  18
ENDBRANCH  16  17
ENDBRANCH  15  16
ENDBRANCH  14  15
ENDBRANCH  13  14
ENDBRANCH   1  13
TORSDOF 20
ENDMDL
MODEL 9
REMARK VINA RESULT:    -5.539      2.684      5.479
REMARK INTER + INTRA:         -15.314
REMARK INTER:                 -11.624
REMARK INTRA:                  -3.690
REMARK UNBOUND:                -3.300
REMARK SMILES CCCCCCCCCCCCCCCCCCCCCC(=O)[O-]
REMARK SMILES IDX 12 1 11 2 10 3 9 4 8 5 7 6 6 7 5 8 4 9 3 10 2 11 1 12 13 13
REMARK SMILES IDX 14 14 15 15 16 16 17 17 18 18 19 19 20 20 21 21 22 22 23 23
REMARK SMILES IDX 24 24
REMARK H PARENT
REMARK Flexibility Score: inf
ROOT
ATOM      1  C   UNL     1     104.569  19.718 197.123  1.00  0.00     0.000 C 
ENDROOT
BRANCH   1   2
ATOM      2  C   UNL     1     103.115  19.405 197.519  1.00  0.00     0.000 C 
BRANCH   2   3
ATOM      3  C   UNL     1     102.109  20.534 197.230  1.00  0.00     0.000 C 
BRANCH   3   4
ATOM      4  C   UNL     1     101.279  20.285 195.960  1.00  0.00    -0.000 C 
BRANCH   4   5
ATOM      5  C   UNL     1     101.316  21.488 194.993  1.00  0.00    -0.000 C 
BRANCH   5   6
ATOM      6  C   UNL     1     102.543  22.396 195.188  1.00  0.00    -0.000 C 
BRANCH   6   7
ATOM      7  C   UNL     1     103.410  22.505 193.927  1.00  0.00    -0.000 C 
BRANCH   7   8
ATOM      8  C   UNL     1     104.888  22.707 194.289  1.00  0.00    -0.000 C 
BRANCH   8   9
ATOM      9  C   UNL     1     105.090  23.117 195.760  1.00  0.00    -0.000 C 
BRANCH   9  10
ATOM     10  C   UNL     1     106.036  24.316 195.982  1.00  0.00    -0.000 C 
BRANCH  10  11
ATOM     11  C   UNL     1     105.434  25.474 196.796  1.00  0.00    -0.003 C 
ATOM     12  C   UNL     1     103.915  25.571 196.660  1.00  0.00     0.004 C 
ENDBRANCH  10  11
ENDBRANCH   9  10
ENDBRANCH   8   9
ENDBRANCH   7   8
ENDBRANCH   6   7
ENDBRANCH   5   6
ENDBRANCH   4   5
ENDBRANCH   3   4
ENDBRANCH   2   3
ENDBRANCH   1   2
BRANCH   1  13
ATOM     13  C   UNL     1     105.573  18.705 197.693  1.00  0.00     0.000 C 
BRANCH  13  14
ATOM     14  C   UNL     1     106.991  19.289 197.712  1.00  0.00     0.000 C 
BRANCH  14  15
ATOM     15  C   UNL     1     106.956  20.813 197.875  1.00  0.00     0.000 C 
BRANCH  15  16
ATOM     16  C   UNL     1     106.822  21.206 199.354  1.00  0.00     0.000 C 
BRANCH  16  17
ATOM     17  C   UNL     1     106.797  22.729 199.560  1.00  0.00     0.000 C 
BRANCH  17  18
ATOM     18  C   UNL     1     105.460  23.225 200.138  1.00  0.00     0.000 C 
BRANCH  18  19
ATOM     19  C   UNL     1     104.267  22.896 199.224  1.00  0.00     0.000 C 
BRANCH  19  20
ATOM     20  C   UNL     1     102.915  23.223 199.881  1.00  0.00     0.006 C 
BRANCH  20  21
ATOM     21  C   UNL     1     101.901  23.776 198.871  1.00  0.00     0.053 C 
BRANCH  21  22
ATOM     22  C   UNL     1     100.490  23.559 199.328  1.00  0.00     0.041 C 
ATOM     23  O   UNL     1     100.114  23.983 200.451  1.00  0.00    -0.550 OA
ATOM     24  O   UNL     1      99.600  22.858 198.523  1.00  0.00    -0.550 OA
ENDBRANCH  21  22
ENDBRANCH  20  21
ENDBRANCH  19  20
ENDBRANCH  18  19
ENDBRANCH  17  18
ENDBRANCH  16  17
ENDBRANCH  15  16
ENDBRANCH  14  15
ENDBRANCH  13  14
ENDBRANCH   1  13
TORSDOF 20
ENDMDL
