MODEL 1
REMARK VINA RESULT:   -10.190      0.000      0.000
REMARK INTER + INTRA:         -11.916
REMARK INTER:                 -11.679
REMARK INTRA:                  -0.237
REMARK UNBOUND:                -0.237
REMARK SMILES CC1(C)CC[C@@]23CO[C@]4(C=C[C@H]5[C@@]6(C)CC[C@H](O)[C@@](C)(CO)[C@H]6CC[C@]5(C)[C@]4(C)C[C@H]2O)[C@@H]3C1
REMARK SMILES IDX 1 1 2 2 4 3 5 4 6 5 7 6 8 7 9 8 33 9 34 10 10 11 11 12 12 13
REMARK SMILES IDX 13 14 15 15 16 16 17 17 19 18 23 19 24 20 25 21 26 22 28 23
REMARK SMILES IDX 30 24 31 25 29 26 27 27 20 28 14 29 3 30 32 31 21 33 22 34
REMARK SMILES IDX 18 36
REMARK H PARENT 32 32 22 35 18 37
REMARK Flexibility Score: inf
ROOT
ATOM      1  C   UNL     1     -21.638  -9.512  99.980  1.00  0.00     0.011 C 
ATOM      2  C   UNL     1     -21.293 -10.801 100.749  1.00  0.00    -0.035 C 
ATOM      3  C   UNL     1     -19.889 -11.321 100.311  1.00  0.00     0.007 C 
ATOM      4  C   UNL     1     -19.960 -12.223  99.075  1.00  0.00     0.013 C 
ATOM      5  C   UNL     1     -20.844 -13.491  99.323  1.00  0.00     0.026 C 
ATOM      6  C   UNL     1     -21.782 -13.765  98.123  1.00  0.00     0.171 C 
ATOM      7  O   UNL     1     -23.031 -14.204  98.619  1.00  0.00    -0.369 OA
ATOM      8  C   UNL     1     -22.857 -14.414 100.003  1.00  0.00     0.096 C 
ATOM      9  C   UNL     1     -21.860 -13.309 100.440  1.00  0.00     0.037 C 
ATOM     10  C   UNL     1     -22.419 -11.860 100.491  1.00  0.00     0.014 C 
ATOM     11  C   UNL     1     -24.188 -14.173 100.712  1.00  0.00     0.005 C 
ATOM     12  C   UNL     1     -24.435 -14.678 101.931  1.00  0.00    -0.024 C 
ATOM     13  C   UNL     1     -23.433 -15.654 102.522  1.00  0.00     0.024 C 
ATOM     14  C   UNL     1     -23.727 -16.212 103.982  1.00  0.00    -0.022 C 
ATOM     15  C   UNL     1     -24.959 -17.152 104.010  1.00  0.00     0.010 C 
ATOM     16  C   UNL     1     -25.194 -17.834 105.355  1.00  0.00     0.033 C 
ATOM     17  C   UNL     1     -23.985 -18.706 105.738  1.00  0.00     0.123 C 
ATOM     18  C   UNL     1     -22.656 -17.894 105.841  1.00  0.00     0.020 C 
ATOM     19  C   UNL     1     -22.443 -16.993 104.516  1.00  0.00     0.006 C 
ATOM     20  C   UNL     1     -21.615 -17.658 103.340  1.00  0.00     0.005 C 
ATOM     21  C   UNL     1     -22.360 -17.920 102.016  1.00  0.00     0.008 C 
ATOM     22  C   UNL     1     -23.105 -16.695 101.396  1.00  0.00    -0.017 C 
ATOM     23  C   UNL     1     -22.266 -15.917 100.238  1.00  0.00     0.009 C 
ATOM     24  C   UNL     1     -20.729 -15.797 100.568  1.00  0.00     0.043 C 
ATOM     25  C   UNL     1     -19.964 -14.741  99.709  1.00  0.00     0.124 C 
ATOM     26  C   UNL     1     -22.321 -16.779  98.917  1.00  0.00     0.015 C 
ATOM     27  C   UNL     1     -24.439 -17.251 100.745  1.00  0.00     0.013 C 
ATOM     28  C   UNL     1     -22.674 -16.983 107.118  1.00  0.00     0.017 C 
ATOM     29  C   UNL     1     -24.002 -14.961 104.879  1.00  0.00     0.012 C 
ATOM     30  C   UNL     1     -21.239 -10.459 102.248  1.00  0.00     0.011 C 
ENDROOT
BRANCH  25  31
ATOM     31  O   UNL     1     -19.360 -15.379  98.607  1.00  0.00    -0.392 OA
ATOM     32  H   UNL     1     -19.491 -16.372  98.680  1.00  0.00     0.210 HD
ENDBRANCH  25  31
BRANCH  18  33
ATOM     33  C   UNL     1     -21.468 -18.901 106.035  1.00  0.00     0.165 C 
BRANCH  33  34
ATOM     34  O   UNL     1     -21.149 -19.121 107.386  1.00  0.00    -0.396 OA
ATOM     35  H   UNL     1     -21.944 -18.891 107.938  1.00  0.00     0.210 HD
ENDBRANCH  33  34
ENDBRANCH  18  33
BRANCH  17  36
ATOM     36  O   UNL     1     -24.251 -19.360 106.952  1.00  0.00    -0.392 OA
ATOM     37  H   UNL     1     -23.953 -18.755 107.680  1.00  0.00     0.210 HD
ENDBRANCH  17  36
TORSDOF 4
ENDMDL
MODEL 2
REMARK VINA RESULT:    -9.563     10.228     14.466
REMARK INTER + INTRA:         -11.198
REMARK INTER:                 -10.937
REMARK INTRA:                  -0.261
REMARK UNBOUND:                -0.237
REMARK SMILES CC1(C)CC[C@@]23CO[C@]4(C=C[C@H]5[C@@]6(C)CC[C@H](O)[C@@](C)(CO)[C@H]6CC[C@]5(C)[C@]4(C)C[C@H]2O)[C@@H]3C1
REMARK SMILES IDX 1 1 2 2 4 3 5 4 6 5 7 6 8 7 9 8 33 9 34 10 10 11 11 12 12 13
REMARK SMILES IDX 13 14 15 15 16 16 17 17 19 18 23 19 24 20 25 21 26 22 28 23
REMARK SMILES IDX 30 24 31 25 29 26 27 27 20 28 14 29 3 30 32 31 21 33 22 34
REMARK SMILES IDX 18 36
REMARK H PARENT 32 32 22 35 18 37
REMARK Flexibility Score: inf
ROOT
ATOM      1  C   UNL     1     -14.068  -3.804 110.348  1.00  0.00     0.011 C 
ATOM      2  C   UNL     1     -13.545  -4.518 109.087  1.00  0.00    -0.035 C 
ATOM      3  C   UNL     1     -12.027  -4.216 108.895  1.00  0.00     0.007 C 
ATOM      4  C   UNL     1     -11.783  -2.919 108.116  1.00  0.00     0.013 C 
ATOM      5  C   UNL     1     -12.408  -2.971 106.681  1.00  0.00     0.026 C 
ATOM      6  C   UNL     1     -13.141  -1.651 106.340  1.00  0.00     0.171 C 
ATOM      7  O   UNL     1     -14.316  -1.962 105.620  1.00  0.00    -0.369 OA
ATOM      8  C   UNL     1     -14.247  -3.339 105.321  1.00  0.00     0.096 C 
ATOM      9  C   UNL     1     -13.549  -3.968 106.555  1.00  0.00     0.037 C 
ATOM     10  C   UNL     1     -14.397  -4.053 107.854  1.00  0.00     0.014 C 
ATOM     11  C   UNL     1     -15.665  -3.899 105.229  1.00  0.00     0.005 C 
ATOM     12  C   UNL     1     -15.927  -5.041 104.574  1.00  0.00    -0.024 C 
ATOM     13  C   UNL     1     -14.811  -5.678 103.765  1.00  0.00     0.024 C 
ATOM     14  C   UNL     1     -15.133  -7.050 103.026  1.00  0.00    -0.022 C 
ATOM     15  C   UNL     1     -16.142  -6.864 101.864  1.00  0.00     0.010 C 
ATOM     16  C   UNL     1     -16.369  -8.121 101.028  1.00  0.00     0.033 C 
ATOM     17  C   UNL     1     -15.052  -8.584 100.378  1.00  0.00     0.123 C 
ATOM     18  C   UNL     1     -13.936  -8.902 101.423  1.00  0.00     0.020 C 
ATOM     19  C   UNL     1     -13.778  -7.678 102.468  1.00  0.00     0.006 C 
ATOM     20  C   UNL     1     -12.715  -6.565 102.090  1.00  0.00     0.005 C 
ATOM     21  C   UNL     1     -13.249  -5.147 101.810  1.00  0.00     0.008 C 
ATOM     22  C   UNL     1     -14.162  -4.529 102.917  1.00  0.00    -0.017 C 
ATOM     23  C   UNL     1     -13.387  -3.537 103.948  1.00  0.00     0.009 C 
ATOM     24  C   UNL     1     -11.950  -4.057 104.337  1.00  0.00     0.043 C 
ATOM     25  C   UNL     1     -11.335  -3.371 105.598  1.00  0.00     0.124 C 
ATOM     26  C   UNL     1     -13.126  -2.163 103.219  1.00  0.00     0.015 C 
ATOM     27  C   UNL     1     -15.279  -3.686 102.172  1.00  0.00     0.013 C 
ATOM     28  C   UNL     1     -14.273 -10.227 102.190  1.00  0.00     0.017 C 
ATOM     29  C   UNL     1     -15.751  -7.993 104.110  1.00  0.00     0.012 C 
ATOM     30  C   UNL     1     -13.718  -6.032 109.292  1.00  0.00     0.011 C 
ENDROOT
BRANCH  25  31
ATOM     31  O   UNL     1     -10.501  -2.307 105.196  1.00  0.00    -0.392 OA
ATOM     32  H   UNL     1      -9.762  -2.660 104.615  1.00  0.00     0.210 HD
ENDBRANCH  25  31
BRANCH  18  33
ATOM     33  C   UNL     1     -12.593  -9.165 100.656  1.00  0.00     0.165 C 
BRANCH  33  34
ATOM     34  O   UNL     1     -12.590 -10.384  99.957  1.00  0.00    -0.396 OA
ATOM     35  H   UNL     1     -13.294 -10.346  99.256  1.00  0.00     0.210 HD
ENDBRANCH  33  34
ENDBRANCH  18  33
BRANCH  17  36
ATOM     36  O   UNL     1     -15.301  -9.709  99.575  1.00  0.00    -0.392 OA
ATOM     37  H   UNL     1     -14.635  -9.695  98.840  1.00  0.00     0.210 HD
ENDBRANCH  17  36
TORSDOF 4
ENDMDL
MODEL 3
REMARK VINA RESULT:    -9.277      8.704     10.643
REMARK INTER + INTRA:         -10.870
REMARK INTER:                 -10.616
REMARK INTRA:                  -0.254
REMARK UNBOUND:                -0.237
REMARK SMILES CC1(C)CC[C@@]23CO[C@]4(C=C[C@H]5[C@@]6(C)CC[C@H](O)[C@@](C)(CO)[C@H]6CC[C@]5(C)[C@]4(C)C[C@H]2O)[C@@H]3C1
REMARK SMILES IDX 1 1 2 2 4 3 5 4 6 5 7 6 8 7 9 8 33 9 34 10 10 11 11 12 12 13
REMARK SMILES IDX 13 14 15 15 16 16 17 17 19 18 23 19 24 20 25 21 26 22 28 23
REMARK SMILES IDX 30 24 31 25 29 26 27 27 20 28 14 29 3 30 32 31 21 33 22 34
REMARK SMILES IDX 18 36
REMARK H PARENT 32 32 22 35 18 37
REMARK Flexibility Score: inf
ROOT
ATOM      1  C   UNL     1     -12.336 -16.354  99.629  1.00  0.00     0.011 C 
ATOM      2  C   UNL     1     -12.185 -15.603 100.965  1.00  0.00    -0.035 C 
ATOM      3  C   UNL     1     -10.750 -15.819 101.537  1.00  0.00     0.007 C 
ATOM      4  C   UNL     1     -10.642 -17.094 102.380  1.00  0.00     0.013 C 
ATOM      5  C   UNL     1     -11.609 -17.066 103.611  1.00  0.00     0.026 C 
ATOM      6  C   UNL     1     -12.335 -18.423 103.785  1.00  0.00     0.171 C 
ATOM      7  O   UNL     1     -13.668 -18.172 104.182  1.00  0.00    -0.369 OA
ATOM      8  C   UNL     1     -13.748 -16.791 104.460  1.00  0.00     0.096 C 
ATOM      9  C   UNL     1     -12.795 -16.133 103.426  1.00  0.00     0.037 C 
ATOM     10  C   UNL     1     -13.294 -16.105 101.955  1.00  0.00     0.014 C 
ATOM     11  C   UNL     1     -15.170 -16.310 104.182  1.00  0.00     0.005 C 
ATOM     12  C   UNL     1     -15.647 -15.180 104.726  1.00  0.00    -0.024 C 
ATOM     13  C   UNL     1     -14.805 -14.476 105.775  1.00  0.00     0.024 C 
ATOM     14  C   UNL     1     -15.373 -13.118 106.381  1.00  0.00    -0.022 C 
ATOM     15  C   UNL     1     -16.630 -13.351 107.258  1.00  0.00     0.010 C 
ATOM     16  C   UNL     1     -17.125 -12.103 107.983  1.00  0.00     0.033 C 
ATOM     17  C   UNL     1     -16.039 -11.563 108.932  1.00  0.00     0.123 C 
ATOM     18  C   UNL     1     -14.715 -11.191 108.192  1.00  0.00     0.020 C 
ATOM     19  C   UNL     1     -14.236 -12.412 107.247  1.00  0.00     0.006 C 
ATOM     20  C   UNL     1     -13.245 -13.461 107.903  1.00  0.00     0.005 C 
ATOM     21  C   UNL     1     -13.758 -14.905 108.069  1.00  0.00     0.008 C 
ATOM     22  C   UNL     1     -14.331 -15.580 106.782  1.00  0.00    -0.017 C 
ATOM     23  C   UNL     1     -13.271 -16.536 105.999  1.00  0.00     0.009 C 
ATOM     24  C   UNL     1     -11.811 -15.940 105.972  1.00  0.00     0.043 C 
ATOM     25  C   UNL     1     -10.864 -16.599 104.919  1.00  0.00     0.124 C 
ATOM     26  C   UNL     1     -13.131 -17.888 106.799  1.00  0.00     0.015 C 
ATOM     27  C   UNL     1     -15.553 -16.479 107.242  1.00  0.00     0.013 C 
ATOM     28  C   UNL     1     -14.916  -9.892 107.338  1.00  0.00     0.017 C 
ATOM     29  C   UNL     1     -15.747 -12.219 105.157  1.00  0.00     0.012 C 
ATOM     30  C   UNL     1     -12.380 -14.102 100.691  1.00  0.00     0.011 C 
ENDROOT
BRANCH  25  31
ATOM     31  O   UNL     1     -10.104 -17.612 105.539  1.00  0.00    -0.392 OA
ATOM     32  H   UNL     1     -10.649 -18.454 105.595  1.00  0.00     0.210 HD
ENDBRANCH  25  31
BRANCH  18  33
ATOM     33  C   UNL     1     -13.623 -10.848 109.266  1.00  0.00     0.165 C 
BRANCH  33  34
ATOM     34  O   UNL     1     -13.891  -9.656 109.961  1.00  0.00    -0.396 OA
ATOM     35  H   UNL     1     -13.297  -9.616 110.758  1.00  0.00     0.210 HD
ENDBRANCH  33  34
ENDBRANCH  18  33
BRANCH  17  36
ATOM     36  O   UNL     1     -16.540 -10.448 109.622  1.00  0.00    -0.392 OA
ATOM     37  H   UNL     1     -16.140 -10.464 110.530  1.00  0.00     0.210 HD
ENDBRANCH  17  36
TORSDOF 4
ENDMDL
MODEL 4
REMARK VINA RESULT:    -9.252      2.220      7.471
REMARK INTER + INTRA:         -10.842
REMARK INTER:                 -10.572
REMARK INTRA:                  -0.270
REMARK UNBOUND:                -0.237
REMARK SMILES CC1(C)CC[C@@]23CO[C@]4(C=C[C@H]5[C@@]6(C)CC[C@H](O)[C@@](C)(CO)[C@H]6CC[C@]5(C)[C@]4(C)C[C@H]2O)[C@@H]3C1
REMARK SMILES IDX 1 1 2 2 4 3 5 4 6 5 7 6 8 7 9 8 33 9 34 10 10 11 11 12 12 13
REMARK SMILES IDX 13 14 15 15 16 16 17 17 19 18 23 19 24 20 25 21 26 22 28 23
REMARK SMILES IDX 30 24 31 25 29 26 27 27 20 28 14 29 3 30 32 31 21 33 22 34
REMARK SMILES IDX 18 36
REMARK H PARENT 32 32 22 35 18 37
REMARK Flexibility Score: inf
ROOT
ATOM      1  C   UNL     1     -23.233 -18.289 106.596  1.00  0.00     0.011 C 
ATOM      2  C   UNL     1     -23.533 -17.122 105.637  1.00  0.00    -0.035 C 
ATOM      3  C   UNL     1     -25.003 -17.218 105.125  1.00  0.00     0.007 C 
ATOM      4  C   UNL     1     -25.133 -18.110 103.886  1.00  0.00     0.013 C 
ATOM      5  C   UNL     1     -24.282 -17.576 102.686  1.00  0.00     0.026 C 
ATOM      6  C   UNL     1     -23.520 -18.725 101.982  1.00  0.00     0.171 C 
ATOM      7  O   UNL     1     -22.239 -18.256 101.614  1.00  0.00    -0.369 OA
ATOM      8  C   UNL     1     -22.240 -16.866 101.852  1.00  0.00     0.096 C 
ATOM      9  C   UNL     1     -23.123 -16.690 103.116  1.00  0.00     0.037 C 
ATOM     10  C   UNL     1     -22.497 -17.157 104.459  1.00  0.00     0.014 C 
ATOM     11  C   UNL     1     -20.820 -16.418 102.187  1.00  0.00     0.005 C 
ATOM     12  C   UNL     1     -20.438 -15.138 102.060  1.00  0.00    -0.024 C 
ATOM     13  C   UNL     1     -21.398 -14.165 101.397  1.00  0.00     0.024 C 
ATOM     14  C   UNL     1     -20.942 -12.644 101.289  1.00  0.00    -0.022 C 
ATOM     15  C   UNL     1     -19.760 -12.459 100.304  1.00  0.00     0.010 C 
ATOM     16  C   UNL     1     -19.382 -11.002 100.049  1.00  0.00     0.033 C 
ATOM     17  C   UNL     1     -20.569 -10.235  99.437  1.00  0.00     0.123 C 
ATOM     18  C   UNL     1     -21.836 -10.247 100.350  1.00  0.00     0.020 C 
ATOM     19  C   UNL     1     -22.179 -11.756 100.817  1.00  0.00     0.006 C 
ATOM     20  C   UNL     1     -23.181 -12.566  99.895  1.00  0.00     0.005 C 
ATOM     21  C   UNL     1     -22.627 -13.815  99.181  1.00  0.00     0.008 C 
ATOM     22  C   UNL     1     -21.915 -14.865 100.093  1.00  0.00    -0.017 C 
ATOM     23  C   UNL     1     -22.862 -16.109 100.546  1.00  0.00     0.009 C 
ATOM     24  C   UNL     1     -24.337 -15.666 100.888  1.00  0.00     0.043 C 
ATOM     25  C   UNL     1     -25.158 -16.724 101.691  1.00  0.00     0.124 C 
ATOM     26  C   UNL     1     -23.018 -17.091  99.321  1.00  0.00     0.015 C 
ATOM     27  C   UNL     1     -20.703 -15.451  99.256  1.00  0.00     0.013 C 
ATOM     28  C   UNL     1     -21.613  -9.329 101.601  1.00  0.00     0.017 C 
ATOM     29  C   UNL     1     -20.498 -12.220 102.727  1.00  0.00     0.012 C 
ATOM     30  C   UNL     1     -23.376 -15.809 106.423  1.00  0.00     0.011 C 
ENDROOT
BRANCH  25  31
ATOM     31  O   UNL     1     -25.929 -17.497 100.799  1.00  0.00    -0.392 OA
ATOM     32  H   UNL     1     -25.366 -18.242 100.428  1.00  0.00     0.210 HD
ENDBRANCH  25  31
BRANCH  18  33
ATOM     33  C   UNL     1     -23.033  -9.618  99.551  1.00  0.00     0.165 C 
BRANCH  33  34
ATOM     34  O   UNL     1     -22.965  -8.217  99.473  1.00  0.00    -0.396 OA
ATOM     35  H   UNL     1     -22.266  -7.900 100.106  1.00  0.00     0.210 HD
ENDBRANCH  33  34
ENDBRANCH  18  33
BRANCH  17  36
ATOM     36  O   UNL     1     -20.177  -8.914  99.166  1.00  0.00    -0.392 OA
ATOM     37  H   UNL     1     -19.368  -8.963  98.593  1.00  0.00     0.210 HD
ENDBRANCH  17  36
TORSDOF 4
ENDMDL
MODEL 5
REMARK VINA RESULT:    -9.023      2.350      7.270
REMARK INTER + INTRA:         -10.578
REMARK INTER:                 -10.286
REMARK INTRA:                  -0.293
REMARK UNBOUND:                -0.237
REMARK SMILES CC1(C)CC[C@@]23CO[C@]4(C=C[C@H]5[C@@]6(C)CC[C@H](O)[C@@](C)(CO)[C@H]6CC[C@]5(C)[C@]4(C)C[C@H]2O)[C@@H]3C1
REMARK SMILES IDX 1 1 2 2 4 3 5 4 6 5 7 6 8 7 9 8 33 9 34 10 10 11 11 12 12 13
REMARK SMILES IDX 13 14 15 15 16 16 17 17 19 18 23 19 24 20 25 21 26 22 28 23
REMARK SMILES IDX 30 24 31 25 29 26 27 27 20 28 14 29 3 30 32 31 21 33 22 34
REMARK SMILES IDX 18 36
REMARK H PARENT 32 32 22 35 18 37
REMARK Flexibility Score: inf
ROOT
ATOM      1  C   UNL     1     -24.226 -19.503 105.973  1.00  0.00     0.011 C 
ATOM      2  C   UNL     1     -23.899 -18.126 105.367  1.00  0.00    -0.035 C 
ATOM      3  C   UNL     1     -25.198 -17.269 105.260  1.00  0.00     0.007 C 
ATOM      4  C   UNL     1     -25.962 -17.527 103.958  1.00  0.00     0.013 C 
ATOM      5  C   UNL     1     -25.102 -17.183 102.695  1.00  0.00     0.026 C 
ATOM      6  C   UNL     1     -25.236 -18.279 101.610  1.00  0.00     0.171 C 
ATOM      7  O   UNL     1     -23.973 -18.471 101.006  1.00  0.00    -0.369 OA
ATOM      8  C   UNL     1     -23.139 -17.442 101.492  1.00  0.00     0.096 C 
ATOM      9  C   UNL     1     -23.605 -17.226 102.956  1.00  0.00     0.037 C 
ATOM     10  C   UNL     1     -23.219 -18.338 103.970  1.00  0.00     0.014 C 
ATOM     11  C   UNL     1     -21.696 -17.940 101.510  1.00  0.00     0.005 C 
ATOM     12  C   UNL     1     -20.660 -17.087 101.528  1.00  0.00    -0.024 C 
ATOM     13  C   UNL     1     -20.944 -15.607 101.343  1.00  0.00     0.024 C 
ATOM     14  C   UNL     1     -19.705 -14.610 101.403  1.00  0.00    -0.022 C 
ATOM     15  C   UNL     1     -18.756 -14.784 100.189  1.00  0.00     0.010 C 
ATOM     16  C   UNL     1     -17.635 -13.751 100.120  1.00  0.00     0.033 C 
ATOM     17  C   UNL     1     -18.215 -12.330 100.006  1.00  0.00     0.123 C 
ATOM     18  C   UNL     1     -19.139 -11.951 101.206  1.00  0.00     0.020 C 
ATOM     19  C   UNL     1     -20.239 -13.109 101.457  1.00  0.00     0.006 C 
ATOM     20  C   UNL     1     -21.623 -12.939 100.703  1.00  0.00     0.005 C 
ATOM     21  C   UNL     1     -21.983 -14.001  99.645  1.00  0.00     0.008 C 
ATOM     22  C   UNL     1     -21.915 -15.488 100.118  1.00  0.00    -0.017 C 
ATOM     23  C   UNL     1     -23.349 -16.113 100.567  1.00  0.00     0.009 C 
ATOM     24  C   UNL     1     -24.242 -15.090 101.369  1.00  0.00     0.043 C 
ATOM     25  C   UNL     1     -25.427 -15.740 102.151  1.00  0.00     0.124 C 
ATOM     26  C   UNL     1     -24.185 -16.432  99.268  1.00  0.00     0.015 C 
ATOM     27  C   UNL     1     -21.374 -16.334  98.892  1.00  0.00     0.013 C 
ATOM     28  C   UNL     1     -18.284 -11.727 102.500  1.00  0.00     0.017 C 
ATOM     29  C   UNL     1     -18.937 -14.950 102.722  1.00  0.00     0.012 C 
ATOM     30  C   UNL     1     -22.920 -17.411 106.314  1.00  0.00     0.011 C 
ENDROOT
BRANCH  25  31
ATOM     31  O   UNL     1     -26.599 -15.673 101.369  1.00  0.00    -0.392 OA
ATOM     32  H   UNL     1     -27.404 -15.673 101.970  1.00  0.00     0.210 HD
ENDBRANCH  25  31
BRANCH  18  33
ATOM     33  C   UNL     1     -19.829 -10.577 100.891  1.00  0.00     0.165 C 
BRANCH  33  34
ATOM     34  O   UNL     1     -19.818 -10.257  99.522  1.00  0.00    -0.396 OA
ATOM     35  H   UNL     1     -19.789  -9.267  99.432  1.00  0.00     0.210 HD
ENDBRANCH  33  34
ENDBRANCH  18  33
BRANCH  17  36
ATOM     36  O   UNL     1     -17.163 -11.407  99.892  1.00  0.00    -0.392 OA
ATOM     37  H   UNL     1     -17.033 -11.232  98.924  1.00  0.00     0.210 HD
ENDBRANCH  17  36
TORSDOF 4
ENDMDL
MODEL 6
REMARK VINA RESULT:    -8.836      3.376      6.336
REMARK INTER + INTRA:         -10.364
REMARK INTER:                 -10.279
REMARK INTRA:                  -0.085
REMARK UNBOUND:                -0.237
REMARK SMILES CC1(C)CC[C@@]23CO[C@]4(C=C[C@H]5[C@@]6(C)CC[C@H](O)[C@@](C)(CO)[C@H]6CC[C@]5(C)[C@]4(C)C[C@H]2O)[C@@H]3C1
REMARK SMILES IDX 1 1 2 2 4 3 5 4 6 5 7 6 8 7 9 8 33 9 34 10 10 11 11 12 12 13
REMARK SMILES IDX 13 14 15 15 16 16 17 17 19 18 23 19 24 20 25 21 26 22 28 23
REMARK SMILES IDX 30 24 31 25 29 26 27 27 20 28 14 29 3 30 32 31 21 33 22 34
REMARK SMILES IDX 18 36
REMARK H PARENT 32 32 22 35 18 37
REMARK Flexibility Score: inf
ROOT
ATOM      1  C   UNL     1     -18.959  -9.230 105.195  1.00  0.00     0.011 C 
ATOM      2  C   UNL     1     -20.204 -10.074 104.867  1.00  0.00    -0.035 C 
ATOM      3  C   UNL     1     -21.464  -9.447 105.538  1.00  0.00     0.007 C 
ATOM      4  C   UNL     1     -21.663  -9.932 106.977  1.00  0.00     0.013 C 
ATOM      5  C   UNL     1     -21.850 -11.485 107.052  1.00  0.00     0.026 C 
ATOM      6  C   UNL     1     -21.022 -12.095 108.209  1.00  0.00     0.171 C 
ATOM      7  O   UNL     1     -20.486 -13.329 107.777  1.00  0.00    -0.369 OA
ATOM      8  C   UNL     1     -21.088 -13.611 106.532  1.00  0.00     0.096 C 
ATOM      9  C   UNL     1     -21.256 -12.222 105.861  1.00  0.00     0.037 C 
ATOM     10  C   UNL     1     -19.956 -11.547 105.345  1.00  0.00     0.014 C 
ATOM     11  C   UNL     1     -20.122 -14.441 105.690  1.00  0.00     0.005 C 
ATOM     12  C   UNL     1     -20.552 -15.187 104.660  1.00  0.00    -0.024 C 
ATOM     13  C   UNL     1     -22.049 -15.337 104.457  1.00  0.00     0.024 C 
ATOM     14  C   UNL     1     -22.537 -16.196 103.210  1.00  0.00    -0.022 C 
ATOM     15  C   UNL     1     -22.207 -17.701 103.372  1.00  0.00     0.010 C 
ATOM     16  C   UNL     1     -22.787 -18.590 102.275  1.00  0.00     0.033 C 
ATOM     17  C   UNL     1     -24.323 -18.491 102.254  1.00  0.00     0.123 C 
ATOM     18  C   UNL     1     -24.837 -17.037 102.012  1.00  0.00     0.020 C 
ATOM     19  C   UNL     1     -24.110 -16.007 103.023  1.00  0.00     0.006 C 
ATOM     20  C   UNL     1     -24.847 -15.737 104.400  1.00  0.00     0.005 C 
ATOM     21  C   UNL     1     -24.126 -16.188 105.685  1.00  0.00     0.008 C 
ATOM     22  C   UNL     1     -22.659 -15.680 105.861  1.00  0.00    -0.017 C 
ATOM     23  C   UNL     1     -22.516 -14.355 106.795  1.00  0.00     0.009 C 
ATOM     24  C   UNL     1     -23.670 -13.307 106.555  1.00  0.00     0.043 C 
ATOM     25  C   UNL     1     -23.374 -11.880 107.116  1.00  0.00     0.124 C 
ATOM     26  C   UNL     1     -22.681 -14.786 108.303  1.00  0.00     0.015 C 
ATOM     27  C   UNL     1     -21.847 -16.855 106.550  1.00  0.00     0.013 C 
ATOM     28  C   UNL     1     -24.577 -16.611 100.525  1.00  0.00     0.017 C 
ATOM     29  C   UNL     1     -21.781 -15.624 101.966  1.00  0.00     0.012 C 
ATOM     30  C   UNL     1     -20.404 -10.053 103.342  1.00  0.00     0.011 C 
ENDROOT
BRANCH  25  31
ATOM     31  O   UNL     1     -23.947 -11.751 108.398  1.00  0.00    -0.392 OA
ATOM     32  H   UNL     1     -24.825 -12.238 108.425  1.00  0.00     0.210 HD
ENDBRANCH  25  31
BRANCH  18  33
ATOM     33  C   UNL     1     -26.393 -17.018 102.209  1.00  0.00     0.165 C 
BRANCH  33  34
ATOM     34  O   UNL     1     -27.002 -15.873 101.667  1.00  0.00    -0.396 OA
ATOM     35  H   UNL     1     -26.643 -15.730 100.751  1.00  0.00     0.210 HD
ENDBRANCH  33  34
ENDBRANCH  18  33
BRANCH  17  36
ATOM     36  O   UNL     1     -24.830 -19.357 101.272  1.00  0.00    -0.392 OA
ATOM     37  H   UNL     1     -25.813 -19.395 101.396  1.00  0.00     0.210 HD
ENDBRANCH  17  36
TORSDOF 4
ENDMDL
MODEL 7
REMARK VINA RESULT:    -8.821      7.866     11.263
REMARK INTER + INTRA:         -10.347
REMARK INTER:                 -10.084
REMARK INTRA:                  -0.263
REMARK UNBOUND:                -0.237
REMARK SMILES CC1(C)CC[C@@]23CO[C@]4(C=C[C@H]5[C@@]6(C)CC[C@H](O)[C@@](C)(CO)[C@H]6CC[C@]5(C)[C@]4(C)C[C@H]2O)[C@@H]3C1
REMARK SMILES IDX 1 1 2 2 4 3 5 4 6 5 7 6 8 7 9 8 33 9 34 10 10 11 11 12 12 13
REMARK SMILES IDX 13 14 15 15 16 16 17 17 19 18 23 19 24 20 25 21 26 22 28 23
REMARK SMILES IDX 30 24 31 25 29 26 27 27 20 28 14 29 3 30 32 31 21 33 22 34
REMARK SMILES IDX 18 36
REMARK H PARENT 32 32 22 35 18 37
REMARK Flexibility Score: inf
ROOT
ATOM      1  C   UNL     1     -23.639  -1.905 101.390  1.00  0.00     0.011 C 
ATOM      2  C   UNL     1     -23.997  -3.146 102.228  1.00  0.00    -0.035 C 
ATOM      3  C   UNL     1     -25.528  -3.164 102.526  1.00  0.00     0.007 C 
ATOM      4  C   UNL     1     -25.889  -2.362 103.780  1.00  0.00     0.013 C 
ATOM      5  C   UNL     1     -25.183  -2.926 105.060  1.00  0.00     0.026 C 
ATOM      6  C   UNL     1     -24.603  -1.784 105.930  1.00  0.00     0.171 C 
ATOM      7  O   UNL     1     -23.360  -2.205 106.453  1.00  0.00    -0.369 OA
ATOM      8  C   UNL     1     -23.239  -3.576 106.140  1.00  0.00     0.096 C 
ATOM      9  C   UNL     1     -23.921  -3.717 104.753  1.00  0.00     0.037 C 
ATOM     10  C   UNL     1     -23.143  -3.131 103.543  1.00  0.00     0.014 C 
ATOM     11  C   UNL     1     -21.760  -3.923 105.989  1.00  0.00     0.005 C 
ATOM     12  C   UNL     1     -21.321  -5.186 106.098  1.00  0.00    -0.024 C 
ATOM     13  C   UNL     1     -22.301  -6.251 106.559  1.00  0.00     0.024 C 
ATOM     14  C   UNL     1     -21.770  -7.748 106.647  1.00  0.00    -0.022 C 
ATOM     15  C   UNL     1     -20.729  -7.932 107.781  1.00  0.00     0.010 C 
ATOM     16  C   UNL     1     -20.300  -9.379 108.005  1.00  0.00     0.033 C 
ATOM     17  C   UNL     1     -21.511 -10.248 108.394  1.00  0.00     0.123 C 
ATOM     18  C   UNL     1     -22.634 -10.246 107.310  1.00  0.00     0.020 C 
ATOM     19  C   UNL     1     -23.003  -8.731 106.883  1.00  0.00     0.006 C 
ATOM     20  C   UNL     1     -24.174  -8.038 107.694  1.00  0.00     0.005 C 
ATOM     21  C   UNL     1     -23.806  -6.809 108.550  1.00  0.00     0.008 C 
ATOM     22  C   UNL     1     -23.040  -5.666 107.812  1.00  0.00    -0.017 C 
ATOM     23  C   UNL     1     -23.990  -4.448 107.297  1.00  0.00     0.009 C 
ATOM     24  C   UNL     1     -25.371  -4.948 106.721  1.00  0.00     0.043 C 
ATOM     25  C   UNL     1     -26.136  -3.887 105.868  1.00  0.00     0.124 C 
ATOM     26  C   UNL     1     -24.379  -3.557 108.539  1.00  0.00     0.015 C 
ATOM     27  C   UNL     1     -21.999  -5.069 108.847  1.00  0.00     0.013 C 
ATOM     28  C   UNL     1     -22.179 -11.067 106.054  1.00  0.00     0.017 C 
ATOM     29  C   UNL     1     -21.101  -8.053 105.267  1.00  0.00     0.012 C 
ATOM     30  C   UNL     1     -23.648  -4.395 101.400  1.00  0.00     0.011 C 
ENDROOT
BRANCH  25  31
ATOM     31  O   UNL     1     -27.072  -3.215 106.681  1.00  0.00    -0.392 OA
ATOM     32  H   UNL     1     -28.003  -3.467 106.400  1.00  0.00     0.210 HD
ENDBRANCH  25  31
BRANCH  18  33
ATOM     33  C   UNL     1     -23.889 -10.989 107.890  1.00  0.00     0.165 C 
BRANCH  33  34
ATOM     34  O   UNL     1     -23.706 -12.379 107.993  1.00  0.00    -0.396 OA
ATOM     35  H   UNL     1     -23.792 -12.637 108.949  1.00  0.00     0.210 HD
ENDBRANCH  33  34
ENDBRANCH  18  33
BRANCH  17  36
ATOM     36  O   UNL     1     -21.078 -11.560 108.645  1.00  0.00    -0.392 OA
ATOM     37  H   UNL     1     -20.415 -11.787 107.943  1.00  0.00     0.210 HD
ENDBRANCH  17  36
TORSDOF 4
ENDMDL
MODEL 8
REMARK VINA RESULT:    -8.568      7.652     11.987
REMARK INTER + INTRA:         -10.057
REMARK INTER:                  -9.799
REMARK INTRA:                  -0.258
REMARK UNBOUND:                -0.237
REMARK SMILES CC1(C)CC[C@@]23CO[C@]4(C=C[C@H]5[C@@]6(C)CC[C@H](O)[C@@](C)(CO)[C@H]6CC[C@]5(C)[C@]4(C)C[C@H]2O)[C@@H]3C1
REMARK SMILES IDX 1 1 2 2 4 3 5 4 6 5 7 6 8 7 9 8 33 9 34 10 10 11 11 12 12 13
REMARK SMILES IDX 13 14 15 15 16 16 17 17 19 18 23 19 24 20 25 21 26 22 28 23
REMARK SMILES IDX 30 24 31 25 29 26 27 27 20 28 14 29 3 30 32 31 21 33 22 34
REMARK SMILES IDX 18 36
REMARK H PARENT 32 32 22 35 18 37
REMARK Flexibility Score: inf
ROOT
ATOM      1  C   UNL     1     -21.758 -12.590 108.564  1.00  0.00     0.011 C 
ATOM      2  C   UNL     1     -22.075 -11.452 107.575  1.00  0.00    -0.035 C 
ATOM      3  C   UNL     1     -21.237 -11.631 106.272  1.00  0.00     0.007 C 
ATOM      4  C   UNL     1     -19.849 -10.990 106.377  1.00  0.00     0.013 C 
ATOM      5  C   UNL     1     -19.933  -9.449 106.640  1.00  0.00     0.026 C 
ATOM      6  C   UNL     1     -18.922  -9.010 107.728  1.00  0.00     0.171 C 
ATOM      7  O   UNL     1     -19.532  -8.024 108.536  1.00  0.00    -0.369 OA
ATOM      8  C   UNL     1     -20.746  -7.685 107.903  1.00  0.00     0.096 C 
ATOM      9  C   UNL     1     -21.242  -9.017 107.281  1.00  0.00     0.037 C 
ATOM     10  C   UNL     1     -21.786 -10.079 108.276  1.00  0.00     0.014 C 
ATOM     11  C   UNL     1     -21.752  -7.242 108.963  1.00  0.00     0.005 C 
ATOM     12  C   UNL     1     -22.819  -6.492 108.648  1.00  0.00    -0.024 C 
ATOM     13  C   UNL     1     -22.914  -5.934 107.239  1.00  0.00     0.024 C 
ATOM     14  C   UNL     1     -24.206  -5.078 106.876  1.00  0.00    -0.022 C 
ATOM     15  C   UNL     1     -24.239  -3.723 107.629  1.00  0.00     0.010 C 
ATOM     16  C   UNL     1     -25.377  -2.800 107.204  1.00  0.00     0.033 C 
ATOM     17  C   UNL     1     -25.261  -2.452 105.709  1.00  0.00     0.123 C 
ATOM     18  C   UNL     1     -25.298  -3.711 104.786  1.00  0.00     0.020 C 
ATOM     19  C   UNL     1     -24.241  -4.819 105.303  1.00  0.00     0.006 C 
ATOM     20  C   UNL     1     -22.787  -4.749 104.676  1.00  0.00     0.005 C 
ATOM     21  C   UNL     1     -21.623  -4.420 105.631  1.00  0.00     0.008 C 
ATOM     22  C   UNL     1     -21.513  -5.313 106.908  1.00  0.00    -0.017 C 
ATOM     23  C   UNL     1     -20.452  -6.541 106.777  1.00  0.00     0.009 C 
ATOM     24  C   UNL     1     -20.479  -7.227 105.357  1.00  0.00     0.043 C 
ATOM     25  C   UNL     1     -19.789  -8.627 105.303  1.00  0.00     0.124 C 
ATOM     26  C   UNL     1     -18.992  -5.957 106.906  1.00  0.00     0.015 C 
ATOM     27  C   UNL     1     -21.027  -4.370 108.086  1.00  0.00     0.013 C 
ATOM     28  C   UNL     1     -26.744  -4.316 104.751  1.00  0.00     0.017 C 
ATOM     29  C   UNL     1     -25.436  -5.944 107.301  1.00  0.00     0.012 C 
ATOM     30  C   UNL     1     -23.567 -11.541 107.211  1.00  0.00     0.011 C 
ENDROOT
BRANCH  25  31
ATOM     31  O   UNL     1     -18.458  -8.478 104.862  1.00  0.00    -0.392 OA
ATOM     32  H   UNL     1     -18.043  -7.679 105.307  1.00  0.00     0.210 HD
ENDBRANCH  25  31
BRANCH  18  33
ATOM     33  C   UNL     1     -24.973  -3.263 103.317  1.00  0.00     0.165 C 
BRANCH  33  34
ATOM     34  O   UNL     1     -26.115  -2.877 102.595  1.00  0.00    -0.396 OA
ATOM     35  H   UNL     1     -26.146  -1.883 102.566  1.00  0.00     0.210 HD
ENDBRANCH  33  34
ENDBRANCH  18  33
BRANCH  17  36
ATOM     36  O   UNL     1     -26.289  -1.562 105.359  1.00  0.00    -0.392 OA
ATOM     37  H   UNL     1     -25.871  -0.818 104.852  1.00  0.00     0.210 HD
ENDBRANCH  17  36
TORSDOF 4
ENDMDL
MODEL 9
REMARK VINA RESULT:    -8.461      2.612      7.398
REMARK INTER + INTRA:          -9.935
REMARK INTER:                  -9.629
REMARK INTRA:                  -0.306
REMARK UNBOUND:                -0.237
REMARK SMILES CC1(C)CC[C@@]23CO[C@]4(C=C[C@H]5[C@@]6(C)CC[C@H](O)[C@@](C)(CO)[C@H]6CC[C@]5(C)[C@]4(C)C[C@H]2O)[C@@H]3C1
REMARK SMILES IDX 1 1 2 2 4 3 5 4 6 5 7 6 8 7 9 8 33 9 34 10 10 11 11 12 12 13
REMARK SMILES IDX 13 14 15 15 16 16 17 17 19 18 23 19 24 20 25 21 26 22 28 23
REMARK SMILES IDX 30 24 31 25 29 26 27 27 20 28 14 29 3 30 32 31 21 33 22 34
REMARK SMILES IDX 18 36
REMARK H PARENT 32 32 22 35 18 37
REMARK Flexibility Score: inf
ROOT
ATOM      1  C   UNL     1     -23.257 -19.854 103.300  1.00  0.00     0.011 C 
ATOM      2  C   UNL     1     -22.817 -18.379 103.335  1.00  0.00    -0.035 C 
ATOM      3  C   UNL     1     -24.009 -17.479 103.784  1.00  0.00     0.007 C 
ATOM      4  C   UNL     1     -24.900 -17.061 102.611  1.00  0.00     0.013 C 
ATOM      5  C   UNL     1     -24.109 -16.241 101.537  1.00  0.00     0.026 C 
ATOM      6  C   UNL     1     -24.458 -16.709 100.103  1.00  0.00     0.171 C 
ATOM      7  O   UNL     1     -23.279 -16.692  99.324  1.00  0.00    -0.369 OA
ATOM      8  C   UNL     1     -22.293 -16.059 100.110  1.00  0.00     0.096 C 
ATOM      9  C   UNL     1     -22.611 -16.502 101.562  1.00  0.00     0.037 C 
ATOM     10  C   UNL     1     -22.281 -17.978 101.917  1.00  0.00     0.014 C 
ATOM     11  C   UNL     1     -20.922 -16.610  99.724  1.00  0.00     0.005 C 
ATOM     12  C   UNL     1     -19.794 -15.934  99.990  1.00  0.00    -0.024 C 
ATOM     13  C   UNL     1     -19.914 -14.516 100.521  1.00  0.00     0.024 C 
ATOM     14  C   UNL     1     -18.564 -13.746 100.864  1.00  0.00    -0.022 C 
ATOM     15  C   UNL     1     -17.743 -13.413  99.592  1.00  0.00     0.010 C 
ATOM     16  C   UNL     1     -16.516 -12.544  99.851  1.00  0.00     0.033 C 
ATOM     17  C   UNL     1     -16.930 -11.189 100.455  1.00  0.00     0.123 C 
ATOM     18  C   UNL     1     -17.704 -11.335 101.803  1.00  0.00     0.020 C 
ATOM     19  C   UNL     1     -18.911 -12.401 101.647  1.00  0.00     0.006 C 
ATOM     20  C   UNL     1     -20.319 -11.809 101.227  1.00  0.00     0.005 C 
ATOM     21  C   UNL     1     -20.886 -12.244  99.861  1.00  0.00     0.008 C 
ATOM     22  C   UNL     1     -20.959 -13.785  99.609  1.00  0.00    -0.017 C 
ATOM     23  C   UNL     1     -22.417 -14.444  99.908  1.00  0.00     0.009 C 
ATOM     24  C   UNL     1     -23.114 -13.839 101.186  1.00  0.00     0.043 C 
ATOM     25  C   UNL     1     -24.302 -14.689 101.737  1.00  0.00     0.124 C 
ATOM     26  C   UNL     1     -23.385 -14.076  98.718  1.00  0.00     0.015 C 
ATOM     27  C   UNL     1     -20.622 -14.015  98.078  1.00  0.00     0.013 C 
ATOM     28  C   UNL     1     -16.728 -11.787 102.943  1.00  0.00     0.017 C 
ATOM     29  C   UNL     1     -17.739 -14.702 101.785  1.00  0.00     0.012 C 
ATOM     30  C   UNL     1     -21.688 -18.244 104.371  1.00  0.00     0.011 C 
ENDROOT
BRANCH  25  31
ATOM     31  O   UNL     1     -25.516 -14.191 101.221  1.00  0.00    -0.392 OA
ATOM     32  H   UNL     1     -25.387 -13.245 100.910  1.00  0.00     0.210 HD
ENDBRANCH  25  31
BRANCH  18  33
ATOM     33  C   UNL     1     -18.249  -9.925 102.222  1.00  0.00     0.165 C 
BRANCH  33  34
ATOM     34  O   UNL     1     -18.203  -8.985 101.177  1.00  0.00    -0.396 OA
ATOM     35  H   UNL     1     -17.261  -8.690 101.062  1.00  0.00     0.210 HD
ENDBRANCH  33  34
ENDBRANCH  18  33
BRANCH  17  36
ATOM     36  O   UNL     1     -15.788 -10.392 100.633  1.00  0.00    -0.392 OA
ATOM     37  H   UNL     1     -15.061 -10.801 100.096  1.00  0.00     0.210 HD
ENDBRANCH  17  36
TORSDOF 4
ENDMDL
