MODEL 1
REMARK VINA RESULT:    -5.724      0.000      0.000
REMARK INTER + INTRA:          -5.724
REMARK INTER:                  -5.724
REMARK INTRA:                   0.000
REMARK UNBOUND:                 0.000
REMARK SMILES CC1=CC(=O)[C@H]2C[C@@H]1C2(C)C
REMARK SMILES IDX 1 1 2 2 3 3 4 4 5 5 6 6 7 7 8 8 9 9 10 10 11 11
REMARK H PARENT
REMARK Flexibility Score: inf
ROOT
ATOM      1  C   UNL     1     -13.302 -14.310  28.626  1.00  0.00     0.040 C 
ATOM      2  C   UNL     1     -12.228 -15.336  28.445  1.00  0.00    -0.066 C 
ATOM      3  C   UNL     1     -12.019 -15.937  27.241  1.00  0.00     0.047 C 
ATOM      4  C   UNL     1     -10.934 -16.971  27.196  1.00  0.00     0.159 C 
ATOM      5  O   UNL     1     -10.671 -17.624  26.153  1.00  0.00    -0.295 OA
ATOM      6  C   UNL     1     -10.172 -17.178  28.506  1.00  0.00     0.067 C 
ATOM      7  C   UNL     1      -9.875 -15.746  29.000  1.00  0.00     0.021 C 
ATOM      8  C   UNL     1     -11.297 -15.752  29.605  1.00  0.00     0.022 C 
ATOM      9  C   UNL     1     -11.204 -17.305  29.663  1.00  0.00    -0.019 C 
ATOM     10  C   UNL     1     -12.500 -18.128  29.413  1.00  0.00     0.012 C 
ATOM     11  C   UNL     1     -10.557 -17.807  30.978  1.00  0.00     0.012 C 
ENDROOT
TORSDOF 0
ENDMDL
MODEL 2
REMARK VINA RESULT:    -5.404      1.973      3.492
REMARK INTER + INTRA:          -5.404
REMARK INTER:                  -5.404
REMARK INTRA:                   0.000
REMARK UNBOUND:                 0.000
REMARK SMILES CC1=CC(=O)[C@H]2C[C@@H]1C2(C)C
REMARK SMILES IDX 1 1 2 2 3 3 4 4 5 5 6 6 7 7 8 8 9 9 10 10 11 11
REMARK H PARENT
REMARK Flexibility Score: inf
ROOT
ATOM      1  C   UNL     1      -9.970 -18.296  31.308  1.00  0.00     0.040 C 
ATOM      2  C   UNL     1     -10.663 -17.276  30.461  1.00  0.00    -0.066 C 
ATOM      3  C   UNL     1     -11.760 -16.607  30.913  1.00  0.00     0.047 C 
ATOM      4  C   UNL     1     -12.382 -15.633  29.957  1.00  0.00     0.159 C 
ATOM      5  O   UNL     1     -13.421 -14.984  30.242  1.00  0.00    -0.295 OA
ATOM      6  C   UNL     1     -11.667 -15.487  28.613  1.00  0.00     0.067 C 
ATOM      7  C   UNL     1     -10.174 -15.376  28.990  1.00  0.00     0.021 C 
ATOM      8  C   UNL     1     -10.161 -16.920  29.045  1.00  0.00     0.022 C 
ATOM      9  C   UNL     1     -11.364 -16.908  28.057  1.00  0.00    -0.019 C 
ATOM     10  C   UNL     1     -12.452 -18.010  28.210  1.00  0.00     0.012 C 
ATOM     11  C   UNL     1     -10.910 -16.877  26.576  1.00  0.00     0.012 C 
ENDROOT
TORSDOF 0
ENDMDL
MODEL 3
REMARK VINA RESULT:    -5.317      2.456      3.560
REMARK INTER + INTRA:          -5.317
REMARK INTER:                  -5.317
REMARK INTRA:                   0.000
REMARK UNBOUND:                 0.000
REMARK SMILES CC1=CC(=O)[C@H]2C[C@@H]1C2(C)C
REMARK SMILES IDX 1 1 2 2 3 3 4 4 5 5 6 6 7 7 8 8 9 9 10 10 11 11
REMARK H PARENT
REMARK Flexibility Score: inf
ROOT
ATOM      1  C   UNL     1     -13.825 -15.371  32.257  1.00  0.00     0.040 C 
ATOM      2  C   UNL     1     -12.874 -16.254  31.512  1.00  0.00    -0.066 C 
ATOM      3  C   UNL     1     -12.578 -17.508  31.952  1.00  0.00     0.047 C 
ATOM      4  C   UNL     1     -11.587 -18.282  31.135  1.00  0.00     0.159 C 
ATOM      5  O   UNL     1     -11.203 -19.435  31.459  1.00  0.00    -0.295 OA
ATOM      6  C   UNL     1     -11.076 -17.570  29.881  1.00  0.00     0.067 C 
ATOM      7  C   UNL     1     -12.349 -16.988  29.231  1.00  0.00     0.021 C 
ATOM      8  C   UNL     1     -12.196 -15.795  30.202  1.00  0.00     0.022 C 
ATOM      9  C   UNL     1     -10.675 -16.117  30.266  1.00  0.00    -0.019 C 
ATOM     10  C   UNL     1      -9.931 -15.887  31.613  1.00  0.00     0.012 C 
ATOM     11  C   UNL     1      -9.875 -15.409  29.144  1.00  0.00     0.012 C 
ENDROOT
TORSDOF 0
ENDMDL
MODEL 4
REMARK VINA RESULT:    -5.313      1.842      3.054
REMARK INTER + INTRA:          -5.313
REMARK INTER:                  -5.313
REMARK INTRA:                   0.000
REMARK UNBOUND:                 0.000
REMARK SMILES CC1=CC(=O)[C@H]2C[C@@H]1C2(C)C
REMARK SMILES IDX 1 1 2 2 3 3 4 4 5 5 6 6 7 7 8 8 9 9 10 10 11 11
REMARK H PARENT
REMARK Flexibility Score: inf
ROOT
ATOM      1  C   UNL     1     -13.389 -13.867  28.630  1.00  0.00     0.040 C 
ATOM      2  C   UNL     1     -12.791 -15.224  28.826  1.00  0.00    -0.066 C 
ATOM      3  C   UNL     1     -12.644 -15.761  30.069  1.00  0.00     0.047 C 
ATOM      4  C   UNL     1     -12.002 -17.115  30.134  1.00  0.00     0.159 C 
ATOM      5  O   UNL     1     -11.775 -17.699  31.225  1.00  0.00    -0.295 OA
ATOM      6  C   UNL     1     -11.641 -17.734  28.783  1.00  0.00     0.067 C 
ATOM      7  C   UNL     1     -12.894 -17.498  27.912  1.00  0.00     0.021 C 
ATOM      8  C   UNL     1     -12.328 -16.087  27.632  1.00  0.00     0.022 C 
ATOM      9  C   UNL     1     -10.911 -16.660  27.926  1.00  0.00    -0.019 C 
ATOM     10  C   UNL     1      -9.875 -15.734  28.626  1.00  0.00     0.012 C 
ATOM     11  C   UNL     1     -10.247 -17.265  26.664  1.00  0.00     0.012 C 
ENDROOT
TORSDOF 0
ENDMDL
MODEL 5
REMARK VINA RESULT:    -5.303      1.405      1.516
REMARK INTER + INTRA:          -5.303
REMARK INTER:                  -5.303
REMARK INTRA:                   0.000
REMARK UNBOUND:                 0.000
REMARK SMILES CC1=CC(=O)[C@H]2C[C@@H]1C2(C)C
REMARK SMILES IDX 1 1 2 2 3 3 4 4 5 5 6 6 7 7 8 8 9 9 10 10 11 11
REMARK H PARENT
REMARK Flexibility Score: inf
ROOT
ATOM      1  C   UNL     1     -13.031 -14.250  28.320  1.00  0.00     0.040 C 
ATOM      2  C   UNL     1     -12.228 -15.458  28.687  1.00  0.00    -0.066 C 
ATOM      3  C   UNL     1     -12.525 -16.686  28.180  1.00  0.00     0.047 C 
ATOM      4  C   UNL     1     -11.666 -17.823  28.650  1.00  0.00     0.159 C 
ATOM      5  O   UNL     1     -11.865 -19.010  28.285  1.00  0.00    -0.295 OA
ATOM      6  C   UNL     1     -10.536 -17.437  29.604  1.00  0.00     0.067 C 
ATOM      7  C   UNL     1      -9.903 -16.187  28.955  1.00  0.00     0.021 C 
ATOM      8  C   UNL     1     -11.019 -15.370  29.643  1.00  0.00     0.022 C 
ATOM      9  C   UNL     1     -11.114 -16.503  30.705  1.00  0.00    -0.019 C 
ATOM     10  C   UNL     1     -12.513 -16.837  31.299  1.00  0.00     0.012 C 
ATOM     11  C   UNL     1     -10.127 -16.294  31.880  1.00  0.00     0.012 C 
ENDROOT
TORSDOF 0
ENDMDL
MODEL 6
REMARK VINA RESULT:    -5.282      2.092      2.780
REMARK INTER + INTRA:          -5.282
REMARK INTER:                  -5.282
REMARK INTRA:                   0.000
REMARK UNBOUND:                 0.000
REMARK SMILES CC1=CC(=O)[C@H]2C[C@@H]1C2(C)C
REMARK SMILES IDX 1 1 2 2 3 3 4 4 5 5 6 6 7 7 8 8 9 9 10 10 11 11
REMARK H PARENT
REMARK Flexibility Score: inf
ROOT
ATOM      1  C   UNL     1     -13.710 -16.459  32.738  1.00  0.00     0.040 C 
ATOM      2  C   UNL     1     -12.688 -16.339  31.652  1.00  0.00    -0.066 C 
ATOM      3  C   UNL     1     -12.902 -15.551  30.562  1.00  0.00     0.047 C 
ATOM      4  C   UNL     1     -11.816 -15.540  29.528  1.00  0.00     0.159 C 
ATOM      5  O   UNL     1     -11.912 -14.883  28.459  1.00  0.00    -0.295 OA
ATOM      6  C   UNL     1     -10.586 -16.384  29.863  1.00  0.00     0.067 C 
ATOM      7  C   UNL     1     -10.276 -16.034  31.334  1.00  0.00     0.021 C 
ATOM      8  C   UNL     1     -11.339 -17.087  31.719  1.00  0.00     0.022 C 
ATOM      9  C   UNL     1     -11.063 -17.781  30.353  1.00  0.00    -0.019 C 
ATOM     10  C   UNL     1     -12.256 -18.456  29.617  1.00  0.00     0.012 C 
ATOM     11  C   UNL     1      -9.903 -18.805  30.437  1.00  0.00     0.012 C 
ENDROOT
TORSDOF 0
ENDMDL
MODEL 7
REMARK VINA RESULT:    -5.251      1.862      3.046
REMARK INTER + INTRA:          -5.251
REMARK INTER:                  -5.251
REMARK INTRA:                   0.000
REMARK UNBOUND:                 0.000
REMARK SMILES CC1=CC(=O)[C@H]2C[C@@H]1C2(C)C
REMARK SMILES IDX 1 1 2 2 3 3 4 4 5 5 6 6 7 7 8 8 9 9 10 10 11 11
REMARK H PARENT
REMARK Flexibility Score: inf
ROOT
ATOM      1  C   UNL     1     -11.076 -16.986  26.143  1.00  0.00     0.040 C 
ATOM      2  C   UNL     1     -11.551 -16.573  27.499  1.00  0.00    -0.066 C 
ATOM      3  C   UNL     1     -12.427 -15.542  27.660  1.00  0.00     0.047 C 
ATOM      4  C   UNL     1     -12.803 -15.205  29.072  1.00  0.00     0.159 C 
ATOM      5  O   UNL     1     -13.571 -14.249  29.353  1.00  0.00    -0.295 OA
ATOM      6  C   UNL     1     -12.185 -16.102  30.145  1.00  0.00     0.067 C 
ATOM      7  C   UNL     1     -12.378 -17.533  29.599  1.00  0.00     0.021 C 
ATOM      8  C   UNL     1     -11.089 -17.303  28.779  1.00  0.00     0.022 C 
ATOM      9  C   UNL     1     -10.665 -16.254  29.849  1.00  0.00    -0.019 C 
ATOM     10  C   UNL     1      -9.875 -15.000  29.376  1.00  0.00     0.012 C 
ATOM     11  C   UNL     1      -9.895 -16.895  31.030  1.00  0.00     0.012 C 
ENDROOT
TORSDOF 0
ENDMDL
MODEL 8
REMARK VINA RESULT:    -5.173      1.954      3.855
REMARK INTER + INTRA:          -5.173
REMARK INTER:                  -5.173
REMARK INTRA:                   0.000
REMARK UNBOUND:                 0.000
REMARK SMILES CC1=CC(=O)[C@H]2C[C@@H]1C2(C)C
REMARK SMILES IDX 1 1 2 2 3 3 4 4 5 5 6 6 7 7 8 8 9 9 10 10 11 11
REMARK H PARENT
REMARK Flexibility Score: inf
ROOT
ATOM      1  C   UNL     1      -9.919 -15.769  33.292  1.00  0.00     0.040 C 
ATOM      2  C   UNL     1     -10.560 -16.471  32.138  1.00  0.00    -0.066 C 
ATOM      3  C   UNL     1     -10.149 -17.709  31.745  1.00  0.00     0.047 C 
ATOM      4  C   UNL     1     -10.850 -18.293  30.555  1.00  0.00     0.159 C 
ATOM      5  O   UNL     1     -10.535 -19.412  30.072  1.00  0.00    -0.295 OA
ATOM      6  C   UNL     1     -11.970 -17.434  29.968  1.00  0.00     0.067 C 
ATOM      7  C   UNL     1     -12.772 -16.965  31.201  1.00  0.00     0.021 C 
ATOM      8  C   UNL     1     -11.725 -15.838  31.346  1.00  0.00     0.022 C 
ATOM      9  C   UNL     1     -11.450 -15.976  29.820  1.00  0.00    -0.019 C 
ATOM     10  C   UNL     1      -9.996 -15.757  29.313  1.00  0.00     0.012 C 
ATOM     11  C   UNL     1     -12.398 -15.094  28.969  1.00  0.00     0.012 C 
ENDROOT
TORSDOF 0
ENDMDL
MODEL 9
REMARK VINA RESULT:    -5.140      2.402      4.005
REMARK INTER + INTRA:          -5.140
REMARK INTER:                  -5.140
REMARK INTRA:                   0.000
REMARK UNBOUND:                 0.000
REMARK SMILES CC1=CC(=O)[C@H]2C[C@@H]1C2(C)C
REMARK SMILES IDX 1 1 2 2 3 3 4 4 5 5 6 6 7 7 8 8 9 9 10 10 11 11
REMARK H PARENT
REMARK Flexibility Score: inf
ROOT
ATOM      1  C   UNL     1     -12.522 -19.505  30.738  1.00  0.00     0.040 C 
ATOM      2  C   UNL     1     -11.805 -18.192  30.725  1.00  0.00    -0.066 C 
ATOM      3  C   UNL     1     -11.139 -17.738  31.822  1.00  0.00     0.047 C 
ATOM      4  C   UNL     1     -10.487 -16.393  31.693  1.00  0.00     0.159 C 
ATOM      5  O   UNL     1      -9.876 -15.848  32.648  1.00  0.00    -0.295 OA
ATOM      6  C   UNL     1     -10.620 -15.731  30.321  1.00  0.00     0.067 C 
ATOM      7  C   UNL     1     -10.295 -16.863  29.322  1.00  0.00     0.021 C 
ATOM      8  C   UNL     1     -11.771 -17.297  29.467  1.00  0.00     0.022 C 
ATOM      9  C   UNL     1     -12.104 -15.830  29.865  1.00  0.00    -0.019 C 
ATOM     10  C   UNL     1     -13.220 -15.591  30.923  1.00  0.00     0.012 C 
ATOM     11  C   UNL     1     -12.404 -14.938  28.635  1.00  0.00     0.012 C 
ENDROOT
TORSDOF 0
ENDMDL
