MODEL 1
REMARK VINA RESULT:    -4.787      0.000      0.000
REMARK INTER + INTRA:          -5.381
REMARK INTER:                  -5.207
REMARK INTRA:                  -0.174
REMARK UNBOUND:                -0.174
REMARK SMILES C=C(C)[C@H]1CC[C@H](C)C[C@@H]1O
REMARK SMILES IDX 8 1 7 2 6 3 5 4 4 5 10 6 9 7 11 8 2 10 1 11 3 12
REMARK H PARENT 11 9
REMARK Flexibility Score: inf
ROOT
ATOM      1  C   UNL     1     122.116 120.374 111.812  1.00  0.00     0.008 C 
ATOM      2  C   UNL     1     123.547 120.386 112.360  1.00  0.00    -0.012 C 
ATOM      3  C   UNL     1     124.202 121.760 112.127  1.00  0.00     0.004 C 
ATOM      4  C   UNL     1     125.631 121.786 112.684  1.00  0.00     0.011 C 
ATOM      5  C   UNL     1     125.648 121.426 114.184  1.00  0.00     0.043 C 
ATOM      6  C   UNL     1     124.983 120.048 114.429  1.00  0.00     0.121 C 
ATOM      7  C   UNL     1     123.556 120.031 113.859  1.00  0.00     0.035 C 
ENDROOT
BRANCH   6   8
ATOM      8  O   UNL     1     124.917 119.783 115.808  1.00  0.00    -0.392 OA
ATOM      9  H   UNL     1     124.065 119.299 115.970  1.00  0.00     0.210 HD
ENDBRANCH   6   8
BRANCH   5  10
ATOM     10  C   UNL     1     127.068 121.479 114.737  1.00  0.00    -0.075 C 
ATOM     11  C   UNL     1     127.481 122.505 115.502  1.00  0.00     0.008 C 
ATOM     12  C   UNL     1     128.042 120.372 114.427  1.00  0.00     0.039 C 
ENDBRANCH   5  10
TORSDOF 2
ENDMDL
MODEL 2
REMARK VINA RESULT:    -4.774     15.454     16.747
REMARK INTER + INTRA:          -5.367
REMARK INTER:                  -5.207
REMARK INTRA:                  -0.160
REMARK UNBOUND:                -0.174
REMARK SMILES C=C(C)[C@H]1CC[C@H](C)C[C@@H]1O
REMARK SMILES IDX 8 1 7 2 6 3 5 4 4 5 10 6 9 7 11 8 2 10 1 11 3 12
REMARK H PARENT 11 9
REMARK Flexibility Score: inf
ROOT
ATOM      1  C   UNL     1     111.744 120.293 122.046  1.00  0.00     0.008 C 
ATOM      2  C   UNL     1     112.131 120.103 123.516  1.00  0.00    -0.012 C 
ATOM      3  C   UNL     1     111.637 118.738 124.031  1.00  0.00     0.004 C 
ATOM      4  C   UNL     1     112.032 118.532 125.499  1.00  0.00     0.011 C 
ATOM      5  C   UNL     1     113.557 118.662 125.687  1.00  0.00     0.043 C 
ATOM      6  C   UNL     1     114.065 120.029 125.164  1.00  0.00     0.121 C 
ATOM      7  C   UNL     1     113.656 120.227 123.695  1.00  0.00     0.035 C 
ENDROOT
BRANCH   6   8
ATOM      8  O   UNL     1     115.466 120.088 125.249  1.00  0.00    -0.392 OA
ATOM      9  H   UNL     1     115.711 119.847 126.181  1.00  0.00     0.210 HD
ENDBRANCH   6   8
BRANCH   5  10
ATOM     10  C   UNL     1     113.945 118.431 127.144  1.00  0.00    -0.075 C 
ATOM     11  C   UNL     1     113.272 119.021 128.147  1.00  0.00     0.008 C 
ATOM     12  C   UNL     1     115.104 117.531 127.483  1.00  0.00     0.039 C 
ENDBRANCH   5  10
TORSDOF 2
ENDMDL
MODEL 3
REMARK VINA RESULT:    -4.735     15.569     16.596
REMARK INTER + INTRA:          -5.324
REMARK INTER:                  -5.213
REMARK INTRA:                  -0.111
REMARK UNBOUND:                -0.174
REMARK SMILES C=C(C)[C@H]1CC[C@H](C)C[C@@H]1O
REMARK SMILES IDX 8 1 7 2 6 3 5 4 4 5 10 6 9 7 11 8 2 10 1 11 3 12
REMARK H PARENT 11 9
REMARK Flexibility Score: inf
ROOT
ATOM      1  C   UNL     1     111.968 120.834 121.438  1.00  0.00     0.008 C 
ATOM      2  C   UNL     1     112.698 120.169 122.611  1.00  0.00    -0.012 C 
ATOM      3  C   UNL     1     113.359 121.233 123.507  1.00  0.00     0.004 C 
ATOM      4  C   UNL     1     114.081 120.577 124.692  1.00  0.00     0.011 C 
ATOM      5  C   UNL     1     113.114 119.702 125.514  1.00  0.00     0.043 C 
ATOM      6  C   UNL     1     112.436 118.634 124.619  1.00  0.00     0.121 C 
ATOM      7  C   UNL     1     111.725 119.302 123.431  1.00  0.00     0.035 C 
ENDROOT
BRANCH   6   8
ATOM      8  O   UNL     1     111.485 117.914 125.363  1.00  0.00    -0.392 OA
ATOM      9  H   UNL     1     111.053 118.559 125.982  1.00  0.00     0.210 HD
ENDBRANCH   6   8
BRANCH   5  10
ATOM     10  C   UNL     1     113.831 119.074 126.705  1.00  0.00    -0.075 C 
ATOM     11  C   UNL     1     115.085 118.602 126.594  1.00  0.00     0.008 C 
ATOM     12  C   UNL     1     113.135 118.969 128.037  1.00  0.00     0.039 C 
ENDBRANCH   5  10
TORSDOF 2
ENDMDL
MODEL 4
REMARK VINA RESULT:    -4.605     15.535     16.691
REMARK INTER + INTRA:          -5.183
REMARK INTER:                  -5.009
REMARK INTRA:                  -0.174
REMARK UNBOUND:                -0.174
REMARK SMILES C=C(C)[C@H]1CC[C@H](C)C[C@@H]1O
REMARK SMILES IDX 8 1 7 2 6 3 5 4 4 5 10 6 9 7 11 8 2 10 1 11 3 12
REMARK H PARENT 11 9
REMARK Flexibility Score: inf
ROOT
ATOM      1  C   UNL     1     111.985 120.198 124.226  1.00  0.00     0.008 C 
ATOM      2  C   UNL     1     113.026 120.009 125.335  1.00  0.00    -0.012 C 
ATOM      3  C   UNL     1     112.567 118.922 126.325  1.00  0.00     0.004 C 
ATOM      4  C   UNL     1     113.609 118.715 127.432  1.00  0.00     0.011 C 
ATOM      5  C   UNL     1     114.986 118.358 126.837  1.00  0.00     0.043 C 
ATOM      6  C   UNL     1     115.453 119.442 125.833  1.00  0.00     0.121 C 
ATOM      7  C   UNL     1     114.397 119.646 124.734  1.00  0.00     0.035 C 
ENDROOT
BRANCH   6   8
ATOM      8  O   UNL     1     116.659 119.050 125.226  1.00  0.00    -0.392 OA
ATOM      9  H   UNL     1     116.692 118.058 125.260  1.00  0.00     0.210 HD
ENDBRANCH   6   8
BRANCH   5  10
ATOM     10  C   UNL     1     116.011 118.129 127.943  1.00  0.00    -0.075 C 
ATOM     11  C   UNL     1     116.162 119.010 128.948  1.00  0.00     0.008 C 
ATOM     12  C   UNL     1     116.882 116.900 127.923  1.00  0.00     0.039 C 
ENDBRANCH   5  10
TORSDOF 2
ENDMDL
MODEL 5
REMARK VINA RESULT:    -4.593     16.374     17.113
REMARK INTER + INTRA:          -5.170
REMARK INTER:                  -5.010
REMARK INTRA:                  -0.160
REMARK UNBOUND:                -0.174
REMARK SMILES C=C(C)[C@H]1CC[C@H](C)C[C@@H]1O
REMARK SMILES IDX 8 1 7 2 6 3 5 4 4 5 10 6 9 7 11 8 2 10 1 11 3 12
REMARK H PARENT 11 9
REMARK Flexibility Score: inf
ROOT
ATOM      1  C   UNL     1     111.654 128.089 127.375  1.00  0.00     0.008 C 
ATOM      2  C   UNL     1     112.743 127.359 126.582  1.00  0.00    -0.012 C 
ATOM      3  C   UNL     1     112.775 127.856 125.125  1.00  0.00     0.004 C 
ATOM      4  C   UNL     1     113.872 127.140 124.327  1.00  0.00     0.011 C 
ATOM      5  C   UNL     1     115.252 127.324 124.992  1.00  0.00     0.043 C 
ATOM      6  C   UNL     1     115.227 126.834 126.462  1.00  0.00     0.121 C 
ATOM      7  C   UNL     1     114.119 127.552 127.249  1.00  0.00     0.035 C 
ENDROOT
BRANCH   6   8
ATOM      8  O   UNL     1     116.460 127.103 127.080  1.00  0.00    -0.392 OA
ATOM      9  H   UNL     1     116.470 126.603 127.938  1.00  0.00     0.210 HD
ENDBRANCH   6   8
BRANCH   5  10
ATOM     10  C   UNL     1     116.341 126.631 124.180  1.00  0.00    -0.075 C 
ATOM     11  C   UNL     1     116.180 125.377 123.723  1.00  0.00     0.008 C 
ATOM     12  C   UNL     1     117.630 127.350 123.878  1.00  0.00     0.039 C 
ENDBRANCH   5  10
TORSDOF 2
ENDMDL
MODEL 6
REMARK VINA RESULT:    -4.460      2.446      4.897
REMARK INTER + INTRA:          -5.025
REMARK INTER:                  -4.851
REMARK INTRA:                  -0.174
REMARK UNBOUND:                -0.174
REMARK SMILES C=C(C)[C@H]1CC[C@H](C)C[C@@H]1O
REMARK SMILES IDX 8 1 7 2 6 3 5 4 4 5 10 6 9 7 11 8 2 10 1 11 3 12
REMARK H PARENT 11 9
REMARK Flexibility Score: inf
ROOT
ATOM      1  C   UNL     1     125.798 122.410 113.469  1.00  0.00     0.008 C 
ATOM      2  C   UNL     1     125.013 121.114 113.234  1.00  0.00    -0.012 C 
ATOM      3  C   UNL     1     124.523 120.531 114.572  1.00  0.00     0.004 C 
ATOM      4  C   UNL     1     123.724 119.241 114.346  1.00  0.00     0.011 C 
ATOM      5  C   UNL     1     122.536 119.484 113.394  1.00  0.00     0.043 C 
ATOM      6  C   UNL     1     123.018 120.079 112.047  1.00  0.00     0.121 C 
ATOM      7  C   UNL     1     123.824 121.366 112.287  1.00  0.00     0.035 C 
ENDROOT
BRANCH   6   8
ATOM      8  O   UNL     1     121.915 120.388 111.234  1.00  0.00    -0.392 OA
ATOM      9  H   UNL     1     121.100 120.138 111.743  1.00  0.00     0.210 HD
ENDBRANCH   6   8
BRANCH   5  10
ATOM     10  C   UNL     1     121.731 118.203 113.194  1.00  0.00    -0.075 C 
ATOM     11  C   UNL     1     120.546 118.022 113.802  1.00  0.00     0.008 C 
ATOM     12  C   UNL     1     122.262 117.109 112.306  1.00  0.00     0.039 C 
ENDBRANCH   5  10
TORSDOF 2
ENDMDL
MODEL 7
REMARK VINA RESULT:    -4.448      2.460      3.481
REMARK INTER + INTRA:          -5.012
REMARK INTER:                  -4.818
REMARK INTRA:                  -0.194
REMARK UNBOUND:                -0.174
REMARK SMILES C=C(C)[C@H]1CC[C@H](C)C[C@@H]1O
REMARK SMILES IDX 8 1 7 2 6 3 5 4 4 5 10 6 9 7 11 8 2 10 1 11 3 12
REMARK H PARENT 11 9
REMARK Flexibility Score: inf
ROOT
ATOM      1  C   UNL     1     120.672 118.617 115.642  1.00  0.00     0.008 C 
ATOM      2  C   UNL     1     121.640 119.537 114.891  1.00  0.00    -0.012 C 
ATOM      3  C   UNL     1     123.026 119.523 115.561  1.00  0.00     0.004 C 
ATOM      4  C   UNL     1     124.007 120.430 114.808  1.00  0.00     0.011 C 
ATOM      5  C   UNL     1     124.119 120.016 113.326  1.00  0.00     0.043 C 
ATOM      6  C   UNL     1     122.727 120.019 112.645  1.00  0.00     0.121 C 
ATOM      7  C   UNL     1     121.751 119.114 113.414  1.00  0.00     0.035 C 
ENDROOT
BRANCH   6   8
ATOM      8  O   UNL     1     122.835 119.542 111.327  1.00  0.00    -0.392 OA
ATOM      9  H   UNL     1     123.487 120.126 110.859  1.00  0.00     0.210 HD
ENDBRANCH   6   8
BRANCH   5  10
ATOM     10  C   UNL     1     125.115 120.906 112.589  1.00  0.00    -0.075 C 
ATOM     11  C   UNL     1     124.981 122.244 112.579  1.00  0.00     0.008 C 
ATOM     12  C   UNL     1     126.274 120.290 111.849  1.00  0.00     0.039 C 
ENDBRANCH   5  10
TORSDOF 2
ENDMDL
MODEL 8
REMARK VINA RESULT:    -4.447      2.261      4.751
REMARK INTER + INTRA:          -5.011
REMARK INTER:                  -4.822
REMARK INTRA:                  -0.189
REMARK UNBOUND:                -0.174
REMARK SMILES C=C(C)[C@H]1CC[C@H](C)C[C@@H]1O
REMARK SMILES IDX 8 1 7 2 6 3 5 4 4 5 10 6 9 7 11 8 2 10 1 11 3 12
REMARK H PARENT 11 9
REMARK Flexibility Score: inf
ROOT
ATOM      1  C   UNL     1     125.455 122.040 112.602  1.00  0.00     0.008 C 
ATOM      2  C   UNL     1     124.320 121.083 112.982  1.00  0.00    -0.012 C 
ATOM      3  C   UNL     1     123.316 120.949 111.821  1.00  0.00     0.004 C 
ATOM      4  C   UNL     1     122.183 119.981 112.186  1.00  0.00     0.011 C 
ATOM      5  C   UNL     1     122.741 118.599 112.583  1.00  0.00     0.043 C 
ATOM      6  C   UNL     1     123.758 118.724 113.745  1.00  0.00     0.121 C 
ATOM      7  C   UNL     1     124.883 119.703 113.370  1.00  0.00     0.035 C 
ENDROOT
BRANCH   6   8
ATOM      8  O   UNL     1     124.330 117.471 114.022  1.00  0.00    -0.392 OA
ATOM      9  H   UNL     1     123.620 116.914 114.437  1.00  0.00     0.210 HD
ENDBRANCH   6   8
BRANCH   5  10
ATOM     10  C   UNL     1     121.608 117.635 112.920  1.00  0.00    -0.075 C 
ATOM     11  C   UNL     1     120.660 117.958 113.817  1.00  0.00     0.008 C 
ATOM     12  C   UNL     1     121.537 116.288 112.248  1.00  0.00     0.039 C 
ENDBRANCH   5  10
TORSDOF 2
ENDMDL
MODEL 9
REMARK VINA RESULT:    -4.387     13.189     14.152
REMARK INTER + INTRA:          -4.945
REMARK INTER:                  -4.847
REMARK INTRA:                  -0.099
REMARK UNBOUND:                -0.174
REMARK SMILES C=C(C)[C@H]1CC[C@H](C)C[C@@H]1O
REMARK SMILES IDX 8 1 7 2 6 3 5 4 4 5 10 6 9 7 11 8 2 10 1 11 3 12
REMARK H PARENT 11 9
REMARK Flexibility Score: inf
ROOT
ATOM      1  C   UNL     1     116.494 123.371 119.746  1.00  0.00     0.008 C 
ATOM      2  C   UNL     1     116.025 124.378 120.801  1.00  0.00    -0.012 C 
ATOM      3  C   UNL     1     114.752 123.869 121.504  1.00  0.00     0.004 C 
ATOM      4  C   UNL     1     114.283 124.865 122.572  1.00  0.00     0.011 C 
ATOM      5  C   UNL     1     115.397 125.139 123.603  1.00  0.00     0.043 C 
ATOM      6  C   UNL     1     116.685 125.643 122.905  1.00  0.00     0.121 C 
ATOM      7  C   UNL     1     117.140 124.642 121.831  1.00  0.00     0.035 C 
ENDROOT
BRANCH   6   8
ATOM      8  O   UNL     1     117.718 125.789 123.846  1.00  0.00    -0.392 OA
ATOM      9  H   UNL     1     118.522 125.349 123.465  1.00  0.00     0.210 HD
ENDBRANCH   6   8
BRANCH   5  10
ATOM     10  C   UNL     1     114.915 126.109 124.676  1.00  0.00    -0.075 C 
ATOM     11  C   UNL     1     115.191 125.906 125.976  1.00  0.00     0.008 C 
ATOM     12  C   UNL     1     114.108 127.322 124.291  1.00  0.00     0.039 C 
ENDBRANCH   5  10
TORSDOF 2
ENDMDL
