MODEL 1
REMARK VINA RESULT:    -3.947      0.000      0.000
REMARK INTER + INTRA:         -12.563
REMARK INTER:                  -9.022
REMARK INTRA:                  -3.541
REMARK UNBOUND:                -3.541
REMARK SMILES CCCCCCCCCCCCCCCCCCCCCCCC(=O)[O-]
REMARK SMILES IDX 13 1 14 2 15 3 16 4 17 5 18 6 19 7 20 8 21 9 22 10 23 11
REMARK SMILES IDX 24 12 25 13 26 14 12 15 11 16 10 17 9 18 8 19 7 20 6 21 5 22
REMARK SMILES IDX 4 23 3 24 2 25 1 26
REMARK H PARENT
REMARK Flexibility Score: inf
ROOT
ATOM      1  C   UNL     1      16.302 127.335  55.110  1.00  0.00     0.000 C 
ENDROOT
BRANCH   1   2
ATOM      2  C   UNL     1      15.515 128.278  56.044  1.00  0.00     0.000 C 
BRANCH   2   3
ATOM      3  C   UNL     1      16.228 128.666  57.352  1.00  0.00     0.000 C 
BRANCH   3   4
ATOM      4  C   UNL     1      16.371 130.187  57.532  1.00  0.00     0.000 C 
BRANCH   4   5
ATOM      5  C   UNL     1      17.159 130.558  58.803  1.00  0.00     0.000 C 
BRANCH   5   6
ATOM      6  C   UNL     1      18.648 130.166  58.765  1.00  0.00     0.000 C 
BRANCH   6   7
ATOM      7  C   UNL     1      19.190 129.777  60.152  1.00  0.00     0.000 C 
BRANCH   7   8
ATOM      8  C   UNL     1      18.071 129.428  61.149  1.00  0.00     0.000 C 
BRANCH   8   9
ATOM      9  C   UNL     1      18.463 129.722  62.608  1.00  0.00     0.000 C 
BRANCH   9  10
ATOM     10  C   UNL     1      18.095 128.579  63.565  1.00  0.00     0.006 C 
BRANCH  10  11
ATOM     11  C   UNL     1      18.425 127.194  62.989  1.00  0.00     0.053 C 
BRANCH  11  12
ATOM     12  C   UNL     1      17.212 126.314  62.994  1.00  0.00     0.041 C 
ATOM     13  O   UNL     1      17.296 125.112  62.624  1.00  0.00    -0.550 OA
ATOM     14  O   UNL     1      15.990 126.820  63.419  1.00  0.00    -0.550 OA
ENDBRANCH  11  12
ENDBRANCH  10  11
ENDBRANCH   9  10
ENDBRANCH   8   9
ENDBRANCH   7   8
ENDBRANCH   6   7
ENDBRANCH   5   6
ENDBRANCH   4   5
ENDBRANCH   3   4
ENDBRANCH   2   3
ENDBRANCH   1   2
BRANCH   1  15
ATOM     15  C   UNL     1      16.106 127.656  53.619  1.00  0.00     0.000 C 
BRANCH  15  16
ATOM     16  C   UNL     1      17.233 128.534  53.048  1.00  0.00     0.000 C 
BRANCH  16  17
ATOM     17  C   UNL     1      16.922 130.045  53.087  1.00  0.00     0.000 C 
BRANCH  17  18
ATOM     18  C   UNL     1      17.780 130.790  54.127  1.00  0.00    -0.000 C 
BRANCH  18  19
ATOM     19  C   UNL     1      18.862 129.892  54.750  1.00  0.00    -0.000 C 
BRANCH  19  20
ATOM     20  C   UNL     1      20.034 130.701  55.330  1.00  0.00    -0.000 C 
BRANCH  20  21
ATOM     21  C   UNL     1      19.994 132.190  54.938  1.00  0.00    -0.000 C 
BRANCH  21  22
ATOM     22  C   UNL     1      19.887 133.178  56.115  1.00  0.00    -0.000 C 
BRANCH  22  23
ATOM     23  C   UNL     1      18.446 133.342  56.634  1.00  0.00    -0.000 C 
BRANCH  23  24
ATOM     24  C   UNL     1      18.368 134.254  57.877  1.00  0.00    -0.000 C 
BRANCH  24  25
ATOM     25  C   UNL     1      19.304 133.824  59.022  1.00  0.00    -0.003 C 
ATOM     26  C   UNL     1      18.595 133.688  60.368  1.00  0.00     0.004 C 
ENDBRANCH  24  25
ENDBRANCH  23  24
ENDBRANCH  22  23
ENDBRANCH  21  22
ENDBRANCH  20  21
ENDBRANCH  19  20
ENDBRANCH  18  19
ENDBRANCH  17  18
ENDBRANCH  16  17
ENDBRANCH  15  16
ENDBRANCH   1  15
TORSDOF 22
ENDMDL
MODEL 2
REMARK VINA RESULT:    -3.874      5.357      8.233
REMARK INTER + INTRA:         -12.397
REMARK INTER:                  -7.740
REMARK INTRA:                  -4.657
REMARK UNBOUND:                -3.541
REMARK SMILES CCCCCCCCCCCCCCCCCCCCCCCC(=O)[O-]
REMARK SMILES IDX 13 1 14 2 15 3 16 4 17 5 18 6 19 7 20 8 21 9 22 10 23 11
REMARK SMILES IDX 24 12 25 13 26 14 12 15 11 16 10 17 9 18 8 19 7 20 6 21 5 22
REMARK SMILES IDX 4 23 3 24 2 25 1 26
REMARK H PARENT
REMARK Flexibility Score: inf
ROOT
ATOM      1  C   UNL     1      19.513 132.615  54.526  1.00  0.00     0.000 C 
ENDROOT
BRANCH   1   2
ATOM      2  C   UNL     1      19.039 131.147  54.525  1.00  0.00     0.000 C 
BRANCH   2   3
ATOM      3  C   UNL     1      18.781 130.531  55.912  1.00  0.00     0.000 C 
BRANCH   3   4
ATOM      4  C   UNL     1      18.470 129.025  55.854  1.00  0.00     0.000 C 
BRANCH   4   5
ATOM      5  C   UNL     1      17.078 128.690  56.424  1.00  0.00     0.000 C 
BRANCH   5   6
ATOM      6  C   UNL     1      16.164 127.918  55.455  1.00  0.00     0.000 C 
BRANCH   6   7
ATOM      7  C   UNL     1      16.919 127.403  54.216  1.00  0.00     0.000 C 
BRANCH   7   8
ATOM      8  C   UNL     1      16.325 127.930  52.899  1.00  0.00     0.000 C 
BRANCH   8   9
ATOM      9  C   UNL     1      17.283 128.876  52.152  1.00  0.00     0.000 C 
BRANCH   9  10
ATOM     10  C   UNL     1      17.229 128.695  50.628  1.00  0.00     0.006 C 
BRANCH  10  11
ATOM     11  C   UNL     1      16.941 130.008  49.885  1.00  0.00     0.053 C 
BRANCH  11  12
ATOM     12  C   UNL     1      16.606 129.744  48.449  1.00  0.00     0.041 C 
ATOM     13  O   UNL     1      16.243 128.595  48.080  1.00  0.00    -0.550 OA
ATOM     14  O   UNL     1      16.684 130.773  47.518  1.00  0.00    -0.550 OA
ENDBRANCH  11  12
ENDBRANCH  10  11
ENDBRANCH   9  10
ENDBRANCH   8   9
ENDBRANCH   7   8
ENDBRANCH   6   7
ENDBRANCH   5   6
ENDBRANCH   4   5
ENDBRANCH   3   4
ENDBRANCH   2   3
ENDBRANCH   1   2
BRANCH   1  15
ATOM     15  C   UNL     1      19.553 133.238  55.932  1.00  0.00     0.000 C 
BRANCH  15  16
ATOM     16  C   UNL     1      19.150 134.723  55.935  1.00  0.00     0.000 C 
BRANCH  16  17
ATOM     17  C   UNL     1      18.482 135.187  54.624  1.00  0.00     0.000 C 
BRANCH  17  18
ATOM     18  C   UNL     1      16.976 135.456  54.801  1.00  0.00    -0.000 C 
BRANCH  18  19
ATOM     19  C   UNL     1      16.172 135.164  53.522  1.00  0.00    -0.000 C 
BRANCH  19  20
ATOM     20  C   UNL     1      16.970 134.334  52.504  1.00  0.00    -0.000 C 
BRANCH  20  21
ATOM     21  C   UNL     1      16.378 132.932  52.268  1.00  0.00    -0.000 C 
BRANCH  21  22
ATOM     22  C   UNL     1      15.194 132.557  53.178  1.00  0.00    -0.000 C 
BRANCH  22  23
ATOM     23  C   UNL     1      15.507 131.378  54.118  1.00  0.00    -0.000 C 
BRANCH  23  24
ATOM     24  C   UNL     1      14.976 131.609  55.550  1.00  0.00    -0.000 C 
BRANCH  24  25
ATOM     25  C   UNL     1      15.879 132.515  56.407  1.00  0.00    -0.003 C 
ATOM     26  C   UNL     1      15.943 132.096  57.874  1.00  0.00     0.004 C 
ENDBRANCH  24  25
ENDBRANCH  23  24
ENDBRANCH  22  23
ENDBRANCH  21  22
ENDBRANCH  20  21
ENDBRANCH  19  20
ENDBRANCH  18  19
ENDBRANCH  17  18
ENDBRANCH  16  17
ENDBRANCH  15  16
ENDBRANCH   1  15
TORSDOF 22
ENDMDL
MODEL 3
REMARK VINA RESULT:    -3.870      3.567      8.485
REMARK INTER + INTRA:         -12.388
REMARK INTER:                  -9.024
REMARK INTRA:                  -3.363
REMARK UNBOUND:                -3.541
REMARK SMILES CCCCCCCCCCCCCCCCCCCCCCCC(=O)[O-]
REMARK SMILES IDX 13 1 14 2 15 3 16 4 17 5 18 6 19 7 20 8 21 9 22 10 23 11
REMARK SMILES IDX 24 12 25 13 26 14 12 15 11 16 10 17 9 18 8 19 7 20 6 21 5 22
REMARK SMILES IDX 4 23 3 24 2 25 1 26
REMARK H PARENT
REMARK Flexibility Score: inf
ROOT
ATOM      1  C   UNL     1      13.669 129.009  61.280  1.00  0.00     0.000 C 
ENDROOT
BRANCH   1   2
ATOM      2  C   UNL     1      14.630 129.614  60.235  1.00  0.00     0.000 C 
BRANCH   2   3
ATOM      3  C   UNL     1      16.129 129.377  60.494  1.00  0.00     0.000 C 
BRANCH   3   4
ATOM      4  C   UNL     1      16.923 130.682  60.675  1.00  0.00     0.000 C 
BRANCH   4   5
ATOM      5  C   UNL     1      18.416 130.514  60.335  1.00  0.00     0.000 C 
BRANCH   5   6
ATOM      6  C   UNL     1      18.691 130.027  58.901  1.00  0.00     0.000 C 
BRANCH   6   7
ATOM      7  C   UNL     1      18.142 130.993  57.835  1.00  0.00     0.000 C 
BRANCH   7   8
ATOM      8  C   UNL     1      17.019 130.367  56.991  1.00  0.00     0.000 C 
BRANCH   8   9
ATOM      9  C   UNL     1      17.068 128.827  56.986  1.00  0.00     0.000 C 
BRANCH   9  10
ATOM     10  C   UNL     1      15.844 128.195  56.309  1.00  0.00     0.006 C 
BRANCH  10  11
ATOM     11  C   UNL     1      16.225 127.250  55.160  1.00  0.00     0.053 C 
BRANCH  11  12
ATOM     12  C   UNL     1      16.061 127.930  53.836  1.00  0.00     0.041 C 
ATOM     13  O   UNL     1      17.045 128.059  53.059  1.00  0.00    -0.550 OA
ATOM     14  O   UNL     1      14.814 128.411  53.452  1.00  0.00    -0.550 OA
ENDBRANCH  11  12
ENDBRANCH  10  11
ENDBRANCH   9  10
ENDBRANCH   8   9
ENDBRANCH   7   8
ENDBRANCH   6   7
ENDBRANCH   5   6
ENDBRANCH   4   5
ENDBRANCH   3   4
ENDBRANCH   2   3
ENDBRANCH   1   2
BRANCH   1  15
ATOM     15  C   UNL     1      14.398 128.360  62.469  1.00  0.00     0.000 C 
BRANCH  15  16
ATOM     16  C   UNL     1      14.450 129.276  63.705  1.00  0.00     0.000 C 
BRANCH  16  17
ATOM     17  C   UNL     1      14.186 128.539  65.034  1.00  0.00     0.000 C 
BRANCH  17  18
ATOM     18  C   UNL     1      15.374 127.652  65.454  1.00  0.00    -0.000 C 
BRANCH  18  19
ATOM     19  C   UNL     1      16.177 128.256  66.619  1.00  0.00    -0.000 C 
BRANCH  19  20
ATOM     20  C   UNL     1      17.640 128.537  66.239  1.00  0.00    -0.000 C 
BRANCH  20  21
ATOM     21  C   UNL     1      17.794 129.694  65.234  1.00  0.00    -0.000 C 
BRANCH  21  22
ATOM     22  C   UNL     1      18.238 129.280  63.818  1.00  0.00    -0.000 C 
BRANCH  22  23
ATOM     23  C   UNL     1      18.625 127.793  63.718  1.00  0.00    -0.000 C 
BRANCH  23  24
ATOM     24  C   UNL     1      17.752 127.024  62.703  1.00  0.00    -0.000 C 
BRANCH  24  25
ATOM     25  C   UNL     1      17.741 125.500  62.925  1.00  0.00    -0.003 C 
ATOM     26  C   UNL     1      19.099 124.842  62.686  1.00  0.00     0.004 C 
ENDBRANCH  24  25
ENDBRANCH  23  24
ENDBRANCH  22  23
ENDBRANCH  21  22
ENDBRANCH  20  21
ENDBRANCH  19  20
ENDBRANCH  18  19
ENDBRANCH  17  18
ENDBRANCH  16  17
ENDBRANCH  15  16
ENDBRANCH   1  15
TORSDOF 22
ENDMDL
MODEL 4
REMARK VINA RESULT:    -3.866      3.620      7.107
REMARK INTER + INTRA:         -12.380
REMARK INTER:                  -8.864
REMARK INTRA:                  -3.516
REMARK UNBOUND:                -3.541
REMARK SMILES CCCCCCCCCCCCCCCCCCCCCCCC(=O)[O-]
REMARK SMILES IDX 13 1 14 2 15 3 16 4 17 5 18 6 19 7 20 8 21 9 22 10 23 11
REMARK SMILES IDX 24 12 25 13 26 14 12 15 11 16 10 17 9 18 8 19 7 20 6 21 5 22
REMARK SMILES IDX 4 23 3 24 2 25 1 26
REMARK H PARENT
REMARK Flexibility Score: inf
ROOT
ATOM      1  C   UNL     1      19.728 131.734  54.311  1.00  0.00     0.000 C 
ENDROOT
BRANCH   1   2
ATOM      2  C   UNL     1      19.025 130.456  54.815  1.00  0.00     0.000 C 
BRANCH   2   3
ATOM      3  C   UNL     1      19.724 129.727  55.977  1.00  0.00     0.000 C 
BRANCH   3   4
ATOM      4  C   UNL     1      18.887 129.708  57.267  1.00  0.00     0.000 C 
BRANCH   4   5
ATOM      5  C   UNL     1      17.413 130.082  57.019  1.00  0.00     0.000 C 
BRANCH   5   6
ATOM      6  C   UNL     1      16.398 129.193  57.761  1.00  0.00     0.000 C 
BRANCH   6   7
ATOM      7  C   UNL     1      15.702 128.187  56.826  1.00  0.00     0.000 C 
BRANCH   7   8
ATOM      8  C   UNL     1      15.799 128.591  55.345  1.00  0.00     0.000 C 
BRANCH   8   9
ATOM      9  C   UNL     1      16.624 127.593  54.511  1.00  0.00     0.000 C 
BRANCH   9  10
ATOM     10  C   UNL     1      16.268 127.628  53.017  1.00  0.00     0.006 C 
BRANCH  10  11
ATOM     11  C   UNL     1      17.187 128.556  52.210  1.00  0.00     0.053 C 
BRANCH  11  12
ATOM     12  C   UNL     1      16.410 129.697  51.627  1.00  0.00     0.041 C 
ATOM     13  O   UNL     1      16.854 130.326  50.629  1.00  0.00    -0.550 OA
ATOM     14  O   UNL     1      15.188 130.058  52.180  1.00  0.00    -0.550 OA
ENDBRANCH  11  12
ENDBRANCH  10  11
ENDBRANCH   9  10
ENDBRANCH   8   9
ENDBRANCH   7   8
ENDBRANCH   6   7
ENDBRANCH   5   6
ENDBRANCH   4   5
ENDBRANCH   3   4
ENDBRANCH   2   3
ENDBRANCH   1   2
BRANCH   1  15
ATOM     15  C   UNL     1      18.768 132.920  54.122  1.00  0.00     0.000 C 
BRANCH  15  16
ATOM     16  C   UNL     1      18.967 134.020  55.179  1.00  0.00     0.000 C 
BRANCH  16  17
ATOM     17  C   UNL     1      19.972 133.640  56.287  1.00  0.00     0.000 C 
BRANCH  17  18
ATOM     18  C   UNL     1      19.387 133.841  57.698  1.00  0.00    -0.000 C 
BRANCH  18  19
ATOM     19  C   UNL     1      17.850 133.782  57.712  1.00  0.00    -0.000 C 
BRANCH  19  20
ATOM     20  C   UNL     1      17.303 133.049  58.948  1.00  0.00    -0.000 C 
BRANCH  20  21
ATOM     21  C   UNL     1      18.404 132.394  59.801  1.00  0.00    -0.000 C 
BRANCH  21  22
ATOM     22  C   UNL     1      17.903 131.443  60.905  1.00  0.00    -0.000 C 
BRANCH  22  23
ATOM     23  C   UNL     1      18.520 130.036  60.814  1.00  0.00    -0.000 C 
BRANCH  23  24
ATOM     24  C   UNL     1      17.858 129.037  61.787  1.00  0.00    -0.000 C 
BRANCH  24  25
ATOM     25  C   UNL     1      18.861 128.129  62.522  1.00  0.00    -0.003 C 
ATOM     26  C   UNL     1      18.201 126.961  63.253  1.00  0.00     0.004 C 
ENDBRANCH  24  25
ENDBRANCH  23  24
ENDBRANCH  22  23
ENDBRANCH  21  22
ENDBRANCH  20  21
ENDBRANCH  19  20
ENDBRANCH  18  19
ENDBRANCH  17  18
ENDBRANCH  16  17
ENDBRANCH  15  16
ENDBRANCH   1  15
TORSDOF 22
ENDMDL
MODEL 5
REMARK VINA RESULT:    -3.859      2.143      4.247
REMARK INTER + INTRA:         -12.362
REMARK INTER:                  -8.742
REMARK INTRA:                  -3.621
REMARK UNBOUND:                -3.541
REMARK SMILES CCCCCCCCCCCCCCCCCCCCCCCC(=O)[O-]
REMARK SMILES IDX 13 1 14 2 15 3 16 4 17 5 18 6 19 7 20 8 21 9 22 10 23 11
REMARK SMILES IDX 24 12 25 13 26 14 12 15 11 16 10 17 9 18 8 19 7 20 6 21 5 22
REMARK SMILES IDX 4 23 3 24 2 25 1 26
REMARK H PARENT
REMARK Flexibility Score: inf
ROOT
ATOM      1  C   UNL     1      15.215 128.807  58.363  1.00  0.00     0.000 C 
ENDROOT
BRANCH   1   2
ATOM      2  C   UNL     1      14.828 128.624  59.845  1.00  0.00     0.000 C 
BRANCH   2   3
ATOM      3  C   UNL     1      15.600 129.501  60.847  1.00  0.00     0.000 C 
BRANCH   3   4
ATOM      4  C   UNL     1      17.126 129.325  60.753  1.00  0.00     0.000 C 
BRANCH   4   5
ATOM      5  C   UNL     1      17.894 130.579  61.211  1.00  0.00     0.000 C 
BRANCH   5   6
ATOM      6  C   UNL     1      17.136 131.452  62.229  1.00  0.00     0.000 C 
BRANCH   6   7
ATOM      7  C   UNL     1      17.701 131.317  63.655  1.00  0.00     0.000 C 
BRANCH   7   8
ATOM      8  C   UNL     1      17.245 130.024  64.353  1.00  0.00     0.000 C 
BRANCH   8   9
ATOM      9  C   UNL     1      18.427 129.152  64.816  1.00  0.00     0.000 C 
BRANCH   9  10
ATOM     10  C   UNL     1      18.184 127.652  64.589  1.00  0.00     0.006 C 
BRANCH  10  11
ATOM     11  C   UNL     1      18.329 127.245  63.115  1.00  0.00     0.053 C 
BRANCH  11  12
ATOM     12  C   UNL     1      18.243 125.758  62.964  1.00  0.00     0.041 C 
ATOM     13  O   UNL     1      19.272 125.042  63.102  1.00  0.00    -0.550 OA
ATOM     14  O   UNL     1      17.021 125.158  62.683  1.00  0.00    -0.550 OA
ENDBRANCH  11  12
ENDBRANCH  10  11
ENDBRANCH   9  10
ENDBRANCH   8   9
ENDBRANCH   7   8
ENDBRANCH   6   7
ENDBRANCH   5   6
ENDBRANCH   4   5
ENDBRANCH   3   4
ENDBRANCH   2   3
ENDBRANCH   1   2
BRANCH   1  15
ATOM     15  C   UNL     1      15.300 130.282  57.936  1.00  0.00     0.000 C 
BRANCH  15  16
ATOM     16  C   UNL     1      16.688 130.663  57.391  1.00  0.00     0.000 C 
BRANCH  16  17
ATOM     17  C   UNL     1      17.618 129.454  57.162  1.00  0.00     0.000 C 
BRANCH  17  18
ATOM     18  C   UNL     1      18.559 129.662  55.960  1.00  0.00    -0.000 C 
BRANCH  18  19
ATOM     19  C   UNL     1      18.408 128.560  54.897  1.00  0.00    -0.000 C 
BRANCH  19  20
ATOM     20  C   UNL     1      17.091 127.779  55.044  1.00  0.00    -0.000 C 
BRANCH  20  21
ATOM     21  C   UNL     1      16.420 127.464  53.695  1.00  0.00    -0.000 C 
BRANCH  21  22
ATOM     22  C   UNL     1      15.235 128.375  53.321  1.00  0.00    -0.000 C 
BRANCH  22  23
ATOM     23  C   UNL     1      14.738 129.232  54.500  1.00  0.00    -0.000 C 
BRANCH  23  24
ATOM     24  C   UNL     1      14.819 130.745  54.205  1.00  0.00    -0.000 C 
BRANCH  24  25
ATOM     25  C   UNL     1      16.095 131.162  53.451  1.00  0.00    -0.003 C 
ATOM     26  C   UNL     1      16.806 132.361  54.076  1.00  0.00     0.004 C 
ENDBRANCH  24  25
ENDBRANCH  23  24
ENDBRANCH  22  23
ENDBRANCH  21  22
ENDBRANCH  20  21
ENDBRANCH  19  20
ENDBRANCH  18  19
ENDBRANCH  17  18
ENDBRANCH  16  17
ENDBRANCH  15  16
ENDBRANCH   1  15
TORSDOF 22
ENDMDL
MODEL 6
REMARK VINA RESULT:    -3.808      3.775      7.967
REMARK INTER + INTRA:         -12.247
REMARK INTER:                  -8.400
REMARK INTRA:                  -3.847
REMARK UNBOUND:                -3.541
REMARK SMILES CCCCCCCCCCCCCCCCCCCCCCCC(=O)[O-]
REMARK SMILES IDX 13 1 14 2 15 3 16 4 17 5 18 6 19 7 20 8 21 9 22 10 23 11
REMARK SMILES IDX 24 12 25 13 26 14 12 15 11 16 10 17 9 18 8 19 7 20 6 21 5 22
REMARK SMILES IDX 4 23 3 24 2 25 1 26
REMARK H PARENT
REMARK Flexibility Score: inf
ROOT
ATOM      1  C   UNL     1      14.974 128.218  59.247  1.00  0.00     0.000 C 
ENDROOT
BRANCH   1   2
ATOM      2  C   UNL     1      15.423 128.791  57.887  1.00  0.00     0.000 C 
BRANCH   2   3
ATOM      3  C   UNL     1      15.605 130.318  57.836  1.00  0.00     0.000 C 
BRANCH   3   4
ATOM      4  C   UNL     1      17.081 130.752  57.861  1.00  0.00     0.000 C 
BRANCH   4   5
ATOM      5  C   UNL     1      18.035 129.615  57.448  1.00  0.00     0.000 C 
BRANCH   5   6
ATOM      6  C   UNL     1      19.082 130.016  56.393  1.00  0.00     0.000 C 
BRANCH   6   7
ATOM      7  C   UNL     1      19.135 129.031  55.211  1.00  0.00     0.000 C 
BRANCH   7   8
ATOM      8  C   UNL     1      17.839 128.215  55.062  1.00  0.00     0.000 C 
BRANCH   8   9
ATOM      9  C   UNL     1      16.891 128.796  53.997  1.00  0.00     0.000 C 
BRANCH   9  10
ATOM     10  C   UNL     1      15.455 128.266  54.126  1.00  0.00     0.006 C 
BRANCH  10  11
ATOM     11  C   UNL     1      14.434 129.380  54.400  1.00  0.00     0.053 C 
BRANCH  11  12
ATOM     12  C   UNL     1      13.687 129.735  53.152  1.00  0.00     0.041 C 
ATOM     13  O   UNL     1      12.518 129.303  52.965  1.00  0.00    -0.550 OA
ATOM     14  O   UNL     1      14.278 130.556  52.199  1.00  0.00    -0.550 OA
ENDBRANCH  11  12
ENDBRANCH  10  11
ENDBRANCH   9  10
ENDBRANCH   8   9
ENDBRANCH   7   8
ENDBRANCH   6   7
ENDBRANCH   5   6
ENDBRANCH   4   5
ENDBRANCH   3   4
ENDBRANCH   2   3
ENDBRANCH   1   2
BRANCH   1  15
ATOM     15  C   UNL     1      14.531 129.301  60.245  1.00  0.00     0.000 C 
BRANCH  15  16
ATOM     16  C   UNL     1      15.438 129.373  61.486  1.00  0.00     0.000 C 
BRANCH  16  17
ATOM     17  C   UNL     1      16.090 130.755  61.697  1.00  0.00     0.000 C 
BRANCH  17  18
ATOM     18  C   UNL     1      17.626 130.697  61.589  1.00  0.00    -0.000 C 
BRANCH  18  19
ATOM     19  C   UNL     1      18.130 129.332  61.091  1.00  0.00    -0.000 C 
BRANCH  19  20
ATOM     20  C   UNL     1      19.167 128.708  62.039  1.00  0.00    -0.000 C 
BRANCH  20  21
ATOM     21  C   UNL     1      18.530 127.958  63.224  1.00  0.00    -0.000 C 
BRANCH  21  22
ATOM     22  C   UNL     1      18.526 128.723  64.561  1.00  0.00    -0.000 C 
BRANCH  22  23
ATOM     23  C   UNL     1      17.116 128.883  65.158  1.00  0.00    -0.000 C 
BRANCH  23  24
ATOM     24  C   UNL     1      16.169 127.733  64.751  1.00  0.00    -0.000 C 
BRANCH  24  25
ATOM     25  C   UNL     1      14.676 128.087  64.873  1.00  0.00    -0.003 C 
ATOM     26  C   UNL     1      13.769 127.197  64.025  1.00  0.00     0.004 C 
ENDBRANCH  24  25
ENDBRANCH  23  24
ENDBRANCH  22  23
ENDBRANCH  21  22
ENDBRANCH  20  21
ENDBRANCH  19  20
ENDBRANCH  18  19
ENDBRANCH  17  18
ENDBRANCH  16  17
ENDBRANCH  15  16
ENDBRANCH   1  15
TORSDOF 22
ENDMDL
MODEL 7
REMARK VINA RESULT:    -3.796      3.421      7.434
REMARK INTER + INTRA:         -12.220
REMARK INTER:                  -8.200
REMARK INTRA:                  -4.020
REMARK UNBOUND:                -3.541
REMARK SMILES CCCCCCCCCCCCCCCCCCCCCCCC(=O)[O-]
REMARK SMILES IDX 13 1 14 2 15 3 16 4 17 5 18 6 19 7 20 8 21 9 22 10 23 11
REMARK SMILES IDX 24 12 25 13 26 14 12 15 11 16 10 17 9 18 8 19 7 20 6 21 5 22
REMARK SMILES IDX 4 23 3 24 2 25 1 26
REMARK H PARENT
REMARK Flexibility Score: inf
ROOT
ATOM      1  C   UNL     1      16.748 132.809  57.414  1.00  0.00     0.000 C 
ENDROOT
BRANCH   1   2
ATOM      2  C   UNL     1      16.852 132.724  55.877  1.00  0.00     0.000 C 
BRANCH   2   3
ATOM      3  C   UNL     1      17.802 131.642  55.334  1.00  0.00     0.000 C 
BRANCH   3   4
ATOM      4  C   UNL     1      18.913 131.260  56.328  1.00  0.00     0.000 C 
BRANCH   4   5
ATOM      5  C   UNL     1      18.896 129.762  56.683  1.00  0.00     0.000 C 
BRANCH   5   6
ATOM      6  C   UNL     1      17.777 128.958  55.996  1.00  0.00     0.000 C 
BRANCH   6   7
ATOM      7  C   UNL     1      16.690 128.498  56.984  1.00  0.00     0.000 C 
BRANCH   7   8
ATOM      8  C   UNL     1      15.334 128.252  56.300  1.00  0.00     0.000 C 
BRANCH   8   9
ATOM      9  C   UNL     1      14.895 129.432  55.413  1.00  0.00     0.000 C 
BRANCH   9  10
ATOM     10  C   UNL     1      14.637 129.018  53.957  1.00  0.00     0.006 C 
BRANCH  10  11
ATOM     11  C   UNL     1      15.710 129.542  52.992  1.00  0.00     0.053 C 
BRANCH  11  12
ATOM     12  C   UNL     1      16.571 128.422  52.494  1.00  0.00     0.041 C 
ATOM     13  O   UNL     1      17.311 128.585  51.487  1.00  0.00    -0.550 OA
ATOM     14  O   UNL     1      16.565 127.198  53.152  1.00  0.00    -0.550 OA
ENDBRANCH  11  12
ENDBRANCH  10  11
ENDBRANCH   9  10
ENDBRANCH   8   9
ENDBRANCH   7   8
ENDBRANCH   6   7
ENDBRANCH   5   6
ENDBRANCH   4   5
ENDBRANCH   3   4
ENDBRANCH   2   3
ENDBRANCH   1   2
BRANCH   1  15
ATOM     15  C   UNL     1      15.564 132.012  57.987  1.00  0.00     0.000 C 
BRANCH  15  16
ATOM     16  C   UNL     1      15.954 131.171  59.216  1.00  0.00     0.000 C 
BRANCH  16  17
ATOM     17  C   UNL     1      17.441 131.297  59.607  1.00  0.00     0.000 C 
BRANCH  17  18
ATOM     18  C   UNL     1      17.851 130.266  60.676  1.00  0.00    -0.000 C 
BRANCH  18  19
ATOM     19  C   UNL     1      19.293 129.764  60.486  1.00  0.00    -0.000 C 
BRANCH  19  20
ATOM     20  C   UNL     1      19.668 128.664  61.493  1.00  0.00    -0.000 C 
BRANCH  20  21
ATOM     21  C   UNL     1      18.779 128.666  62.751  1.00  0.00    -0.000 C 
BRANCH  21  22
ATOM     22  C   UNL     1      17.953 127.385  62.973  1.00  0.00    -0.000 C 
BRANCH  22  23
ATOM     23  C   UNL     1      16.604 127.651  63.666  1.00  0.00    -0.000 C 
BRANCH  23  24
ATOM     24  C   UNL     1      15.531 128.173  62.687  1.00  0.00    -0.000 C 
BRANCH  24  25
ATOM     25  C   UNL     1      14.685 129.329  63.252  1.00  0.00    -0.003 C 
ATOM     26  C   UNL     1      15.457 130.642  63.375  1.00  0.00     0.004 C 
ENDBRANCH  24  25
ENDBRANCH  23  24
ENDBRANCH  22  23
ENDBRANCH  21  22
ENDBRANCH  20  21
ENDBRANCH  19  20
ENDBRANCH  18  19
ENDBRANCH  17  18
ENDBRANCH  16  17
ENDBRANCH  15  16
ENDBRANCH   1  15
TORSDOF 22
ENDMDL
MODEL 8
REMARK VINA RESULT:    -3.781      1.631      2.862
REMARK INTER + INTRA:         -12.184
REMARK INTER:                  -8.064
REMARK INTRA:                  -4.119
REMARK UNBOUND:                -3.541
REMARK SMILES CCCCCCCCCCCCCCCCCCCCCCCC(=O)[O-]
REMARK SMILES IDX 13 1 14 2 15 3 16 4 17 5 18 6 19 7 20 8 21 9 22 10 23 11
REMARK SMILES IDX 24 12 25 13 26 14 12 15 11 16 10 17 9 18 8 19 7 20 6 21 5 22
REMARK SMILES IDX 4 23 3 24 2 25 1 26
REMARK H PARENT
REMARK Flexibility Score: inf
ROOT
ATOM      1  C   UNL     1      16.158 127.804  55.693  1.00  0.00     0.000 C 
ENDROOT
BRANCH   1   2
ATOM      2  C   UNL     1      15.274 128.266  56.870  1.00  0.00     0.000 C 
BRANCH   2   3
ATOM      3  C   UNL     1      16.030 128.788  58.104  1.00  0.00     0.000 C 
BRANCH   3   4
ATOM      4  C   UNL     1      15.134 128.921  59.348  1.00  0.00     0.000 C 
BRANCH   4   5
ATOM      5  C   UNL     1      15.014 130.378  59.835  1.00  0.00     0.000 C 
BRANCH   5   6
ATOM      6  C   UNL     1      16.090 131.326  59.274  1.00  0.00     0.000 C 
BRANCH   6   7
ATOM      7  C   UNL     1      17.214 131.606  60.288  1.00  0.00     0.000 C 
BRANCH   7   8
ATOM      8  C   UNL     1      18.541 130.928  59.902  1.00  0.00     0.000 C 
BRANCH   8   9
ATOM      9  C   UNL     1      18.799 129.636  60.698  1.00  0.00     0.000 C 
BRANCH   9  10
ATOM     10  C   UNL     1      18.022 129.586  62.022  1.00  0.00     0.006 C 
BRANCH  10  11
ATOM     11  C   UNL     1      17.440 128.196  62.316  1.00  0.00     0.053 C 
BRANCH  11  12
ATOM     12  C   UNL     1      17.371 127.950  63.792  1.00  0.00     0.041 C 
ATOM     13  O   UNL     1      16.294 127.568  64.325  1.00  0.00    -0.550 OA
ATOM     14  O   UNL     1      18.501 128.133  64.580  1.00  0.00    -0.550 OA
ENDBRANCH  11  12
ENDBRANCH  10  11
ENDBRANCH   9  10
ENDBRANCH   8   9
ENDBRANCH   7   8
ENDBRANCH   6   7
ENDBRANCH   5   6
ENDBRANCH   4   5
ENDBRANCH   3   4
ENDBRANCH   2   3
ENDBRANCH   1   2
BRANCH   1  15
ATOM     15  C   UNL     1      15.620 128.243  54.321  1.00  0.00     0.000 C 
BRANCH  15  16
ATOM     16  C   UNL     1      16.301 127.508  53.153  1.00  0.00     0.000 C 
BRANCH  16  17
ATOM     17  C   UNL     1      16.975 128.452  52.135  1.00  0.00     0.000 C 
BRANCH  17  18
ATOM     18  C   UNL     1      17.463 129.759  52.787  1.00  0.00    -0.000 C 
BRANCH  18  19
ATOM     19  C   UNL     1      16.745 130.999  52.229  1.00  0.00    -0.000 C 
BRANCH  19  20
ATOM     20  C   UNL     1      16.693 132.154  53.244  1.00  0.00    -0.000 C 
BRANCH  20  21
ATOM     21  C   UNL     1      15.894 131.808  54.514  1.00  0.00    -0.000 C 
BRANCH  21  22
ATOM     22  C   UNL     1      16.724 131.721  55.809  1.00  0.00    -0.000 C 
BRANCH  22  23
ATOM     23  C   UNL     1      18.099 132.403  55.691  1.00  0.00    -0.000 C 
BRANCH  23  24
ATOM     24  C   UNL     1      19.234 131.550  56.298  1.00  0.00    -0.000 C 
BRANCH  24  25
ATOM     25  C   UNL     1      18.900 130.050  56.391  1.00  0.00    -0.003 C 
ATOM     26  C   UNL     1      19.844 129.166  55.579  1.00  0.00     0.004 C 
ENDBRANCH  24  25
ENDBRANCH  23  24
ENDBRANCH  22  23
ENDBRANCH  21  22
ENDBRANCH  20  21
ENDBRANCH  19  20
ENDBRANCH  18  19
ENDBRANCH  17  18
ENDBRANCH  16  17
ENDBRANCH  15  16
ENDBRANCH   1  15
TORSDOF 22
ENDMDL
MODEL 9
REMARK VINA RESULT:    -3.778      4.740      8.301
REMARK INTER + INTRA:         -12.178
REMARK INTER:                  -7.968
REMARK INTRA:                  -4.211
REMARK UNBOUND:                -3.541
REMARK SMILES CCCCCCCCCCCCCCCCCCCCCCCC(=O)[O-]
REMARK SMILES IDX 13 1 14 2 15 3 16 4 17 5 18 6 19 7 20 8 21 9 22 10 23 11
REMARK SMILES IDX 24 12 25 13 26 14 12 15 11 16 10 17 9 18 8 19 7 20 6 21 5 22
REMARK SMILES IDX 4 23 3 24 2 25 1 26
REMARK H PARENT
REMARK Flexibility Score: inf
ROOT
ATOM      1  C   UNL     1      19.155 131.179  55.004  1.00  0.00     0.000 C 
ENDROOT
BRANCH   1   2
ATOM      2  C   UNL     1      19.286 132.363  54.023  1.00  0.00     0.000 C 
BRANCH   2   3
ATOM      3  C   UNL     1      18.687 133.696  54.507  1.00  0.00     0.000 C 
BRANCH   3   4
ATOM      4  C   UNL     1      17.954 133.574  55.854  1.00  0.00     0.000 C 
BRANCH   4   5
ATOM      5  C   UNL     1      16.425 133.679  55.705  1.00  0.00     0.000 C 
BRANCH   5   6
ATOM      6  C   UNL     1      15.938 133.857  54.255  1.00  0.00     0.000 C 
BRANCH   6   7
ATOM      7  C   UNL     1      15.247 132.596  53.706  1.00  0.00     0.000 C 
BRANCH   7   8
ATOM      8  C   UNL     1      14.848 132.735  52.227  1.00  0.00     0.000 C 
BRANCH   8   9
ATOM      9  C   UNL     1      15.851 132.057  51.276  1.00  0.00     0.000 C 
BRANCH   9  10
ATOM     10  C   UNL     1      15.248 130.856  50.533  1.00  0.00     0.006 C 
BRANCH  10  11
ATOM     11  C   UNL     1      15.290 131.020  49.007  1.00  0.00     0.053 C 
BRANCH  11  12
ATOM     12  C   UNL     1      16.256 130.052  48.395  1.00  0.00     0.041 C 
ATOM     13  O   UNL     1      15.869 128.909  48.033  1.00  0.00    -0.550 OA
ATOM     14  O   UNL     1      17.584 130.419  48.212  1.00  0.00    -0.550 OA
ENDBRANCH  11  12
ENDBRANCH  10  11
ENDBRANCH   9  10
ENDBRANCH   8   9
ENDBRANCH   7   8
ENDBRANCH   6   7
ENDBRANCH   5   6
ENDBRANCH   4   5
ENDBRANCH   3   4
ENDBRANCH   2   3
ENDBRANCH   1   2
BRANCH   1  15
ATOM     15  C   UNL     1      18.859 129.842  54.304  1.00  0.00     0.000 C 
BRANCH  15  16
ATOM     16  C   UNL     1      17.686 129.937  53.312  1.00  0.00     0.000 C 
BRANCH  16  17
ATOM     17  C   UNL     1      17.356 128.602  52.612  1.00  0.00     0.000 C 
BRANCH  17  18
ATOM     18  C   UNL     1      16.145 127.894  53.249  1.00  0.00    -0.000 C 
BRANCH  18  19
ATOM     19  C   UNL     1      15.042 128.879  53.670  1.00  0.00    -0.000 C 
BRANCH  19  20
ATOM     20  C   UNL     1      14.815 128.891  55.191  1.00  0.00    -0.000 C 
BRANCH  20  21
ATOM     21  C   UNL     1      15.764 127.947  55.952  1.00  0.00    -0.000 C 
BRANCH  21  22
ATOM     22  C   UNL     1      16.669 128.626  56.998  1.00  0.00    -0.000 C 
BRANCH  22  23
ATOM     23  C   UNL     1      16.379 130.130  57.159  1.00  0.00    -0.000 C 
BRANCH  23  24
ATOM     24  C   UNL     1      17.276 130.792  58.227  1.00  0.00    -0.000 C 
BRANCH  24  25
ATOM     25  C   UNL     1      18.606 130.052  58.465  1.00  0.00    -0.003 C 
ATOM     26  C   UNL     1      19.028 130.018  59.932  1.00  0.00     0.004 C 
ENDBRANCH  24  25
ENDBRANCH  23  24
ENDBRANCH  22  23
ENDBRANCH  21  22
ENDBRANCH  20  21
ENDBRANCH  19  20
ENDBRANCH  18  19
ENDBRANCH  17  18
ENDBRANCH  16  17
ENDBRANCH  15  16
ENDBRANCH   1  15
TORSDOF 22
ENDMDL
