MODEL 1
REMARK VINA RESULT:    25.834      0.000      0.000
REMARK INTER + INTRA:          30.694
REMARK INTER:                  30.365
REMARK INTRA:                   0.329
REMARK UNBOUND:                 0.329
REMARK SMILES O=c1c(O)c(-c2ccc(O)c(O)c2)oc2cc(O)ccc12
REMARK SMILES IDX 5 1 3 2 2 3 1 4 21 5 15 6 14 7 16 8 17 9 19 10 20 11 6 12
REMARK SMILES IDX 7 13 8 14 9 15 13 16 11 17 10 18 12 20 4 22 18 24
REMARK H PARENT 10 19 12 21 4 23 18 25
REMARK Flexibility Score: inf
ROOT
ATOM      1  C   UNL     1     -10.394   8.427  19.252  1.00  0.00     0.180 A 
ATOM      2  C   UNL     1      -9.008   8.598  19.442  1.00  0.00     0.208 A 
ATOM      3  C   UNL     1      -8.403   9.778  18.981  1.00  0.00     0.235 A 
ATOM      4  O   UNL     1      -7.162   9.951  19.130  1.00  0.00    -0.285 OA
ATOM      5  C   UNL     1      -9.191  10.762  18.362  1.00  0.00     0.069 A 
ATOM      6  C   UNL     1     -10.576  10.524  18.232  1.00  0.00     0.142 A 
ATOM      7  O   UNL     1     -11.108   9.390  18.673  1.00  0.00    -0.452 OA
ATOM      8  C   UNL     1     -11.397  11.485  17.630  1.00  0.00     0.094 A 
ATOM      9  C   UNL     1     -10.848  12.684  17.155  1.00  0.00     0.119 A 
ATOM     10  C   UNL     1      -9.476  12.921  17.282  1.00  0.00     0.047 A 
ATOM     11  C   UNL     1      -8.647  11.967  17.883  1.00  0.00     0.020 A 
ENDROOT
BRANCH   1  12
ATOM     12  C   UNL     1     -11.103   7.203  19.693  1.00  0.00     0.025 A 
ATOM     13  C   UNL     1     -12.257   6.790  19.010  1.00  0.00     0.016 A 
ATOM     14  C   UNL     1     -12.930   5.628  19.396  1.00  0.00     0.051 A 
ATOM     15  C   UNL     1     -12.451   4.854  20.460  1.00  0.00     0.157 A 
ATOM     16  C   UNL     1     -10.613   6.413  20.748  1.00  0.00     0.062 A 
ATOM     17  C   UNL     1     -11.283   5.247  21.136  1.00  0.00     0.158 A 
BRANCH  15  18
ATOM     18  O   UNL     1     -13.125   3.696  20.845  1.00  0.00    -0.504 OA
ATOM     19  H   UNL     1     -13.659   3.654  21.706  1.00  0.00     0.293 HD
ENDBRANCH  15  18
BRANCH  17  20
ATOM     20  O   UNL     1     -10.772   4.491  22.190  1.00  0.00    -0.504 OA
ATOM     21  H   UNL     1     -11.342   3.830  22.705  1.00  0.00     0.293 HD
ENDBRANCH  17  20
ENDBRANCH   1  12
BRANCH   2  22
ATOM     22  O   UNL     1      -8.258   7.623  20.105  1.00  0.00    -0.502 OA
ATOM     23  H   UNL     1      -7.870   7.773  21.028  1.00  0.00     0.293 HD
ENDBRANCH   2  22
BRANCH   9  24
ATOM     24  O   UNL     1     -11.657  13.646  16.554  1.00  0.00    -0.508 OA
ATOM     25  H   UNL     1     -11.874  13.611  15.565  1.00  0.00     0.293 HD
ENDBRANCH   9  24
TORSDOF 5
ENDMDL
MODEL 2
REMARK VINA RESULT:    26.250     13.209     14.247
REMARK INTER + INTRA:          31.183
REMARK INTER:                  30.727
REMARK INTRA:                   0.456
REMARK UNBOUND:                 0.329
REMARK SMILES O=c1c(O)c(-c2ccc(O)c(O)c2)oc2cc(O)ccc12
REMARK SMILES IDX 5 1 3 2 2 3 1 4 21 5 15 6 14 7 16 8 17 9 19 10 20 11 6 12
REMARK SMILES IDX 7 13 8 14 9 15 13 16 11 17 10 18 12 20 4 22 18 24
REMARK H PARENT 10 19 12 21 4 23 18 25
REMARK Flexibility Score: inf
ROOT
ATOM      1  C   UNL     1      -6.241  -2.571  13.109  1.00  0.00     0.180 A 
ATOM      2  C   UNL     1      -6.216  -1.783  11.939  1.00  0.00     0.208 A 
ATOM      3  C   UNL     1      -4.974  -1.430  11.389  1.00  0.00     0.235 A 
ATOM      4  O   UNL     1      -4.924  -0.718  10.349  1.00  0.00    -0.285 OA
ATOM      5  C   UNL     1      -3.794  -1.883  12.000  1.00  0.00     0.069 A 
ATOM      6  C   UNL     1      -3.905  -2.688  13.154  1.00  0.00     0.142 A 
ATOM      7  O   UNL     1      -5.099  -2.992  13.649  1.00  0.00    -0.452 OA
ATOM      8  C   UNL     1      -2.751  -3.167  13.786  1.00  0.00     0.094 A 
ATOM      9  C   UNL     1      -1.484  -2.850  13.277  1.00  0.00     0.119 A 
ATOM     10  C   UNL     1      -1.372  -2.052  12.134  1.00  0.00     0.047 A 
ATOM     11  C   UNL     1      -2.519  -1.569  11.495  1.00  0.00     0.020 A 
ENDROOT
BRANCH   1  12
ATOM     12  C   UNL     1      -7.509  -2.969  13.762  1.00  0.00     0.025 A 
ATOM     13  C   UNL     1      -7.478  -3.514  15.054  1.00  0.00     0.016 A 
ATOM     14  C   UNL     1      -8.664  -3.878  15.697  1.00  0.00     0.051 A 
ATOM     15  C   UNL     1      -9.899  -3.689  15.064  1.00  0.00     0.157 A 
ATOM     16  C   UNL     1      -8.751  -2.761  13.136  1.00  0.00     0.062 A 
ATOM     17  C   UNL     1      -9.942  -3.122  13.778  1.00  0.00     0.158 A 
BRANCH  15  18
ATOM     18  O   UNL     1     -11.081  -4.054  15.706  1.00  0.00    -0.504 OA
ATOM     19  H   UNL     1     -11.628  -3.382  16.232  1.00  0.00     0.293 HD
ENDBRANCH  15  18
BRANCH  17  20
ATOM     20  O   UNL     1     -11.155  -2.907  13.126  1.00  0.00    -0.504 OA
ATOM     21  H   UNL     1     -11.506  -3.540  12.418  1.00  0.00     0.293 HD
ENDBRANCH  17  20
ENDBRANCH   1  12
BRANCH   2  22
ATOM     22  O   UNL     1      -7.407  -1.388  11.326  1.00  0.00    -0.502 OA
ATOM     23  H   UNL     1      -7.422  -0.824  10.485  1.00  0.00     0.293 HD
ENDBRANCH   2  22
BRANCH   9  24
ATOM     24  O   UNL     1      -0.331  -3.322  13.900  1.00  0.00    -0.508 OA
ATOM     25  H   UNL     1       0.516  -3.508  13.375  1.00  0.00     0.293 HD
ENDBRANCH   9  24
TORSDOF 5
ENDMDL
MODEL 3
REMARK VINA RESULT:    27.721      5.399      8.805
REMARK INTER + INTRA:          32.912
REMARK INTER:                  33.104
REMARK INTRA:                  -0.193
REMARK UNBOUND:                 0.329
REMARK SMILES O=c1c(O)c(-c2ccc(O)c(O)c2)oc2cc(O)ccc12
REMARK SMILES IDX 5 1 3 2 2 3 1 4 21 5 15 6 14 7 16 8 17 9 19 10 20 11 6 12
REMARK SMILES IDX 7 13 8 14 9 15 13 16 11 17 10 18 12 20 4 22 18 24
REMARK H PARENT 10 19 12 21 4 23 18 25
REMARK Flexibility Score: inf
ROOT
ATOM      1  C   UNL     1      -6.237   7.151  16.024  1.00  0.00     0.180 A 
ATOM      2  C   UNL     1      -7.081   6.878  14.928  1.00  0.00     0.208 A 
ATOM      3  C   UNL     1      -7.348   5.540  14.597  1.00  0.00     0.235 A 
ATOM      4  O   UNL     1      -8.091   5.269  13.614  1.00  0.00    -0.285 OA
ATOM      5  C   UNL     1      -6.788   4.512  15.372  1.00  0.00     0.069 A 
ATOM      6  C   UNL     1      -5.974   4.869  16.469  1.00  0.00     0.142 A 
ATOM      7  O   UNL     1      -5.738   6.147  16.743  1.00  0.00    -0.452 OA
ATOM      8  C   UNL     1      -5.406   3.873  17.272  1.00  0.00     0.094 A 
ATOM      9  C   UNL     1      -5.642   2.520  16.991  1.00  0.00     0.119 A 
ATOM     10  C   UNL     1      -6.447   2.165  15.905  1.00  0.00     0.047 A 
ATOM     11  C   UNL     1      -7.021   3.152  15.097  1.00  0.00     0.020 A 
ENDROOT
BRANCH   1  12
ATOM     12  C   UNL     1      -5.892   8.534  16.426  1.00  0.00     0.025 A 
ATOM     13  C   UNL     1      -4.587   9.007  16.220  1.00  0.00     0.016 A 
ATOM     14  C   UNL     1      -4.245  10.315  16.572  1.00  0.00     0.051 A 
ATOM     15  C   UNL     1      -5.206  11.174  17.121  1.00  0.00     0.157 A 
ATOM     16  C   UNL     1      -6.860   9.405  16.957  1.00  0.00     0.062 A 
ATOM     17  C   UNL     1      -6.521  10.717  17.309  1.00  0.00     0.158 A 
BRANCH  15  18
ATOM     18  O   UNL     1      -4.862  12.478  17.473  1.00  0.00    -0.504 OA
ATOM     19  H   UNL     1      -4.418  13.107  16.812  1.00  0.00     0.293 HD
ENDBRANCH  15  18
BRANCH  17  20
ATOM     20  O   UNL     1      -7.505  11.552  17.838  1.00  0.00    -0.504 OA
ATOM     21  H   UNL     1      -8.405  11.674  17.391  1.00  0.00     0.293 HD
ENDBRANCH  17  20
ENDBRANCH   1  12
BRANCH   2  22
ATOM     22  O   UNL     1      -7.663   7.922  14.205  1.00  0.00    -0.502 OA
ATOM     23  H   UNL     1      -7.125   8.711  13.865  1.00  0.00     0.293 HD
ENDBRANCH   2  22
BRANCH   9  24
ATOM     24  O   UNL     1      -5.080   1.523  17.785  1.00  0.00    -0.508 OA
ATOM     25  H   UNL     1      -5.544   1.188  18.621  1.00  0.00     0.293 HD
ENDBRANCH   9  24
TORSDOF 5
ENDMDL
MODEL 4
REMARK VINA RESULT:    28.172     12.976     14.930
REMARK INTER + INTRA:          33.442
REMARK INTER:                  33.089
REMARK INTRA:                   0.353
REMARK UNBOUND:                 0.329
REMARK SMILES O=c1c(O)c(-c2ccc(O)c(O)c2)oc2cc(O)ccc12
REMARK SMILES IDX 5 1 3 2 2 3 1 4 21 5 15 6 14 7 16 8 17 9 19 10 20 11 6 12
REMARK SMILES IDX 7 13 8 14 9 15 13 16 11 17 10 18 12 20 4 22 18 24
REMARK H PARENT 10 19 12 21 4 23 18 25
REMARK Flexibility Score: inf
ROOT
ATOM      1  C   UNL     1      -5.331  -2.422  12.950  1.00  0.00     0.180 A 
ATOM      2  C   UNL     1      -6.081  -1.836  11.909  1.00  0.00     0.208 A 
ATOM      3  C   UNL     1      -7.481  -1.845  11.997  1.00  0.00     0.235 A 
ATOM      4  O   UNL     1      -8.175  -1.336  11.074  1.00  0.00    -0.285 OA
ATOM      5  C   UNL     1      -8.099  -2.416  13.122  1.00  0.00     0.069 A 
ATOM      6  C   UNL     1      -7.277  -2.960  14.132  1.00  0.00     0.142 A 
ATOM      7  O   UNL     1      -5.955  -2.940  14.006  1.00  0.00    -0.452 OA
ATOM      8  C   UNL     1      -7.854  -3.528  15.273  1.00  0.00     0.094 A 
ATOM      9  C   UNL     1      -9.248  -3.560  15.417  1.00  0.00     0.119 A 
ATOM     10  C   UNL     1     -10.064  -3.023  14.417  1.00  0.00     0.047 A 
ATOM     11  C   UNL     1      -9.497  -2.451  13.274  1.00  0.00     0.020 A 
ENDROOT
BRANCH   1  12
ATOM     12  C   UNL     1      -3.851  -2.470  12.922  1.00  0.00     0.025 A 
ATOM     13  C   UNL     1      -3.180  -3.480  13.628  1.00  0.00     0.016 A 
ATOM     14  C   UNL     1      -1.785  -3.557  13.599  1.00  0.00     0.051 A 
ATOM     15  C   UNL     1      -1.042  -2.635  12.852  1.00  0.00     0.157 A 
ATOM     16  C   UNL     1      -3.103  -1.558  12.156  1.00  0.00     0.062 A 
ATOM     17  C   UNL     1      -1.706  -1.634  12.123  1.00  0.00     0.158 A 
BRANCH  15  18
ATOM     18  O   UNL     1       0.350  -2.712  12.826  1.00  0.00    -0.504 OA
ATOM     19  H   UNL     1       0.860  -2.808  11.955  1.00  0.00     0.293 HD
ENDBRANCH  15  18
BRANCH  17  20
ATOM     20  O   UNL     1      -0.996  -0.709  11.357  1.00  0.00    -0.504 OA
ATOM     21  H   UNL     1      -1.122   0.289  11.466  1.00  0.00     0.293 HD
ENDBRANCH  17  20
ENDBRANCH   1  12
BRANCH   2  22
ATOM     22  O   UNL     1      -5.437  -1.233  10.826  1.00  0.00    -0.502 OA
ATOM     23  H   UNL     1      -5.768  -1.336   9.874  1.00  0.00     0.293 HD
ENDBRANCH   2  22
BRANCH   9  24
ATOM     24  O   UNL     1      -9.832  -4.125  16.549  1.00  0.00    -0.508 OA
ATOM     25  H   UNL     1      -9.686  -5.098  16.790  1.00  0.00     0.293 HD
ENDBRANCH   9  24
TORSDOF 5
ENDMDL
