MODEL 1
REMARK VINA RESULT:    -4.792      0.000      0.000
REMARK INTER + INTRA:          -5.529
REMARK INTER:                  -5.492
REMARK INTRA:                  -0.037
REMARK UNBOUND:                -0.037
REMARK SMILES CC(C)[C@H]([NH3+])C(=O)[O-]
REMARK SMILES IDX 4 1 5 2 6 6 7 7 8 8 2 9 1 10 3 11
REMARK H PARENT 5 3 5 4 5 5
REMARK Flexibility Score: inf
ROOT
ATOM      1  C   UNL     1      20.144  70.018   0.867  1.00  0.00     0.230 C 
ENDROOT
BRANCH   1   2
ATOM      2  N   UNL     1      18.722  70.391   0.881  1.00  0.00    -0.350 N 
ATOM      3  H   UNL     1      18.137  69.529   0.987  1.00  0.00     0.345 HD
ATOM      4  H   UNL     1      18.462  70.849  -0.023  1.00  0.00     0.345 HD
ATOM      5  H   UNL     1      18.503  71.040   1.670  1.00  0.00     0.345 HD
ENDBRANCH   1   2
BRANCH   1   6
ATOM      6  C   UNL     1      20.904  70.859  -0.132  1.00  0.00     0.099 C 
ATOM      7  O   UNL     1      21.044  72.096   0.062  1.00  0.00    -0.544 OA
ATOM      8  O   UNL     1      21.479  70.277  -1.255  1.00  0.00    -0.544 OA
ENDBRANCH   1   6
BRANCH   1   9
ATOM      9  C   UNL     1      20.337  68.489   0.636  1.00  0.00     0.047 C 
ATOM     10  C   UNL     1      20.536  67.690   1.935  1.00  0.00     0.014 C 
ATOM     11  C   UNL     1      19.174  67.896  -0.173  1.00  0.00     0.014 C 
ENDBRANCH   1   9
TORSDOF 3
ENDMDL
MODEL 2
REMARK VINA RESULT:    -4.768      2.782      3.722
REMARK INTER + INTRA:          -5.501
REMARK INTER:                  -5.465
REMARK INTRA:                  -0.036
REMARK UNBOUND:                -0.037
REMARK SMILES CC(C)[C@H]([NH3+])C(=O)[O-]
REMARK SMILES IDX 4 1 5 2 6 6 7 7 8 8 2 9 1 10 3 11
REMARK H PARENT 5 3 5 4 5 5
REMARK Flexibility Score: inf
ROOT
ATOM      1  C   UNL     1      21.696  69.358   0.725  1.00  0.00     0.230 C 
ENDROOT
BRANCH   1   2
ATOM      2  N   UNL     1      23.026  68.808   0.423  1.00  0.00    -0.350 N 
ATOM      3  H   UNL     1      23.685  69.592   0.206  1.00  0.00     0.345 HD
ATOM      4  H   UNL     1      22.974  68.187  -0.417  1.00  0.00     0.345 HD
ATOM      5  H   UNL     1      23.408  68.265   1.229  1.00  0.00     0.345 HD
ENDBRANCH   1   2
BRANCH   1   6
ATOM      6  C   UNL     1      20.744  68.255   1.127  1.00  0.00     0.099 C 
ATOM      7  O   UNL     1      19.728  68.012   0.422  1.00  0.00    -0.544 OA
ATOM      8  O   UNL     1      20.992  67.481   2.254  1.00  0.00    -0.544 OA
ENDBRANCH   1   6
BRANCH   1   9
ATOM      9  C   UNL     1      21.150  70.226  -0.449  1.00  0.00     0.047 C 
ATOM     10  C   UNL     1      21.382  71.734  -0.261  1.00  0.00     0.014 C 
ATOM     11  C   UNL     1      21.730  69.769  -1.797  1.00  0.00     0.014 C 
ENDBRANCH   1   9
TORSDOF 3
ENDMDL
MODEL 3
REMARK VINA RESULT:    -4.748      2.265      3.259
REMARK INTER + INTRA:          -5.479
REMARK INTER:                  -5.430
REMARK INTRA:                  -0.049
REMARK UNBOUND:                -0.037
REMARK SMILES CC(C)[C@H]([NH3+])C(=O)[O-]
REMARK SMILES IDX 4 1 5 2 6 6 7 7 8 8 2 9 1 10 3 11
REMARK H PARENT 5 3 5 4 5 5
REMARK Flexibility Score: inf
ROOT
ATOM      1  C   UNL     1      19.665  69.865   0.218  1.00  0.00     0.230 C 
ENDROOT
BRANCH   1   2
ATOM      2  N   UNL     1      18.708  70.550   1.099  1.00  0.00    -0.350 N 
ATOM      3  H   UNL     1      19.223  70.993   1.896  1.00  0.00     0.345 HD
ATOM      4  H   UNL     1      18.030  69.859   1.497  1.00  0.00     0.345 HD
ATOM      5  H   UNL     1      18.181  71.293   0.589  1.00  0.00     0.345 HD
ENDBRANCH   1   2
BRANCH   1   6
ATOM      6  C   UNL     1      19.589  68.369   0.410  1.00  0.00     0.099 C 
ATOM      7  O   UNL     1      19.236  67.628  -0.545  1.00  0.00    -0.544 OA
ATOM      8  O   UNL     1      19.934  67.793   1.627  1.00  0.00    -0.544 OA
ENDBRANCH   1   6
BRANCH   1   9
ATOM      9  C   UNL     1      21.111  70.422   0.394  1.00  0.00     0.047 C 
ATOM     10  C   UNL     1      22.190  69.561  -0.284  1.00  0.00     0.014 C 
ATOM     11  C   UNL     1      21.213  71.875  -0.093  1.00  0.00     0.014 C 
ENDBRANCH   1   9
TORSDOF 3
ENDMDL
MODEL 4
REMARK VINA RESULT:    -4.650      2.000      2.626
REMARK INTER + INTRA:          -5.366
REMARK INTER:                  -5.352
REMARK INTRA:                  -0.014
REMARK UNBOUND:                -0.037
REMARK SMILES CC(C)[C@H]([NH3+])C(=O)[O-]
REMARK SMILES IDX 4 1 5 2 6 6 7 7 8 8 2 9 1 10 3 11
REMARK H PARENT 5 3 5 4 5 5
REMARK Flexibility Score: inf
ROOT
ATOM      1  C   UNL     1      21.853  68.920   0.106  1.00  0.00     0.230 C 
ENDROOT
BRANCH   1   2
ATOM      2  N   UNL     1      23.225  68.972   0.630  1.00  0.00    -0.350 N 
ATOM      3  H   UNL     1      23.219  68.723   1.647  1.00  0.00     0.345 HD
ATOM      4  H   UNL     1      23.608  69.941   0.537  1.00  0.00     0.345 HD
ATOM      5  H   UNL     1      23.853  68.306   0.128  1.00  0.00     0.345 HD
ENDBRANCH   1   2
BRANCH   1   6
ATOM      6  C   UNL     1      21.644  69.987  -0.943  1.00  0.00     0.099 C 
ATOM      7  O   UNL     1      21.346  69.661  -2.123  1.00  0.00    -0.544 OA
ATOM      8  O   UNL     1      21.748  71.333  -0.614  1.00  0.00    -0.544 OA
ENDBRANCH   1   6
BRANCH   1   9
ATOM      9  C   UNL     1      20.796  68.985   1.249  1.00  0.00     0.047 C 
ATOM     10  C   UNL     1      19.387  69.369   0.766  1.00  0.00     0.014 C 
ATOM     11  C   UNL     1      20.741  67.666   2.035  1.00  0.00     0.014 C 
ENDBRANCH   1   9
TORSDOF 3
ENDMDL
MODEL 5
REMARK VINA RESULT:    -4.554      2.401      3.267
REMARK INTER + INTRA:          -5.257
REMARK INTER:                  -5.214
REMARK INTRA:                  -0.043
REMARK UNBOUND:                -0.037
REMARK SMILES CC(C)[C@H]([NH3+])C(=O)[O-]
REMARK SMILES IDX 4 1 5 2 6 6 7 7 8 8 2 9 1 10 3 11
REMARK H PARENT 5 3 5 4 5 5
REMARK Flexibility Score: inf
ROOT
ATOM      1  C   UNL     1      20.751  69.838   0.660  1.00  0.00     0.230 C 
ENDROOT
BRANCH   1   2
ATOM      2  N   UNL     1      21.300  68.500   0.925  1.00  0.00    -0.350 N 
ATOM      3  H   UNL     1      21.551  68.040   0.019  1.00  0.00     0.345 HD
ATOM      4  H   UNL     1      20.583  67.906   1.402  1.00  0.00     0.345 HD
ATOM      5  H   UNL     1      22.157  68.548   1.521  1.00  0.00     0.345 HD
ENDBRANCH   1   2
BRANCH   1   6
ATOM      6  C   UNL     1      19.241  69.807   0.686  1.00  0.00     0.099 C 
ATOM      7  O   UNL     1      18.596  70.842   0.999  1.00  0.00    -0.544 OA
ATOM      8  O   UNL     1      18.550  68.653   0.338  1.00  0.00    -0.544 OA
ENDBRANCH   1   6
BRANCH   1   9
ATOM      9  C   UNL     1      21.318  70.442  -0.660  1.00  0.00     0.047 C 
ATOM     10  C   UNL     1      21.578  71.956  -0.584  1.00  0.00     0.014 C 
ATOM     11  C   UNL     1      22.593  69.711  -1.106  1.00  0.00     0.014 C 
ENDBRANCH   1   9
TORSDOF 3
ENDMDL
MODEL 6
REMARK VINA RESULT:    -4.437      2.638      3.207
REMARK INTER + INTRA:          -5.123
REMARK INTER:                  -5.049
REMARK INTRA:                  -0.074
REMARK UNBOUND:                -0.037
REMARK SMILES CC(C)[C@H]([NH3+])C(=O)[O-]
REMARK SMILES IDX 4 1 5 2 6 6 7 7 8 8 2 9 1 10 3 11
REMARK H PARENT 5 3 5 4 5 5
REMARK Flexibility Score: inf
ROOT
ATOM      1  C   UNL     1      20.557  68.408   0.097  1.00  0.00     0.230 C 
ENDROOT
BRANCH   1   2
ATOM      2  N   UNL     1      19.358  68.159  -0.717  1.00  0.00    -0.350 N 
ATOM      3  H   UNL     1      18.512  68.159  -0.100  1.00  0.00     0.345 HD
ATOM      4  H   UNL     1      19.424  67.220  -1.174  1.00  0.00     0.345 HD
ATOM      5  H   UNL     1      19.234  68.891  -1.451  1.00  0.00     0.345 HD
ENDBRANCH   1   2
BRANCH   1   6
ATOM      6  C   UNL     1      20.193  68.520   1.559  1.00  0.00     0.099 C 
ATOM      7  O   UNL     1      19.467  69.469   1.957  1.00  0.00    -0.544 OA
ATOM      8  O   UNL     1      20.629  67.567   2.472  1.00  0.00    -0.544 OA
ENDBRANCH   1   6
BRANCH   1   9
ATOM      9  C   UNL     1      21.358  69.642  -0.420  1.00  0.00     0.047 C 
ATOM     10  C   UNL     1      22.703  69.848   0.296  1.00  0.00     0.014 C 
ATOM     11  C   UNL     1      21.576  69.569  -1.939  1.00  0.00     0.014 C 
ENDBRANCH   1   9
TORSDOF 3
ENDMDL
MODEL 7
REMARK VINA RESULT:    -4.400      2.384      2.947
REMARK INTER + INTRA:          -5.079
REMARK INTER:                  -5.019
REMARK INTRA:                  -0.061
REMARK UNBOUND:                -0.037
REMARK SMILES CC(C)[C@H]([NH3+])C(=O)[O-]
REMARK SMILES IDX 4 1 5 2 6 6 7 7 8 8 2 9 1 10 3 11
REMARK H PARENT 5 3 5 4 5 5
REMARK Flexibility Score: inf
ROOT
ATOM      1  C   UNL     1      20.268  68.646  -0.107  1.00  0.00     0.230 C 
ENDROOT
BRANCH   1   2
ATOM      2  N   UNL     1      20.884  69.336  -1.250  1.00  0.00    -0.350 N 
ATOM      3  H   UNL     1      21.895  69.072  -1.312  1.00  0.00     0.345 HD
ATOM      4  H   UNL     1      20.828  70.371  -1.116  1.00  0.00     0.345 HD
ATOM      5  H   UNL     1      20.418  69.080  -2.149  1.00  0.00     0.345 HD
ENDBRANCH   1   2
BRANCH   1   6
ATOM      6  C   UNL     1      18.891  69.202   0.170  1.00  0.00     0.099 C 
ATOM      7  O   UNL     1      17.868  68.533  -0.131  1.00  0.00    -0.544 OA
ATOM      8  O   UNL     1      18.738  70.439   0.785  1.00  0.00    -0.544 OA
ENDBRANCH   1   6
BRANCH   1   9
ATOM      9  C   UNL     1      21.191  68.671   1.148  1.00  0.00     0.047 C 
ATOM     10  C   UNL     1      20.897  67.545   2.153  1.00  0.00     0.014 C 
ATOM     11  C   UNL     1      22.675  68.648   0.750  1.00  0.00     0.014 C 
ENDBRANCH   1   9
TORSDOF 3
ENDMDL
MODEL 8
REMARK VINA RESULT:    -4.381      1.702      2.426
REMARK INTER + INTRA:          -5.058
REMARK INTER:                  -5.117
REMARK INTRA:                   0.059
REMARK UNBOUND:                -0.037
REMARK SMILES CC(C)[C@H]([NH3+])C(=O)[O-]
REMARK SMILES IDX 4 1 5 2 6 6 7 7 8 8 2 9 1 10 3 11
REMARK H PARENT 5 3 5 4 5 5
REMARK Flexibility Score: inf
ROOT
ATOM      1  C   UNL     1      20.017  69.513   0.272  1.00  0.00     0.230 C 
ENDROOT
BRANCH   1   2
ATOM      2  N   UNL     1      18.636  69.568   0.773  1.00  0.00    -0.350 N 
ATOM      3  H   UNL     1      18.293  68.596   0.958  1.00  0.00     0.345 HD
ATOM      4  H   UNL     1      18.011  69.999   0.053  1.00  0.00     0.345 HD
ATOM      5  H   UNL     1      18.571  70.119   1.658  1.00  0.00     0.345 HD
ENDBRANCH   1   2
BRANCH   1   6
ATOM      6  C   UNL     1      20.087  68.712  -1.007  1.00  0.00     0.099 C 
ATOM      7  O   UNL     1      19.382  67.678  -1.142  1.00  0.00    -0.544 OA
ATOM      8  O   UNL     1      20.903  69.122  -2.055  1.00  0.00    -0.544 OA
ENDBRANCH   1   6
BRANCH   1   9
ATOM      9  C   UNL     1      21.005  68.994   1.361  1.00  0.00     0.047 C 
ATOM     10  C   UNL     1      20.562  67.676   2.017  1.00  0.00     0.014 C 
ATOM     11  C   UNL     1      22.428  68.852   0.801  1.00  0.00     0.014 C 
ENDBRANCH   1   9
TORSDOF 3
ENDMDL
MODEL 9
REMARK VINA RESULT:    -4.352      1.808      2.077
REMARK INTER + INTRA:          -5.025
REMARK INTER:                  -4.949
REMARK INTRA:                  -0.076
REMARK UNBOUND:                -0.037
REMARK SMILES CC(C)[C@H]([NH3+])C(=O)[O-]
REMARK SMILES IDX 4 1 5 2 6 6 7 7 8 8 2 9 1 10 3 11
REMARK H PARENT 5 3 5 4 5 5
REMARK Flexibility Score: inf
ROOT
ATOM      1  C   UNL     1      20.672  69.838  -0.708  1.00  0.00     0.230 C 
ENDROOT
BRANCH   1   2
ATOM      2  N   UNL     1      21.213  69.240  -1.937  1.00  0.00    -0.350 N 
ATOM      3  H   UNL     1      22.248  69.390  -1.971  1.00  0.00     0.345 HD
ATOM      4  H   UNL     1      20.791  69.701  -2.776  1.00  0.00     0.345 HD
ATOM      5  H   UNL     1      21.024  68.213  -1.979  1.00  0.00     0.345 HD
ENDBRANCH   1   2
BRANCH   1   6
ATOM      6  C   UNL     1      21.693  70.748  -0.065  1.00  0.00     0.099 C 
ATOM      7  O   UNL     1      22.770  70.271   0.379  1.00  0.00    -0.544 OA
ATOM      8  O   UNL     1      21.469  72.117   0.016  1.00  0.00    -0.544 OA
ENDBRANCH   1   6
BRANCH   1   9
ATOM      9  C   UNL     1      20.131  68.753   0.273  1.00  0.00     0.047 C 
ATOM     10  C   UNL     1      19.521  69.334   1.560  1.00  0.00     0.014 C 
ATOM     11  C   UNL     1      19.118  67.830  -0.421  1.00  0.00     0.014 C 
ENDBRANCH   1   9
TORSDOF 3
ENDMDL
