MODEL 1
REMARK VINA RESULT:    -4.541      0.000      0.000
REMARK INTER + INTRA:          -7.344
REMARK INTER:                  -6.665
REMARK INTRA:                  -0.680
REMARK UNBOUND:                -0.680
REMARK SMILES O=C([O-])CCCCCCCC(=O)[O-]
REMARK SMILES IDX 7 1 6 2 5 3 4 4 2 5 1 6 3 7 8 8 9 9 10 10 11 11 12 12 13 13
REMARK H PARENT
REMARK Flexibility Score: inf
ROOT
ATOM      1  C   UNL     1      18.956   6.033  11.063  1.00  0.00     0.000 C 
ENDROOT
BRANCH   1   2
ATOM      2  C   UNL     1      19.461   7.453  11.385  1.00  0.00     0.000 C 
BRANCH   2   3
ATOM      3  C   UNL     1      20.991   7.617  11.369  1.00  0.00     0.006 C 
BRANCH   3   4
ATOM      4  C   UNL     1      21.440   8.961  10.780  1.00  0.00     0.053 C 
BRANCH   4   5
ATOM      5  C   UNL     1      22.562   8.757   9.812  1.00  0.00     0.041 C 
ATOM      6  O   UNL     1      22.811   9.631   8.939  1.00  0.00    -0.550 OA
ATOM      7  O   UNL     1      23.301   7.582   9.841  1.00  0.00    -0.550 OA
ENDBRANCH   4   5
ENDBRANCH   3   4
ENDBRANCH   2   3
ENDBRANCH   1   2
BRANCH   1   8
ATOM      8  C   UNL     1      19.337   5.503   9.666  1.00  0.00     0.000 C 
BRANCH   8   9
ATOM      9  C   UNL     1      18.952   6.424   8.491  1.00  0.00     0.006 C 
BRANCH   9  10
ATOM     10  C   UNL     1      20.149   7.058   7.763  1.00  0.00     0.053 C 
BRANCH  10  11
ATOM     11  C   UNL     1      19.757   8.290   7.006  1.00  0.00     0.041 C 
ATOM     12  O   UNL     1      18.544   8.606   6.896  1.00  0.00    -0.550 OA
ATOM     13  O   UNL     1      20.731   9.070   6.396  1.00  0.00    -0.550 OA
ENDBRANCH  10  11
ENDBRANCH   9  10
ENDBRANCH   8   9
ENDBRANCH   1   8
TORSDOF 8
ENDMDL
MODEL 2
REMARK VINA RESULT:    -4.449      1.388      4.158
REMARK INTER + INTRA:          -7.209
REMARK INTER:                  -6.689
REMARK INTRA:                  -0.520
REMARK UNBOUND:                -0.680
REMARK SMILES O=C([O-])CCCCCCCC(=O)[O-]
REMARK SMILES IDX 7 1 6 2 5 3 4 4 2 5 1 6 3 7 8 8 9 9 10 10 11 11 12 12 13 13
REMARK H PARENT
REMARK Flexibility Score: inf
ROOT
ATOM      1  C   UNL     1      20.671   8.344  11.755  1.00  0.00     0.000 C 
ENDROOT
BRANCH   1   2
ATOM      2  C   UNL     1      19.372   7.765  11.162  1.00  0.00     0.000 C 
BRANCH   2   3
ATOM      3  C   UNL     1      19.389   6.244  10.923  1.00  0.00     0.006 C 
BRANCH   3   4
ATOM      4  C   UNL     1      19.076   5.866   9.469  1.00  0.00     0.053 C 
BRANCH   4   5
ATOM      5  C   UNL     1      19.847   6.736   8.527  1.00  0.00     0.041 C 
ATOM      6  O   UNL     1      21.104   6.775   8.585  1.00  0.00    -0.550 OA
ATOM      7  O   UNL     1      19.174   7.543   7.617  1.00  0.00    -0.550 OA
ENDBRANCH   4   5
ENDBRANCH   3   4
ENDBRANCH   2   3
ENDBRANCH   1   2
BRANCH   1   8
ATOM      8  C   UNL     1      21.811   7.326  11.956  1.00  0.00     0.000 C 
BRANCH   8   9
ATOM      9  C   UNL     1      23.229   7.932  11.996  1.00  0.00     0.006 C 
BRANCH   9  10
ATOM     10  C   UNL     1      23.362   9.282  11.275  1.00  0.00     0.053 C 
BRANCH  10  11
ATOM     11  C   UNL     1      23.634   9.112   9.811  1.00  0.00     0.041 C 
ATOM     12  O   UNL     1      22.864   9.628   8.960  1.00  0.00    -0.550 OA
ATOM     13  O   UNL     1      24.720   8.356   9.389  1.00  0.00    -0.550 OA
ENDBRANCH  10  11
ENDBRANCH   9  10
ENDBRANCH   8   9
ENDBRANCH   1   8
TORSDOF 8
ENDMDL
MODEL 3
REMARK VINA RESULT:    -4.417      1.362      1.698
REMARK INTER + INTRA:          -7.162
REMARK INTER:                  -6.513
REMARK INTRA:                  -0.649
REMARK UNBOUND:                -0.680
REMARK SMILES O=C([O-])CCCCCCCC(=O)[O-]
REMARK SMILES IDX 7 1 6 2 5 3 4 4 2 5 1 6 3 7 8 8 9 9 10 10 11 11 12 12 13 13
REMARK H PARENT
REMARK Flexibility Score: inf
ROOT
ATOM      1  C   UNL     1      19.075   7.448  11.292  1.00  0.00     0.000 C 
ENDROOT
BRANCH   1   2
ATOM      2  C   UNL     1      20.308   8.353  11.483  1.00  0.00     0.000 C 
BRANCH   2   3
ATOM      3  C   UNL     1      21.562   7.638  12.017  1.00  0.00     0.006 C 
BRANCH   3   4
ATOM      4  C   UNL     1      22.747   7.710  11.044  1.00  0.00     0.053 C 
BRANCH   4   5
ATOM      5  C   UNL     1      23.403   9.052  11.119  1.00  0.00     0.041 C 
ATOM      6  O   UNL     1      23.970   9.421  12.181  1.00  0.00    -0.550 OA
ATOM      7  O   UNL     1      23.345   9.916  10.032  1.00  0.00    -0.550 OA
ENDBRANCH   4   5
ENDBRANCH   3   4
ENDBRANCH   2   3
ENDBRANCH   1   2
BRANCH   1   8
ATOM      8  C   UNL     1      19.376   6.041  10.739  1.00  0.00     0.000 C 
BRANCH   8   9
ATOM      9  C   UNL     1      19.908   6.007   9.292  1.00  0.00     0.006 C 
BRANCH   9  10
ATOM     10  C   UNL     1      19.000   6.703   8.266  1.00  0.00     0.053 C 
BRANCH  10  11
ATOM     11  C   UNL     1      19.690   7.851   7.594  1.00  0.00     0.041 C 
ATOM     12  O   UNL     1      19.291   8.260   6.473  1.00  0.00    -0.550 OA
ATOM     13  O   UNL     1      20.793   8.446   8.192  1.00  0.00    -0.550 OA
ENDBRANCH  10  11
ENDBRANCH   9  10
ENDBRANCH   8   9
ENDBRANCH   1   8
TORSDOF 8
ENDMDL
MODEL 4
REMARK VINA RESULT:    -4.384      1.545      2.464
REMARK INTER + INTRA:          -7.114
REMARK INTER:                  -6.691
REMARK INTRA:                  -0.424
REMARK UNBOUND:                -0.680
REMARK SMILES O=C([O-])CCCCCCCC(=O)[O-]
REMARK SMILES IDX 7 1 6 2 5 3 4 4 2 5 1 6 3 7 8 8 9 9 10 10 11 11 12 12 13 13
REMARK H PARENT
REMARK Flexibility Score: inf
ROOT
ATOM      1  C   UNL     1      20.639   8.379  11.667  1.00  0.00     0.000 C 
ENDROOT
BRANCH   1   2
ATOM      2  C   UNL     1      21.642   7.256  11.999  1.00  0.00     0.000 C 
BRANCH   2   3
ATOM      3  C   UNL     1      23.112   7.703  12.084  1.00  0.00     0.006 C 
BRANCH   3   4
ATOM      4  C   UNL     1      23.826   7.664  10.726  1.00  0.00     0.053 C 
BRANCH   4   5
ATOM      5  C   UNL     1      23.974   9.047  10.175  1.00  0.00     0.041 C 
ATOM      6  O   UNL     1      24.893   9.800  10.594  1.00  0.00    -0.550 OA
ATOM      7  O   UNL     1      23.069   9.522   9.235  1.00  0.00    -0.550 OA
ENDBRANCH   4   5
ENDBRANCH   3   4
ENDBRANCH   2   3
ENDBRANCH   1   2
BRANCH   1   8
ATOM      8  C   UNL     1      19.315   7.909  11.033  1.00  0.00     0.000 C 
BRANCH   8   9
ATOM      9  C   UNL     1      19.088   6.384  11.051  1.00  0.00     0.006 C 
BRANCH   9  10
ATOM     10  C   UNL     1      19.158   5.716   9.668  1.00  0.00     0.053 C 
BRANCH  10  11
ATOM     11  C   UNL     1      19.757   6.623   8.637  1.00  0.00     0.041 C 
ATOM     12  O   UNL     1      19.021   7.193   7.790  1.00  0.00    -0.550 OA
ATOM     13  O   UNL     1      21.133   6.813   8.592  1.00  0.00    -0.550 OA
ENDBRANCH  10  11
ENDBRANCH   9  10
ENDBRANCH   8   9
ENDBRANCH   1   8
TORSDOF 8
ENDMDL
MODEL 5
REMARK VINA RESULT:    -4.355      1.365      4.238
REMARK INTER + INTRA:          -7.072
REMARK INTER:                  -6.452
REMARK INTRA:                  -0.620
REMARK UNBOUND:                -0.680
REMARK SMILES O=C([O-])CCCCCCCC(=O)[O-]
REMARK SMILES IDX 7 1 6 2 5 3 4 4 2 5 1 6 3 7 8 8 9 9 10 10 11 11 12 12 13 13
REMARK H PARENT
REMARK Flexibility Score: inf
ROOT
ATOM      1  C   UNL     1      19.148   7.398  11.348  1.00  0.00     0.000 C 
ENDROOT
BRANCH   1   2
ATOM      2  C   UNL     1      19.428   6.018  10.722  1.00  0.00     0.000 C 
BRANCH   2   3
ATOM      3  C   UNL     1      20.004   6.057   9.295  1.00  0.00     0.006 C 
BRANCH   3   4
ATOM      4  C   UNL     1      19.040   6.687   8.281  1.00  0.00     0.053 C 
BRANCH   4   5
ATOM      5  C   UNL     1      19.690   7.847   7.594  1.00  0.00     0.041 C 
ATOM      6  O   UNL     1      19.259   8.245   6.479  1.00  0.00    -0.550 OA
ATOM      7  O   UNL     1      20.802   8.456   8.160  1.00  0.00    -0.550 OA
ENDBRANCH   4   5
ENDBRANCH   3   4
ENDBRANCH   2   3
ENDBRANCH   1   2
BRANCH   1   8
ATOM      8  C   UNL     1      20.358   8.351  11.398  1.00  0.00     0.000 C 
BRANCH   8   9
ATOM      9  C   UNL     1      21.611   7.781  12.094  1.00  0.00     0.006 C 
BRANCH   9  10
ATOM     10  C   UNL     1      22.840   7.653  11.181  1.00  0.00     0.053 C 
BRANCH  10  11
ATOM     11  C   UNL     1      23.494   8.977  10.932  1.00  0.00     0.041 C 
ATOM     12  O   UNL     1      23.498   9.474   9.776  1.00  0.00    -0.550 OA
ATOM     13  O   UNL     1      24.129   9.647  11.971  1.00  0.00    -0.550 OA
ENDBRANCH  10  11
ENDBRANCH   9  10
ENDBRANCH   8   9
ENDBRANCH   1   8
TORSDOF 8
ENDMDL
MODEL 6
REMARK VINA RESULT:    -4.128      2.148      2.956
REMARK INTER + INTRA:          -6.738
REMARK INTER:                  -5.950
REMARK INTRA:                  -0.788
REMARK UNBOUND:                -0.680
REMARK SMILES O=C([O-])CCCCCCCC(=O)[O-]
REMARK SMILES IDX 7 1 6 2 5 3 4 4 2 5 1 6 3 7 8 8 9 9 10 10 11 11 12 12 13 13
REMARK H PARENT
REMARK Flexibility Score: inf
ROOT
ATOM      1  C   UNL     1      21.669   7.179  11.819  1.00  0.00     0.000 C 
ENDROOT
BRANCH   1   2
ATOM      2  C   UNL     1      22.959   7.445  12.620  1.00  0.00     0.000 C 
BRANCH   2   3
ATOM      3  C   UNL     1      24.262   7.045  11.903  1.00  0.00     0.006 C 
BRANCH   3   4
ATOM      4  C   UNL     1      24.301   7.504  10.440  1.00  0.00     0.053 C 
BRANCH   4   5
ATOM      5  C   UNL     1      24.517   8.983  10.362  1.00  0.00     0.041 C 
ATOM      6  O   UNL     1      23.603   9.734   9.930  1.00  0.00    -0.550 OA
ATOM      7  O   UNL     1      25.744   9.526  10.719  1.00  0.00    -0.550 OA
ENDBRANCH   4   5
ENDBRANCH   3   4
ENDBRANCH   2   3
ENDBRANCH   1   2
BRANCH   1   8
ATOM      8  C   UNL     1      20.743   8.399  11.646  1.00  0.00     0.000 C 
BRANCH   8   9
ATOM      9  C   UNL     1      20.296   8.680  10.197  1.00  0.00     0.006 C 
BRANCH   9  10
ATOM     10  C   UNL     1      20.765   7.632   9.175  1.00  0.00     0.053 C 
BRANCH  10  11
ATOM     11  C   UNL     1      19.622   6.830   8.630  1.00  0.00     0.041 C 
ATOM     12  O   UNL     1      19.133   5.887   9.304  1.00  0.00    -0.550 OA
ATOM     13  O   UNL     1      19.121   7.105   7.364  1.00  0.00    -0.550 OA
ENDBRANCH  10  11
ENDBRANCH   9  10
ENDBRANCH   8   9
ENDBRANCH   1   8
TORSDOF 8
ENDMDL
MODEL 7
REMARK VINA RESULT:    -4.047      2.071      5.090
REMARK INTER + INTRA:          -6.619
REMARK INTER:                  -6.208
REMARK INTRA:                  -0.410
REMARK UNBOUND:                -0.680
REMARK SMILES O=C([O-])CCCCCCCC(=O)[O-]
REMARK SMILES IDX 7 1 6 2 5 3 4 4 2 5 1 6 3 7 8 8 9 9 10 10 11 11 12 12 13 13
REMARK H PARENT
REMARK Flexibility Score: inf
ROOT
ATOM      1  C   UNL     1      19.432   7.906  11.305  1.00  0.00     0.000 C 
ENDROOT
BRANCH   1   2
ATOM      2  C   UNL     1      19.295   6.400  11.008  1.00  0.00     0.000 C 
BRANCH   2   3
ATOM      3  C   UNL     1      19.159   6.043   9.517  1.00  0.00     0.006 C 
BRANCH   3   4
ATOM      4  C   UNL     1      20.380   6.467   8.690  1.00  0.00     0.053 C 
BRANCH   4   5
ATOM      5  C   UNL     1      20.055   7.667   7.858  1.00  0.00     0.041 C 
ATOM      6  O   UNL     1      19.152   7.605   6.983  1.00  0.00    -0.550 OA
ATOM      7  O   UNL     1      20.785   8.839   8.013  1.00  0.00    -0.550 OA
ENDBRANCH   4   5
ENDBRANCH   3   4
ENDBRANCH   2   3
ENDBRANCH   1   2
BRANCH   1   8
ATOM      8  C   UNL     1      20.843   8.366  11.721  1.00  0.00     0.000 C 
BRANCH   8   9
ATOM      9  C   UNL     1      21.874   7.233  11.896  1.00  0.00     0.006 C 
BRANCH   9  10
ATOM     10  C   UNL     1      23.041   7.576  12.836  1.00  0.00     0.053 C 
BRANCH  10  11
ATOM     11  C   UNL     1      24.103   6.520  12.820  1.00  0.00     0.041 C 
ATOM     12  O   UNL     1      23.921   5.430  13.422  1.00  0.00    -0.550 OA
ATOM     13  O   UNL     1      25.307   6.754  12.168  1.00  0.00    -0.550 OA
ENDBRANCH  10  11
ENDBRANCH   9  10
ENDBRANCH   8   9
ENDBRANCH   1   8
TORSDOF 8
ENDMDL
MODEL 8
REMARK VINA RESULT:    -3.956      2.738      5.472
REMARK INTER + INTRA:          -6.486
REMARK INTER:                  -5.810
REMARK INTRA:                  -0.676
REMARK UNBOUND:                -0.680
REMARK SMILES O=C([O-])CCCCCCCC(=O)[O-]
REMARK SMILES IDX 7 1 6 2 5 3 4 4 2 5 1 6 3 7 8 8 9 9 10 10 11 11 12 12 13 13
REMARK H PARENT
REMARK Flexibility Score: inf
ROOT
ATOM      1  C   UNL     1      22.359   9.549   9.732  1.00  0.00     0.000 C 
ENDROOT
BRANCH   1   2
ATOM      2  C   UNL     1      21.291   8.533   9.280  1.00  0.00     0.000 C 
BRANCH   2   3
ATOM      3  C   UNL     1      20.118   8.346  10.259  1.00  0.00     0.006 C 
BRANCH   3   4
ATOM      4  C   UNL     1      20.206   7.033  11.048  1.00  0.00     0.053 C 
BRANCH   4   5
ATOM      5  C   UNL     1      19.164   6.069  10.575  1.00  0.00     0.041 C 
ATOM      6  O   UNL     1      18.337   5.581  11.390  1.00  0.00    -0.550 OA
ATOM      7  O   UNL     1      19.139   5.670   9.245  1.00  0.00    -0.550 OA
ENDBRANCH   4   5
ENDBRANCH   3   4
ENDBRANCH   2   3
ENDBRANCH   1   2
BRANCH   1   8
ATOM      8  C   UNL     1      23.810   9.032   9.701  1.00  0.00     0.000 C 
BRANCH   8   9
ATOM      9  C   UNL     1      24.014   7.621  10.290  1.00  0.00     0.006 C 
BRANCH   9  10
ATOM     10  C   UNL     1      24.547   7.607  11.731  1.00  0.00     0.053 C 
BRANCH  10  11
ATOM     11  C   UNL     1      23.472   7.280  12.723  1.00  0.00     0.041 C 
ATOM     12  O   UNL     1      23.294   6.091  13.093  1.00  0.00    -0.550 OA
ATOM     13  O   UNL     1      22.648   8.285  13.213  1.00  0.00    -0.550 OA
ENDBRANCH  10  11
ENDBRANCH   9  10
ENDBRANCH   8   9
ENDBRANCH   1   8
TORSDOF 8
ENDMDL
MODEL 9
REMARK VINA RESULT:    -3.889      3.004      3.993
REMARK INTER + INTRA:          -6.387
REMARK INTER:                  -5.714
REMARK INTRA:                  -0.673
REMARK UNBOUND:                -0.680
REMARK SMILES O=C([O-])CCCCCCCC(=O)[O-]
REMARK SMILES IDX 7 1 6 2 5 3 4 4 2 5 1 6 3 7 8 8 9 9 10 10 11 11 12 12 13 13
REMARK H PARENT
REMARK Flexibility Score: inf
ROOT
ATOM      1  C   UNL     1      21.872   8.883  10.232  1.00  0.00     0.000 C 
ENDROOT
BRANCH   1   2
ATOM      2  C   UNL     1      22.817   7.764  10.712  1.00  0.00     0.000 C 
BRANCH   2   3
ATOM      3  C   UNL     1      22.532   7.238  12.130  1.00  0.00     0.006 C 
BRANCH   3   4
ATOM      4  C   UNL     1      22.411   8.362  13.168  1.00  0.00     0.053 C 
BRANCH   4   5
ATOM      5  C   UNL     1      23.760   8.723  13.706  1.00  0.00     0.041 C 
ATOM      6  O   UNL     1      24.354   7.946  14.499  1.00  0.00    -0.550 OA
ATOM      7  O   UNL     1      24.338   9.941  13.372  1.00  0.00    -0.550 OA
ENDBRANCH   4   5
ENDBRANCH   3   4
ENDBRANCH   2   3
ENDBRANCH   1   2
BRANCH   1   8
ATOM      8  C   UNL     1      21.042   8.546   8.977  1.00  0.00     0.000 C 
BRANCH   8   9
ATOM      9  C   UNL     1      20.826   7.041   8.722  1.00  0.00     0.006 C 
BRANCH   9  10
ATOM     10  C   UNL     1      19.403   6.544   9.022  1.00  0.00     0.053 C 
BRANCH  10  11
ATOM     11  C   UNL     1      19.206   6.251  10.478  1.00  0.00     0.041 C 
ATOM     12  O   UNL     1      19.359   5.080  10.914  1.00  0.00    -0.550 OA
ATOM     13  O   UNL     1      18.821   7.265  11.346  1.00  0.00    -0.550 OA
ENDBRANCH  10  11
ENDBRANCH   9  10
ENDBRANCH   8   9
ENDBRANCH   1   8
TORSDOF 8
ENDMDL
