MODEL 1
REMARK VINA RESULT:    15.380      0.000      0.000
REMARK INTER + INTRA:          21.661
REMARK INTER:                  22.123
REMARK INTRA:                  -0.462
REMARK UNBOUND:                -0.462
REMARK SMILES CC(C)=CCCC(C)=CCCC(C)=CCO
REMARK SMILES IDX 10 1 9 2 7 3 8 4 6 5 5 6 4 7 1 8 2 9 3 10 11 11 12 12 14 13
REMARK SMILES IDX 13 14 15 15 16 16
REMARK H PARENT 16 17
REMARK Flexibility Score: inf
ROOT
ATOM      1  C   UNL     1      31.195  24.120  43.299  1.00  0.00     0.032 C 
ENDROOT
BRANCH   1   2
ATOM      2  C   UNL     1      30.544  24.894  42.179  1.00  0.00    -0.028 C 
ATOM      3  C   UNL     1      29.256  24.746  41.794  1.00  0.00    -0.077 C 
ATOM      4  C   UNL     1      28.312  23.806  42.509  1.00  0.00     0.039 C 
BRANCH   3   5
ATOM      5  C   UNL     1      28.739  25.558  40.627  1.00  0.00     0.034 C 
BRANCH   5   6
ATOM      6  C   UNL     1      27.339  25.090  40.215  1.00  0.00     0.032 C 
BRANCH   6   7
ATOM      7  C   UNL     1      26.283  26.023  40.752  1.00  0.00    -0.028 C 
ATOM      8  C   UNL     1      25.010  24.187  41.884  1.00  0.00     0.039 C 
ATOM      9  C   UNL     1      25.217  25.628  41.482  1.00  0.00    -0.080 C 
ATOM     10  C   UNL     1      24.219  26.670  41.918  1.00  0.00     0.039 C 
ENDBRANCH   6   7
ENDBRANCH   5   6
ENDBRANCH   3   5
ENDBRANCH   1   2
BRANCH   1  11
ATOM     11  C   UNL     1      32.115  25.028  44.122  1.00  0.00     0.034 C 
BRANCH  11  12
ATOM     12  C   UNL     1      32.674  24.285  45.316  1.00  0.00    -0.075 C 
ATOM     13  C   UNL     1      33.741  23.473  45.149  1.00  0.00    -0.000 C 
ATOM     14  C   UNL     1      32.028  24.466  46.669  1.00  0.00     0.039 C 
BRANCH  13  15
ATOM     15  C   UNL     1      34.368  22.692  46.276  1.00  0.00     0.183 C 
BRANCH  15  16
ATOM     16  O   UNL     1      35.706  23.073  46.444  1.00  0.00    -0.392 OA
ATOM     17  H   UNL     1      36.064  23.263  45.537  1.00  0.00     0.210 HD
ENDBRANCH  15  16
ENDBRANCH  13  15
ENDBRANCH  11  12
ENDBRANCH   1  11
TORSDOF 8
ENDMDL
MODEL 2
REMARK VINA RESULT:    15.380      0.801      1.520
REMARK INTER + INTRA:          21.662
REMARK INTER:                  22.401
REMARK INTRA:                  -0.739
REMARK UNBOUND:                -0.462
REMARK SMILES CC(C)=CCCC(C)=CCCC(C)=CCO
REMARK SMILES IDX 10 1 9 2 7 3 8 4 6 5 5 6 4 7 1 8 2 9 3 10 11 11 12 12 14 13
REMARK SMILES IDX 13 14 15 15 16 16
REMARK H PARENT 16 17
REMARK Flexibility Score: inf
ROOT
ATOM      1  C   UNL     1      31.166  24.301  42.775  1.00  0.00     0.032 C 
ENDROOT
BRANCH   1   2
ATOM      2  C   UNL     1      29.733  23.916  43.046  1.00  0.00    -0.028 C 
ATOM      3  C   UNL     1      28.687  24.256  42.257  1.00  0.00    -0.077 C 
ATOM      4  C   UNL     1      28.875  25.026  40.970  1.00  0.00     0.039 C 
BRANCH   3   5
ATOM      5  C   UNL     1      27.292  23.838  42.666  1.00  0.00     0.034 C 
BRANCH   5   6
ATOM      6  C   UNL     1      26.333  23.901  41.472  1.00  0.00     0.032 C 
BRANCH   6   7
ATOM      7  C   UNL     1      25.127  24.745  41.799  1.00  0.00    -0.028 C 
ATOM      8  C   UNL     1      25.936  26.705  40.466  1.00  0.00     0.039 C 
ATOM      9  C   UNL     1      24.946  26.015  41.375  1.00  0.00    -0.080 C 
ATOM     10  C   UNL     1      23.706  26.751  41.815  1.00  0.00     0.039 C 
ENDBRANCH   6   7
ENDBRANCH   5   6
ENDBRANCH   3   5
ENDBRANCH   1   2
BRANCH   1  11
ATOM     11  C   UNL     1      31.660  25.316  43.811  1.00  0.00     0.034 C 
BRANCH  11  12
ATOM     12  C   UNL     1      32.227  24.614  45.025  1.00  0.00    -0.075 C 
ATOM     13  C   UNL     1      33.295  23.799  44.879  1.00  0.00    -0.000 C 
ATOM     14  C   UNL     1      31.587  24.837  46.375  1.00  0.00     0.039 C 
BRANCH  13  15
ATOM     15  C   UNL     1      33.929  23.056  46.027  1.00  0.00     0.183 C 
BRANCH  15  16
ATOM     16  O   UNL     1      35.312  23.283  46.047  1.00  0.00    -0.392 OA
ATOM     17  H   UNL     1      35.507  23.780  46.885  1.00  0.00     0.210 HD
ENDBRANCH  15  16
ENDBRANCH  13  15
ENDBRANCH  11  12
ENDBRANCH   1  11
TORSDOF 8
ENDMDL
MODEL 3
REMARK VINA RESULT:    15.716      3.178      8.267
REMARK INTER + INTRA:          22.144
REMARK INTER:                  22.748
REMARK INTRA:                  -0.604
REMARK UNBOUND:                -0.462
REMARK SMILES CC(C)=CCCC(C)=CCCC(C)=CCO
REMARK SMILES IDX 10 1 9 2 7 3 8 4 6 5 5 6 4 7 1 8 2 9 3 10 11 11 12 12 14 13
REMARK SMILES IDX 13 14 15 15 16 16
REMARK H PARENT 16 17
REMARK Flexibility Score: inf
ROOT
ATOM      1  C   UNL     1      29.851  24.256  43.065  1.00  0.00     0.032 C 
ENDROOT
BRANCH   1   2
ATOM      2  C   UNL     1      31.330  24.098  43.313  1.00  0.00    -0.028 C 
ATOM      3  C   UNL     1      31.969  24.521  44.428  1.00  0.00    -0.077 C 
ATOM      4  C   UNL     1      31.226  25.158  45.580  1.00  0.00     0.039 C 
BRANCH   3   5
ATOM      5  C   UNL     1      33.466  24.335  44.534  1.00  0.00     0.034 C 
BRANCH   5   6
ATOM      6  C   UNL     1      33.858  23.855  45.935  1.00  0.00     0.032 C 
BRANCH   6   7
ATOM      7  C   UNL     1      33.639  22.369  46.074  1.00  0.00    -0.028 C 
ATOM      8  C   UNL     1      35.969  21.939  46.887  1.00  0.00     0.039 C 
ATOM      9  C   UNL     1      34.585  21.492  46.476  1.00  0.00    -0.080 C 
ATOM     10  C   UNL     1      34.233  20.028  46.528  1.00  0.00     0.039 C 
ENDBRANCH   6   7
ENDBRANCH   5   6
ENDBRANCH   3   5
ENDBRANCH   1   2
BRANCH   1  11
ATOM     11  C   UNL     1      29.582  24.619  41.600  1.00  0.00     0.034 C 
BRANCH  11  12
ATOM     12  C   UNL     1      28.100  24.796  41.354  1.00  0.00    -0.075 C 
ATOM     13  C   UNL     1      27.216  24.116  42.116  1.00  0.00    -0.000 C 
ATOM     14  C   UNL     1      27.638  25.730  40.259  1.00  0.00     0.039 C 
BRANCH  13  15
ATOM     15  C   UNL     1      25.723  24.226  41.947  1.00  0.00     0.183 C 
BRANCH  15  16
ATOM     16  O   UNL     1      25.257  23.231  41.077  1.00  0.00    -0.392 OA
ATOM     17  H   UNL     1      25.534  22.360  41.468  1.00  0.00     0.210 HD
ENDBRANCH  15  16
ENDBRANCH  13  15
ENDBRANCH  11  12
ENDBRANCH   1  11
TORSDOF 8
ENDMDL
MODEL 4
REMARK VINA RESULT:    15.788      4.143      8.262
REMARK INTER + INTRA:          22.248
REMARK INTER:                  23.144
REMARK INTRA:                  -0.897
REMARK UNBOUND:                -0.462
REMARK SMILES CC(C)=CCCC(C)=CCCC(C)=CCO
REMARK SMILES IDX 10 1 9 2 7 3 8 4 6 5 5 6 4 7 1 8 2 9 3 10 11 11 12 12 14 13
REMARK SMILES IDX 13 14 15 15 16 16
REMARK H PARENT 16 17
REMARK Flexibility Score: inf
ROOT
ATOM      1  C   UNL     1      25.783  24.031  41.633  1.00  0.00     0.032 C 
ENDROOT
BRANCH   1   2
ATOM      2  C   UNL     1      27.265  24.135  41.895  1.00  0.00    -0.028 C 
ATOM      3  C   UNL     1      28.116  24.909  41.182  1.00  0.00    -0.077 C 
ATOM      4  C   UNL     1      27.634  25.805  40.065  1.00  0.00     0.039 C 
BRANCH   3   5
ATOM      5  C   UNL     1      29.589  24.891  41.526  1.00  0.00     0.034 C 
BRANCH   5   6
ATOM      6  C   UNL     1      29.818  24.277  42.912  1.00  0.00     0.032 C 
BRANCH   6   7
ATOM      7  C   UNL     1      31.290  24.202  43.228  1.00  0.00    -0.028 C 
ATOM      8  C   UNL     1      31.017  25.215  45.502  1.00  0.00     0.039 C 
ATOM      9  C   UNL     1      31.847  24.643  44.378  1.00  0.00    -0.080 C 
ATOM     10  C   UNL     1      33.342  24.540  44.538  1.00  0.00     0.039 C 
ENDBRANCH   6   7
ENDBRANCH   5   6
ENDBRANCH   3   5
ENDBRANCH   1   2
BRANCH   1  11
ATOM     11  C   UNL     1      24.989  24.796  42.697  1.00  0.00     0.034 C 
BRANCH  11  12
ATOM     12  C   UNL     1      24.298  25.998  42.092  1.00  0.00    -0.075 C 
ATOM     13  C   UNL     1      23.275  25.809  41.231  1.00  0.00    -0.000 C 
ATOM     14  C   UNL     1      24.769  27.386  42.461  1.00  0.00     0.039 C 
BRANCH  13  15
ATOM     15  C   UNL     1      22.525  26.942  40.577  1.00  0.00     0.183 C 
BRANCH  15  16
ATOM     16  O   UNL     1      21.301  27.153  41.225  1.00  0.00    -0.392 OA
ATOM     17  H   UNL     1      21.515  27.449  42.149  1.00  0.00     0.210 HD
ENDBRANCH  15  16
ENDBRANCH  13  15
ENDBRANCH  11  12
ENDBRANCH   1  11
TORSDOF 8
ENDMDL
MODEL 5
REMARK VINA RESULT:    16.569      3.835      8.189
REMARK INTER + INTRA:          23.372
REMARK INTER:                  23.926
REMARK INTRA:                  -0.554
REMARK UNBOUND:                -0.462
REMARK SMILES CC(C)=CCCC(C)=CCCC(C)=CCO
REMARK SMILES IDX 10 1 9 2 7 3 8 4 6 5 5 6 4 7 1 8 2 9 3 10 11 11 12 12 14 13
REMARK SMILES IDX 13 14 15 15 16 16
REMARK H PARENT 16 17
REMARK Flexibility Score: inf
ROOT
ATOM      1  C   UNL     1      27.668  25.266  40.131  1.00  0.00     0.032 C 
ENDROOT
BRANCH   1   2
ATOM      2  C   UNL     1      29.069  25.328  40.686  1.00  0.00    -0.028 C 
ATOM      3  C   UNL     1      29.473  24.700  41.815  1.00  0.00    -0.077 C 
ATOM      4  C   UNL     1      28.545  23.811  42.610  1.00  0.00     0.039 C 
BRANCH   3   5
ATOM      5  C   UNL     1      30.900  24.877  42.283  1.00  0.00     0.034 C 
BRANCH   5   6
ATOM      6  C   UNL     1      31.017  24.614  43.788  1.00  0.00     0.032 C 
BRANCH   6   7
ATOM      7  C   UNL     1      32.392  24.102  44.138  1.00  0.00    -0.028 C 
ATOM      8  C   UNL     1      32.038  24.363  46.603  1.00  0.00     0.039 C 
ATOM      9  C   UNL     1      32.874  24.008  45.396  1.00  0.00    -0.080 C 
ATOM     10  C   UNL     1      34.285  23.516  45.591  1.00  0.00     0.039 C 
ENDBRANCH   6   7
ENDBRANCH   5   6
ENDBRANCH   3   5
ENDBRANCH   1   2
BRANCH   1  11
ATOM     11  C   UNL     1      26.814  26.412  40.684  1.00  0.00     0.034 C 
BRANCH  11  12
ATOM     12  C   UNL     1      25.494  25.894  41.210  1.00  0.00    -0.075 C 
ATOM     13  C   UNL     1      24.439  26.734  41.294  1.00  0.00    -0.000 C 
ATOM     14  C   UNL     1      25.382  24.448  41.633  1.00  0.00     0.039 C 
BRANCH  13  15
ATOM     15  C   UNL     1      23.085  26.311  41.804  1.00  0.00     0.183 C 
BRANCH  15  16
ATOM     16  O   UNL     1      22.071  26.892  41.031  1.00  0.00    -0.392 OA
ATOM     17  H   UNL     1      22.254  26.641  40.087  1.00  0.00     0.210 HD
ENDBRANCH  15  16
ENDBRANCH  13  15
ENDBRANCH  11  12
ENDBRANCH   1  11
TORSDOF 8
ENDMDL
