MODEL 1
REMARK VINA RESULT:    -4.469      0.000      0.000
REMARK INTER + INTRA:          -5.243
REMARK INTER:                  -5.384
REMARK INTRA:                   0.140
REMARK UNBOUND:                 0.140
REMARK SMILES NC(=O)C[C@H]([NH3+])C(=O)[O-]
REMARK SMILES IDX 4 1 5 2 6 3 7 7 8 8 9 9 2 10 3 11 1 12
REMARK H PARENT 6 4 6 5 6 6 1 13 1 14
REMARK Flexibility Score: inf
ROOT
ATOM      1  C   UNL     1       1.999   2.610 -39.679  1.00  0.00     0.171 C 
ENDROOT
BRANCH   1   2
ATOM      2  C   UNL     1       1.064   1.798 -38.756  1.00  0.00     0.237 C 
BRANCH   2   3
ATOM      3  N   UNL     1       0.425   2.648 -37.742  1.00  0.00    -0.350 N 
ATOM      4  H   UNL     1      -0.175   3.365 -38.214  1.00  0.00     0.345 HD
ATOM      5  H   UNL     1      -0.172   2.083 -37.095  1.00  0.00     0.345 HD
ATOM      6  H   UNL     1       1.155   3.149 -37.186  1.00  0.00     0.345 HD
ENDBRANCH   2   3
BRANCH   2   7
ATOM      7  C   UNL     1       1.789   0.636 -38.123  1.00  0.00     0.100 C 
ATOM      8  O   UNL     1       2.429   0.784 -37.047  1.00  0.00    -0.544 OA
ATOM      9  O   UNL     1       1.794  -0.599 -38.756  1.00  0.00    -0.544 OA
ENDBRANCH   2   7
ENDBRANCH   1   2
BRANCH   1  10
ATOM     10  C   UNL     1       2.987   3.458 -38.928  1.00  0.00     0.223 C 
ATOM     11  O   UNL     1       4.114   2.984 -38.621  1.00  0.00    -0.275 OA
ATOM     12  N   UNL     1       2.653   4.791 -38.541  1.00  0.00    -0.369 N 
ATOM     13  H   UNL     1       3.338   5.374 -38.010  1.00  0.00     0.159 HD
ATOM     14  H   UNL     1       1.721   5.198 -38.779  1.00  0.00     0.159 HD
ENDBRANCH   1  10
TORSDOF 4
ENDMDL
MODEL 2
REMARK VINA RESULT:    -4.428      1.894      3.588
REMARK INTER + INTRA:          -5.194
REMARK INTER:                  -5.327
REMARK INTRA:                   0.133
REMARK UNBOUND:                 0.140
REMARK SMILES NC(=O)C[C@H]([NH3+])C(=O)[O-]
REMARK SMILES IDX 4 1 5 2 6 3 7 7 8 8 9 9 2 10 3 11 1 12
REMARK H PARENT 6 4 6 5 6 6 1 13 1 14
REMARK Flexibility Score: inf
ROOT
ATOM      1  C   UNL     1       1.005   1.669 -38.359  1.00  0.00     0.171 C 
ENDROOT
BRANCH   1   2
ATOM      2  C   UNL     1       1.566   2.538 -39.505  1.00  0.00     0.237 C 
BRANCH   2   3
ATOM      3  N   UNL     1       1.756   1.760 -40.738  1.00  0.00    -0.350 N 
ATOM      4  H   UNL     1       2.024   0.778 -40.494  1.00  0.00     0.345 HD
ATOM      5  H   UNL     1       0.881   1.738 -41.312  1.00  0.00     0.345 HD
ATOM      6  H   UNL     1       2.528   2.177 -41.306  1.00  0.00     0.345 HD
ENDBRANCH   2   3
BRANCH   2   7
ATOM      7  C   UNL     1       2.837   3.237 -39.095  1.00  0.00     0.100 C 
ATOM      8  O   UNL     1       3.960   2.696 -39.279  1.00  0.00    -0.544 OA
ATOM      9  O   UNL     1       2.770   4.471 -38.460  1.00  0.00    -0.544 OA
ENDBRANCH   2   7
ENDBRANCH   1   2
BRANCH   1  10
ATOM     10  C   UNL     1       1.849   0.462 -38.059  1.00  0.00     0.223 C 
ATOM     11  O   UNL     1       2.765   0.537 -37.197  1.00  0.00    -0.275 OA
ATOM     12  N   UNL     1       1.635  -0.765 -38.757  1.00  0.00    -0.369 N 
ATOM     13  H   UNL     1       2.230  -1.598 -38.554  1.00  0.00     0.159 HD
ATOM     14  H   UNL     1       0.886  -0.844 -39.481  1.00  0.00     0.159 HD
ENDBRANCH   1  10
TORSDOF 4
ENDMDL
MODEL 3
REMARK VINA RESULT:    -4.357      1.885      3.473
REMARK INTER + INTRA:          -5.108
REMARK INTER:                  -5.196
REMARK INTRA:                   0.088
REMARK UNBOUND:                 0.140
REMARK SMILES NC(=O)C[C@H]([NH3+])C(=O)[O-]
REMARK SMILES IDX 4 1 5 2 6 3 7 7 8 8 9 9 2 10 3 11 1 12
REMARK H PARENT 6 4 6 5 6 6 1 13 1 14
REMARK Flexibility Score: inf
ROOT
ATOM      1  C   UNL     1       0.967   1.668 -38.338  1.00  0.00     0.171 C 
ENDROOT
BRANCH   1   2
ATOM      2  C   UNL     1       1.515   2.564 -39.470  1.00  0.00     0.237 C 
BRANCH   2   3
ATOM      3  N   UNL     1       1.707   1.812 -40.718  1.00  0.00    -0.350 N 
ATOM      4  H   UNL     1       2.583   1.241 -40.651  1.00  0.00     0.345 HD
ATOM      5  H   UNL     1       0.901   1.172 -40.904  1.00  0.00     0.345 HD
ATOM      6  H   UNL     1       1.810   2.474 -41.520  1.00  0.00     0.345 HD
ENDBRANCH   2   3
BRANCH   2   7
ATOM      7  C   UNL     1       2.781   3.269 -39.052  1.00  0.00     0.100 C 
ATOM      8  O   UNL     1       2.736   4.395 -38.489  1.00  0.00    -0.544 OA
ATOM      9  O   UNL     1       4.014   2.695 -39.334  1.00  0.00    -0.544 OA
ENDBRANCH   2   7
ENDBRANCH   1   2
BRANCH   1  10
ATOM     10  C   UNL     1       1.849   0.490 -38.032  1.00  0.00     0.223 C 
ATOM     11  O   UNL     1       2.765   0.599 -37.174  1.00  0.00    -0.275 OA
ATOM     12  N   UNL     1       1.671  -0.748 -38.722  1.00  0.00    -0.369 N 
ATOM     13  H   UNL     1       2.293  -1.561 -38.515  1.00  0.00     0.159 HD
ATOM     14  H   UNL     1       0.923  -0.854 -39.443  1.00  0.00     0.159 HD
ENDBRANCH   1  10
TORSDOF 4
ENDMDL
MODEL 4
REMARK VINA RESULT:    -4.306      1.106      1.537
REMARK INTER + INTRA:          -5.047
REMARK INTER:                  -4.639
REMARK INTRA:                  -0.409
REMARK UNBOUND:                 0.140
REMARK SMILES NC(=O)C[C@H]([NH3+])C(=O)[O-]
REMARK SMILES IDX 4 1 5 2 6 3 7 7 8 8 9 9 2 10 3 11 1 12
REMARK H PARENT 6 4 6 5 6 6 1 13 1 14
REMARK Flexibility Score: inf
ROOT
ATOM      1  C   UNL     1       2.037   2.651 -39.743  1.00  0.00     0.171 C 
ENDROOT
BRANCH   1   2
ATOM      2  C   UNL     1       1.100   1.800 -38.859  1.00  0.00     0.237 C 
BRANCH   2   3
ATOM      3  N   UNL     1       0.483   2.599 -37.790  1.00  0.00    -0.350 N 
ATOM      4  H   UNL     1       1.021   3.488 -37.664  1.00  0.00     0.345 HD
ATOM      5  H   UNL     1      -0.510   2.834 -38.017  1.00  0.00     0.345 HD
ATOM      6  H   UNL     1       0.512   2.069 -36.889  1.00  0.00     0.345 HD
ENDBRANCH   2   3
BRANCH   2   7
ATOM      7  C   UNL     1       1.813   0.593 -38.302  1.00  0.00     0.100 C 
ATOM      8  O   UNL     1       1.608  -0.555 -38.779  1.00  0.00    -0.544 OA
ATOM      9  O   UNL     1       2.668   0.739 -37.217  1.00  0.00    -0.544 OA
ENDBRANCH   2   7
ENDBRANCH   1   2
BRANCH   1  10
ATOM     10  C   UNL     1       3.001   3.492 -38.953  1.00  0.00     0.223 C 
ATOM     11  O   UNL     1       2.672   4.655 -38.598  1.00  0.00    -0.275 OA
ATOM     12  N   UNL     1       4.295   2.991 -38.619  1.00  0.00    -0.369 N 
ATOM     13  H   UNL     1       4.966   3.582 -38.080  1.00  0.00     0.159 HD
ATOM     14  H   UNL     1       4.589   2.032 -38.912  1.00  0.00     0.159 HD
ENDBRANCH   1  10
TORSDOF 4
ENDMDL
MODEL 5
REMARK VINA RESULT:    -4.216      2.223      3.350
REMARK INTER + INTRA:          -4.938
REMARK INTER:                  -4.849
REMARK INTRA:                  -0.089
REMARK UNBOUND:                 0.140
REMARK SMILES NC(=O)C[C@H]([NH3+])C(=O)[O-]
REMARK SMILES IDX 4 1 5 2 6 3 7 7 8 8 9 9 2 10 3 11 1 12
REMARK H PARENT 6 4 6 5 6 6 1 13 1 14
REMARK Flexibility Score: inf
ROOT
ATOM      1  C   UNL     1       3.419   1.792 -38.530  1.00  0.00     0.171 C 
ENDROOT
BRANCH   1   2
ATOM      2  C   UNL     1       2.721   2.881 -39.373  1.00  0.00     0.237 C 
BRANCH   2   3
ATOM      3  N   UNL     1       2.390   4.066 -38.569  1.00  0.00    -0.350 N 
ATOM      4  H   UNL     1       2.627   3.885 -37.565  1.00  0.00     0.345 HD
ATOM      5  H   UNL     1       2.922   4.906 -38.894  1.00  0.00     0.345 HD
ATOM      6  H   UNL     1       1.366   4.264 -38.632  1.00  0.00     0.345 HD
ENDBRANCH   2   3
BRANCH   2   7
ATOM      7  C   UNL     1       1.504   2.337 -40.077  1.00  0.00     0.100 C 
ATOM      8  O   UNL     1       1.601   1.803 -41.215  1.00  0.00    -0.544 OA
ATOM      9  O   UNL     1       0.252   2.470 -39.490  1.00  0.00    -0.544 OA
ENDBRANCH   2   7
ENDBRANCH   1   2
BRANCH   1  10
ATOM     10  C   UNL     1       2.457   0.875 -37.827  1.00  0.00     0.223 C 
ATOM     11  O   UNL     1       1.705   1.329 -36.924  1.00  0.00    -0.275 OA
ATOM     12  N   UNL     1       2.403  -0.512 -38.161  1.00  0.00    -0.369 N 
ATOM     13  H   UNL     1       1.742  -1.148 -37.663  1.00  0.00     0.159 HD
ATOM     14  H   UNL     1       3.025  -0.908 -38.901  1.00  0.00     0.159 HD
ENDBRANCH   1  10
TORSDOF 4
ENDMDL
MODEL 6
REMARK VINA RESULT:    -4.198      2.104      2.285
REMARK INTER + INTRA:          -4.917
REMARK INTER:                  -4.803
REMARK INTRA:                  -0.114
REMARK UNBOUND:                 0.140
REMARK SMILES NC(=O)C[C@H]([NH3+])C(=O)[O-]
REMARK SMILES IDX 4 1 5 2 6 3 7 7 8 8 9 9 2 10 3 11 1 12
REMARK H PARENT 6 4 6 5 6 6 1 13 1 14
REMARK Flexibility Score: inf
ROOT
ATOM      1  C   UNL     1       3.012   1.668 -37.810  1.00  0.00     0.171 C 
ENDROOT
BRANCH   1   2
ATOM      2  C   UNL     1       1.611   1.047 -37.997  1.00  0.00     0.237 C 
BRANCH   2   3
ATOM      3  N   UNL     1       1.632  -0.069 -38.953  1.00  0.00    -0.350 N 
ATOM      4  H   UNL     1       1.166   0.224 -39.844  1.00  0.00     0.345 HD
ATOM      5  H   UNL     1       2.611  -0.368 -39.167  1.00  0.00     0.345 HD
ATOM      6  H   UNL     1       1.104  -0.882 -38.562  1.00  0.00     0.345 HD
ENDBRANCH   2   3
BRANCH   2   7
ATOM      7  C   UNL     1       0.594   2.089 -38.390  1.00  0.00     0.100 C 
ATOM      8  O   UNL     1      -0.007   2.766 -37.514  1.00  0.00    -0.544 OA
ATOM      9  O   UNL     1       0.276   2.270 -39.730  1.00  0.00    -0.544 OA
ENDBRANCH   2   7
ENDBRANCH   1   2
BRANCH   1  10
ATOM     10  C   UNL     1       3.329   2.737 -38.819  1.00  0.00     0.223 C 
ATOM     11  O   UNL     1       3.446   2.435 -40.036  1.00  0.00    -0.275 OA
ATOM     12  N   UNL     1       3.519   4.091 -38.406  1.00  0.00    -0.369 N 
ATOM     13  H   UNL     1       3.750   4.828 -39.107  1.00  0.00     0.159 HD
ATOM     14  H   UNL     1       3.434   4.359 -37.400  1.00  0.00     0.159 HD
ENDBRANCH   1  10
TORSDOF 4
ENDMDL
MODEL 7
REMARK VINA RESULT:    -3.627      2.300      3.039
REMARK INTER + INTRA:          -4.229
REMARK INTER:                  -4.136
REMARK INTRA:                  -0.093
REMARK UNBOUND:                 0.140
REMARK SMILES NC(=O)C[C@H]([NH3+])C(=O)[O-]
REMARK SMILES IDX 4 1 5 2 6 3 7 7 8 8 9 9 2 10 3 11 1 12
REMARK H PARENT 6 4 6 5 6 6 1 13 1 14
REMARK Flexibility Score: inf
ROOT
ATOM      1  C   UNL     1       2.279   1.941 -40.299  1.00  0.00     0.171 C 
ENDROOT
BRANCH   1   2
ATOM      2  C   UNL     1       2.400   2.784 -39.011  1.00  0.00     0.237 C 
BRANCH   2   3
ATOM      3  N   UNL     1       3.803   3.051 -38.663  1.00  0.00    -0.350 N 
ATOM      4  H   UNL     1       3.843   3.712 -37.852  1.00  0.00     0.345 HD
ATOM      5  H   UNL     1       4.305   2.170 -38.405  1.00  0.00     0.345 HD
ATOM      6  H   UNL     1       4.291   3.498 -39.472  1.00  0.00     0.345 HD
ENDBRANCH   2   3
BRANCH   2   7
ATOM      7  C   UNL     1       1.661   2.145 -37.863  1.00  0.00     0.100 C 
ATOM      8  O   UNL     1       2.138   1.144 -37.264  1.00  0.00    -0.544 OA
ATOM      9  O   UNL     1       0.414   2.632 -37.490  1.00  0.00    -0.544 OA
ENDBRANCH   2   7
ENDBRANCH   1   2
BRANCH   1  10
ATOM     10  C   UNL     1       1.040   2.245 -41.095  1.00  0.00     0.223 C 
ATOM     11  O   UNL     1       1.099   2.287 -42.353  1.00  0.00    -0.275 OA
ATOM     12  N   UNL     1      -0.199   2.507 -40.436  1.00  0.00    -0.369 N 
ATOM     13  H   UNL     1      -1.055   2.728 -40.991  1.00  0.00     0.159 HD
ATOM     14  H   UNL     1      -0.264   2.485 -39.394  1.00  0.00     0.159 HD
ENDBRANCH   1  10
TORSDOF 4
ENDMDL
MODEL 8
REMARK VINA RESULT:    -3.581      2.358      3.394
REMARK INTER + INTRA:          -4.174
REMARK INTER:                  -4.084
REMARK INTRA:                  -0.090
REMARK UNBOUND:                 0.140
REMARK SMILES NC(=O)C[C@H]([NH3+])C(=O)[O-]
REMARK SMILES IDX 4 1 5 2 6 3 7 7 8 8 9 9 2 10 3 11 1 12
REMARK H PARENT 6 4 6 5 6 6 1 13 1 14
REMARK Flexibility Score: inf
ROOT
ATOM      1  C   UNL     1       0.920   2.184 -37.601  1.00  0.00     0.171 C 
ENDROOT
BRANCH   1   2
ATOM      2  C   UNL     1       1.726   1.184 -38.459  1.00  0.00     0.237 C 
BRANCH   2   3
ATOM      3  N   UNL     1       2.653   0.388 -37.642  1.00  0.00    -0.350 N 
ATOM      4  H   UNL     1       2.117  -0.122 -36.901  1.00  0.00     0.345 HD
ATOM      5  H   UNL     1       3.169  -0.310 -38.225  1.00  0.00     0.345 HD
ATOM      6  H   UNL     1       3.342   1.017 -37.171  1.00  0.00     0.345 HD
ENDBRANCH   2   3
BRANCH   2   7
ATOM      7  C   UNL     1       2.444   1.879 -39.588  1.00  0.00     0.100 C 
ATOM      8  O   UNL     1       3.479   2.564 -39.369  1.00  0.00    -0.544 OA
ATOM      9  O   UNL     1       1.933   1.806 -40.877  1.00  0.00    -0.544 OA
ENDBRANCH   2   7
ENDBRANCH   1   2
BRANCH   1  10
ATOM     10  C   UNL     1      -0.453   2.464 -38.145  1.00  0.00     0.223 C 
ATOM     11  O   UNL     1      -1.422   2.610 -37.354  1.00  0.00    -0.275 OA
ATOM     12  N   UNL     1      -0.672   2.546 -39.554  1.00  0.00    -0.369 N 
ATOM     13  H   UNL     1      -1.629   2.729 -39.929  1.00  0.00     0.159 HD
ATOM     14  H   UNL     1       0.118   2.419 -40.226  1.00  0.00     0.159 HD
ENDBRANCH   1  10
TORSDOF 4
ENDMDL
MODEL 9
REMARK VINA RESULT:    -3.247      1.946      2.864
REMARK INTER + INTRA:          -3.772
REMARK INTER:                  -3.411
REMARK INTRA:                  -0.360
REMARK UNBOUND:                 0.140
REMARK SMILES NC(=O)C[C@H]([NH3+])C(=O)[O-]
REMARK SMILES IDX 4 1 5 2 6 3 7 7 8 8 9 9 2 10 3 11 1 12
REMARK H PARENT 6 4 6 5 6 6 1 13 1 14
REMARK Flexibility Score: inf
ROOT
ATOM      1  C   UNL     1       1.587   2.890 -38.654  1.00  0.00     0.171 C 
ENDROOT
BRANCH   1   2
ATOM      2  C   UNL     1       2.326   1.694 -39.292  1.00  0.00     0.237 C 
BRANCH   2   3
ATOM      3  N   UNL     1       1.893   1.460 -40.677  1.00  0.00    -0.350 N 
ATOM      4  H   UNL     1       0.956   1.903 -40.830  1.00  0.00     0.345 HD
ATOM      5  H   UNL     1       2.572   1.864 -41.361  1.00  0.00     0.345 HD
ATOM      6  H   UNL     1       1.800   0.434 -40.852  1.00  0.00     0.345 HD
ENDBRANCH   2   3
BRANCH   2   7
ATOM      7  C   UNL     1       2.186   0.448 -38.454  1.00  0.00     0.100 C 
ATOM      8  O   UNL     1       1.563  -0.556 -38.890  1.00  0.00    -0.544 OA
ATOM      9  O   UNL     1       2.706   0.423 -37.166  1.00  0.00    -0.544 OA
ENDBRANCH   2   7
ENDBRANCH   1   2
BRANCH   1  10
ATOM     10  C   UNL     1       0.093   2.724 -38.631  1.00  0.00     0.223 C 
ATOM     11  O   UNL     1      -0.527   2.488 -39.702  1.00  0.00    -0.275 OA
ATOM     12  N   UNL     1      -0.633   2.852 -37.409  1.00  0.00    -0.369 N 
ATOM     13  H   UNL     1      -1.671   2.747 -37.398  1.00  0.00     0.159 HD
ATOM     14  H   UNL     1      -0.137   3.056 -36.512  1.00  0.00     0.159 HD
ENDBRANCH   1  10
TORSDOF 4
ENDMDL
