MODEL 1
REMARK VINA RESULT:    -3.511      0.000      0.000
REMARK INTER + INTRA:          -5.089
REMARK INTER:                  -4.742
REMARK INTRA:                  -0.347
REMARK UNBOUND:                -0.347
REMARK SMILES CCCCCCC=CC(=O)[O-]
REMARK SMILES IDX 5 1 6 2 7 3 8 4 9 5 10 6 11 7 4 8 3 9 2 10 1 11
REMARK H PARENT
REMARK Flexibility Score: inf
ROOT
ATOM      1  C   UNL     1      57.829  29.378  50.164  1.00  0.00     0.004 C 
ENDROOT
BRANCH   1   2
ATOM      2  C   UNL     1      58.988  28.922  49.259  1.00  0.00     0.027 C 
BRANCH   2   3
ATOM      3  C   UNL     1      59.271  27.453  49.411  1.00  0.00    -0.025 C 
ATOM      4  C   UNL     1      60.363  27.007  50.041  1.00  0.00     0.020 C 
BRANCH   4   5
ATOM      5  C   UNL     1      60.649  25.573  50.203  1.00  0.00     0.064 C 
ATOM      6  O   UNL     1      61.833  25.142  50.219  1.00  0.00    -0.545 OA
ATOM      7  O   UNL     1      59.596  24.680  50.346  1.00  0.00    -0.545 OA
ENDBRANCH   4   5
ENDBRANCH   2   3
ENDBRANCH   1   2
BRANCH   1   8
ATOM      8  C   UNL     1      56.780  28.283  50.442  1.00  0.00     0.000 C 
BRANCH   8   9
ATOM      9  C   UNL     1      55.323  28.770  50.508  1.00  0.00    -0.000 C 
BRANCH   9  10
ATOM     10  C   UNL     1      54.318  27.727  49.999  1.00  0.00    -0.003 C 
ATOM     11  C   UNL     1      55.002  26.388  49.738  1.00  0.00     0.004 C 
ENDBRANCH   9  10
ENDBRANCH   8   9
ENDBRANCH   1   8
TORSDOF 6
ENDMDL
MODEL 2
REMARK VINA RESULT:    -3.501     12.425     13.098
REMARK INTER + INTRA:          -5.076
REMARK INTER:                  -4.605
REMARK INTRA:                  -0.471
REMARK UNBOUND:                -0.347
REMARK SMILES CCCCCCC=CC(=O)[O-]
REMARK SMILES IDX 5 1 6 2 7 3 8 4 9 5 10 6 11 7 4 8 3 9 2 10 1 11
REMARK H PARENT
REMARK Flexibility Score: inf
ROOT
ATOM      1  C   UNL     1      60.865  31.563  61.347  1.00  0.00     0.004 C 
ENDROOT
BRANCH   1   2
ATOM      2  C   UNL     1      61.583  30.301  61.857  1.00  0.00     0.027 C 
BRANCH   2   3
ATOM      3  C   UNL     1      63.049  30.319  61.525  1.00  0.00    -0.025 C 
ATOM      4  C   UNL     1      63.709  29.204  61.189  1.00  0.00     0.020 C 
BRANCH   4   5
ATOM      5  C   UNL     1      65.141  29.209  60.854  1.00  0.00     0.064 C 
ATOM      6  O   UNL     1      65.840  28.166  60.966  1.00  0.00    -0.545 OA
ATOM      7  O   UNL     1      65.733  30.380  60.402  1.00  0.00    -0.545 OA
ENDBRANCH   4   5
ENDBRANCH   2   3
ENDBRANCH   1   2
BRANCH   1   8
ATOM      8  C   UNL     1      61.744  32.476  60.470  1.00  0.00     0.000 C 
BRANCH   8   9
ATOM      9  C   UNL     1      61.457  33.981  60.592  1.00  0.00    -0.000 C 
BRANCH   9  10
ATOM     10  C   UNL     1      62.721  34.815  60.846  1.00  0.00    -0.003 C 
ATOM     11  C   UNL     1      63.938  33.918  61.053  1.00  0.00     0.004 C 
ENDBRANCH   9  10
ENDBRANCH   8   9
ENDBRANCH   1   8
TORSDOF 6
ENDMDL
MODEL 3
REMARK VINA RESULT:    -3.475     13.354     14.249
REMARK INTER + INTRA:          -5.041
REMARK INTER:                  -4.603
REMARK INTRA:                  -0.438
REMARK UNBOUND:                -0.347
REMARK SMILES CCCCCCC=CC(=O)[O-]
REMARK SMILES IDX 5 1 6 2 7 3 8 4 9 5 10 6 11 7 4 8 3 9 2 10 1 11
REMARK H PARENT
REMARK Flexibility Score: inf
ROOT
ATOM      1  C   UNL     1      61.945  33.441  59.614  1.00  0.00     0.004 C 
ENDROOT
BRANCH   1   2
ATOM      2  C   UNL     1      61.420  34.530  60.567  1.00  0.00     0.027 C 
BRANCH   2   3
ATOM      3  C   UNL     1      62.496  35.509  60.945  1.00  0.00    -0.025 C 
ATOM      4  C   UNL     1      63.745  35.113  61.214  1.00  0.00     0.020 C 
BRANCH   4   5
ATOM      5  C   UNL     1      64.810  36.060  61.578  1.00  0.00     0.064 C 
ATOM      6  O   UNL     1      64.758  36.719  62.651  1.00  0.00    -0.545 OA
ATOM      7  O   UNL     1      65.895  36.228  60.728  1.00  0.00    -0.545 OA
ENDBRANCH   4   5
ENDBRANCH   2   3
ENDBRANCH   1   2
BRANCH   1   8
ATOM      8  C   UNL     1      61.320  32.051  59.844  1.00  0.00     0.000 C 
BRANCH   8   9
ATOM      9  C   UNL     1      60.884  31.756  61.288  1.00  0.00    -0.000 C 
BRANCH   9  10
ATOM     10  C   UNL     1      61.555  30.506  61.875  1.00  0.00    -0.003 C 
ATOM     11  C   UNL     1      63.040  30.466  61.527  1.00  0.00     0.004 C 
ENDBRANCH   9  10
ENDBRANCH   8   9
ENDBRANCH   1   8
TORSDOF 6
ENDMDL
MODEL 4
REMARK VINA RESULT:    -3.466     13.031     13.920
REMARK INTER + INTRA:          -5.028
REMARK INTER:                  -4.599
REMARK INTRA:                  -0.430
REMARK UNBOUND:                -0.347
REMARK SMILES CCCCCCC=CC(=O)[O-]
REMARK SMILES IDX 5 1 6 2 7 3 8 4 9 5 10 6 11 7 4 8 3 9 2 10 1 11
REMARK H PARENT
REMARK Flexibility Score: inf
ROOT
ATOM      1  C   UNL     1      60.797  31.824  61.168  1.00  0.00     0.004 C 
ENDROOT
BRANCH   1   2
ATOM      2  C   UNL     1      61.764  32.516  60.190  1.00  0.00     0.027 C 
BRANCH   2   3
ATOM      3  C   UNL     1      62.177  33.875  60.679  1.00  0.00    -0.025 C 
ATOM      4  C   UNL     1      63.450  34.160  60.979  1.00  0.00     0.020 C 
BRANCH   4   5
ATOM      5  C   UNL     1      63.869  35.487  61.452  1.00  0.00     0.064 C 
ATOM      6  O   UNL     1      65.042  35.691  61.867  1.00  0.00    -0.545 OA
ATOM      7  O   UNL     1      62.961  36.537  61.435  1.00  0.00    -0.545 OA
ENDBRANCH   4   5
ENDBRANCH   2   3
ENDBRANCH   1   2
BRANCH   1   8
ATOM      8  C   UNL     1      61.414  30.627  61.919  1.00  0.00     0.000 C 
BRANCH   8   9
ATOM      9  C   UNL     1      62.892  30.345  61.606  1.00  0.00    -0.000 C 
BRANCH   9  10
ATOM     10  C   UNL     1      63.109  29.012  60.877  1.00  0.00    -0.003 C 
ATOM     11  C   UNL     1      62.229  27.914  61.467  1.00  0.00     0.004 C 
ENDBRANCH   9  10
ENDBRANCH   8   9
ENDBRANCH   1   8
TORSDOF 6
ENDMDL
MODEL 5
REMARK VINA RESULT:    -3.453     12.193     13.119
REMARK INTER + INTRA:          -5.011
REMARK INTER:                  -4.734
REMARK INTRA:                  -0.277
REMARK UNBOUND:                -0.347
REMARK SMILES CCCCCCC=CC(=O)[O-]
REMARK SMILES IDX 5 1 6 2 7 3 8 4 9 5 10 6 11 7 4 8 3 9 2 10 1 11
REMARK H PARENT
REMARK Flexibility Score: inf
ROOT
ATOM      1  C   UNL     1      61.025  32.418  60.402  1.00  0.00     0.004 C 
ENDROOT
BRANCH   1   2
ATOM      2  C   UNL     1      60.717  31.472  61.577  1.00  0.00     0.027 C 
BRANCH   2   3
ATOM      3  C   UNL     1      61.818  30.471  61.793  1.00  0.00    -0.025 C 
ATOM      4  C   UNL     1      62.097  29.525  60.888  1.00  0.00     0.020 C 
BRANCH   4   5
ATOM      5  C   UNL     1      63.176  28.545  61.083  1.00  0.00     0.064 C 
ATOM      6  O   UNL     1      64.387  28.881  60.989  1.00  0.00    -0.545 OA
ATOM      7  O   UNL     1      62.856  27.227  61.381  1.00  0.00    -0.545 OA
ENDBRANCH   4   5
ENDBRANCH   2   3
ENDBRANCH   1   2
BRANCH   1   8
ATOM      8  C   UNL     1      62.178  33.404  60.675  1.00  0.00     0.000 C 
BRANCH   8   9
ATOM      9  C   UNL     1      61.775  34.886  60.737  1.00  0.00    -0.000 C 
BRANCH   9  10
ATOM     10  C   UNL     1      62.942  35.811  61.111  1.00  0.00    -0.003 C 
ATOM     11  C   UNL     1      64.192  35.006  61.453  1.00  0.00     0.004 C 
ENDBRANCH   9  10
ENDBRANCH   8   9
ENDBRANCH   1   8
TORSDOF 6
ENDMDL
MODEL 6
REMARK VINA RESULT:    -3.441      1.677      2.691
REMARK INTER + INTRA:          -4.995
REMARK INTER:                  -4.697
REMARK INTRA:                  -0.297
REMARK UNBOUND:                -0.347
REMARK SMILES CCCCCCC=CC(=O)[O-]
REMARK SMILES IDX 5 1 6 2 7 3 8 4 9 5 10 6 11 7 4 8 3 9 2 10 1 11
REMARK H PARENT
REMARK Flexibility Score: inf
ROOT
ATOM      1  C   UNL     1      55.293  27.808  50.278  1.00  0.00     0.004 C 
ENDROOT
BRANCH   1   2
ATOM      2  C   UNL     1      56.258  28.947  50.655  1.00  0.00     0.027 C 
BRANCH   2   3
ATOM      3  C   UNL     1      57.660  28.668  50.192  1.00  0.00    -0.025 C 
ATOM      4  C   UNL     1      58.119  27.419  50.048  1.00  0.00     0.020 C 
BRANCH   4   5
ATOM      5  C   UNL     1      59.486  27.131  49.589  1.00  0.00     0.064 C 
ATOM      6  O   UNL     1      59.974  25.972  49.682  1.00  0.00    -0.545 OA
ATOM      7  O   UNL     1      60.251  28.150  49.038  1.00  0.00    -0.545 OA
ENDBRANCH   4   5
ENDBRANCH   2   3
ENDBRANCH   1   2
BRANCH   1   8
ATOM      8  C   UNL     1      53.833  28.262  50.079  1.00  0.00     0.000 C 
BRANCH   8   9
ATOM      9  C   UNL     1      52.904  27.223  49.430  1.00  0.00    -0.000 C 
BRANCH   9  10
ATOM     10  C   UNL     1      53.631  25.931  49.032  1.00  0.00    -0.003 C 
ATOM     11  C   UNL     1      53.216  24.769  49.929  1.00  0.00     0.004 C 
ENDBRANCH   9  10
ENDBRANCH   8   9
ENDBRANCH   1   8
TORSDOF 6
ENDMDL
MODEL 7
REMARK VINA RESULT:    -3.431      2.782      4.780
REMARK INTER + INTRA:          -4.982
REMARK INTER:                  -4.256
REMARK INTRA:                  -0.726
REMARK UNBOUND:                -0.347
REMARK SMILES CCCCCCC=CC(=O)[O-]
REMARK SMILES IDX 5 1 6 2 7 3 8 4 9 5 10 6 11 7 4 8 3 9 2 10 1 11
REMARK H PARENT
REMARK Flexibility Score: inf
ROOT
ATOM      1  C   UNL     1      58.671  29.909  50.619  1.00  0.00     0.004 C 
ENDROOT
BRANCH   1   2
ATOM      2  C   UNL     1      57.427  29.448  51.399  1.00  0.00     0.027 C 
BRANCH   2   3
ATOM      3  C   UNL     1      56.372  28.885  50.489  1.00  0.00    -0.025 C 
ATOM      4  C   UNL     1      55.758  27.726  50.755  1.00  0.00     0.020 C 
BRANCH   4   5
ATOM      5  C   UNL     1      54.719  27.166  49.877  1.00  0.00     0.064 C 
ATOM      6  O   UNL     1      54.846  26.021  49.365  1.00  0.00    -0.545 OA
ATOM      7  O   UNL     1      53.577  27.909  49.611  1.00  0.00    -0.545 OA
ENDBRANCH   4   5
ENDBRANCH   2   3
ENDBRANCH   1   2
BRANCH   1   8
ATOM      8  C   UNL     1      58.849  29.216  49.253  1.00  0.00     0.000 C 
BRANCH   8   9
ATOM      9  C   UNL     1      59.848  28.048  49.234  1.00  0.00    -0.000 C 
BRANCH   9  10
ATOM     10  C   UNL     1      59.179  26.680  49.426  1.00  0.00    -0.003 C 
ATOM     11  C   UNL     1      59.254  26.233  50.884  1.00  0.00     0.004 C 
ENDBRANCH   9  10
ENDBRANCH   8   9
ENDBRANCH   1   8
TORSDOF 6
ENDMDL
MODEL 8
REMARK VINA RESULT:    -3.411     13.100     13.936
REMARK INTER + INTRA:          -4.955
REMARK INTER:                  -4.374
REMARK INTRA:                  -0.581
REMARK UNBOUND:                -0.347
REMARK SMILES CCCCCCC=CC(=O)[O-]
REMARK SMILES IDX 5 1 6 2 7 3 8 4 9 5 10 6 11 7 4 8 3 9 2 10 1 11
REMARK H PARENT
REMARK Flexibility Score: inf
ROOT
ATOM      1  C   UNL     1      64.127  30.530  60.920  1.00  0.00     0.004 C 
ENDROOT
BRANCH   1   2
ATOM      2  C   UNL     1      64.476  31.846  60.200  1.00  0.00     0.027 C 
BRANCH   2   3
ATOM      3  C   UNL     1      64.145  33.047  61.040  1.00  0.00    -0.025 C 
ATOM      4  C   UNL     1      64.188  34.289  60.542  1.00  0.00     0.020 C 
BRANCH   4   5
ATOM      5  C   UNL     1      63.859  35.473  61.350  1.00  0.00     0.064 C 
ATOM      6  O   UNL     1      62.710  35.990  61.311  1.00  0.00    -0.545 OA
ATOM      7  O   UNL     1      64.829  36.028  62.174  1.00  0.00    -0.545 OA
ENDBRANCH   4   5
ENDBRANCH   2   3
ENDBRANCH   1   2
BRANCH   1   8
ATOM      8  C   UNL     1      62.698  30.023  60.644  1.00  0.00     0.000 C 
BRANCH   8   9
ATOM      9  C   UNL     1      61.752  30.033  61.856  1.00  0.00    -0.000 C 
BRANCH   9  10
ATOM     10  C   UNL     1      60.757  31.202  61.833  1.00  0.00    -0.003 C 
ATOM     11  C   UNL     1      60.643  31.798  60.433  1.00  0.00     0.004 C 
ENDBRANCH   9  10
ENDBRANCH   8   9
ENDBRANCH   1   8
TORSDOF 6
ENDMDL
MODEL 9
REMARK VINA RESULT:    -3.315     13.149     14.035
REMARK INTER + INTRA:          -4.825
REMARK INTER:                  -4.238
REMARK INTRA:                  -0.587
REMARK UNBOUND:                -0.347
REMARK SMILES CCCCCCC=CC(=O)[O-]
REMARK SMILES IDX 5 1 6 2 7 3 8 4 9 5 10 6 11 7 4 8 3 9 2 10 1 11
REMARK H PARENT
REMARK Flexibility Score: inf
ROOT
ATOM      1  C   UNL     1      64.498  34.975  61.705  1.00  0.00     0.004 C 
ENDROOT
BRANCH   1   2
ATOM      2  C   UNL     1      64.093  34.089  60.513  1.00  0.00     0.027 C 
BRANCH   2   3
ATOM      3  C   UNL     1      63.565  32.755  60.961  1.00  0.00    -0.025 C 
ATOM      4  C   UNL     1      62.268  32.441  60.860  1.00  0.00     0.020 C 
BRANCH   4   5
ATOM      5  C   UNL     1      61.739  31.137  61.288  1.00  0.00     0.064 C 
ATOM      6  O   UNL     1      62.485  30.124  61.364  1.00  0.00    -0.545 OA
ATOM      7  O   UNL     1      60.396  31.021  61.621  1.00  0.00    -0.545 OA
ENDBRANCH   4   5
ENDBRANCH   2   3
ENDBRANCH   1   2
BRANCH   1   8
ATOM      8  C   UNL     1      64.228  36.478  61.490  1.00  0.00     0.000 C 
BRANCH   8   9
ATOM      9  C   UNL     1      63.164  36.811  60.432  1.00  0.00    -0.000 C 
BRANCH   9  10
ATOM     10  C   UNL     1      61.767  37.027  61.031  1.00  0.00    -0.003 C 
ATOM     11  C   UNL     1      60.817  35.903  60.627  1.00  0.00     0.004 C 
ENDBRANCH   9  10
ENDBRANCH   8   9
ENDBRANCH   1   8
TORSDOF 6
ENDMDL
