MODEL 1
REMARK VINA RESULT:    -2.683      0.000      0.000
REMARK INTER + INTRA:          -3.140
REMARK INTER:                  -3.154
REMARK INTRA:                   0.014
REMARK UNBOUND:                 0.014
REMARK SMILES O=C([O-])CCC(=O)[O-]
REMARK SMILES IDX 4 1 2 2 1 3 3 4 5 5 6 6 7 7 8 8
REMARK H PARENT
REMARK Flexibility Score: inf
ROOT
ATOM      1  C   UNL     1      26.369  -5.526  -3.387  1.00  0.00     0.059 C 
ENDROOT
BRANCH   1   2
ATOM      2  C   UNL     1      27.832  -5.747  -3.161  1.00  0.00     0.042 C 
ATOM      3  O   UNL     1      28.583  -6.049  -4.125  1.00  0.00    -0.550 OA
ATOM      4  O   UNL     1      28.374  -5.572  -1.894  1.00  0.00    -0.550 OA
ENDBRANCH   1   2
BRANCH   1   5
ATOM      5  C   UNL     1      26.130  -4.168  -4.050  1.00  0.00     0.059 C 
BRANCH   5   6
ATOM      6  C   UNL     1      25.774  -3.140  -3.024  1.00  0.00     0.042 C 
ATOM      7  O   UNL     1      26.132  -3.290  -1.826  1.00  0.00    -0.550 OA
ATOM      8  O   UNL     1      25.006  -2.039  -3.380  1.00  0.00    -0.550 OA
ENDBRANCH   5   6
ENDBRANCH   1   5
TORSDOF 3
ENDMDL
MODEL 2
REMARK VINA RESULT:    -2.683      0.050      3.815
REMARK INTER + INTRA:          -3.139
REMARK INTER:                  -3.192
REMARK INTRA:                   0.054
REMARK UNBOUND:                 0.014
REMARK SMILES O=C([O-])CCC(=O)[O-]
REMARK SMILES IDX 4 1 2 2 1 3 3 4 5 5 6 6 7 7 8 8
REMARK H PARENT
REMARK Flexibility Score: inf
ROOT
ATOM      1  C   UNL     1      26.120  -4.133  -4.064  1.00  0.00     0.059 C 
ENDROOT
BRANCH   1   2
ATOM      2  C   UNL     1      25.743  -3.145  -3.006  1.00  0.00     0.042 C 
ATOM      3  O   UNL     1      26.132  -3.307  -1.820  1.00  0.00    -0.550 OA
ATOM      4  O   UNL     1      25.002  -2.018  -3.339  1.00  0.00    -0.550 OA
ENDBRANCH   1   2
BRANCH   1   5
ATOM      5  C   UNL     1      26.361  -5.512  -3.447  1.00  0.00     0.059 C 
BRANCH   5   6
ATOM      6  C   UNL     1      27.820  -5.726  -3.196  1.00  0.00     0.042 C 
ATOM      7  O   UNL     1      28.571  -6.125  -4.125  1.00  0.00    -0.550 OA
ATOM      8  O   UNL     1      28.342  -5.532  -1.923  1.00  0.00    -0.550 OA
ENDBRANCH   5   6
ENDBRANCH   1   5
TORSDOF 3
ENDMDL
MODEL 3
REMARK VINA RESULT:    -2.556      2.067      2.782
REMARK INTER + INTRA:          -2.990
REMARK INTER:                  -2.946
REMARK INTRA:                  -0.044
REMARK UNBOUND:                 0.014
REMARK SMILES O=C([O-])CCC(=O)[O-]
REMARK SMILES IDX 4 1 2 2 1 3 3 4 5 5 6 6 7 7 8 8
REMARK H PARENT
REMARK Flexibility Score: inf
ROOT
ATOM      1  C   UNL     1      25.755  -2.669  -2.356  1.00  0.00     0.059 C 
ENDROOT
BRANCH   1   2
ATOM      2  C   UNL     1      26.257  -3.961  -2.918  1.00  0.00     0.042 C 
ATOM      3  O   UNL     1      26.046  -4.251  -4.125  1.00  0.00    -0.550 OA
ATOM      4  O   UNL     1      26.999  -4.824  -2.121  1.00  0.00    -0.550 OA
ENDBRANCH   1   2
BRANCH   1   5
ATOM      5  C   UNL     1      24.826  -1.975  -3.354  1.00  0.00     0.059 C 
BRANCH   5   6
ATOM      6  C   UNL     1      23.863  -1.081  -2.640  1.00  0.00     0.042 C 
ATOM      7  O   UNL     1      23.058  -1.560  -1.799  1.00  0.00    -0.550 OA
ATOM      8  O   UNL     1      23.822   0.276  -2.938  1.00  0.00    -0.550 OA
ENDBRANCH   5   6
ENDBRANCH   1   5
TORSDOF 3
ENDMDL
MODEL 4
REMARK VINA RESULT:    -2.522      2.077      4.746
REMARK INTER + INTRA:          -2.950
REMARK INTER:                  -2.912
REMARK INTRA:                  -0.038
REMARK UNBOUND:                 0.014
REMARK SMILES O=C([O-])CCC(=O)[O-]
REMARK SMILES IDX 4 1 2 2 1 3 3 4 5 5 6 6 7 7 8 8
REMARK H PARENT
REMARK Flexibility Score: inf
ROOT
ATOM      1  C   UNL     1      24.798  -2.036  -3.375  1.00  0.00     0.059 C 
ENDROOT
BRANCH   1   2
ATOM      2  C   UNL     1      23.830  -1.138  -2.673  1.00  0.00     0.042 C 
ATOM      3  O   UNL     1      23.060  -1.601  -1.791  1.00  0.00    -0.550 OA
ATOM      4  O   UNL     1      23.811   0.222  -2.957  1.00  0.00    -0.550 OA
ENDBRANCH   1   2
BRANCH   1   5
ATOM      5  C   UNL     1      25.749  -2.688  -2.369  1.00  0.00     0.059 C 
BRANCH   5   6
ATOM      6  C   UNL     1      26.446  -3.857  -2.989  1.00  0.00     0.042 C 
ATOM      7  O   UNL     1      27.534  -4.273  -2.511  1.00  0.00    -0.550 OA
ATOM      8  O   UNL     1      25.918  -4.458  -4.125  1.00  0.00    -0.550 OA
ENDBRANCH   5   6
ENDBRANCH   1   5
TORSDOF 3
ENDMDL
MODEL 5
REMARK VINA RESULT:    -2.453     12.448     14.252
REMARK INTER + INTRA:          -2.869
REMARK INTER:                  -2.755
REMARK INTRA:                  -0.114
REMARK UNBOUND:                 0.014
REMARK SMILES O=C([O-])CCC(=O)[O-]
REMARK SMILES IDX 4 1 2 2 1 3 3 4 5 5 6 6 7 7 8 8
REMARK H PARENT
REMARK Flexibility Score: inf
ROOT
ATOM      1  C   UNL     1      27.905   9.252  -3.183  1.00  0.00     0.059 C 
ENDROOT
BRANCH   1   2
ATOM      2  C   UNL     1      28.257  10.701  -3.064  1.00  0.00     0.042 C 
ATOM      3  O   UNL     1      27.876  11.520  -3.941  1.00  0.00    -0.550 OA
ATOM      4  O   UNL     1      28.967  11.156  -1.959  1.00  0.00    -0.550 OA
ENDBRANCH   1   2
BRANCH   1   5
ATOM      5  C   UNL     1      28.528   8.454  -2.036  1.00  0.00     0.059 C 
BRANCH   5   6
ATOM      6  C   UNL     1      27.488   8.096  -1.022  1.00  0.00     0.042 C 
ATOM      7  O   UNL     1      27.050   8.969  -0.228  1.00  0.00    -0.550 OA
ATOM      8  O   UNL     1      27.038   6.785  -0.921  1.00  0.00    -0.550 OA
ENDBRANCH   5   6
ENDBRANCH   1   5
TORSDOF 3
ENDMDL
MODEL 6
REMARK VINA RESULT:    -2.429     12.501     14.141
REMARK INTER + INTRA:          -2.840
REMARK INTER:                  -2.729
REMARK INTRA:                  -0.111
REMARK UNBOUND:                 0.014
REMARK SMILES O=C([O-])CCC(=O)[O-]
REMARK SMILES IDX 4 1 2 2 1 3 3 4 5 5 6 6 7 7 8 8
REMARK H PARENT
REMARK Flexibility Score: inf
ROOT
ATOM      1  C   UNL     1      28.519   8.488  -2.072  1.00  0.00     0.059 C 
ENDROOT
BRANCH   1   2
ATOM      2  C   UNL     1      27.490   8.108  -1.054  1.00  0.00     0.042 C 
ATOM      3  O   UNL     1      27.066   8.962  -0.233  1.00  0.00    -0.550 OA
ATOM      4  O   UNL     1      26.965   6.822  -1.044  1.00  0.00    -0.550 OA
ENDBRANCH   1   2
BRANCH   1   5
ATOM      5  C   UNL     1      27.893   9.351  -3.169  1.00  0.00     0.059 C 
BRANCH   5   6
ATOM      6  C   UNL     1      28.305  10.780  -3.010  1.00  0.00     0.042 C 
ATOM      7  O   UNL     1      28.982  11.136  -2.009  1.00  0.00    -0.550 OA
ATOM      8  O   UNL     1      27.900  11.729  -3.940  1.00  0.00    -0.550 OA
ENDBRANCH   5   6
ENDBRANCH   1   5
TORSDOF 3
ENDMDL
MODEL 7
REMARK VINA RESULT:    -2.422     11.781     13.321
REMARK INTER + INTRA:          -2.832
REMARK INTER:                  -2.709
REMARK INTRA:                  -0.124
REMARK UNBOUND:                 0.014
REMARK SMILES O=C([O-])CCC(=O)[O-]
REMARK SMILES IDX 4 1 2 2 1 3 3 4 5 5 6 6 7 7 8 8
REMARK H PARENT
REMARK Flexibility Score: inf
ROOT
ATOM      1  C   UNL     1      26.879   8.222  -1.920  1.00  0.00     0.059 C 
ENDROOT
BRANCH   1   2
ATOM      2  C   UNL     1      27.292   7.040  -1.100  1.00  0.00     0.042 C 
ATOM      3  O   UNL     1      26.530   6.043  -0.998  1.00  0.00    -0.550 OA
ATOM      4  O   UNL     1      28.539   7.019  -0.489  1.00  0.00    -0.550 OA
ENDBRANCH   1   2
BRANCH   1   5
ATOM      5  C   UNL     1      28.077   8.785  -2.688  1.00  0.00     0.059 C 
BRANCH   5   6
ATOM      6  C   UNL     1      28.396  10.169  -2.218  1.00  0.00     0.042 C 
ATOM      7  O   UNL     1      28.734  10.369  -1.021  1.00  0.00    -0.550 OA
ATOM      8  O   UNL     1      28.273  11.244  -3.088  1.00  0.00    -0.550 OA
ENDBRANCH   5   6
ENDBRANCH   1   5
TORSDOF 3
ENDMDL
MODEL 8
REMARK VINA RESULT:    -2.389     11.720     13.566
REMARK INTER + INTRA:          -2.794
REMARK INTER:                  -2.672
REMARK INTRA:                  -0.122
REMARK UNBOUND:                 0.014
REMARK SMILES O=C([O-])CCC(=O)[O-]
REMARK SMILES IDX 4 1 2 2 1 3 3 4 5 5 6 6 7 7 8 8
REMARK H PARENT
REMARK Flexibility Score: inf
ROOT
ATOM      1  C   UNL     1      28.065   8.743  -2.595  1.00  0.00     0.059 C 
ENDROOT
BRANCH   1   2
ATOM      2  C   UNL     1      28.386  10.122  -2.112  1.00  0.00     0.042 C 
ATOM      3  O   UNL     1      28.768  10.305  -0.926  1.00  0.00    -0.550 OA
ATOM      4  O   UNL     1      28.312  11.199  -2.985  1.00  0.00    -0.550 OA
ENDBRANCH   1   2
BRANCH   1   5
ATOM      5  C   UNL     1      26.870   8.173  -1.828  1.00  0.00     0.059 C 
BRANCH   5   6
ATOM      6  C   UNL     1      27.265   6.933  -1.091  1.00  0.00     0.042 C 
ATOM      7  O   UNL     1      26.470   5.958  -1.018  1.00  0.00    -0.550 OA
ATOM      8  O   UNL     1      28.491   6.871  -0.441  1.00  0.00    -0.550 OA
ENDBRANCH   5   6
ENDBRANCH   1   5
TORSDOF 3
ENDMDL
MODEL 9
REMARK VINA RESULT:    -2.368      9.552     11.438
REMARK INTER + INTRA:          -2.769
REMARK INTER:                  -2.733
REMARK INTRA:                  -0.036
REMARK UNBOUND:                 0.014
REMARK SMILES O=C([O-])CCC(=O)[O-]
REMARK SMILES IDX 4 1 2 2 1 3 3 4 5 5 6 6 7 7 8 8
REMARK H PARENT
REMARK Flexibility Score: inf
ROOT
ATOM      1  C   UNL     1      27.254   6.592  -0.809  1.00  0.00     0.059 C 
ENDROOT
BRANCH   1   2
ATOM      2  C   UNL     1      27.713   7.980  -1.125  1.00  0.00     0.042 C 
ATOM      3  O   UNL     1      28.465   8.189  -2.112  1.00  0.00    -0.550 OA
ATOM      4  O   UNL     1      27.269   9.051  -0.359  1.00  0.00    -0.550 OA
ENDBRANCH   1   2
BRANCH   1   5
ATOM      5  C   UNL     1      25.972   6.264  -1.577  1.00  0.00     0.059 C 
BRANCH   5   6
ATOM      6  C   UNL     1      25.710   4.791  -1.552  1.00  0.00     0.042 C 
ATOM      7  O   UNL     1      26.510   4.015  -0.966  1.00  0.00    -0.550 OA
ATOM      8  O   UNL     1      24.608   4.270  -2.219  1.00  0.00    -0.550 OA
ENDBRANCH   5   6
ENDBRANCH   1   5
TORSDOF 3
ENDMDL
