MODEL 1
REMARK VINA RESULT:    -2.863      0.000      0.000
REMARK INTER + INTRA:          -8.486
REMARK INTER:                  -7.549
REMARK INTRA:                  -0.938
REMARK UNBOUND:                -0.938
REMARK SMILES CCCCCCCCCCCCCCCCCCCCCCCCCCCCCC(=O)[O-]
REMARK SMILES IDX 16 1 17 2 18 3 19 4 20 5 21 6 22 7 23 8 24 9 25 10 26 11
REMARK SMILES IDX 27 12 28 13 29 14 30 15 31 16 32 17 15 18 14 19 13 20 12 21
REMARK SMILES IDX 11 22 10 23 9 24 8 25 7 26 6 27 5 28 4 29 3 30 2 31 1 32
REMARK H PARENT
REMARK Flexibility Score: inf
ROOT
ATOM      1  C   UNL     1      40.607  67.177  25.508  1.00  0.00     0.000 C 
ENDROOT
BRANCH   1   2
ATOM      2  C   UNL     1      39.089  67.066  25.741  1.00  0.00     0.000 C 
BRANCH   2   3
ATOM      3  C   UNL     1      38.316  66.752  24.450  1.00  0.00     0.000 C 
BRANCH   3   4
ATOM      4  C   UNL     1      39.008  67.312  23.196  1.00  0.00     0.000 C 
BRANCH   4   5
ATOM      5  C   UNL     1      39.541  66.203  22.272  1.00  0.00     0.000 C 
BRANCH   5   6
ATOM      6  C   UNL     1      40.580  66.721  21.263  1.00  0.00     0.000 C 
BRANCH   6   7
ATOM      7  C   UNL     1      41.916  67.086  21.932  1.00  0.00     0.000 C 
BRANCH   7   8
ATOM      8  C   UNL     1      41.749  68.115  23.065  1.00  0.00     0.000 C 
BRANCH   8   9
ATOM      9  C   UNL     1      43.099  68.629  23.591  1.00  0.00     0.000 C 
BRANCH   9  10
ATOM     10  C   UNL     1      42.935  69.776  24.601  1.00  0.00     0.000 C 
BRANCH  10  11
ATOM     11  C   UNL     1      44.300  70.305  25.059  1.00  0.00     0.000 C 
BRANCH  11  12
ATOM     12  C   UNL     1      44.519  71.747  24.574  1.00  0.00     0.000 C 
BRANCH  12  13
ATOM     13  C   UNL     1      43.531  72.737  25.212  1.00  0.00     0.006 C 
BRANCH  13  14
ATOM     14  C   UNL     1      42.572  73.355  24.186  1.00  0.00     0.053 C 
BRANCH  14  15
ATOM     15  C   UNL     1      41.348  73.880  24.867  1.00  0.00     0.041 C 
ATOM     16  O   UNL     1      40.352  74.247  24.186  1.00  0.00    -0.550 OA
ATOM     17  O   UNL     1      41.277  73.896  26.252  1.00  0.00    -0.550 OA
ENDBRANCH  14  15
ENDBRANCH  13  14
ENDBRANCH  12  13
ENDBRANCH  11  12
ENDBRANCH  10  11
ENDBRANCH   9  10
ENDBRANCH   8   9
ENDBRANCH   7   8
ENDBRANCH   6   7
ENDBRANCH   5   6
ENDBRANCH   4   5
ENDBRANCH   3   4
ENDBRANCH   2   3
ENDBRANCH   1   2
BRANCH   1  18
ATOM     18  C   UNL     1      41.350  65.872  25.839  1.00  0.00     0.000 C 
BRANCH  18  19
ATOM     19  C   UNL     1      41.679  65.047  24.581  1.00  0.00     0.000 C 
BRANCH  19  20
ATOM     20  C   UNL     1      41.754  63.532  24.852  1.00  0.00     0.000 C 
BRANCH  20  21
ATOM     21  C   UNL     1      42.546  63.118  26.111  1.00  0.00     0.000 C 
BRANCH  21  22
ATOM     22  C   UNL     1      42.980  61.636  26.146  1.00  0.00     0.000 C 
BRANCH  22  23
ATOM     23  C   UNL     1      44.506  61.422  26.191  1.00  0.00     0.000 C 
BRANCH  23  24
ATOM     24  C   UNL     1      45.319  62.588  25.597  1.00  0.00    -0.000 C 
BRANCH  24  25
ATOM     25  C   UNL     1      46.452  63.047  26.532  1.00  0.00    -0.000 C 
BRANCH  25  26
ATOM     26  C   UNL     1      47.701  63.526  25.772  1.00  0.00    -0.000 C 
BRANCH  26  27
ATOM     27  C   UNL     1      47.721  63.175  24.273  1.00  0.00    -0.000 C 
BRANCH  27  28
ATOM     28  C   UNL     1      48.885  63.833  23.518  1.00  0.00    -0.000 C 
BRANCH  28  29
ATOM     29  C   UNL     1      48.545  65.282  23.139  1.00  0.00    -0.000 C 
BRANCH  29  30
ATOM     30  C   UNL     1      49.316  65.770  21.899  1.00  0.00    -0.000 C 
BRANCH  30  31
ATOM     31  C   UNL     1      50.809  65.393  21.880  1.00  0.00    -0.003 C 
ATOM     32  C   UNL     1      51.125  64.248  20.919  1.00  0.00     0.004 C 
ENDBRANCH  30  31
ENDBRANCH  29  30
ENDBRANCH  28  29
ENDBRANCH  27  28
ENDBRANCH  26  27
ENDBRANCH  25  26
ENDBRANCH  24  25
ENDBRANCH  23  24
ENDBRANCH  22  23
ENDBRANCH  21  22
ENDBRANCH  20  21
ENDBRANCH  19  20
ENDBRANCH  18  19
ENDBRANCH   1  18
TORSDOF 28
ENDMDL
MODEL 2
REMARK VINA RESULT:    -2.716      0.743      2.074
REMARK INTER + INTRA:          -8.101
REMARK INTER:                  -6.025
REMARK INTRA:                  -2.075
REMARK UNBOUND:                -0.938
REMARK SMILES CCCCCCCCCCCCCCCCCCCCCCCCCCCCCC(=O)[O-]
REMARK SMILES IDX 16 1 17 2 18 3 19 4 20 5 21 6 22 7 23 8 24 9 25 10 26 11
REMARK SMILES IDX 27 12 28 13 29 14 30 15 31 16 32 17 15 18 14 19 13 20 12 21
REMARK SMILES IDX 11 22 10 23 9 24 8 25 7 26 6 27 5 28 4 29 3 30 2 31 1 32
REMARK H PARENT
REMARK Flexibility Score: inf
ROOT
ATOM      1  C   UNL     1      40.427  67.124  21.533  1.00  0.00     0.000 C 
ENDROOT
BRANCH   1   2
ATOM      2  C   UNL     1      39.107  66.759  22.236  1.00  0.00     0.000 C 
BRANCH   2   3
ATOM      3  C   UNL     1      38.854  67.607  23.494  1.00  0.00     0.000 C 
BRANCH   3   4
ATOM      4  C   UNL     1      38.565  66.749  24.737  1.00  0.00     0.000 C 
BRANCH   4   5
ATOM      5  C   UNL     1      39.457  67.125  25.932  1.00  0.00     0.000 C 
BRANCH   5   6
ATOM      6  C   UNL     1      40.949  66.866  25.663  1.00  0.00     0.000 C 
BRANCH   6   7
ATOM      7  C   UNL     1      41.733  68.163  25.407  1.00  0.00     0.000 C 
BRANCH   7   8
ATOM      8  C   UNL     1      42.306  68.239  23.981  1.00  0.00     0.000 C 
BRANCH   8   9
ATOM      9  C   UNL     1      43.267  69.424  23.798  1.00  0.00     0.000 C 
BRANCH   9  10
ATOM     10  C   UNL     1      43.595  70.121  25.128  1.00  0.00     0.000 C 
BRANCH  10  11
ATOM     11  C   UNL     1      44.797  71.062  24.974  1.00  0.00     0.000 C 
BRANCH  11  12
ATOM     12  C   UNL     1      44.398  72.514  25.277  1.00  0.00     0.000 C 
BRANCH  12  13
ATOM     13  C   UNL     1      42.874  72.698  25.369  1.00  0.00     0.006 C 
BRANCH  13  14
ATOM     14  C   UNL     1      42.298  73.455  24.165  1.00  0.00     0.053 C 
BRANCH  14  15
ATOM     15  C   UNL     1      40.977  74.063  24.515  1.00  0.00     0.041 C 
ATOM     16  O   UNL     1      40.113  74.260  23.618  1.00  0.00    -0.550 OA
ATOM     17  O   UNL     1      40.671  74.345  25.838  1.00  0.00    -0.550 OA
ENDBRANCH  14  15
ENDBRANCH  13  14
ENDBRANCH  12  13
ENDBRANCH  11  12
ENDBRANCH  10  11
ENDBRANCH   9  10
ENDBRANCH   8   9
ENDBRANCH   7   8
ENDBRANCH   6   7
ENDBRANCH   5   6
ENDBRANCH   4   5
ENDBRANCH   3   4
ENDBRANCH   2   3
ENDBRANCH   1   2
BRANCH   1  18
ATOM     18  C   UNL     1      41.463  65.989  21.602  1.00  0.00     0.000 C 
BRANCH  18  19
ATOM     19  C   UNL     1      41.008  64.832  22.509  1.00  0.00     0.000 C 
BRANCH  19  20
ATOM     20  C   UNL     1      41.743  64.798  23.863  1.00  0.00     0.000 C 
BRANCH  20  21
ATOM     21  C   UNL     1      41.691  63.452  24.617  1.00  0.00     0.000 C 
BRANCH  21  22
ATOM     22  C   UNL     1      42.751  63.288  25.728  1.00  0.00     0.000 C 
BRANCH  22  23
ATOM     23  C   UNL     1      42.949  61.837  26.209  1.00  0.00     0.000 C 
BRANCH  23  24
ATOM     24  C   UNL     1      44.413  61.477  26.528  1.00  0.00    -0.000 C 
BRANCH  24  25
ATOM     25  C   UNL     1      45.411  62.279  25.675  1.00  0.00    -0.000 C 
BRANCH  25  26
ATOM     26  C   UNL     1      46.443  63.047  26.521  1.00  0.00    -0.000 C 
BRANCH  26  27
ATOM     27  C   UNL     1      47.741  63.417  25.779  1.00  0.00    -0.000 C 
BRANCH  27  28
ATOM     28  C   UNL     1      47.523  63.666  24.279  1.00  0.00    -0.000 C 
BRANCH  28  29
ATOM     29  C   UNL     1      48.833  64.083  23.595  1.00  0.00    -0.000 C 
BRANCH  29  30
ATOM     30  C   UNL     1      48.691  65.376  22.773  1.00  0.00    -0.000 C 
BRANCH  30  31
ATOM     31  C   UNL     1      49.960  65.793  22.005  1.00  0.00    -0.003 C 
ATOM     32  C   UNL     1      50.803  64.603  21.550  1.00  0.00     0.004 C 
ENDBRANCH  30  31
ENDBRANCH  29  30
ENDBRANCH  28  29
ENDBRANCH  27  28
ENDBRANCH  26  27
ENDBRANCH  25  26
ENDBRANCH  24  25
ENDBRANCH  23  24
ENDBRANCH  22  23
ENDBRANCH  21  22
ENDBRANCH  20  21
ENDBRANCH  19  20
ENDBRANCH  18  19
ENDBRANCH   1  18
TORSDOF 28
ENDMDL
MODEL 3
REMARK VINA RESULT:    -2.683      3.655      9.399
REMARK INTER + INTRA:          -8.013
REMARK INTER:                  -6.530
REMARK INTRA:                  -1.484
REMARK UNBOUND:                -0.938
REMARK SMILES CCCCCCCCCCCCCCCCCCCCCCCCCCCCCC(=O)[O-]
REMARK SMILES IDX 16 1 17 2 18 3 19 4 20 5 21 6 22 7 23 8 24 9 25 10 26 11
REMARK SMILES IDX 27 12 28 13 29 14 30 15 31 16 32 17 15 18 14 19 13 20 12 21
REMARK SMILES IDX 11 22 10 23 9 24 8 25 7 26 6 27 5 28 4 29 3 30 2 31 1 32
REMARK H PARENT
REMARK Flexibility Score: inf
ROOT
ATOM      1  C   UNL     1      39.807  67.259  22.596  1.00  0.00     0.000 C 
ENDROOT
BRANCH   1   2
ATOM      2  C   UNL     1      40.827  66.293  21.966  1.00  0.00     0.000 C 
BRANCH   2   3
ATOM      3  C   UNL     1      40.782  64.892  22.599  1.00  0.00     0.000 C 
BRANCH   3   4
ATOM      4  C   UNL     1      41.741  64.752  23.793  1.00  0.00     0.000 C 
BRANCH   4   5
ATOM      5  C   UNL     1      41.555  63.424  24.546  1.00  0.00     0.000 C 
BRANCH   5   6
ATOM      6  C   UNL     1      42.523  63.276  25.733  1.00  0.00     0.000 C 
BRANCH   6   7
ATOM      7  C   UNL     1      42.991  61.825  25.931  1.00  0.00     0.000 C 
BRANCH   7   8
ATOM      8  C   UNL     1      44.356  61.733  26.637  1.00  0.00     0.000 C 
BRANCH   8   9
ATOM      9  C   UNL     1      45.508  62.229  25.749  1.00  0.00     0.000 C 
BRANCH   9  10
ATOM     10  C   UNL     1      46.479  63.146  26.509  1.00  0.00     0.000 C 
BRANCH  10  11
ATOM     11  C   UNL     1      47.799  63.305  25.744  1.00  0.00     0.000 C 
BRANCH  11  12
ATOM     12  C   UNL     1      47.540  63.704  24.283  1.00  0.00     0.000 C 
BRANCH  12  13
ATOM     13  C   UNL     1      48.838  64.026  23.523  1.00  0.00     0.006 C 
BRANCH  13  14
ATOM     14  C   UNL     1      48.758  65.350  22.754  1.00  0.00     0.053 C 
BRANCH  14  15
ATOM     15  C   UNL     1      49.997  65.559  21.943  1.00  0.00     0.041 C 
ATOM     16  O   UNL     1      50.550  66.691  21.910  1.00  0.00    -0.550 OA
ATOM     17  O   UNL     1      50.583  64.488  21.283  1.00  0.00    -0.550 OA
ENDBRANCH  14  15
ENDBRANCH  13  14
ENDBRANCH  12  13
ENDBRANCH  11  12
ENDBRANCH  10  11
ENDBRANCH   9  10
ENDBRANCH   8   9
ENDBRANCH   7   8
ENDBRANCH   6   7
ENDBRANCH   5   6
ENDBRANCH   4   5
ENDBRANCH   3   4
ENDBRANCH   2   3
ENDBRANCH   1   2
BRANCH   1  18
ATOM     18  C   UNL     1      39.083  66.642  23.804  1.00  0.00     0.000 C 
BRANCH  18  19
ATOM     19  C   UNL     1      39.430  67.353  25.124  1.00  0.00     0.000 C 
BRANCH  19  20
ATOM     20  C   UNL     1      40.851  67.037  25.629  1.00  0.00     0.000 C 
BRANCH  20  21
ATOM     21  C   UNL     1      41.871  68.189  25.516  1.00  0.00     0.000 C 
BRANCH  21  22
ATOM     22  C   UNL     1      42.437  68.420  24.097  1.00  0.00     0.000 C 
BRANCH  22  23
ATOM     23  C   UNL     1      43.485  69.547  24.006  1.00  0.00     0.000 C 
BRANCH  23  24
ATOM     24  C   UNL     1      43.495  70.492  25.223  1.00  0.00    -0.000 C 
BRANCH  24  25
ATOM     25  C   UNL     1      43.949  71.915  24.855  1.00  0.00    -0.000 C 
BRANCH  25  26
ATOM     26  C   UNL     1      42.783  72.827  24.432  1.00  0.00    -0.000 C 
BRANCH  26  27
ATOM     27  C   UNL     1      42.055  73.526  25.595  1.00  0.00    -0.000 C 
BRANCH  27  28
ATOM     28  C   UNL     1      40.781  74.258  25.150  1.00  0.00    -0.000 C 
BRANCH  28  29
ATOM     29  C   UNL     1      40.427  73.911  23.696  1.00  0.00    -0.000 C 
BRANCH  29  30
ATOM     30  C   UNL     1      39.257  74.750  23.151  1.00  0.00    -0.000 C 
BRANCH  30  31
ATOM     31  C   UNL     1      38.017  73.935  22.741  1.00  0.00    -0.003 C 
ATOM     32  C   UNL     1      37.041  74.726  21.870  1.00  0.00     0.004 C 
ENDBRANCH  30  31
ENDBRANCH  29  30
ENDBRANCH  28  29
ENDBRANCH  27  28
ENDBRANCH  26  27
ENDBRANCH  25  26
ENDBRANCH  24  25
ENDBRANCH  23  24
ENDBRANCH  22  23
ENDBRANCH  21  22
ENDBRANCH  20  21
ENDBRANCH  19  20
ENDBRANCH  18  19
ENDBRANCH   1  18
TORSDOF 28
ENDMDL
MODEL 4
REMARK VINA RESULT:    -2.541      4.058      9.982
REMARK INTER + INTRA:          -7.638
REMARK INTER:                  -5.726
REMARK INTRA:                  -1.912
REMARK UNBOUND:                -0.938
REMARK SMILES CCCCCCCCCCCCCCCCCCCCCCCCCCCCCC(=O)[O-]
REMARK SMILES IDX 16 1 17 2 18 3 19 4 20 5 21 6 22 7 23 8 24 9 25 10 26 11
REMARK SMILES IDX 27 12 28 13 29 14 30 15 31 16 32 17 15 18 14 19 13 20 12 21
REMARK SMILES IDX 11 22 10 23 9 24 8 25 7 26 6 27 5 28 4 29 3 30 2 31 1 32
REMARK H PARENT
REMARK Flexibility Score: inf
ROOT
ATOM      1  C   UNL     1      40.327  66.256  21.697  1.00  0.00     0.000 C 
ENDROOT
BRANCH   1   2
ATOM      2  C   UNL     1      40.593  64.833  22.220  1.00  0.00     0.000 C 
BRANCH   2   3
ATOM      3  C   UNL     1      41.693  64.795  23.293  1.00  0.00     0.000 C 
BRANCH   3   4
ATOM      4  C   UNL     1      41.489  63.658  24.308  1.00  0.00     0.000 C 
BRANCH   4   5
ATOM      5  C   UNL     1      42.099  63.978  25.683  1.00  0.00     0.000 C 
BRANCH   5   6
ATOM      6  C   UNL     1      42.292  62.724  26.552  1.00  0.00     0.000 C 
BRANCH   6   7
ATOM      7  C   UNL     1      43.110  61.635  25.838  1.00  0.00     0.000 C 
BRANCH   7   8
ATOM      8  C   UNL     1      44.545  61.519  26.382  1.00  0.00     0.000 C 
BRANCH   8   9
ATOM      9  C   UNL     1      45.515  62.485  25.683  1.00  0.00     0.000 C 
BRANCH   9  10
ATOM     10  C   UNL     1      46.536  63.094  26.657  1.00  0.00     0.000 C 
BRANCH  10  11
ATOM     11  C   UNL     1      47.765  63.621  25.906  1.00  0.00     0.000 C 
BRANCH  11  12
ATOM     12  C   UNL     1      47.547  63.560  24.386  1.00  0.00     0.000 C 
BRANCH  12  13
ATOM     13  C   UNL     1      48.812  63.932  23.596  1.00  0.00     0.006 C 
BRANCH  13  14
ATOM     14  C   UNL     1      48.672  65.266  22.853  1.00  0.00     0.053 C 
BRANCH  14  15
ATOM     15  C   UNL     1      49.902  65.549  22.051  1.00  0.00     0.041 C 
ATOM     16  O   UNL     1      50.382  64.664  21.293  1.00  0.00    -0.550 OA
ATOM     17  O   UNL     1      50.475  66.813  22.082  1.00  0.00    -0.550 OA
ENDBRANCH  14  15
ENDBRANCH  13  14
ENDBRANCH  12  13
ENDBRANCH  11  12
ENDBRANCH  10  11
ENDBRANCH   9  10
ENDBRANCH   8   9
ENDBRANCH   7   8
ENDBRANCH   6   7
ENDBRANCH   5   6
ENDBRANCH   4   5
ENDBRANCH   3   4
ENDBRANCH   2   3
ENDBRANCH   1   2
BRANCH   1  18
ATOM     18  C   UNL     1      41.521  67.198  21.924  1.00  0.00     0.000 C 
BRANCH  18  19
ATOM     19  C   UNL     1      41.296  68.159  23.106  1.00  0.00     0.000 C 
BRANCH  19  20
ATOM     20  C   UNL     1      42.312  67.964  24.248  1.00  0.00     0.000 C 
BRANCH  20  21
ATOM     21  C   UNL     1      41.732  68.037  25.677  1.00  0.00     0.000 C 
BRANCH  21  22
ATOM     22  C   UNL     1      40.708  66.933  26.019  1.00  0.00     0.000 C 
BRANCH  22  23
ATOM     23  C   UNL     1      39.523  66.839  25.037  1.00  0.00     0.000 C 
BRANCH  23  24
ATOM     24  C   UNL     1      38.155  67.148  25.676  1.00  0.00    -0.000 C 
BRANCH  24  25
ATOM     25  C   UNL     1      37.194  67.841  24.694  1.00  0.00    -0.000 C 
BRANCH  25  26
ATOM     26  C   UNL     1      35.713  67.634  25.056  1.00  0.00    -0.000 C 
BRANCH  26  27
ATOM     27  C   UNL     1      35.415  67.599  26.566  1.00  0.00    -0.000 C 
BRANCH  27  28
ATOM     28  C   UNL     1      34.628  66.351  26.993  1.00  0.00    -0.000 C 
BRANCH  28  29
ATOM     29  C   UNL     1      34.576  65.319  25.856  1.00  0.00    -0.000 C 
BRANCH  29  30
ATOM     30  C   UNL     1      34.896  63.891  26.332  1.00  0.00    -0.000 C 
BRANCH  30  31
ATOM     31  C   UNL     1      34.983  63.726  27.860  1.00  0.00    -0.003 C 
ATOM     32  C   UNL     1      34.093  62.602  28.393  1.00  0.00     0.004 C 
ENDBRANCH  30  31
ENDBRANCH  29  30
ENDBRANCH  28  29
ENDBRANCH  27  28
ENDBRANCH  26  27
ENDBRANCH  25  26
ENDBRANCH  24  25
ENDBRANCH  23  24
ENDBRANCH  22  23
ENDBRANCH  21  22
ENDBRANCH  20  21
ENDBRANCH  19  20
ENDBRANCH  18  19
ENDBRANCH   1  18
TORSDOF 28
ENDMDL
MODEL 5
REMARK VINA RESULT:    -2.366      4.784      9.920
REMARK INTER + INTRA:          -7.178
REMARK INTER:                  -6.880
REMARK INTRA:                  -0.297
REMARK UNBOUND:                -0.938
REMARK SMILES CCCCCCCCCCCCCCCCCCCCCCCCCCCCCC(=O)[O-]
REMARK SMILES IDX 16 1 17 2 18 3 19 4 20 5 21 6 22 7 23 8 24 9 25 10 26 11
REMARK SMILES IDX 27 12 28 13 29 14 30 15 31 16 32 17 15 18 14 19 13 20 12 21
REMARK SMILES IDX 11 22 10 23 9 24 8 25 7 26 6 27 5 28 4 29 3 30 2 31 1 32
REMARK H PARENT
REMARK Flexibility Score: inf
ROOT
ATOM      1  C   UNL     1      41.800  65.159  23.345  1.00  0.00     0.000 C 
ENDROOT
BRANCH   1   2
ATOM      2  C   UNL     1      41.400  63.743  23.796  1.00  0.00     0.000 C 
BRANCH   2   3
ATOM      3  C   UNL     1      42.001  63.367  25.161  1.00  0.00     0.000 C 
BRANCH   3   4
ATOM      4  C   UNL     1      41.904  64.510  26.184  1.00  0.00     0.000 C 
BRANCH   4   5
ATOM      5  C   UNL     1      41.482  65.843  25.541  1.00  0.00     0.000 C 
BRANCH   5   6
ATOM      6  C   UNL     1      40.840  66.810  26.551  1.00  0.00     0.000 C 
BRANCH   6   7
ATOM      7  C   UNL     1      39.364  67.095  26.233  1.00  0.00     0.000 C 
BRANCH   7   8
ATOM      8  C   UNL     1      39.021  66.865  24.750  1.00  0.00     0.000 C 
BRANCH   8   9
ATOM      9  C   UNL     1      37.642  67.429  24.374  1.00  0.00     0.000 C 
BRANCH   9  10
ATOM     10  C   UNL     1      36.808  67.807  25.609  1.00  0.00     0.000 C 
BRANCH  10  11
ATOM     11  C   UNL     1      35.348  67.366  25.442  1.00  0.00     0.000 C 
BRANCH  11  12
ATOM     12  C   UNL     1      34.952  66.359  26.533  1.00  0.00     0.000 C 
BRANCH  12  13
ATOM     13  C   UNL     1      34.234  65.125  25.960  1.00  0.00     0.006 C 
BRANCH  13  14
ATOM     14  C   UNL     1      34.962  63.815  26.287  1.00  0.00     0.053 C 
BRANCH  14  15
ATOM     15  C   UNL     1      34.733  63.433  27.715  1.00  0.00     0.041 C 
ATOM     16  O   UNL     1      35.321  64.057  28.640  1.00  0.00    -0.550 OA
ATOM     17  O   UNL     1      33.817  62.440  28.029  1.00  0.00    -0.550 OA
ENDBRANCH  14  15
ENDBRANCH  13  14
ENDBRANCH  12  13
ENDBRANCH  11  12
ENDBRANCH  10  11
ENDBRANCH   9  10
ENDBRANCH   8   9
ENDBRANCH   7   8
ENDBRANCH   6   7
ENDBRANCH   5   6
ENDBRANCH   4   5
ENDBRANCH   3   4
ENDBRANCH   2   3
ENDBRANCH   1   2
BRANCH   1  18
ATOM     18  C   UNL     1      40.999  65.635  22.121  1.00  0.00     0.000 C 
BRANCH  18  19
ATOM     19  C   UNL     1      41.262  67.114  21.784  1.00  0.00     0.000 C 
BRANCH  19  20
ATOM     20  C   UNL     1      41.367  68.011  23.033  1.00  0.00     0.000 C 
BRANCH  20  21
ATOM     21  C   UNL     1      42.799  68.403  23.454  1.00  0.00     0.000 C 
BRANCH  21  22
ATOM     22  C   UNL     1      42.881  69.551  24.484  1.00  0.00     0.000 C 
BRANCH  22  23
ATOM     23  C   UNL     1      44.015  70.562  24.220  1.00  0.00     0.000 C 
BRANCH  23  24
ATOM     24  C   UNL     1      43.866  71.885  24.994  1.00  0.00    -0.000 C 
BRANCH  24  25
ATOM     25  C   UNL     1      42.744  72.772  24.426  1.00  0.00    -0.000 C 
BRANCH  25  26
ATOM     26  C   UNL     1      41.972  73.536  25.517  1.00  0.00    -0.000 C 
BRANCH  26  27
ATOM     27  C   UNL     1      40.724  74.288  25.019  1.00  0.00    -0.000 C 
BRANCH  27  28
ATOM     28  C   UNL     1      40.368  73.959  23.562  1.00  0.00    -0.000 C 
BRANCH  28  29
ATOM     29  C   UNL     1      39.178  74.804  23.082  1.00  0.00    -0.000 C 
BRANCH  29  30
ATOM     30  C   UNL     1      37.961  73.948  22.685  1.00  0.00    -0.000 C 
BRANCH  30  31
ATOM     31  C   UNL     1      36.890  74.693  21.867  1.00  0.00    -0.003 C 
ATOM     32  C   UNL     1      37.402  75.998  21.258  1.00  0.00     0.004 C 
ENDBRANCH  30  31
ENDBRANCH  29  30
ENDBRANCH  28  29
ENDBRANCH  27  28
ENDBRANCH  26  27
ENDBRANCH  25  26
ENDBRANCH  24  25
ENDBRANCH  23  24
ENDBRANCH  22  23
ENDBRANCH  21  22
ENDBRANCH  20  21
ENDBRANCH  19  20
ENDBRANCH  18  19
ENDBRANCH   1  18
TORSDOF 28
ENDMDL
MODEL 6
REMARK VINA RESULT:    -2.021      2.677      5.665
REMARK INTER + INTRA:          -6.266
REMARK INTER:                  -4.299
REMARK INTRA:                  -1.967
REMARK UNBOUND:                -0.938
REMARK SMILES CCCCCCCCCCCCCCCCCCCCCCCCCCCCCC(=O)[O-]
REMARK SMILES IDX 16 1 17 2 18 3 19 4 20 5 21 6 22 7 23 8 24 9 25 10 26 11
REMARK SMILES IDX 27 12 28 13 29 14 30 15 31 16 32 17 15 18 14 19 13 20 12 21
REMARK SMILES IDX 11 22 10 23 9 24 8 25 7 26 6 27 5 28 4 29 3 30 2 31 1 32
REMARK H PARENT
REMARK Flexibility Score: inf
ROOT
ATOM      1  C   UNL     1      40.977  67.101  26.518  1.00  0.00     0.000 C 
ENDROOT
BRANCH   1   2
ATOM      2  C   UNL     1      41.760  68.248  25.855  1.00  0.00     0.000 C 
BRANCH   2   3
ATOM      3  C   UNL     1      42.096  67.959  24.382  1.00  0.00     0.000 C 
BRANCH   3   4
ATOM      4  C   UNL     1      43.051  69.002  23.779  1.00  0.00     0.000 C 
BRANCH   4   5
ATOM      5  C   UNL     1      43.832  69.778  24.853  1.00  0.00     0.000 C 
BRANCH   5   6
ATOM      6  C   UNL     1      44.414  71.100  24.323  1.00  0.00     0.000 C 
BRANCH   6   7
ATOM      7  C   UNL     1      44.170  72.275  25.283  1.00  0.00     0.000 C 
BRANCH   7   8
ATOM      8  C   UNL     1      42.943  73.117  24.891  1.00  0.00     0.000 C 
BRANCH   8   9
ATOM      9  C   UNL     1      41.930  73.246  26.040  1.00  0.00     0.000 C 
BRANCH   9  10
ATOM     10  C   UNL     1      40.816  74.257  25.727  1.00  0.00     0.000 C 
BRANCH  10  11
ATOM     11  C   UNL     1      40.817  74.632  24.239  1.00  0.00     0.000 C 
BRANCH  11  12
ATOM     12  C   UNL     1      39.652  73.952  23.503  1.00  0.00     0.000 C 
BRANCH  12  13
ATOM     13  C   UNL     1      38.770  74.958  22.744  1.00  0.00     0.006 C 
BRANCH  13  14
ATOM     14  C   UNL     1      37.564  74.293  22.069  1.00  0.00     0.053 C 
BRANCH  14  15
ATOM     15  C   UNL     1      36.712  75.320  21.394  1.00  0.00     0.041 C 
ATOM     16  O   UNL     1      37.218  76.108  20.550  1.00  0.00    -0.550 OA
ATOM     17  O   UNL     1      35.347  75.359  21.639  1.00  0.00    -0.550 OA
ENDBRANCH  14  15
ENDBRANCH  13  14
ENDBRANCH  12  13
ENDBRANCH  11  12
ENDBRANCH  10  11
ENDBRANCH   9  10
ENDBRANCH   8   9
ENDBRANCH   7   8
ENDBRANCH   6   7
ENDBRANCH   5   6
ENDBRANCH   4   5
ENDBRANCH   3   4
ENDBRANCH   2   3
ENDBRANCH   1   2
BRANCH   1  18
ATOM     18  C   UNL     1      39.954  66.460  25.565  1.00  0.00     0.000 C 
BRANCH  18  19
ATOM     19  C   UNL     1      38.700  67.333  25.374  1.00  0.00     0.000 C 
BRANCH  19  20
ATOM     20  C   UNL     1      38.296  67.499  23.897  1.00  0.00     0.000 C 
BRANCH  20  21
ATOM     21  C   UNL     1      38.972  66.527  22.907  1.00  0.00     0.000 C 
BRANCH  21  22
ATOM     22  C   UNL     1      40.134  67.134  22.092  1.00  0.00     0.000 C 
BRANCH  22  23
ATOM     23  C   UNL     1      41.313  66.169  21.849  1.00  0.00     0.000 C 
BRANCH  23  24
ATOM     24  C   UNL     1      41.152  64.800  22.537  1.00  0.00    -0.000 C 
BRANCH  24  25
ATOM     25  C   UNL     1      41.904  64.728  23.877  1.00  0.00    -0.000 C 
BRANCH  25  26
ATOM     26  C   UNL     1      41.703  63.387  24.607  1.00  0.00    -0.000 C 
BRANCH  26  27
ATOM     27  C   UNL     1      42.518  63.228  25.903  1.00  0.00    -0.000 C 
BRANCH  27  28
ATOM     28  C   UNL     1      43.140  61.831  26.052  1.00  0.00    -0.000 C 
BRANCH  28  29
ATOM     29  C   UNL     1      44.621  61.928  26.448  1.00  0.00    -0.000 C 
BRANCH  29  30
ATOM     30  C   UNL     1      45.539  62.238  25.252  1.00  0.00    -0.000 C 
BRANCH  30  31
ATOM     31  C   UNL     1      46.820  63.015  25.608  1.00  0.00    -0.003 C 
ATOM     32  C   UNL     1      46.882  63.425  27.080  1.00  0.00     0.004 C 
ENDBRANCH  30  31
ENDBRANCH  29  30
ENDBRANCH  28  29
ENDBRANCH  27  28
ENDBRANCH  26  27
ENDBRANCH  25  26
ENDBRANCH  24  25
ENDBRANCH  23  24
ENDBRANCH  22  23
ENDBRANCH  21  22
ENDBRANCH  20  21
ENDBRANCH  19  20
ENDBRANCH  18  19
ENDBRANCH   1  18
TORSDOF 28
ENDMDL
MODEL 7
REMARK VINA RESULT:    -1.886      4.768      9.043
REMARK INTER + INTRA:          -5.912
REMARK INTER:                  -5.555
REMARK INTRA:                  -0.357
REMARK UNBOUND:                -0.938
REMARK SMILES CCCCCCCCCCCCCCCCCCCCCCCCCCCCCC(=O)[O-]
REMARK SMILES IDX 16 1 17 2 18 3 19 4 20 5 21 6 22 7 23 8 24 9 25 10 26 11
REMARK SMILES IDX 27 12 28 13 29 14 30 15 31 16 32 17 15 18 14 19 13 20 12 21
REMARK SMILES IDX 11 22 10 23 9 24 8 25 7 26 6 27 5 28 4 29 3 30 2 31 1 32
REMARK H PARENT
REMARK Flexibility Score: inf
ROOT
ATOM      1  C   UNL     1      41.356  63.408  23.893  1.00  0.00     0.000 C 
ENDROOT
BRANCH   1   2
ATOM      2  C   UNL     1      42.285  63.378  25.120  1.00  0.00     0.000 C 
BRANCH   2   3
ATOM      3  C   UNL     1      42.024  64.545  26.086  1.00  0.00     0.000 C 
BRANCH   3   4
ATOM      4  C   UNL     1      41.398  65.762  25.386  1.00  0.00     0.000 C 
BRANCH   4   5
ATOM      5  C   UNL     1      40.822  66.783  26.382  1.00  0.00     0.000 C 
BRANCH   5   6
ATOM      6  C   UNL     1      39.365  67.162  26.065  1.00  0.00     0.000 C 
BRANCH   6   7
ATOM      7  C   UNL     1      38.985  66.862  24.606  1.00  0.00     0.000 C 
BRANCH   7   8
ATOM      8  C   UNL     1      37.564  67.338  24.253  1.00  0.00     0.000 C 
BRANCH   8   9
ATOM      9  C   UNL     1      36.841  67.963  25.456  1.00  0.00     0.000 C 
BRANCH   9  10
ATOM     10  C   UNL     1      35.311  67.885  25.324  1.00  0.00     0.000 C 
BRANCH  10  11
ATOM     11  C   UNL     1      34.686  67.217  26.555  1.00  0.00     0.000 C 
BRANCH  11  12
ATOM     12  C   UNL     1      35.290  65.823  26.787  1.00  0.00     0.000 C 
BRANCH  12  13
ATOM     13  C   UNL     1      34.538  64.722  26.020  1.00  0.00     0.006 C 
BRANCH  13  14
ATOM     14  C   UNL     1      34.877  63.315  26.526  1.00  0.00     0.053 C 
BRANCH  14  15
ATOM     15  C   UNL     1      34.559  63.193  27.982  1.00  0.00     0.041 C 
ATOM     16  O   UNL     1      35.018  64.033  28.803  1.00  0.00    -0.550 OA
ATOM     17  O   UNL     1      33.698  62.198  28.424  1.00  0.00    -0.550 OA
ENDBRANCH  14  15
ENDBRANCH  13  14
ENDBRANCH  12  13
ENDBRANCH  11  12
ENDBRANCH  10  11
ENDBRANCH   9  10
ENDBRANCH   8   9
ENDBRANCH   7   8
ENDBRANCH   6   7
ENDBRANCH   5   6
ENDBRANCH   4   5
ENDBRANCH   3   4
ENDBRANCH   2   3
ENDBRANCH   1   2
BRANCH   1  18
ATOM     18  C   UNL     1      41.401  64.757  23.155  1.00  0.00     0.000 C 
BRANCH  18  19
ATOM     19  C   UNL     1      40.356  64.847  22.029  1.00  0.00     0.000 C 
BRANCH  19  20
ATOM     20  C   UNL     1      40.434  66.164  21.232  1.00  0.00     0.000 C 
BRANCH  20  21
ATOM     21  C   UNL     1      41.622  67.085  21.581  1.00  0.00     0.000 C 
BRANCH  21  22
ATOM     22  C   UNL     1      41.430  67.940  22.852  1.00  0.00     0.000 C 
BRANCH  22  23
ATOM     23  C   UNL     1      42.743  68.462  23.471  1.00  0.00     0.000 C 
BRANCH  23  24
ATOM     24  C   UNL     1      42.588  68.991  24.910  1.00  0.00    -0.000 C 
BRANCH  24  25
ATOM     25  C   UNL     1      43.794  69.837  25.354  1.00  0.00    -0.000 C 
BRANCH  25  26
ATOM     26  C   UNL     1      44.316  70.768  24.245  1.00  0.00    -0.000 C 
BRANCH  26  27
ATOM     27  C   UNL     1      44.333  72.264  24.610  1.00  0.00    -0.000 C 
BRANCH  27  28
ATOM     28  C   UNL     1      42.988  72.761  25.159  1.00  0.00    -0.000 C 
BRANCH  28  29
ATOM     29  C   UNL     1      42.187  73.494  24.072  1.00  0.00    -0.000 C 
BRANCH  29  30
ATOM     30  C   UNL     1      40.937  74.201  24.627  1.00  0.00    -0.000 C 
BRANCH  30  31
ATOM     31  C   UNL     1      40.862  74.263  26.164  1.00  0.00    -0.003 C 
ATOM     32  C   UNL     1      40.865  75.692  26.706  1.00  0.00     0.004 C 
ENDBRANCH  30  31
ENDBRANCH  29  30
ENDBRANCH  28  29
ENDBRANCH  27  28
ENDBRANCH  26  27
ENDBRANCH  25  26
ENDBRANCH  24  25
ENDBRANCH  23  24
ENDBRANCH  22  23
ENDBRANCH  21  22
ENDBRANCH  20  21
ENDBRANCH  19  20
ENDBRANCH  18  19
ENDBRANCH   1  18
TORSDOF 28
ENDMDL
MODEL 8
REMARK VINA RESULT:    -1.874      4.307     10.305
REMARK INTER + INTRA:          -5.878
REMARK INTER:                  -5.269
REMARK INTRA:                  -0.609
REMARK UNBOUND:                -0.938
REMARK SMILES CCCCCCCCCCCCCCCCCCCCCCCCCCCCCC(=O)[O-]
REMARK SMILES IDX 16 1 17 2 18 3 19 4 20 5 21 6 22 7 23 8 24 9 25 10 26 11
REMARK SMILES IDX 27 12 28 13 29 14 30 15 31 16 32 17 15 18 14 19 13 20 12 21
REMARK SMILES IDX 11 22 10 23 9 24 8 25 7 26 6 27 5 28 4 29 3 30 2 31 1 32
REMARK H PARENT
REMARK Flexibility Score: inf
ROOT
ATOM      1  C   UNL     1      43.215  68.307  23.134  1.00  0.00     0.000 C 
ENDROOT
BRANCH   1   2
ATOM      2  C   UNL     1      43.202  69.363  24.254  1.00  0.00     0.000 C 
BRANCH   2   3
ATOM      3  C   UNL     1      42.361  68.927  25.465  1.00  0.00     0.000 C 
BRANCH   3   4
ATOM      4  C   UNL     1      41.386  67.787  25.128  1.00  0.00     0.000 C 
BRANCH   4   5
ATOM      5  C   UNL     1      41.031  66.932  26.356  1.00  0.00     0.000 C 
BRANCH   5   6
ATOM      6  C   UNL     1      41.614  65.510  26.277  1.00  0.00     0.000 C 
BRANCH   6   7
ATOM      7  C   UNL     1      41.604  64.951  24.845  1.00  0.00     0.000 C 
BRANCH   7   8
ATOM      8  C   UNL     1      41.953  63.452  24.791  1.00  0.00     0.000 C 
BRANCH   8   9
ATOM      9  C   UNL     1      42.324  62.888  26.172  1.00  0.00     0.000 C 
BRANCH   9  10
ATOM     10  C   UNL     1      42.918  61.474  26.086  1.00  0.00     0.000 C 
BRANCH  10  11
ATOM     11  C   UNL     1      44.447  61.511  26.207  1.00  0.00     0.000 C 
BRANCH  11  12
ATOM     12  C   UNL     1      45.083  62.082  24.930  1.00  0.00     0.000 C 
BRANCH  12  13
ATOM     13  C   UNL     1      46.620  62.094  24.994  1.00  0.00     0.006 C 
BRANCH  13  14
ATOM     14  C   UNL     1      47.178  63.428  25.505  1.00  0.00     0.053 C 
BRANCH  14  15
ATOM     15  C   UNL     1      47.508  63.333  26.961  1.00  0.00     0.041 C 
ATOM     16  O   UNL     1      46.599  63.456  27.826  1.00  0.00    -0.550 OA
ATOM     17  O   UNL     1      48.802  63.035  27.361  1.00  0.00    -0.550 OA
ENDBRANCH  14  15
ENDBRANCH  13  14
ENDBRANCH  12  13
ENDBRANCH  11  12
ENDBRANCH  10  11
ENDBRANCH   9  10
ENDBRANCH   8   9
ENDBRANCH   7   8
ENDBRANCH   6   7
ENDBRANCH   5   6
ENDBRANCH   4   5
ENDBRANCH   3   4
ENDBRANCH   2   3
ENDBRANCH   1   2
BRANCH   1  18
ATOM     18  C   UNL     1      41.801  67.835  22.755  1.00  0.00     0.000 C 
BRANCH  18  19
ATOM     19  C   UNL     1      41.819  66.682  21.735  1.00  0.00     0.000 C 
BRANCH  19  20
ATOM     20  C   UNL     1      40.479  65.928  21.648  1.00  0.00     0.000 C 
BRANCH  20  21
ATOM     21  C   UNL     1      39.240  66.709  22.136  1.00  0.00     0.000 C 
BRANCH  21  22
ATOM     22  C   UNL     1      38.952  66.591  23.648  1.00  0.00     0.000 C 
BRANCH  22  23
ATOM     23  C   UNL     1      37.955  67.636  24.189  1.00  0.00     0.000 C 
BRANCH  23  24
ATOM     24  C   UNL     1      37.290  67.237  25.520  1.00  0.00    -0.000 C 
BRANCH  24  25
ATOM     25  C   UNL     1      35.874  67.820  25.664  1.00  0.00    -0.000 C 
BRANCH  25  26
ATOM     26  C   UNL     1      34.905  66.870  26.392  1.00  0.00    -0.000 C 
BRANCH  26  27
ATOM     27  C   UNL     1      34.278  65.780  25.503  1.00  0.00    -0.000 C 
BRANCH  27  28
ATOM     28  C   UNL     1      34.684  64.359  25.922  1.00  0.00    -0.000 C 
BRANCH  28  29
ATOM     29  C   UNL     1      35.005  64.299  27.423  1.00  0.00    -0.000 C 
BRANCH  29  30
ATOM     30  C   UNL     1      34.879  62.879  28.003  1.00  0.00    -0.000 C 
BRANCH  30  31
ATOM     31  C   UNL     1      33.691  62.680  28.963  1.00  0.00    -0.003 C 
ATOM     32  C   UNL     1      32.808  61.491  28.585  1.00  0.00     0.004 C 
ENDBRANCH  30  31
ENDBRANCH  29  30
ENDBRANCH  28  29
ENDBRANCH  27  28
ENDBRANCH  26  27
ENDBRANCH  25  26
ENDBRANCH  24  25
ENDBRANCH  23  24
ENDBRANCH  22  23
ENDBRANCH  21  22
ENDBRANCH  20  21
ENDBRANCH  19  20
ENDBRANCH  18  19
ENDBRANCH   1  18
TORSDOF 28
ENDMDL
MODEL 9
REMARK VINA RESULT:    -1.689      3.833      8.803
REMARK INTER + INTRA:          -5.391
REMARK INTER:                  -3.342
REMARK INTRA:                  -2.049
REMARK UNBOUND:                -0.938
REMARK SMILES CCCCCCCCCCCCCCCCCCCCCCCCCCCCCC(=O)[O-]
REMARK SMILES IDX 16 1 17 2 18 3 19 4 20 5 21 6 22 7 23 8 24 9 25 10 26 11
REMARK SMILES IDX 27 12 28 13 29 14 30 15 31 16 32 17 15 18 14 19 13 20 12 21
REMARK SMILES IDX 11 22 10 23 9 24 8 25 7 26 6 27 5 28 4 29 3 30 2 31 1 32
REMARK H PARENT
REMARK Flexibility Score: inf
ROOT
ATOM      1  C   UNL     1      41.726  64.356  25.593  1.00  0.00     0.000 C 
ENDROOT
BRANCH   1   2
ATOM      2  C   UNL     1      41.388  63.868  24.173  1.00  0.00     0.000 C 
BRANCH   2   3
ATOM      3  C   UNL     1      41.739  64.907  23.094  1.00  0.00     0.000 C 
BRANCH   3   4
ATOM      4  C   UNL     1      40.544  65.241  22.186  1.00  0.00     0.000 C 
BRANCH   4   5
ATOM      5  C   UNL     1      40.470  66.737  21.835  1.00  0.00     0.000 C 
BRANCH   5   6
ATOM      6  C   UNL     1      41.800  67.469  22.079  1.00  0.00     0.000 C 
BRANCH   6   7
ATOM      7  C   UNL     1      41.818  68.222  23.419  1.00  0.00     0.000 C 
BRANCH   7   8
ATOM      8  C   UNL     1      43.227  68.704  23.810  1.00  0.00     0.000 C 
BRANCH   8   9
ATOM      9  C   UNL     1      43.191  69.816  24.871  1.00  0.00     0.000 C 
BRANCH   9  10
ATOM     10  C   UNL     1      44.403  70.757  24.773  1.00  0.00     0.000 C 
BRANCH  10  11
ATOM     11  C   UNL     1      43.959  72.225  24.746  1.00  0.00     0.000 C 
BRANCH  11  12
ATOM     12  C   UNL     1      42.520  72.352  24.221  1.00  0.00     0.000 C 
BRANCH  12  13
ATOM     13  C   UNL     1      42.107  73.816  23.992  1.00  0.00     0.006 C 
BRANCH  13  14
ATOM     14  C   UNL     1      40.793  74.174  24.696  1.00  0.00     0.053 C 
BRANCH  14  15
ATOM     15  C   UNL     1      41.040  74.477  26.140  1.00  0.00     0.041 C 
ATOM     16  O   UNL     1      41.409  73.563  26.926  1.00  0.00    -0.550 OA
ATOM     17  O   UNL     1      40.936  75.781  26.603  1.00  0.00    -0.550 OA
ENDBRANCH  14  15
ENDBRANCH  13  14
ENDBRANCH  12  13
ENDBRANCH  11  12
ENDBRANCH  10  11
ENDBRANCH   9  10
ENDBRANCH   8   9
ENDBRANCH   7   8
ENDBRANCH   6   7
ENDBRANCH   5   6
ENDBRANCH   4   5
ENDBRANCH   3   4
ENDBRANCH   2   3
ENDBRANCH   1   2
BRANCH   1  18
ATOM     18  C   UNL     1      41.844  65.887  25.677  1.00  0.00     0.000 C 
BRANCH  18  19
ATOM     19  C   UNL     1      40.662  66.529  26.425  1.00  0.00     0.000 C 
BRANCH  19  20
ATOM     20  C   UNL     1      39.817  67.462  25.536  1.00  0.00     0.000 C 
BRANCH  20  21
ATOM     21  C   UNL     1      38.799  66.762  24.611  1.00  0.00     0.000 C 
BRANCH  21  22
ATOM     22  C   UNL     1      37.384  67.381  24.616  1.00  0.00     0.000 C 
BRANCH  22  23
ATOM     23  C   UNL     1      36.928  67.912  25.990  1.00  0.00     0.000 C 
BRANCH  23  24
ATOM     24  C   UNL     1      35.404  68.103  26.113  1.00  0.00    -0.000 C 
BRANCH  24  25
ATOM     25  C   UNL     1      34.620  66.875  25.619  1.00  0.00    -0.000 C 
BRANCH  25  26
ATOM     26  C   UNL     1      34.835  65.631  26.500  1.00  0.00    -0.000 C 
BRANCH  26  27
ATOM     27  C   UNL     1      34.616  64.286  25.785  1.00  0.00    -0.000 C 
BRANCH  27  28
ATOM     28  C   UNL     1      34.794  63.077  26.715  1.00  0.00    -0.000 C 
BRANCH  28  29
ATOM     29  C   UNL     1      34.791  63.512  28.188  1.00  0.00    -0.000 C 
BRANCH  29  30
ATOM     30  C   UNL     1      33.643  62.878  28.995  1.00  0.00    -0.000 C 
BRANCH  30  31
ATOM     31  C   UNL     1      33.505  61.353  28.829  1.00  0.00    -0.003 C 
ATOM     32  C   UNL     1      32.084  60.916  28.473  1.00  0.00     0.004 C 
ENDBRANCH  30  31
ENDBRANCH  29  30
ENDBRANCH  28  29
ENDBRANCH  27  28
ENDBRANCH  26  27
ENDBRANCH  25  26
ENDBRANCH  24  25
ENDBRANCH  23  24
ENDBRANCH  22  23
ENDBRANCH  21  22
ENDBRANCH  20  21
ENDBRANCH  19  20
ENDBRANCH  18  19
ENDBRANCH   1  18
TORSDOF 28
ENDMDL
