MODEL 1
REMARK VINA RESULT:    -3.126      0.000      0.000
REMARK INTER + INTRA:          -3.499
REMARK INTER:                  -3.492
REMARK INTRA:                  -0.007
REMARK UNBOUND:                -0.007
REMARK SMILES CCCC(=O)[O-]
REMARK SMILES IDX 3 1 4 2 5 3 6 4 2 5 1 6
REMARK H PARENT
REMARK Flexibility Score: inf
ROOT
ATOM      1  C   UNL     1      61.297  27.491  27.021  1.00  0.00     0.052 C 
ENDROOT
BRANCH   1   2
ATOM      2  C   UNL     1      61.366  28.735  27.852  1.00  0.00     0.041 C 
ATOM      3  O   UNL     1      62.095  29.697  27.494  1.00  0.00    -0.550 OA
ATOM      4  O   UNL     1      60.652  28.818  29.042  1.00  0.00    -0.550 OA
ENDBRANCH   1   2
BRANCH   1   5
ATOM      5  C   UNL     1      60.723  27.769  25.627  1.00  0.00     0.003 C 
ATOM      6  C   UNL     1      59.636  26.769  25.234  1.00  0.00     0.004 C 
ENDBRANCH   1   5
TORSDOF 2
ENDMDL
MODEL 2
REMARK VINA RESULT:    -3.108      0.135      1.324
REMARK INTER + INTRA:          -3.479
REMARK INTER:                  -3.469
REMARK INTRA:                  -0.010
REMARK UNBOUND:                -0.007
REMARK SMILES CCCC(=O)[O-]
REMARK SMILES IDX 3 1 4 2 5 3 6 4 2 5 1 6
REMARK H PARENT
REMARK Flexibility Score: inf
ROOT
ATOM      1  C   UNL     1      61.385  27.587  26.998  1.00  0.00     0.052 C 
ENDROOT
BRANCH   1   2
ATOM      2  C   UNL     1      61.374  28.785  27.897  1.00  0.00     0.041 C 
ATOM      3  O   UNL     1      60.637  28.804  28.918  1.00  0.00    -0.550 OA
ATOM      4  O   UNL     1      62.151  29.895  27.588  1.00  0.00    -0.550 OA
ENDBRANCH   1   2
BRANCH   1   5
ATOM      5  C   UNL     1      60.726  27.884  25.646  1.00  0.00     0.003 C 
ATOM      6  C   UNL     1      59.695  26.826  25.256  1.00  0.00     0.004 C 
ENDBRANCH   1   5
TORSDOF 2
ENDMDL
MODEL 3
REMARK VINA RESULT:    -3.035      1.819      2.362
REMARK INTER + INTRA:          -3.397
REMARK INTER:                  -3.339
REMARK INTRA:                  -0.058
REMARK UNBOUND:                -0.007
REMARK SMILES CCCC(=O)[O-]
REMARK SMILES IDX 3 1 4 2 5 3 6 4 2 5 1 6
REMARK H PARENT
REMARK Flexibility Score: inf
ROOT
ATOM      1  C   UNL     1      60.624  27.866  25.455  1.00  0.00     0.052 C 
ENDROOT
BRANCH   1   2
ATOM      2  C   UNL     1      61.311  27.764  26.782  1.00  0.00     0.041 C 
ATOM      3  O   UNL     1      62.133  26.836  27.000  1.00  0.00    -0.550 OA
ATOM      4  O   UNL     1      61.017  28.674  27.791  1.00  0.00    -0.550 OA
ENDBRANCH   1   2
BRANCH   1   5
ATOM      5  C   UNL     1      61.577  28.351  24.357  1.00  0.00     0.003 C 
ATOM      6  C   UNL     1      62.201  29.707  24.683  1.00  0.00     0.004 C 
ENDBRANCH   1   5
TORSDOF 2
ENDMDL
MODEL 4
REMARK VINA RESULT:    -3.033     15.032     16.076
REMARK INTER + INTRA:          -3.395
REMARK INTER:                  -3.357
REMARK INTRA:                  -0.038
REMARK UNBOUND:                -0.007
REMARK SMILES CCCC(=O)[O-]
REMARK SMILES IDX 3 1 4 2 5 3 6 4 2 5 1 6
REMARK H PARENT
REMARK Flexibility Score: inf
ROOT
ATOM      1  C   UNL     1      59.597  29.045  11.729  1.00  0.00     0.052 C 
ENDROOT
BRANCH   1   2
ATOM      2  C   UNL     1      60.143  28.964  10.337  1.00  0.00     0.041 C 
ATOM      3  O   UNL     1      59.639  29.660   9.417  1.00  0.00    -0.550 OA
ATOM      4  O   UNL     1      61.186  28.092  10.047  1.00  0.00    -0.550 OA
ENDBRANCH   1   2
BRANCH   1   5
ATOM      5  C   UNL     1      60.327  28.093  12.683  1.00  0.00     0.003 C 
ATOM      6  C   UNL     1      61.247  28.832  13.654  1.00  0.00     0.004 C 
ENDBRANCH   1   5
TORSDOF 2
ENDMDL
MODEL 5
REMARK VINA RESULT:    -2.990      2.350      3.224
REMARK INTER + INTRA:          -3.347
REMARK INTER:                  -3.332
REMARK INTRA:                  -0.015
REMARK UNBOUND:                -0.007
REMARK SMILES CCCC(=O)[O-]
REMARK SMILES IDX 3 1 4 2 5 3 6 4 2 5 1 6
REMARK H PARENT
REMARK Flexibility Score: inf
ROOT
ATOM      1  C   UNL     1      61.461  27.347  26.807  1.00  0.00     0.052 C 
ENDROOT
BRANCH   1   2
ATOM      2  C   UNL     1      60.631  27.387  25.561  1.00  0.00     0.041 C 
ATOM      3  O   UNL     1      60.903  28.206  24.644  1.00  0.00    -0.550 OA
ATOM      4  O   UNL     1      59.535  26.543  25.426  1.00  0.00    -0.550 OA
ENDBRANCH   1   2
BRANCH   1   5
ATOM      5  C   UNL     1      61.511  28.713  27.502  1.00  0.00     0.003 C 
ATOM      6  C   UNL     1      60.832  28.696  28.870  1.00  0.00     0.004 C 
ENDBRANCH   1   5
TORSDOF 2
ENDMDL
MODEL 6
REMARK VINA RESULT:    -2.981     14.735     15.669
REMARK INTER + INTRA:          -3.337
REMARK INTER:                  -3.322
REMARK INTRA:                  -0.015
REMARK UNBOUND:                -0.007
REMARK SMILES CCCC(=O)[O-]
REMARK SMILES IDX 3 1 4 2 5 3 6 4 2 5 1 6
REMARK H PARENT
REMARK Flexibility Score: inf
ROOT
ATOM      1  C   UNL     1      59.983  29.219  11.199  1.00  0.00     0.052 C 
ENDROOT
BRANCH   1   2
ATOM      2  C   UNL     1      59.665  28.441  12.439  1.00  0.00     0.041 C 
ATOM      3  O   UNL     1      60.549  28.261  13.317  1.00  0.00    -0.550 OA
ATOM      4  O   UNL     1      58.402  27.886  12.608  1.00  0.00    -0.550 OA
ENDBRANCH   1   2
BRANCH   1   5
ATOM      5  C   UNL     1      61.169  28.615  10.437  1.00  0.00     0.003 C 
ATOM      6  C   UNL     1      60.768  28.079   9.064  1.00  0.00     0.004 C 
ENDBRANCH   1   5
TORSDOF 2
ENDMDL
MODEL 7
REMARK VINA RESULT:    -2.911     14.175     15.030
REMARK INTER + INTRA:          -3.258
REMARK INTER:                  -3.189
REMARK INTRA:                  -0.070
REMARK UNBOUND:                -0.007
REMARK SMILES CCCC(=O)[O-]
REMARK SMILES IDX 3 1 4 2 5 3 6 4 2 5 1 6
REMARK H PARENT
REMARK Flexibility Score: inf
ROOT
ATOM      1  C   UNL     1      60.355  28.400  12.766  1.00  0.00     0.052 C 
ENDROOT
BRANCH   1   2
ATOM      2  C   UNL     1      59.873  29.604  12.017  1.00  0.00     0.041 C 
ATOM      3  O   UNL     1      59.555  29.509  10.803  1.00  0.00    -0.550 OA
ATOM      4  O   UNL     1      59.809  30.839  12.650  1.00  0.00    -0.550 OA
ENDBRANCH   1   2
BRANCH   1   5
ATOM      5  C   UNL     1      61.777  28.597  13.304  1.00  0.00     0.003 C 
ATOM      6  C   UNL     1      62.780  28.922  12.197  1.00  0.00     0.004 C 
ENDBRANCH   1   5
TORSDOF 2
ENDMDL
MODEL 8
REMARK VINA RESULT:    -2.901     16.463     17.234
REMARK INTER + INTRA:          -3.248
REMARK INTER:                  -3.229
REMARK INTRA:                  -0.018
REMARK UNBOUND:                -0.007
REMARK SMILES CCCC(=O)[O-]
REMARK SMILES IDX 3 1 4 2 5 3 6 4 2 5 1 6
REMARK H PARENT
REMARK Flexibility Score: inf
ROOT
ATOM      1  C   UNL     1      61.267  28.372   9.979  1.00  0.00     0.052 C 
ENDROOT
BRANCH   1   2
ATOM      2  C   UNL     1      60.182  29.404  10.018  1.00  0.00     0.041 C 
ATOM      3  O   UNL     1      59.661  29.815   8.948  1.00  0.00    -0.550 OA
ATOM      4  O   UNL     1      59.770  29.936  11.234  1.00  0.00    -0.550 OA
ENDBRANCH   1   2
BRANCH   1   5
ATOM      5  C   UNL     1      62.585  28.911  10.547  1.00  0.00     0.003 C 
ATOM      6  C   UNL     1      63.667  29.050   9.478  1.00  0.00     0.004 C 
ENDBRANCH   1   5
TORSDOF 2
ENDMDL
MODEL 9
REMARK VINA RESULT:    -2.840     15.137     15.859
REMARK INTER + INTRA:          -3.180
REMARK INTER:                  -3.175
REMARK INTRA:                  -0.005
REMARK UNBOUND:                -0.007
REMARK SMILES CCCC(=O)[O-]
REMARK SMILES IDX 3 1 4 2 5 3 6 4 2 5 1 6
REMARK H PARENT
REMARK Flexibility Score: inf
ROOT
ATOM      1  C   UNL     1      60.831  30.592  11.889  1.00  0.00     0.052 C 
ENDROOT
BRANCH   1   2
ATOM      2  C   UNL     1      59.996  29.669  11.056  1.00  0.00     0.041 C 
ATOM      3  O   UNL     1      59.932  29.823   9.809  1.00  0.00    -0.550 OA
ATOM      4  O   UNL     1      59.258  28.659  11.663  1.00  0.00    -0.550 OA
ENDBRANCH   1   2
BRANCH   1   5
ATOM      5  C   UNL     1      59.968  31.547  12.721  1.00  0.00     0.003 C 
ATOM      6  C   UNL     1      60.743  32.780  13.184  1.00  0.00     0.004 C 
ENDBRANCH   1   5
TORSDOF 2
ENDMDL
