MODEL 1
REMARK VINA RESULT:    -2.912      0.000      0.000
REMARK INTER + INTRA:          -2.997
REMARK INTER:                  -2.997
REMARK INTRA:                   0.000
REMARK UNBOUND:                 0.000
REMARK SMILES Oc1ccc2[nH]ccc2c1
REMARK SMILES IDX 3 1 4 2 5 3 9 4 8 5 7 6 6 7 10 8 2 9 1 11
REMARK H PARENT 6 10 1 12
REMARK Flexibility Score: inf
ROOT
ATOM      1  C   UNL     1     114.721 119.894 115.640  1.00  0.00     0.048 A 
ATOM      2  C   UNL     1     113.966 118.984 114.875  1.00  0.00     0.030 A 
ATOM      3  C   UNL     1     112.935 118.298 115.513  1.00  0.00     0.046 A 
ATOM      4  C   UNL     1     112.653 118.491 116.839  1.00  0.00     0.003 A 
ATOM      5  C   UNL     1     111.591 117.673 117.158  1.00  0.00     0.028 A 
ATOM      6  C   UNL     1     111.276 117.008 115.976  1.00  0.00     0.083 A 
ATOM      7  N   UNL     1     112.099 117.394 114.974  1.00  0.00    -0.361 N 
ATOM      8  C   UNL     1     113.380 119.382 117.624  1.00  0.00     0.056 A 
ATOM      9  C   UNL     1     114.430 120.094 117.013  1.00  0.00     0.116 A 
ATOM     10  H   UNL     1     112.085 117.056 113.986  1.00  0.00     0.166 HD
ENDROOT
BRANCH   9  11
ATOM     11  O   UNL     1     115.178 120.993 117.769  1.00  0.00    -0.508 OA
ATOM     12  H   UNL     1     114.742 121.602 118.451  1.00  0.00     0.293 HD
ENDBRANCH   9  11
TORSDOF 1
ENDMDL
MODEL 2
REMARK VINA RESULT:    -2.854     11.253     12.750
REMARK INTER + INTRA:          -2.938
REMARK INTER:                  -2.938
REMARK INTRA:                   0.000
REMARK UNBOUND:                 0.000
REMARK SMILES Oc1ccc2[nH]ccc2c1
REMARK SMILES IDX 3 1 4 2 5 3 9 4 8 5 7 6 6 7 10 8 2 9 1 11
REMARK H PARENT 6 10 1 12
REMARK Flexibility Score: inf
ROOT
ATOM      1  C   UNL     1     123.875 118.984 115.697  1.00  0.00     0.048 A 
ATOM      2  C   UNL     1     124.679 119.797 114.875  1.00  0.00     0.030 A 
ATOM      3  C   UNL     1     125.742 120.472 115.470  1.00  0.00     0.046 A 
ATOM      4  C   UNL     1     126.008 120.360 116.809  1.00  0.00     0.003 A 
ATOM      5  C   UNL     1     127.109 121.143 117.078  1.00  0.00     0.028 A 
ATOM      6  C   UNL     1     127.463 121.705 115.854  1.00  0.00     0.083 A 
ATOM      7  N   UNL     1     126.625 121.292 114.876  1.00  0.00    -0.361 N 
ATOM      8  C   UNL     1     125.232 119.565 117.650  1.00  0.00     0.056 A 
ATOM      9  C   UNL     1     124.149 118.867 117.083  1.00  0.00     0.116 A 
ATOM     10  H   UNL     1     126.660 121.558 113.867  1.00  0.00     0.166 HD
ENDROOT
BRANCH   9  11
ATOM     11  O   UNL     1     123.352 118.063 117.895  1.00  0.00    -0.508 OA
ATOM     12  H   UNL     1     123.686 117.717 118.787  1.00  0.00     0.293 HD
ENDBRANCH   9  11
TORSDOF 1
ENDMDL
MODEL 3
REMARK VINA RESULT:    -2.849      9.303      9.651
REMARK INTER + INTRA:          -2.933
REMARK INTER:                  -2.933
REMARK INTRA:                   0.000
REMARK UNBOUND:                 0.000
REMARK SMILES Oc1ccc2[nH]ccc2c1
REMARK SMILES IDX 3 1 4 2 5 3 9 4 8 5 7 6 6 7 10 8 2 9 1 11
REMARK H PARENT 6 10 1 12
REMARK Flexibility Score: inf
ROOT
ATOM      1  C   UNL     1     119.197 114.162 115.524  1.00  0.00     0.048 A 
ATOM      2  C   UNL     1     120.138 113.339 114.875  1.00  0.00     0.030 A 
ATOM      3  C   UNL     1     120.920 112.499 115.665  1.00  0.00     0.046 A 
ATOM      4  C   UNL     1     120.790 112.464 117.028  1.00  0.00     0.003 A 
ATOM      5  C   UNL     1     121.696 111.542 117.505  1.00  0.00     0.028 A 
ATOM      6  C   UNL     1     122.346 111.053 116.374  1.00  0.00     0.083 A 
ATOM      7  N   UNL     1     121.868 111.640 115.254  1.00  0.00    -0.361 N 
ATOM      8  C   UNL     1     119.871 113.265 117.700  1.00  0.00     0.056 A 
ATOM      9  C   UNL     1     119.062 114.126 116.934  1.00  0.00     0.116 A 
ATOM     10  H   UNL     1     122.176 111.460 114.272  1.00  0.00     0.166 HD
ENDROOT
BRANCH   9  11
ATOM     11  O   UNL     1     118.132 114.942 117.575  1.00  0.00    -0.508 OA
ATOM     12  H   UNL     1     117.303 114.556 118.012  1.00  0.00     0.293 HD
ENDBRANCH   9  11
TORSDOF 1
ENDMDL
MODEL 4
REMARK VINA RESULT:    -2.790      9.610      9.890
REMARK INTER + INTRA:          -2.872
REMARK INTER:                  -2.872
REMARK INTRA:                   0.000
REMARK UNBOUND:                 0.000
REMARK SMILES Oc1ccc2[nH]ccc2c1
REMARK SMILES IDX 3 1 4 2 5 3 9 4 8 5 7 6 6 7 10 8 2 9 1 11
REMARK H PARENT 6 10 1 12
REMARK Flexibility Score: inf
ROOT
ATOM      1  C   UNL     1     120.001 125.863 115.664  1.00  0.00     0.048 A 
ATOM      2  C   UNL     1     119.236 126.744 114.875  1.00  0.00     0.030 A 
ATOM      3  C   UNL     1     118.159 127.389 115.480  1.00  0.00     0.046 A 
ATOM      4  C   UNL     1     117.842 127.182 116.796  1.00  0.00     0.003 A 
ATOM      5  C   UNL     1     116.740 127.958 117.081  1.00  0.00     0.028 A 
ATOM      6  C   UNL     1     116.438 128.612 115.890  1.00  0.00     0.083 A 
ATOM      7  N   UNL     1     117.307 128.261 114.915  1.00  0.00    -0.361 N 
ATOM      8  C   UNL     1     118.577 126.317 117.603  1.00  0.00     0.056 A 
ATOM      9  C   UNL     1     119.674 125.648 117.026  1.00  0.00     0.116 A 
ATOM     10  H   UNL     1     117.313 128.601 113.928  1.00  0.00     0.166 HD
ENDROOT
BRANCH   9  11
ATOM     11  O   UNL     1     120.430 124.776 117.805  1.00  0.00    -0.508 OA
ATOM     12  H   UNL     1     121.232 125.098 118.333  1.00  0.00     0.293 HD
ENDBRANCH   9  11
TORSDOF 1
ENDMDL
MODEL 5
REMARK VINA RESULT:    -2.769      9.874     11.005
REMARK INTER + INTRA:          -2.850
REMARK INTER:                  -2.850
REMARK INTRA:                   0.000
REMARK UNBOUND:                 0.000
REMARK SMILES Oc1ccc2[nH]ccc2c1
REMARK SMILES IDX 3 1 4 2 5 3 9 4 8 5 7 6 6 7 10 8 2 9 1 11
REMARK H PARENT 6 10 1 12
REMARK Flexibility Score: inf
ROOT
ATOM      1  C   UNL     1     113.018 128.406 116.993  1.00  0.00     0.048 A 
ATOM      2  C   UNL     1     114.074 129.046 117.670  1.00  0.00     0.030 A 
ATOM      3  C   UNL     1     115.213 129.370 116.938  1.00  0.00     0.046 A 
ATOM      4  C   UNL     1     115.319 129.082 115.603  1.00  0.00     0.003 A 
ATOM      5  C   UNL     1     116.553 129.526 115.181  1.00  0.00     0.028 A 
ATOM      6  C   UNL     1     117.148 130.075 116.314  1.00  0.00     0.083 A 
ATOM      7  N   UNL     1     116.326 129.978 117.383  1.00  0.00    -0.361 N 
ATOM      8  C   UNL     1     114.294 128.449 114.904  1.00  0.00     0.056 A 
ATOM      9  C   UNL     1     113.126 128.106 115.612  1.00  0.00     0.116 A 
ATOM     10  H   UNL     1     116.520 130.309 118.355  1.00  0.00     0.166 HD
ENDROOT
BRANCH   9  11
ATOM     11  O   UNL     1     112.082 127.472 114.944  1.00  0.00    -0.508 OA
ATOM     12  H   UNL     1     111.765 127.789 114.035  1.00  0.00     0.293 HD
ENDBRANCH   9  11
TORSDOF 1
ENDMDL
MODEL 6
REMARK VINA RESULT:    -2.768     12.167     13.498
REMARK INTER + INTRA:          -2.849
REMARK INTER:                  -2.849
REMARK INTRA:                   0.000
REMARK UNBOUND:                 0.000
REMARK SMILES Oc1ccc2[nH]ccc2c1
REMARK SMILES IDX 3 1 4 2 5 3 9 4 8 5 7 6 6 7 10 8 2 9 1 11
REMARK H PARENT 6 10 1 12
REMARK Flexibility Score: inf
ROOT
ATOM      1  C   UNL     1     127.863 121.730 116.968  1.00  0.00     0.048 A 
ATOM      2  C   UNL     1     126.767 121.204 117.678  1.00  0.00     0.030 A 
ATOM      3  C   UNL     1     125.833 120.453 116.967  1.00  0.00     0.046 A 
ATOM      4  C   UNL     1     125.963 120.226 115.623  1.00  0.00     0.003 A 
ATOM      5  C   UNL     1     124.889 119.459 115.228  1.00  0.00     0.028 A 
ATOM      6  C   UNL     1     124.143 119.256 116.386  1.00  0.00     0.083 A 
ATOM      7  N   UNL     1     124.723 119.864 117.445  1.00  0.00    -0.361 N 
ATOM      8  C   UNL     1     127.034 120.732 114.891  1.00  0.00     0.056 A 
ATOM      9  C   UNL     1     127.999 121.496 115.577  1.00  0.00     0.116 A 
ATOM     10  H   UNL     1     124.377 119.873 118.430  1.00  0.00     0.166 HD
ENDROOT
BRANCH   9  11
ATOM     11  O   UNL     1     129.083 122.018 114.876  1.00  0.00    -0.508 OA
ATOM     12  H   UNL     1     130.003 122.084 115.296  1.00  0.00     0.293 HD
ENDBRANCH   9  11
TORSDOF 1
ENDMDL
MODEL 7
REMARK VINA RESULT:    -2.760      9.526     10.286
REMARK INTER + INTRA:          -2.841
REMARK INTER:                  -2.841
REMARK INTRA:                   0.000
REMARK UNBOUND:                 0.000
REMARK SMILES Oc1ccc2[nH]ccc2c1
REMARK SMILES IDX 3 1 4 2 5 3 9 4 8 5 7 6 6 7 10 8 2 9 1 11
REMARK H PARENT 6 10 1 12
REMARK Flexibility Score: inf
ROOT
ATOM      1  C   UNL     1     112.470 127.864 115.647  1.00  0.00     0.048 A 
ATOM      2  C   UNL     1     113.656 128.044 114.911  1.00  0.00     0.030 A 
ATOM      3  C   UNL     1     114.784 128.492 115.596  1.00  0.00     0.046 A 
ATOM      4  C   UNL     1     114.754 128.753 116.940  1.00  0.00     0.003 A 
ATOM      5  C   UNL     1     116.014 129.174 117.306  1.00  0.00     0.028 A 
ATOM      6  C   UNL     1     116.762 129.146 116.132  1.00  0.00     0.083 A 
ATOM      7  N   UNL     1     116.007 128.729 115.091  1.00  0.00    -0.361 N 
ATOM      8  C   UNL     1     113.597 128.586 117.697  1.00  0.00     0.056 A 
ATOM      9  C   UNL     1     112.438 128.133 117.038  1.00  0.00     0.116 A 
ATOM     10  H   UNL     1     116.314 128.615 114.099  1.00  0.00     0.166 HD
ENDROOT
BRANCH   9  11
ATOM     11  O   UNL     1     111.263 127.956 117.765  1.00  0.00    -0.508 OA
ATOM     12  H   UNL     1     111.216 128.167 118.755  1.00  0.00     0.293 HD
ENDBRANCH   9  11
TORSDOF 1
ENDMDL
MODEL 8
REMARK VINA RESULT:    -2.750     16.522     16.625
REMARK INTER + INTRA:          -2.831
REMARK INTER:                  -2.831
REMARK INTRA:                   0.000
REMARK UNBOUND:                 0.000
REMARK SMILES Oc1ccc2[nH]ccc2c1
REMARK SMILES IDX 3 1 4 2 5 3 9 4 8 5 7 6 6 7 10 8 2 9 1 11
REMARK H PARENT 6 10 1 12
REMARK Flexibility Score: inf
ROOT
ATOM      1  C   UNL     1     127.901 126.610 115.697  1.00  0.00     0.048 A 
ATOM      2  C   UNL     1     128.157 125.471 114.909  1.00  0.00     0.030 A 
ATOM      3  C   UNL     1     128.639 124.332 115.550  1.00  0.00     0.046 A 
ATOM      4  C   UNL     1     128.864 124.306 116.901  1.00  0.00     0.003 A 
ATOM      5  C   UNL     1     129.334 123.050 117.216  1.00  0.00     0.028 A 
ATOM      6  C   UNL     1     129.372 122.362 116.006  1.00  0.00     0.083 A 
ATOM      7  N   UNL     1     128.946 123.149 114.992  1.00  0.00    -0.361 N 
ATOM      8  C   UNL     1     128.623 125.414 117.709  1.00  0.00     0.056 A 
ATOM      9  C   UNL     1     128.133 126.584 117.096  1.00  0.00     0.116 A 
ATOM     10  H   UNL     1     128.873 122.887 113.984  1.00  0.00     0.166 HD
ENDROOT
BRANCH   9  11
ATOM     11  O   UNL     1     127.882 127.711 117.874  1.00  0.00    -0.508 OA
ATOM     12  H   UNL     1     127.601 127.632 118.845  1.00  0.00     0.293 HD
ENDBRANCH   9  11
TORSDOF 1
ENDMDL
MODEL 9
REMARK VINA RESULT:    -2.702      2.634      4.080
REMARK INTER + INTRA:          -2.781
REMARK INTER:                  -2.781
REMARK INTRA:                   0.000
REMARK UNBOUND:                 0.000
REMARK SMILES Oc1ccc2[nH]ccc2c1
REMARK SMILES IDX 3 1 4 2 5 3 9 4 8 5 7 6 6 7 10 8 2 9 1 11
REMARK H PARENT 6 10 1 12
REMARK Flexibility Score: inf
ROOT
ATOM      1  C   UNL     1     111.353 117.479 116.993  1.00  0.00     0.048 A 
ATOM      2  C   UNL     1     112.391 118.102 117.710  1.00  0.00     0.030 A 
ATOM      3  C   UNL     1     113.325 118.843 116.988  1.00  0.00     0.046 A 
ATOM      4  C   UNL     1     113.248 118.970 115.627  1.00  0.00     0.003 A 
ATOM      5  C   UNL     1     114.307 119.755 115.225  1.00  0.00     0.028 A 
ATOM      6  C   UNL     1     114.989 120.072 116.397  1.00  0.00     0.083 A 
ATOM      7  N   UNL     1     114.385 119.514 117.470  1.00  0.00    -0.361 N 
ATOM      8  C   UNL     1     112.235 118.365 114.888  1.00  0.00     0.056 A 
ATOM      9  C   UNL     1     111.272 117.608 115.583  1.00  0.00     0.116 A 
ATOM     10  H   UNL     1     114.685 119.590 118.468  1.00  0.00     0.166 HD
ENDROOT
BRANCH   9  11
ATOM     11  O   UNL     1     110.245 116.990 114.875  1.00  0.00    -0.508 OA
ATOM     12  H   UNL     1     110.039 116.004 114.993  1.00  0.00     0.293 HD
ENDBRANCH   9  11
TORSDOF 1
ENDMDL
