MODEL 1
REMARK VINA RESULT:    -4.710      0.000      0.000
REMARK INTER + INTRA:          -8.414
REMARK INTER:                  -5.949
REMARK INTRA:                  -2.466
REMARK UNBOUND:                -2.466
REMARK SMILES CC(C)[C@@H](C)C=C[C@@H](C)[C@H]1CC[C@H]2C3=CC=C4C[C@@H](O)CC[C@]4(C)[C@H]3CC[C@@]12C
REMARK SMILES IDX 8 1 9 2 7 3 6 4 4 5 5 6 2 7 1 8 3 9 10 10 11 11 28 12 12 13
REMARK SMILES IDX 13 14 27 15 29 16 14 17 26 18 25 19 15 20 23 21 16 22 17 23
REMARK SMILES IDX 22 24 24 25 18 26 21 27 19 28 20 29
REMARK H PARENT 20 30
REMARK Flexibility Score: inf
ROOT
ATOM      1  C   UNL     1       0.004   3.144  -7.548  1.00  0.00     0.012 C 
ATOM      2  C   UNL     1       0.110   2.189  -8.756  1.00  0.00     0.012 C 
ENDROOT
BRANCH   1   3
ATOM      3  C   UNL     1       0.487   4.512  -8.000  1.00  0.00    -0.028 C 
ATOM      4  C   UNL     1      -0.348   5.564  -8.048  1.00  0.00    -0.028 C 
BRANCH   4   5
ATOM      5  C   UNL     1       0.157   6.958  -8.350  1.00  0.00     0.011 C 
ATOM      6  C   UNL     1       1.677   7.034  -8.104  1.00  0.00     0.012 C 
BRANCH   5   7
ATOM      7  C   UNL     1      -0.653   8.037  -7.566  1.00  0.00    -0.011 C 
ATOM      8  C   UNL     1      -1.763   8.651  -8.435  1.00  0.00     0.008 C 
ATOM      9  C   UNL     1       0.210   9.156  -6.958  1.00  0.00     0.008 C 
ENDBRANCH   5   7
ENDBRANCH   4   5
ENDBRANCH   1   3
BRANCH   1  10
ATOM     10  C   UNL     1       0.791   2.599  -6.290  1.00  0.00     0.002 C 
ATOM     11  C   UNL     1       2.094   3.383  -6.045  1.00  0.00     0.005 C 
ATOM     12  C   UNL     1       0.072   2.728  -4.887  1.00  0.00    -0.023 C 
ATOM     13  C   UNL     1       1.677   4.588  -5.228  1.00  0.00     0.009 C 
ATOM     14  C   UNL     1       0.440   4.167  -4.394  1.00  0.00     0.021 C 
ATOM     15  C   UNL     1      -1.456   2.392  -4.837  1.00  0.00     0.008 C 
ATOM     16  C   UNL     1       0.742   1.691  -3.922  1.00  0.00     0.012 C 
ATOM     17  C   UNL     1      -0.671   5.222  -4.451  1.00  0.00    -0.063 C 
ATOM     18  C   UNL     1      -2.418   3.540  -5.139  1.00  0.00     0.009 C 
ATOM     19  C   UNL     1      -2.124   4.807  -4.311  1.00  0.00     0.025 C 
ATOM     20  C   UNL     1      -0.337   6.497  -4.196  1.00  0.00    -0.000 C 
ATOM     21  C   UNL     1      -3.165   5.979  -4.575  1.00  0.00    -0.005 C 
ATOM     22  C   UNL     1      -1.331   7.538  -3.945  1.00  0.00    -0.000 C 
ATOM     23  C   UNL     1      -2.643   7.304  -4.026  1.00  0.00    -0.061 C 
ATOM     24  C   UNL     1      -4.496   5.625  -3.838  1.00  0.00     0.014 C 
ATOM     25  C   UNL     1      -3.428   6.174  -6.093  1.00  0.00     0.017 C 
ATOM     26  C   UNL     1      -3.594   8.461  -3.831  1.00  0.00     0.063 C 
ATOM     27  C   UNL     1      -5.491   6.792  -3.769  1.00  0.00     0.033 C 
ATOM     28  C   UNL     1      -4.860   8.015  -3.091  1.00  0.00     0.118 C 
BRANCH  28  29
ATOM     29  O   UNL     1      -5.790   9.060  -3.076  1.00  0.00    -0.393 OA
ATOM     30  H   UNL     1      -6.689   8.657  -3.174  1.00  0.00     0.210 HD
ENDBRANCH  28  29
ENDBRANCH   1  10
TORSDOF 5
ENDMDL
MODEL 2
REMARK VINA RESULT:    -4.024      2.814      5.733
REMARK INTER + INTRA:          -7.548
REMARK INTER:                  -5.252
REMARK INTRA:                  -2.297
REMARK UNBOUND:                -2.466
REMARK SMILES CC(C)[C@@H](C)C=C[C@@H](C)[C@H]1CC[C@H]2C3=CC=C4C[C@@H](O)CC[C@]4(C)[C@H]3CC[C@@]12C
REMARK SMILES IDX 8 1 9 2 7 3 6 4 4 5 5 6 2 7 1 8 3 9 10 10 11 11 28 12 12 13
REMARK SMILES IDX 13 14 27 15 29 16 14 17 26 18 25 19 15 20 23 21 16 22 17 23
REMARK SMILES IDX 22 24 24 25 18 26 21 27 19 28 20 29
REMARK H PARENT 20 30
REMARK Flexibility Score: inf
ROOT
ATOM      1  C   UNL     1      -4.604   5.608  -6.790  1.00  0.00     0.012 C 
ATOM      2  C   UNL     1      -6.078   5.955  -6.494  1.00  0.00     0.012 C 
ENDROOT
BRANCH   1   3
ATOM      3  C   UNL     1      -3.762   6.814  -6.407  1.00  0.00    -0.028 C 
ATOM      4  C   UNL     1      -2.995   6.805  -5.303  1.00  0.00    -0.028 C 
BRANCH   4   5
ATOM      5  C   UNL     1      -2.041   7.939  -4.997  1.00  0.00     0.011 C 
ATOM      6  C   UNL     1      -1.209   8.281  -6.249  1.00  0.00     0.012 C 
BRANCH   5   7
ATOM      7  C   UNL     1      -1.171   7.625  -3.740  1.00  0.00    -0.011 C 
ATOM      8  C   UNL     1      -1.428   8.636  -2.610  1.00  0.00     0.008 C 
ATOM      9  C   UNL     1       0.339   7.535  -4.024  1.00  0.00     0.008 C 
ENDBRANCH   5   7
ENDBRANCH   4   5
ENDBRANCH   1   3
BRANCH   1  10
ATOM     10  C   UNL     1      -4.388   5.160  -8.290  1.00  0.00     0.002 C 
ATOM     11  C   UNL     1      -3.754   6.279  -9.138  1.00  0.00     0.005 C 
ATOM     12  C   UNL     1      -3.386   3.962  -8.540  1.00  0.00    -0.023 C 
ATOM     13  C   UNL     1      -2.263   6.141  -8.912  1.00  0.00     0.009 C 
ATOM     14  C   UNL     1      -1.980   4.644  -8.627  1.00  0.00     0.021 C 
ATOM     15  C   UNL     1      -3.464   2.751  -7.552  1.00  0.00     0.008 C 
ATOM     16  C   UNL     1      -3.726   3.355  -9.945  1.00  0.00     0.012 C 
ATOM     17  C   UNL     1      -1.048   4.459  -7.424  1.00  0.00    -0.063 C 
ATOM     18  C   UNL     1      -2.616   2.847  -6.284  1.00  0.00     0.009 C 
ATOM     19  C   UNL     1      -1.144   3.208  -6.570  1.00  0.00     0.025 C 
ATOM     20  C   UNL     1       0.091   5.171  -7.400  1.00  0.00    -0.000 C 
ATOM     21  C   UNL     1      -0.246   3.243  -5.258  1.00  0.00    -0.005 C 
ATOM     22  C   UNL     1       1.180   4.886  -6.469  1.00  0.00    -0.000 C 
ATOM     23  C   UNL     1       1.085   3.941  -5.529  1.00  0.00    -0.061 C 
ATOM     24  C   UNL     1       0.044   1.771  -4.826  1.00  0.00     0.014 C 
ATOM     25  C   UNL     1      -0.951   4.013  -4.108  1.00  0.00     0.017 C 
ATOM     26  C   UNL     1       2.230   3.772  -4.559  1.00  0.00     0.063 C 
ATOM     27  C   UNL     1       1.127   1.649  -3.745  1.00  0.00     0.033 C 
ATOM     28  C   UNL     1       2.440   2.296  -4.206  1.00  0.00     0.118 C 
BRANCH  28  29
ATOM     29  O   UNL     1       3.388   2.186  -3.183  1.00  0.00    -0.393 OA
ATOM     30  H   UNL     1       3.474   3.079  -2.764  1.00  0.00     0.210 HD
ENDBRANCH  28  29
ENDBRANCH   1  10
TORSDOF 5
ENDMDL
MODEL 3
REMARK VINA RESULT:    -4.005      2.915      6.222
REMARK INTER + INTRA:          -7.524
REMARK INTER:                  -5.395
REMARK INTRA:                  -2.128
REMARK UNBOUND:                -2.466
REMARK SMILES CC(C)[C@@H](C)C=C[C@@H](C)[C@H]1CC[C@H]2C3=CC=C4C[C@@H](O)CC[C@]4(C)[C@H]3CC[C@@]12C
REMARK SMILES IDX 8 1 9 2 7 3 6 4 4 5 5 6 2 7 1 8 3 9 10 10 11 11 28 12 12 13
REMARK SMILES IDX 13 14 27 15 29 16 14 17 26 18 25 19 15 20 23 21 16 22 17 23
REMARK SMILES IDX 22 24 24 25 18 26 21 27 19 28 20 29
REMARK H PARENT 20 30
REMARK Flexibility Score: inf
ROOT
ATOM      1  C   UNL     1      -2.681   6.112  -7.521  1.00  0.00     0.012 C 
ATOM      2  C   UNL     1      -3.296   7.333  -8.237  1.00  0.00     0.012 C 
ENDROOT
BRANCH   1   3
ATOM      3  C   UNL     1      -2.509   5.011  -8.554  1.00  0.00    -0.028 C 
ATOM      4  C   UNL     1      -1.320   4.415  -8.747  1.00  0.00    -0.028 C 
BRANCH   4   5
ATOM      5  C   UNL     1      -1.176   3.220  -9.662  1.00  0.00     0.011 C 
ATOM      6  C   UNL     1      -2.567   2.688 -10.059  1.00  0.00     0.012 C 
BRANCH   5   7
ATOM      7  C   UNL     1      -0.252   2.131  -9.032  1.00  0.00    -0.011 C 
ATOM      8  C   UNL     1       1.203   2.618  -8.926  1.00  0.00     0.008 C 
ATOM      9  C   UNL     1      -0.294   0.773  -9.754  1.00  0.00     0.008 C 
ENDBRANCH   5   7
ENDBRANCH   4   5
ENDBRANCH   1   3
BRANCH   1  10
ATOM     10  C   UNL     1      -3.542   5.657  -6.276  1.00  0.00     0.002 C 
ATOM     11  C   UNL     1      -4.109   4.237  -6.458  1.00  0.00     0.005 C 
ATOM     12  C   UNL     1      -2.785   5.525  -4.894  1.00  0.00    -0.023 C 
ATOM     13  C   UNL     1      -3.002   3.313  -5.994  1.00  0.00     0.009 C 
ATOM     14  C   UNL     1      -2.195   4.076  -4.912  1.00  0.00     0.021 C 
ATOM     15  C   UNL     1      -1.752   6.646  -4.538  1.00  0.00     0.008 C 
ATOM     16  C   UNL     1      -3.864   5.602  -3.761  1.00  0.00     0.012 C 
ATOM     17  C   UNL     1      -0.683   3.948  -5.134  1.00  0.00    -0.063 C 
ATOM     18  C   UNL     1      -0.322   6.442  -5.039  1.00  0.00     0.009 C 
ATOM     19  C   UNL     1       0.250   5.055  -4.680  1.00  0.00     0.025 C 
ATOM     20  C   UNL     1      -0.180   2.718  -5.324  1.00  0.00    -0.000 C 
ATOM     21  C   UNL     1       1.760   4.866  -5.142  1.00  0.00    -0.005 C 
ATOM     22  C   UNL     1       1.252   2.433  -5.267  1.00  0.00    -0.000 C 
ATOM     23  C   UNL     1       2.163   3.395  -5.095  1.00  0.00    -0.061 C 
ATOM     24  C   UNL     1       2.675   5.664  -4.160  1.00  0.00     0.014 C 
ATOM     25  C   UNL     1       1.974   5.362  -6.599  1.00  0.00     0.017 C 
ATOM     26  C   UNL     1       3.624   3.017  -5.132  1.00  0.00     0.063 C 
ATOM     27  C   UNL     1       4.168   5.345  -4.313  1.00  0.00     0.033 C 
ATOM     28  C   UNL     1       4.433   3.845  -4.127  1.00  0.00     0.118 C 
BRANCH  28  29
ATOM     29  O   UNL     1       5.798   3.597  -4.303  1.00  0.00    -0.393 OA
ATOM     30  H   UNL     1       5.932   2.619  -4.231  1.00  0.00     0.210 HD
ENDBRANCH  28  29
ENDBRANCH   1  10
TORSDOF 5
ENDMDL
MODEL 4
REMARK VINA RESULT:    -3.895      1.676      3.911
REMARK INTER + INTRA:          -7.385
REMARK INTER:                  -5.009
REMARK INTRA:                  -2.376
REMARK UNBOUND:                -2.466
REMARK SMILES CC(C)[C@@H](C)C=C[C@@H](C)[C@H]1CC[C@H]2C3=CC=C4C[C@@H](O)CC[C@]4(C)[C@H]3CC[C@@]12C
REMARK SMILES IDX 8 1 9 2 7 3 6 4 4 5 5 6 2 7 1 8 3 9 10 10 11 11 28 12 12 13
REMARK SMILES IDX 13 14 27 15 29 16 14 17 26 18 25 19 15 20 23 21 16 22 17 23
REMARK SMILES IDX 22 24 24 25 18 26 21 27 19 28 20 29
REMARK H PARENT 20 30
REMARK Flexibility Score: inf
ROOT
ATOM      1  C   UNL     1       2.037   3.894  -5.653  1.00  0.00     0.012 C 
ATOM      2  C   UNL     1       3.115   2.983  -5.027  1.00  0.00     0.012 C 
ENDROOT
BRANCH   1   3
ATOM      3  C   UNL     1       1.480   3.176  -6.871  1.00  0.00    -0.028 C 
ATOM      4  C   UNL     1       0.199   2.772  -6.916  1.00  0.00    -0.028 C 
BRANCH   4   5
ATOM      5  C   UNL     1      -0.403   2.195  -8.178  1.00  0.00     0.011 C 
ATOM      6  C   UNL     1       0.667   2.118  -9.286  1.00  0.00     0.012 C 
BRANCH   5   7
ATOM      7  C   UNL     1      -1.684   2.977  -8.605  1.00  0.00    -0.011 C 
ATOM      8  C   UNL     1      -2.959   2.311  -8.062  1.00  0.00     0.008 C 
ATOM      9  C   UNL     1      -1.816   3.190 -10.124  1.00  0.00     0.008 C 
ENDBRANCH   5   7
ENDBRANCH   4   5
ENDBRANCH   1   3
BRANCH   1  10
ATOM     10  C   UNL     1       2.598   5.332  -5.992  1.00  0.00     0.002 C 
ATOM     11  C   UNL     1       2.744   5.549  -7.510  1.00  0.00     0.005 C 
ATOM     12  C   UNL     1       1.698   6.565  -5.578  1.00  0.00    -0.023 C 
ATOM     13  C   UNL     1       1.375   6.005  -7.972  1.00  0.00     0.009 C 
ATOM     14  C   UNL     1       0.718   6.752  -6.783  1.00  0.00     0.021 C 
ATOM     15  C   UNL     1       1.004   6.500  -4.176  1.00  0.00     0.008 C 
ATOM     16  C   UNL     1       2.632   7.821  -5.504  1.00  0.00     0.012 C 
ATOM     17  C   UNL     1      -0.734   6.312  -6.567  1.00  0.00    -0.063 C 
ATOM     18  C   UNL     1      -0.364   5.821  -4.122  1.00  0.00     0.009 C 
ATOM     19  C   UNL     1      -1.348   6.362  -5.180  1.00  0.00     0.025 C 
ATOM     20  C   UNL     1      -1.551   6.303  -7.633  1.00  0.00    -0.000 C 
ATOM     21  C   UNL     1      -2.792   5.704  -5.081  1.00  0.00    -0.005 C 
ATOM     22  C   UNL     1      -3.002   6.177  -7.515  1.00  0.00    -0.000 C 
ATOM     23  C   UNL     1      -3.607   5.990  -6.339  1.00  0.00    -0.061 C 
ATOM     24  C   UNL     1      -3.531   6.330  -3.856  1.00  0.00     0.014 C 
ATOM     25  C   UNL     1      -2.703   4.161  -4.923  1.00  0.00     0.017 C 
ATOM     26  C   UNL     1      -5.104   5.789  -6.324  1.00  0.00     0.063 C 
ATOM     27  C   UNL     1      -5.029   6.000  -3.806  1.00  0.00     0.033 C 
ATOM     28  C   UNL     1      -5.736   6.449  -5.093  1.00  0.00     0.118 C 
BRANCH  28  29
ATOM     29  O   UNL     1      -7.089   6.103  -5.016  1.00  0.00    -0.393 OA
ATOM     30  H   UNL     1      -7.357   6.168  -4.065  1.00  0.00     0.210 HD
ENDBRANCH  28  29
ENDBRANCH   1  10
TORSDOF 5
ENDMDL
MODEL 5
REMARK VINA RESULT:    -3.894      5.894      9.552
REMARK INTER + INTRA:          -7.383
REMARK INTER:                  -5.772
REMARK INTRA:                  -1.612
REMARK UNBOUND:                -2.466
REMARK SMILES CC(C)[C@@H](C)C=C[C@@H](C)[C@H]1CC[C@H]2C3=CC=C4C[C@@H](O)CC[C@]4(C)[C@H]3CC[C@@]12C
REMARK SMILES IDX 8 1 9 2 7 3 6 4 4 5 5 6 2 7 1 8 3 9 10 10 11 11 28 12 12 13
REMARK SMILES IDX 13 14 27 15 29 16 14 17 26 18 25 19 15 20 23 21 16 22 17 23
REMARK SMILES IDX 22 24 24 25 18 26 21 27 19 28 20 29
REMARK H PARENT 20 30
REMARK Flexibility Score: inf
ROOT
ATOM      1  C   UNL     1       5.310   3.605  -5.831  1.00  0.00     0.012 C 
ATOM      2  C   UNL     1       5.083   4.116  -7.269  1.00  0.00     0.012 C 
ENDROOT
BRANCH   1   3
ATOM      3  C   UNL     1       3.965   3.612  -5.123  1.00  0.00    -0.028 C 
ATOM      4  C   UNL     1       3.254   2.483  -4.967  1.00  0.00    -0.028 C 
BRANCH   4   5
ATOM      5  C   UNL     1       1.991   2.455  -4.135  1.00  0.00     0.011 C 
ATOM      6  C   UNL     1       1.847   1.085  -3.441  1.00  0.00     0.012 C 
BRANCH   5   7
ATOM      7  C   UNL     1       0.744   2.855  -4.982  1.00  0.00    -0.011 C 
ATOM      8  C   UNL     1      -0.516   2.102  -4.522  1.00  0.00     0.008 C 
ATOM      9  C   UNL     1       0.929   2.681  -6.500  1.00  0.00     0.008 C 
ENDBRANCH   5   7
ENDBRANCH   4   5
ENDBRANCH   1   3
BRANCH   1  10
ATOM     10  C   UNL     1       6.410   4.445  -5.069  1.00  0.00     0.002 C 
ATOM     11  C   UNL     1       5.787   5.407  -4.040  1.00  0.00     0.005 C 
ATOM     12  C   UNL     1       7.432   3.637  -4.172  1.00  0.00    -0.023 C 
ATOM     13  C   UNL     1       5.599   4.573  -2.789  1.00  0.00     0.009 C 
ATOM     14  C   UNL     1       6.707   3.489  -2.794  1.00  0.00     0.021 C 
ATOM     15  C   UNL     1       7.993   2.300  -4.762  1.00  0.00     0.008 C 
ATOM     16  C   UNL     1       8.693   4.545  -3.969  1.00  0.00     0.012 C 
ATOM     17  C   UNL     1       6.148   2.102  -2.454  1.00  0.00    -0.063 C 
ATOM     18  C   UNL     1       7.172   1.039  -4.498  1.00  0.00     0.009 C 
ATOM     19  C   UNL     1       6.812   0.856  -3.009  1.00  0.00     0.025 C 
ATOM     20  C   UNL     1       5.377   1.989  -1.360  1.00  0.00    -0.000 C 
ATOM     21  C   UNL     1       6.015  -0.490  -2.723  1.00  0.00    -0.005 C 
ATOM     22  C   UNL     1       5.019   0.699  -0.777  1.00  0.00    -0.000 C 
ATOM     23  C   UNL     1       5.376  -0.460  -1.337  1.00  0.00    -0.061 C 
ATOM     24  C   UNL     1       7.027  -1.679  -2.779  1.00  0.00     0.014 C 
ATOM     25  C   UNL     1       4.875  -0.706  -3.757  1.00  0.00     0.017 C 
ATOM     26  C   UNL     1       4.892  -1.744  -0.707  1.00  0.00     0.063 C 
ATOM     27  C   UNL     1       6.456  -2.999  -2.245  1.00  0.00     0.033 C 
ATOM     28  C   UNL     1       5.958  -2.842  -0.802  1.00  0.00     0.118 C 
BRANCH  28  29
ATOM     29  O   UNL     1       5.421  -4.058  -0.368  1.00  0.00    -0.393 OA
ATOM     30  H   UNL     1       4.552  -3.861   0.062  1.00  0.00     0.210 HD
ENDBRANCH  28  29
ENDBRANCH   1  10
TORSDOF 5
ENDMDL
MODEL 6
REMARK VINA RESULT:    -3.882      2.764      6.270
REMARK INTER + INTRA:          -7.368
REMARK INTER:                  -5.063
REMARK INTRA:                  -2.305
REMARK UNBOUND:                -2.466
REMARK SMILES CC(C)[C@@H](C)C=C[C@@H](C)[C@H]1CC[C@H]2C3=CC=C4C[C@@H](O)CC[C@]4(C)[C@H]3CC[C@@]12C
REMARK SMILES IDX 8 1 9 2 7 3 6 4 4 5 5 6 2 7 1 8 3 9 10 10 11 11 28 12 12 13
REMARK SMILES IDX 13 14 27 15 29 16 14 17 26 18 25 19 15 20 23 21 16 22 17 23
REMARK SMILES IDX 22 24 24 25 18 26 21 27 19 28 20 29
REMARK H PARENT 20 30
REMARK Flexibility Score: inf
ROOT
ATOM      1  C   UNL     1      -3.556   7.621  -6.675  1.00  0.00     0.012 C 
ATOM      2  C   UNL     1      -4.122   8.747  -7.566  1.00  0.00     0.012 C 
ENDROOT
BRANCH   1   3
ATOM      3  C   UNL     1      -3.798   6.303  -7.392  1.00  0.00    -0.028 C 
ATOM      4  C   UNL     1      -2.824   5.707  -8.102  1.00  0.00    -0.028 C 
BRANCH   4   5
ATOM      5  C   UNL     1      -3.009   4.326  -8.690  1.00  0.00     0.011 C 
ATOM      6  C   UNL     1      -4.506   4.054  -8.938  1.00  0.00     0.012 C 
BRANCH   5   7
ATOM      7  C   UNL     1      -2.318   3.238  -7.812  1.00  0.00    -0.011 C 
ATOM      8  C   UNL     1      -1.130   2.592  -8.544  1.00  0.00     0.008 C 
ATOM      9  C   UNL     1      -3.269   2.142  -7.299  1.00  0.00     0.008 C 
ENDBRANCH   5   7
ENDBRANCH   4   5
ENDBRANCH   1   3
BRANCH   1  10
ATOM     10  C   UNL     1      -4.171   7.650  -5.220  1.00  0.00     0.002 C 
ATOM     11  C   UNL     1      -5.212   6.534  -5.014  1.00  0.00     0.005 C 
ATOM     12  C   UNL     1      -3.176   7.383  -4.019  1.00  0.00    -0.023 C 
ATOM     13  C   UNL     1      -4.405   5.315  -4.618  1.00  0.00     0.009 C 
ATOM     14  C   UNL     1      -3.138   5.825  -3.885  1.00  0.00     0.021 C 
ATOM     15  C   UNL     1      -1.769   8.066  -4.096  1.00  0.00     0.008 C 
ATOM     16  C   UNL     1      -3.836   7.973  -2.726  1.00  0.00     0.012 C 
ATOM     17  C   UNL     1      -1.870   5.119  -4.380  1.00  0.00    -0.063 C 
ATOM     18  C   UNL     1      -0.673   7.293  -4.829  1.00  0.00     0.009 C 
ATOM     19  C   UNL     1      -0.534   5.837  -4.340  1.00  0.00     0.025 C 
ATOM     20  C   UNL     1      -1.881   3.778  -4.434  1.00  0.00    -0.000 C 
ATOM     21  C   UNL     1       0.650   5.051  -5.055  1.00  0.00    -0.005 C 
ATOM     22  C   UNL     1      -0.667   2.985  -4.616  1.00  0.00    -0.000 C 
ATOM     23  C   UNL     1       0.528   3.548  -4.815  1.00  0.00    -0.061 C 
ATOM     24  C   UNL     1       2.001   5.543  -4.445  1.00  0.00     0.014 C 
ATOM     25  C   UNL     1       0.639   5.281  -6.591  1.00  0.00     0.017 C 
ATOM     26  C   UNL     1       1.713   2.649  -5.075  1.00  0.00     0.063 C 
ATOM     27  C   UNL     1       3.205   4.675  -4.834  1.00  0.00     0.033 C 
ATOM     28  C   UNL     1       2.984   3.211  -4.428  1.00  0.00     0.118 C 
BRANCH  28  29
ATOM     29  O   UNL     1       4.090   2.454  -4.827  1.00  0.00    -0.393 OA
ATOM     30  H   UNL     1       3.806   1.506  -4.852  1.00  0.00     0.210 HD
ENDBRANCH  28  29
ENDBRANCH   1  10
TORSDOF 5
ENDMDL
MODEL 7
REMARK VINA RESULT:    -3.880      4.849      7.716
REMARK INTER + INTRA:          -7.367
REMARK INTER:                  -6.345
REMARK INTRA:                  -1.021
REMARK UNBOUND:                -2.466
REMARK SMILES CC(C)[C@@H](C)C=C[C@@H](C)[C@H]1CC[C@H]2C3=CC=C4C[C@@H](O)CC[C@]4(C)[C@H]3CC[C@@]12C
REMARK SMILES IDX 8 1 9 2 7 3 6 4 4 5 5 6 2 7 1 8 3 9 10 10 11 11 28 12 12 13
REMARK SMILES IDX 13 14 27 15 29 16 14 17 26 18 25 19 15 20 23 21 16 22 17 23
REMARK SMILES IDX 22 24 24 25 18 26 21 27 19 28 20 29
REMARK H PARENT 20 30
REMARK Flexibility Score: inf
ROOT
ATOM      1  C   UNL     1       5.633   3.767  -2.093  1.00  0.00     0.012 C 
ATOM      2  C   UNL     1       6.422   4.968  -2.656  1.00  0.00     0.012 C 
ENDROOT
BRANCH   1   3
ATOM      3  C   UNL     1       5.619   3.896  -0.579  1.00  0.00    -0.028 C 
ATOM      4  C   UNL     1       5.875   5.070   0.023  1.00  0.00    -0.028 C 
BRANCH   4   5
ATOM      5  C   UNL     1       5.715   5.243   1.517  1.00  0.00     0.011 C 
ATOM      6  C   UNL     1       5.838   3.877   2.222  1.00  0.00     0.012 C 
BRANCH   5   7
ATOM      7  C   UNL     1       4.396   6.003   1.862  1.00  0.00    -0.011 C 
ATOM      8  C   UNL     1       3.975   6.948   0.724  1.00  0.00     0.008 C 
ATOM      9  C   UNL     1       4.444   6.779   3.191  1.00  0.00     0.008 C 
ENDBRANCH   5   7
ENDBRANCH   4   5
ENDBRANCH   1   3
BRANCH   1  10
ATOM     10  C   UNL     1       6.221   2.386  -2.586  1.00  0.00     0.002 C 
ATOM     11  C   UNL     1       5.882   1.238  -1.615  1.00  0.00     0.005 C 
ATOM     12  C   UNL     1       5.665   1.821  -3.954  1.00  0.00    -0.023 C 
ATOM     13  C   UNL     1       4.504   0.768  -2.032  1.00  0.00     0.009 C 
ATOM     14  C   UNL     1       4.372   1.035  -3.554  1.00  0.00     0.021 C 
ATOM     15  C   UNL     1       5.470   2.847  -5.121  1.00  0.00     0.008 C 
ATOM     16  C   UNL     1       6.716   0.794  -4.497  1.00  0.00     0.012 C 
ATOM     17  C   UNL     1       3.030   1.690  -3.903  1.00  0.00    -0.063 C 
ATOM     18  C   UNL     1       4.125   3.570  -5.177  1.00  0.00     0.009 C 
ATOM     19  C   UNL     1       2.920   2.609  -5.105  1.00  0.00     0.025 C 
ATOM     20  C   UNL     1       1.913   1.122  -3.421  1.00  0.00    -0.000 C 
ATOM     21  C   UNL     1       1.521   3.354  -5.231  1.00  0.00    -0.005 C 
ATOM     22  C   UNL     1       0.579   1.474  -3.901  1.00  0.00    -0.000 C 
ATOM     23  C   UNL     1       0.377   2.439  -4.802  1.00  0.00    -0.061 C 
ATOM     24  C   UNL     1       1.310   3.746  -6.728  1.00  0.00     0.014 C 
ATOM     25  C   UNL     1       1.469   4.620  -4.332  1.00  0.00     0.017 C 
ATOM     26  C   UNL     1      -1.043   2.789  -5.178  1.00  0.00     0.063 C 
ATOM     27  C   UNL     1      -0.116   4.217  -7.046  1.00  0.00     0.033 C 
ATOM     28  C   UNL     1      -1.148   3.147  -6.664  1.00  0.00     0.118 C 
BRANCH  28  29
ATOM     29  O   UNL     1      -2.431   3.628  -6.944  1.00  0.00    -0.393 OA
ATOM     30  H   UNL     1      -3.023   3.338  -6.205  1.00  0.00     0.210 HD
ENDBRANCH  28  29
ENDBRANCH   1  10
TORSDOF 5
ENDMDL
MODEL 8
REMARK VINA RESULT:    -3.868      3.018      5.995
REMARK INTER + INTRA:          -7.351
REMARK INTER:                  -4.892
REMARK INTRA:                  -2.459
REMARK UNBOUND:                -2.466
REMARK SMILES CC(C)[C@@H](C)C=C[C@@H](C)[C@H]1CC[C@H]2C3=CC=C4C[C@@H](O)CC[C@]4(C)[C@H]3CC[C@@]12C
REMARK SMILES IDX 8 1 9 2 7 3 6 4 4 5 5 6 2 7 1 8 3 9 10 10 11 11 28 12 12 13
REMARK SMILES IDX 13 14 27 15 29 16 14 17 26 18 25 19 15 20 23 21 16 22 17 23
REMARK SMILES IDX 22 24 24 25 18 26 21 27 19 28 20 29
REMARK H PARENT 20 30
REMARK Flexibility Score: inf
ROOT
ATOM      1  C   UNL     1      -2.717   5.599  -5.505  1.00  0.00     0.012 C 
ATOM      2  C   UNL     1      -3.862   6.321  -4.761  1.00  0.00     0.012 C 
ENDROOT
BRANCH   1   3
ATOM      3  C   UNL     1      -1.928   6.651  -6.266  1.00  0.00    -0.028 C 
ATOM      4  C   UNL     1      -0.643   6.908  -5.969  1.00  0.00    -0.028 C 
BRANCH   4   5
ATOM      5  C   UNL     1       0.192   7.841  -6.817  1.00  0.00     0.011 C 
ATOM      6  C   UNL     1      -0.420   7.963  -8.227  1.00  0.00     0.012 C 
BRANCH   5   7
ATOM      7  C   UNL     1       1.692   7.411  -6.827  1.00  0.00    -0.011 C 
ATOM      8  C   UNL     1       2.510   8.193  -5.784  1.00  0.00     0.008 C 
ATOM      9  C   UNL     1       2.370   7.517  -8.204  1.00  0.00     0.008 C 
ENDBRANCH   5   7
ENDBRANCH   4   5
ENDBRANCH   1   3
BRANCH   1  10
ATOM     10  C   UNL     1      -3.252   4.440  -6.436  1.00  0.00     0.002 C 
ATOM     11  C   UNL     1      -3.200   4.829  -7.925  1.00  0.00     0.005 C 
ATOM     12  C   UNL     1      -2.436   3.085  -6.431  1.00  0.00    -0.023 C 
ATOM     13  C   UNL     1      -1.790   4.495  -8.366  1.00  0.00     0.009 C 
ATOM     14  C   UNL     1      -1.308   3.308  -7.493  1.00  0.00     0.021 C 
ATOM     15  C   UNL     1      -1.932   2.564  -5.043  1.00  0.00     0.008 C 
ATOM     16  C   UNL     1      -3.392   1.962  -6.958  1.00  0.00     0.012 C 
ATOM     17  C   UNL     1       0.110   3.534  -6.957  1.00  0.00    -0.063 C 
ATOM     18  C   UNL     1      -0.572   3.078  -4.573  1.00  0.00     0.009 C 
ATOM     19  C   UNL     1       0.534   2.918  -5.636  1.00  0.00     0.025 C 
ATOM     20  C   UNL     1       1.060   3.896  -7.834  1.00  0.00    -0.000 C 
ATOM     21  C   UNL     1       1.963   3.391  -5.124  1.00  0.00    -0.005 C 
ATOM     22  C   UNL     1       2.485   3.870  -7.510  1.00  0.00    -0.000 C 
ATOM     23  C   UNL     1       2.932   3.554  -6.292  1.00  0.00    -0.061 C 
ATOM     24  C   UNL     1       2.523   2.296  -4.161  1.00  0.00     0.014 C 
ATOM     25  C   UNL     1       1.880   4.759  -4.392  1.00  0.00     0.017 C 
ATOM     26  C   UNL     1       4.417   3.633  -6.027  1.00  0.00     0.063 C 
ATOM     27  C   UNL     1       4.007   2.482  -3.815  1.00  0.00     0.033 C 
ATOM     28  C   UNL     1       4.870   2.513  -5.084  1.00  0.00     0.118 C 
BRANCH  28  29
ATOM     29  O   UNL     1       6.206   2.712  -4.723  1.00  0.00    -0.393 OA
ATOM     30  H   UNL     1       6.752   2.079  -5.252  1.00  0.00     0.210 HD
ENDBRANCH  28  29
ENDBRANCH   1  10
TORSDOF 5
ENDMDL
MODEL 9
REMARK VINA RESULT:    -3.859      9.345     13.230
REMARK INTER + INTRA:          -7.340
REMARK INTER:                  -5.788
REMARK INTRA:                  -1.552
REMARK UNBOUND:                -2.466
REMARK SMILES CC(C)[C@@H](C)C=C[C@@H](C)[C@H]1CC[C@H]2C3=CC=C4C[C@@H](O)CC[C@]4(C)[C@H]3CC[C@@]12C
REMARK SMILES IDX 8 1 9 2 7 3 6 4 4 5 5 6 2 7 1 8 3 9 10 10 11 11 28 12 12 13
REMARK SMILES IDX 13 14 27 15 29 16 14 17 26 18 25 19 15 20 23 21 16 22 17 23
REMARK SMILES IDX 22 24 24 25 18 26 21 27 19 28 20 29
REMARK H PARENT 20 30
REMARK Flexibility Score: inf
ROOT
ATOM      1  C   UNL     1       7.637  -3.719  -0.855  1.00  0.00     0.012 C 
ATOM      2  C   UNL     1       8.982  -4.287  -1.357  1.00  0.00     0.012 C 
ENDROOT
BRANCH   1   3
ATOM      3  C   UNL     1       7.230  -2.600  -1.799  1.00  0.00    -0.028 C 
ATOM      4  C   UNL     1       6.109  -2.684  -2.536  1.00  0.00    -0.028 C 
BRANCH   4   5
ATOM      5  C   UNL     1       5.618  -1.515  -3.361  1.00  0.00     0.011 C 
ATOM      6  C   UNL     1       6.792  -0.886  -4.137  1.00  0.00     0.012 C 
BRANCH   5   7
ATOM      7  C   UNL     1       4.835  -0.491  -2.483  1.00  0.00    -0.011 C 
ATOM      8  C   UNL     1       3.585   0.036  -3.209  1.00  0.00     0.008 C 
ATOM      9  C   UNL     1       5.683   0.693  -1.985  1.00  0.00     0.008 C 
ENDBRANCH   5   7
ENDBRANCH   4   5
ENDBRANCH   1   3
BRANCH   1  10
ATOM     10  C   UNL     1       7.716  -3.252   0.653  1.00  0.00     0.002 C 
ATOM     11  C   UNL     1       7.116  -1.848   0.851  1.00  0.00     0.005 C 
ATOM     12  C   UNL     1       6.897  -4.101   1.706  1.00  0.00    -0.023 C 
ATOM     13  C   UNL     1       5.630  -2.080   1.030  1.00  0.00     0.009 C 
ATOM     14  C   UNL     1       5.461  -3.480   1.674  1.00  0.00     0.021 C 
ATOM     15  C   UNL     1       6.938  -5.659   1.551  1.00  0.00     0.008 C 
ATOM     16  C   UNL     1       7.521  -3.823   3.116  1.00  0.00     0.012 C 
ATOM     17  C   UNL     1       4.370  -4.300   0.976  1.00  0.00    -0.063 C 
ATOM     18  C   UNL     1       5.890  -6.282   0.630  1.00  0.00     0.009 C 
ATOM     19  C   UNL     1       4.455  -5.814   0.948  1.00  0.00     0.025 C 
ATOM     20  C   UNL     1       3.175  -3.717   0.785  1.00  0.00    -0.000 C 
ATOM     21  C   UNL     1       3.356  -6.513   0.034  1.00  0.00    -0.005 C 
ATOM     22  C   UNL     1       1.985  -4.467   0.393  1.00  0.00    -0.000 C 
ATOM     23  C   UNL     1       2.023  -5.776   0.128  1.00  0.00    -0.061 C 
ATOM     24  C   UNL     1       3.154  -7.975   0.545  1.00  0.00     0.014 C 
ATOM     25  C   UNL     1       3.782  -6.520  -1.460  1.00  0.00     0.017 C 
ATOM     26  C   UNL     1       0.759  -6.451  -0.349  1.00  0.00     0.063 C 
ATOM     27  C   UNL     1       1.927  -8.673  -0.058  1.00  0.00     0.033 C 
ATOM     28  C   UNL     1       0.647  -7.872   0.214  1.00  0.00     0.118 C 
BRANCH  28  29
ATOM     29  O   UNL     1      -0.438  -8.529  -0.376  1.00  0.00    -0.393 OA
ATOM     30  H   UNL     1      -1.201  -7.899  -0.376  1.00  0.00     0.210 HD
ENDBRANCH  28  29
ENDBRANCH   1  10
TORSDOF 5
ENDMDL
