MODEL 1
REMARK VINA RESULT:    -2.806      0.000      0.000
REMARK INTER + INTRA:         -12.305
REMARK INTER:                  -7.070
REMARK INTRA:                  -5.235
REMARK UNBOUND:                -5.235
REMARK SMILES CCCCCCCCCCCCCCCCCCCCCCCCCCCC(=O)[O-]
REMARK SMILES IDX 15 1 16 2 17 3 18 4 19 5 20 6 21 7 22 8 23 9 24 10 25 11
REMARK SMILES IDX 26 12 27 13 28 14 29 15 30 16 14 17 13 18 12 19 11 20 10 21
REMARK SMILES IDX 9 22 8 23 7 24 6 25 5 26 4 27 3 28 2 29 1 30
REMARK H PARENT
REMARK Flexibility Score: inf
ROOT
ATOM      1  C   UNL     1      26.414  72.007  13.227  1.00  0.00     0.000 C 
ENDROOT
BRANCH   1   2
ATOM      2  C   UNL     1      25.075  71.715  12.519  1.00  0.00     0.000 C 
BRANCH   2   3
ATOM      3  C   UNL     1      23.846  72.308  13.231  1.00  0.00     0.000 C 
BRANCH   3   4
ATOM      4  C   UNL     1      24.137  72.729  14.680  1.00  0.00     0.000 C 
BRANCH   4   5
ATOM      5  C   UNL     1      23.224  73.868  15.162  1.00  0.00     0.000 C 
BRANCH   5   6
ATOM      6  C   UNL     1      21.909  73.951  14.368  1.00  0.00     0.000 C 
BRANCH   6   7
ATOM      7  C   UNL     1      20.668  73.785  15.263  1.00  0.00     0.000 C 
BRANCH   7   8
ATOM      8  C   UNL     1      19.666  72.760  14.701  1.00  0.00     0.000 C 
BRANCH   8   9
ATOM      9  C   UNL     1      20.358  71.540  14.071  1.00  0.00     0.000 C 
BRANCH   9  10
ATOM     10  C   UNL     1      20.356  70.311  14.994  1.00  0.00     0.000 C 
BRANCH  10  11
ATOM     11  C   UNL     1      21.706  70.168  15.713  1.00  0.00     0.000 C 
BRANCH  11  12
ATOM     12  C   UNL     1      21.667  70.690  17.158  1.00  0.00     0.006 C 
BRANCH  12  13
ATOM     13  C   UNL     1      22.639  69.943  18.081  1.00  0.00     0.053 C 
BRANCH  13  14
ATOM     14  C   UNL     1      22.076  68.610  18.460  1.00  0.00     0.041 C 
ATOM     15  O   UNL     1      22.846  67.652  18.733  1.00  0.00    -0.550 OA
ATOM     16  O   UNL     1      20.699  68.437  18.556  1.00  0.00    -0.550 OA
ENDBRANCH  13  14
ENDBRANCH  12  13
ENDBRANCH  11  12
ENDBRANCH  10  11
ENDBRANCH   9  10
ENDBRANCH   8   9
ENDBRANCH   7   8
ENDBRANCH   6   7
ENDBRANCH   5   6
ENDBRANCH   4   5
ENDBRANCH   3   4
ENDBRANCH   2   3
ENDBRANCH   1   2
BRANCH   1  17
ATOM     17  C   UNL     1      27.624  71.522  12.411  1.00  0.00     0.000 C 
BRANCH  17  18
ATOM     18  C   UNL     1      27.226  70.851  11.083  1.00  0.00     0.000 C 
BRANCH  18  19
ATOM     19  C   UNL     1      27.821  71.498   9.818  1.00  0.00     0.000 C 
BRANCH  19  20
ATOM     20  C   UNL     1      26.746  71.955   8.816  1.00  0.00     0.000 C 
BRANCH  20  21
ATOM     21  C   UNL     1      26.561  73.482   8.786  1.00  0.00     0.000 C 
BRANCH  21  22
ATOM     22  C   UNL     1      25.913  74.093  10.047  1.00  0.00    -0.000 C 
BRANCH  22  23
ATOM     23  C   UNL     1      24.678  74.975   9.792  1.00  0.00    -0.000 C 
BRANCH  23  24
ATOM     24  C   UNL     1      23.855  75.330  11.045  1.00  0.00    -0.000 C 
BRANCH  24  25
ATOM     25  C   UNL     1      22.386  74.857  10.986  1.00  0.00    -0.000 C 
BRANCH  25  26
ATOM     26  C   UNL     1      22.178  73.693  10.001  1.00  0.00    -0.000 C 
BRANCH  26  27
ATOM     27  C   UNL     1      21.401  72.515  10.620  1.00  0.00    -0.000 C 
BRANCH  27  28
ATOM     28  C   UNL     1      21.718  71.138  10.010  1.00  0.00    -0.000 C 
BRANCH  28  29
ATOM     29  C   UNL     1      23.106  71.077   9.354  1.00  0.00    -0.003 C 
ATOM     30  C   UNL     1      23.836  69.790   9.733  1.00  0.00     0.004 C 
ENDBRANCH  28  29
ENDBRANCH  27  28
ENDBRANCH  26  27
ENDBRANCH  25  26
ENDBRANCH  24  25
ENDBRANCH  23  24
ENDBRANCH  22  23
ENDBRANCH  21  22
ENDBRANCH  20  21
ENDBRANCH  19  20
ENDBRANCH  18  19
ENDBRANCH  17  18
ENDBRANCH   1  17
TORSDOF 26
ENDMDL
MODEL 2
REMARK VINA RESULT:    -2.700      3.159      7.945
REMARK INTER + INTRA:         -12.038
REMARK INTER:                  -6.949
REMARK INTRA:                  -5.090
REMARK UNBOUND:                -5.235
REMARK SMILES CCCCCCCCCCCCCCCCCCCCCCCCCCCC(=O)[O-]
REMARK SMILES IDX 15 1 16 2 17 3 18 4 19 5 20 6 21 7 22 8 23 9 24 10 25 11
REMARK SMILES IDX 26 12 27 13 28 14 29 15 30 16 14 17 13 18 12 19 11 20 10 21
REMARK SMILES IDX 9 22 8 23 7 24 6 25 5 26 4 27 3 28 2 29 1 30
REMARK H PARENT
REMARK Flexibility Score: inf
ROOT
ATOM      1  C   UNL     1      22.793  71.749  15.468  1.00  0.00     0.000 C 
ENDROOT
BRANCH   1   2
ATOM      2  C   UNL     1      23.450  73.110  15.159  1.00  0.00     0.000 C 
BRANCH   2   3
ATOM      3  C   UNL     1      22.449  74.268  15.002  1.00  0.00     0.000 C 
BRANCH   3   4
ATOM      4  C   UNL     1      22.795  75.207  13.835  1.00  0.00     0.000 C 
BRANCH   4   5
ATOM      5  C   UNL     1      21.810  75.085  12.663  1.00  0.00     0.000 C 
BRANCH   5   6
ATOM      6  C   UNL     1      20.564  74.256  13.018  1.00  0.00     0.000 C 
BRANCH   6   7
ATOM      7  C   UNL     1      20.518  72.910  12.273  1.00  0.00     0.000 C 
BRANCH   7   8
ATOM      8  C   UNL     1      21.790  72.647  11.447  1.00  0.00     0.000 C 
BRANCH   8   9
ATOM      9  C   UNL     1      22.438  71.292  11.774  1.00  0.00     0.000 C 
BRANCH   9  10
ATOM     10  C   UNL     1      23.969  71.372  11.877  1.00  0.00     0.000 C 
BRANCH  10  11
ATOM     11  C   UNL     1      24.467  72.777  11.510  1.00  0.00     0.000 C 
BRANCH  11  12
ATOM     12  C   UNL     1      25.904  72.775  10.965  1.00  0.00     0.006 C 
BRANCH  12  13
ATOM     13  C   UNL     1      26.673  71.499  11.336  1.00  0.00     0.053 C 
BRANCH  13  14
ATOM     14  C   UNL     1      27.646  71.780  12.437  1.00  0.00     0.041 C 
ATOM     15  O   UNL     1      28.878  71.852  12.191  1.00  0.00    -0.550 OA
ATOM     16  O   UNL     1      27.187  72.005  13.731  1.00  0.00    -0.550 OA
ENDBRANCH  13  14
ENDBRANCH  12  13
ENDBRANCH  11  12
ENDBRANCH  10  11
ENDBRANCH   9  10
ENDBRANCH   8   9
ENDBRANCH   7   8
ENDBRANCH   6   7
ENDBRANCH   5   6
ENDBRANCH   4   5
ENDBRANCH   3   4
ENDBRANCH   2   3
ENDBRANCH   1   2
BRANCH   1  17
ATOM     17  C   UNL     1      21.287  71.880  15.756  1.00  0.00     0.000 C 
BRANCH  17  18
ATOM     18  C   UNL     1      20.530  70.545  15.624  1.00  0.00     0.000 C 
BRANCH  18  19
ATOM     19  C   UNL     1      21.240  69.469  14.780  1.00  0.00     0.000 C 
BRANCH  19  20
ATOM     20  C   UNL     1      20.260  68.554  14.027  1.00  0.00     0.000 C 
BRANCH  20  21
ATOM     21  C   UNL     1      19.941  67.257  14.790  1.00  0.00     0.000 C 
BRANCH  21  22
ATOM     22  C   UNL     1      20.941  66.101  14.573  1.00  0.00    -0.000 C 
BRANCH  22  23
ATOM     23  C   UNL     1      21.028  65.080  15.722  1.00  0.00    -0.000 C 
BRANCH  23  24
ATOM     24  C   UNL     1      22.384  65.029  16.453  1.00  0.00    -0.000 C 
BRANCH  24  25
ATOM     25  C   UNL     1      23.334  66.193  16.094  1.00  0.00    -0.000 C 
BRANCH  25  26
ATOM     26  C   UNL     1      23.172  67.401  17.032  1.00  0.00    -0.000 C 
BRANCH  26  27
ATOM     27  C   UNL     1      22.733  67.003  18.454  1.00  0.00    -0.000 C 
BRANCH  27  28
ATOM     28  C   UNL     1      21.747  67.976  19.125  1.00  0.00    -0.000 C 
BRANCH  28  29
ATOM     29  C   UNL     1      20.390  68.045  18.407  1.00  0.00    -0.003 C 
ATOM     30  C   UNL     1      19.582  66.769  18.635  1.00  0.00     0.004 C 
ENDBRANCH  28  29
ENDBRANCH  27  28
ENDBRANCH  26  27
ENDBRANCH  25  26
ENDBRANCH  24  25
ENDBRANCH  23  24
ENDBRANCH  22  23
ENDBRANCH  21  22
ENDBRANCH  20  21
ENDBRANCH  19  20
ENDBRANCH  18  19
ENDBRANCH  17  18
ENDBRANCH   1  17
TORSDOF 26
ENDMDL
MODEL 3
REMARK VINA RESULT:    -2.696      3.220      8.001
REMARK INTER + INTRA:         -12.028
REMARK INTER:                  -7.254
REMARK INTRA:                  -4.774
REMARK UNBOUND:                -5.235
REMARK SMILES CCCCCCCCCCCCCCCCCCCCCCCCCCCC(=O)[O-]
REMARK SMILES IDX 15 1 16 2 17 3 18 4 19 5 20 6 21 7 22 8 23 9 24 10 25 11
REMARK SMILES IDX 26 12 27 13 28 14 29 15 30 16 14 17 13 18 12 19 11 20 10 21
REMARK SMILES IDX 9 22 8 23 7 24 6 25 5 26 4 27 3 28 2 29 1 30
REMARK H PARENT
REMARK Flexibility Score: inf
ROOT
ATOM      1  C   UNL     1      21.637  70.815  17.604  1.00  0.00     0.000 C 
ENDROOT
BRANCH   1   2
ATOM      2  C   UNL     1      20.685  70.257  16.526  1.00  0.00     0.000 C 
BRANCH   2   3
ATOM      3  C   UNL     1      19.354  71.020  16.409  1.00  0.00     0.000 C 
BRANCH   3   4
ATOM      4  C   UNL     1      19.322  71.994  15.220  1.00  0.00     0.000 C 
BRANCH   4   5
ATOM      5  C   UNL     1      19.897  73.375  15.569  1.00  0.00     0.000 C 
BRANCH   5   6
ATOM      6  C   UNL     1      21.055  73.787  14.643  1.00  0.00     0.000 C 
BRANCH   6   7
ATOM      7  C   UNL     1      22.426  73.697  15.336  1.00  0.00     0.000 C 
BRANCH   7   8
ATOM      8  C   UNL     1      23.309  72.577  14.758  1.00  0.00     0.000 C 
BRANCH   8   9
ATOM      9  C   UNL     1      22.609  71.790  13.638  1.00  0.00     0.000 C 
BRANCH   9  10
ATOM     10  C   UNL     1      23.514  71.556  12.419  1.00  0.00     0.000 C 
BRANCH  10  11
ATOM     11  C   UNL     1      24.933  72.079  12.684  1.00  0.00     0.000 C 
BRANCH  11  12
ATOM     12  C   UNL     1      25.931  71.669  11.590  1.00  0.00     0.006 C 
BRANCH  12  13
ATOM     13  C   UNL     1      27.138  70.904  12.149  1.00  0.00     0.053 C 
BRANCH  13  14
ATOM     14  C   UNL     1      28.148  71.857  12.704  1.00  0.00     0.041 C 
ATOM     15  O   UNL     1      28.093  72.207  13.911  1.00  0.00    -0.550 OA
ATOM     16  O   UNL     1      29.179  72.327  11.896  1.00  0.00    -0.550 OA
ENDBRANCH  13  14
ENDBRANCH  12  13
ENDBRANCH  11  12
ENDBRANCH  10  11
ENDBRANCH   9  10
ENDBRANCH   8   9
ENDBRANCH   7   8
ENDBRANCH   6   7
ENDBRANCH   5   6
ENDBRANCH   4   5
ENDBRANCH   3   4
ENDBRANCH   2   3
ENDBRANCH   1   2
BRANCH   1  17
ATOM     17  C   UNL     1      22.724  69.802  18.004  1.00  0.00     0.000 C 
BRANCH  17  18
ATOM     18  C   UNL     1      22.430  68.375  17.507  1.00  0.00     0.000 C 
BRANCH  18  19
ATOM     19  C   UNL     1      22.726  67.254  18.521  1.00  0.00     0.000 C 
BRANCH  19  20
ATOM     20  C   UNL     1      21.451  66.615  19.098  1.00  0.00     0.000 C 
BRANCH  20  21
ATOM     21  C   UNL     1      20.300  67.620  19.271  1.00  0.00     0.000 C 
BRANCH  21  22
ATOM     22  C   UNL     1      18.963  67.212  18.615  1.00  0.00    -0.000 C 
BRANCH  22  23
ATOM     23  C   UNL     1      19.068  66.128  17.527  1.00  0.00    -0.000 C 
BRANCH  23  24
ATOM     24  C   UNL     1      19.310  66.653  16.099  1.00  0.00    -0.000 C 
BRANCH  24  25
ATOM     25  C   UNL     1      20.567  66.068  15.420  1.00  0.00    -0.000 C 
BRANCH  25  26
ATOM     26  C   UNL     1      21.072  66.938  14.256  1.00  0.00    -0.000 C 
BRANCH  26  27
ATOM     27  C   UNL     1      19.938  67.680  13.525  1.00  0.00    -0.000 C 
BRANCH  27  28
ATOM     28  C   UNL     1      20.309  69.079  13.002  1.00  0.00    -0.000 C 
BRANCH  28  29
ATOM     29  C   UNL     1      19.131  69.800  12.328  1.00  0.00    -0.003 C 
ATOM     30  C   UNL     1      19.593  71.087  11.647  1.00  0.00     0.004 C 
ENDBRANCH  28  29
ENDBRANCH  27  28
ENDBRANCH  26  27
ENDBRANCH  25  26
ENDBRANCH  24  25
ENDBRANCH  23  24
ENDBRANCH  22  23
ENDBRANCH  21  22
ENDBRANCH  20  21
ENDBRANCH  19  20
ENDBRANCH  18  19
ENDBRANCH  17  18
ENDBRANCH   1  17
TORSDOF 26
ENDMDL
MODEL 4
REMARK VINA RESULT:    -2.671      3.082      6.819
REMARK INTER + INTRA:         -11.966
REMARK INTER:                  -7.964
REMARK INTRA:                  -4.002
REMARK UNBOUND:                -5.235
REMARK SMILES CCCCCCCCCCCCCCCCCCCCCCCCCCCC(=O)[O-]
REMARK SMILES IDX 15 1 16 2 17 3 18 4 19 5 20 6 21 7 22 8 23 9 24 10 25 11
REMARK SMILES IDX 26 12 27 13 28 14 29 15 30 16 14 17 13 18 12 19 11 20 10 21
REMARK SMILES IDX 9 22 8 23 7 24 6 25 5 26 4 27 3 28 2 29 1 30
REMARK H PARENT
REMARK Flexibility Score: inf
ROOT
ATOM      1  C   UNL     1      22.292  68.758  18.566  1.00  0.00     0.000 C 
ENDROOT
BRANCH   1   2
ATOM      2  C   UNL     1      22.797  67.631  17.642  1.00  0.00     0.000 C 
BRANCH   2   3
ATOM      3  C   UNL     1      22.417  66.216  18.113  1.00  0.00     0.000 C 
BRANCH   3   4
ATOM      4  C   UNL     1      21.289  66.213  19.157  1.00  0.00     0.000 C 
BRANCH   4   5
ATOM      5  C   UNL     1      20.153  65.242  18.801  1.00  0.00     0.000 C 
BRANCH   5   6
ATOM      6  C   UNL     1      18.839  65.965  18.456  1.00  0.00     0.000 C 
BRANCH   6   7
ATOM      7  C   UNL     1      18.928  67.486  18.672  1.00  0.00     0.000 C 
BRANCH   7   8
ATOM      8  C   UNL     1      18.784  68.280  17.361  1.00  0.00     0.000 C 
BRANCH   8   9
ATOM      9  C   UNL     1      19.410  67.554  16.159  1.00  0.00     0.000 C 
BRANCH   9  10
ATOM     10  C   UNL     1      19.388  68.398  14.875  1.00  0.00     0.000 C 
BRANCH  10  11
ATOM     11  C   UNL     1      20.666  68.172  14.053  1.00  0.00     0.000 C 
BRANCH  11  12
ATOM     12  C   UNL     1      20.739  69.074  12.811  1.00  0.00     0.006 C 
BRANCH  12  13
ATOM     13  C   UNL     1      20.740  68.274  11.501  1.00  0.00     0.053 C 
BRANCH  13  14
ATOM     14  C   UNL     1      21.284  69.107  10.384  1.00  0.00     0.041 C 
ATOM     15  O   UNL     1      20.535  69.461   9.436  1.00  0.00    -0.550 OA
ATOM     16  O   UNL     1      22.609  69.529  10.411  1.00  0.00    -0.550 OA
ENDBRANCH  13  14
ENDBRANCH  12  13
ENDBRANCH  11  12
ENDBRANCH  10  11
ENDBRANCH   9  10
ENDBRANCH   8   9
ENDBRANCH   7   8
ENDBRANCH   6   7
ENDBRANCH   5   6
ENDBRANCH   4   5
ENDBRANCH   3   4
ENDBRANCH   2   3
ENDBRANCH   1   2
BRANCH   1  17
ATOM     17  C   UNL     1      22.642  70.156  18.027  1.00  0.00     0.000 C 
BRANCH  17  18
ATOM     18  C   UNL     1      22.182  70.374  16.573  1.00  0.00     0.000 C 
BRANCH  18  19
ATOM     19  C   UNL     1      21.092  71.447  16.385  1.00  0.00     0.000 C 
BRANCH  19  20
ATOM     20  C   UNL     1      20.954  71.911  14.925  1.00  0.00     0.000 C 
BRANCH  20  21
ATOM     21  C   UNL     1      21.711  73.219  14.635  1.00  0.00     0.000 C 
BRANCH  21  22
ATOM     22  C   UNL     1      23.194  73.231  15.061  1.00  0.00    -0.000 C 
BRANCH  22  23
ATOM     23  C   UNL     1      24.136  72.379  14.191  1.00  0.00    -0.000 C 
BRANCH  23  24
ATOM     24  C   UNL     1      23.635  72.102  12.760  1.00  0.00    -0.000 C 
BRANCH  24  25
ATOM     25  C   UNL     1      24.339  72.945  11.675  1.00  0.00    -0.000 C 
BRANCH  25  26
ATOM     26  C   UNL     1      25.056  72.080  10.624  1.00  0.00    -0.000 C 
BRANCH  26  27
ATOM     27  C   UNL     1      25.959  71.002  11.249  1.00  0.00    -0.000 C 
BRANCH  27  28
ATOM     28  C   UNL     1      27.467  71.306  11.193  1.00  0.00    -0.000 C 
BRANCH  28  29
ATOM     29  C   UNL     1      27.888  72.432  12.150  1.00  0.00    -0.003 C 
ATOM     30  C   UNL     1      27.876  71.953  13.600  1.00  0.00     0.004 C 
ENDBRANCH  28  29
ENDBRANCH  27  28
ENDBRANCH  26  27
ENDBRANCH  25  26
ENDBRANCH  24  25
ENDBRANCH  23  24
ENDBRANCH  22  23
ENDBRANCH  21  22
ENDBRANCH  20  21
ENDBRANCH  19  20
ENDBRANCH  18  19
ENDBRANCH  17  18
ENDBRANCH   1  17
TORSDOF 26
ENDMDL
MODEL 5
REMARK VINA RESULT:    -2.668      3.670      7.633
REMARK INTER + INTRA:         -11.958
REMARK INTER:                  -8.009
REMARK INTRA:                  -3.950
REMARK UNBOUND:                -5.235
REMARK SMILES CCCCCCCCCCCCCCCCCCCCCCCCCCCC(=O)[O-]
REMARK SMILES IDX 15 1 16 2 17 3 18 4 19 5 20 6 21 7 22 8 23 9 24 10 25 11
REMARK SMILES IDX 26 12 27 13 28 14 29 15 30 16 14 17 13 18 12 19 11 20 10 21
REMARK SMILES IDX 9 22 8 23 7 24 6 25 5 26 4 27 3 28 2 29 1 30
REMARK H PARENT
REMARK Flexibility Score: inf
ROOT
ATOM      1  C   UNL     1      27.615  72.600  12.084  1.00  0.00     0.000 C 
ENDROOT
BRANCH   1   2
ATOM      2  C   UNL     1      28.756  71.842  11.374  1.00  0.00     0.000 C 
BRANCH   2   3
ATOM      3  C   UNL     1      28.306  71.046  10.137  1.00  0.00     0.000 C 
BRANCH   3   4
ATOM      4  C   UNL     1      27.940  71.944   8.944  1.00  0.00     0.000 C 
BRANCH   4   5
ATOM      5  C   UNL     1      26.508  71.707   8.441  1.00  0.00     0.000 C 
BRANCH   5   6
ATOM      6  C   UNL     1      25.633  72.971   8.523  1.00  0.00     0.000 C 
BRANCH   6   7
ATOM      7  C   UNL     1      26.403  74.188   9.066  1.00  0.00     0.000 C 
BRANCH   7   8
ATOM      8  C   UNL     1      25.602  74.973  10.120  1.00  0.00     0.000 C 
BRANCH   8   9
ATOM      9  C   UNL     1      24.085  74.901   9.885  1.00  0.00     0.000 C 
BRANCH   9  10
ATOM     10  C   UNL     1      23.273  75.524  11.031  1.00  0.00     0.000 C 
BRANCH  10  11
ATOM     11  C   UNL     1      23.552  77.030  11.140  1.00  0.00     0.000 C 
BRANCH  11  12
ATOM     12  C   UNL     1      23.727  77.497  12.594  1.00  0.00     0.006 C 
BRANCH  12  13
ATOM     13  C   UNL     1      23.870  79.021  12.711  1.00  0.00     0.053 C 
BRANCH  13  14
ATOM     14  C   UNL     1      24.980  79.369  13.651  1.00  0.00     0.041 C 
ATOM     15  O   UNL     1      24.902  79.053  14.867  1.00  0.00    -0.550 OA
ATOM     16  O   UNL     1      26.122  80.005  13.175  1.00  0.00    -0.550 OA
ENDBRANCH  13  14
ENDBRANCH  12  13
ENDBRANCH  11  12
ENDBRANCH  10  11
ENDBRANCH   9  10
ENDBRANCH   8   9
ENDBRANCH   7   8
ENDBRANCH   6   7
ENDBRANCH   5   6
ENDBRANCH   4   5
ENDBRANCH   3   4
ENDBRANCH   2   3
ENDBRANCH   1   2
BRANCH   1  17
ATOM     17  C   UNL     1      26.584  71.646  12.712  1.00  0.00     0.000 C 
BRANCH  17  18
ATOM     18  C   UNL     1      25.204  71.717  12.031  1.00  0.00     0.000 C 
BRANCH  18  19
ATOM     19  C   UNL     1      24.118  72.465  12.827  1.00  0.00     0.000 C 
BRANCH  19  20
ATOM     20  C   UNL     1      24.359  72.434  14.346  1.00  0.00     0.000 C 
BRANCH  20  21
ATOM     21  C   UNL     1      23.535  73.486  15.107  1.00  0.00     0.000 C 
BRANCH  21  22
ATOM     22  C   UNL     1      22.454  74.207  14.274  1.00  0.00    -0.000 C 
BRANCH  22  23
ATOM     23  C   UNL     1      21.067  73.539  14.275  1.00  0.00    -0.000 C 
BRANCH  23  24
ATOM     24  C   UNL     1      20.814  72.556  15.434  1.00  0.00    -0.000 C 
BRANCH  24  25
ATOM     25  C   UNL     1      20.710  71.079  14.993  1.00  0.00    -0.000 C 
BRANCH  25  26
ATOM     26  C   UNL     1      21.617  70.149  15.818  1.00  0.00    -0.000 C 
BRANCH  26  27
ATOM     27  C   UNL     1      22.173  70.823  17.086  1.00  0.00    -0.000 C 
BRANCH  27  28
ATOM     28  C   UNL     1      22.566  69.854  18.216  1.00  0.00    -0.000 C 
BRANCH  28  29
ATOM     29  C   UNL     1      21.915  68.470  18.073  1.00  0.00    -0.003 C 
ATOM     30  C   UNL     1      22.973  67.379  17.919  1.00  0.00     0.004 C 
ENDBRANCH  28  29
ENDBRANCH  27  28
ENDBRANCH  26  27
ENDBRANCH  25  26
ENDBRANCH  24  25
ENDBRANCH  23  24
ENDBRANCH  22  23
ENDBRANCH  21  22
ENDBRANCH  20  21
ENDBRANCH  19  20
ENDBRANCH  18  19
ENDBRANCH  17  18
ENDBRANCH   1  17
TORSDOF 26
ENDMDL
MODEL 6
REMARK VINA RESULT:    -2.640      3.565      7.460
REMARK INTER + INTRA:         -11.888
REMARK INTER:                  -6.723
REMARK INTRA:                  -5.164
REMARK UNBOUND:                -5.235
REMARK SMILES CCCCCCCCCCCCCCCCCCCCCCCCCCCC(=O)[O-]
REMARK SMILES IDX 15 1 16 2 17 3 18 4 19 5 20 6 21 7 22 8 23 9 24 10 25 11
REMARK SMILES IDX 26 12 27 13 28 14 29 15 30 16 14 17 13 18 12 19 11 20 10 21
REMARK SMILES IDX 9 22 8 23 7 24 6 25 5 26 4 27 3 28 2 29 1 30
REMARK H PARENT
REMARK Flexibility Score: inf
ROOT
ATOM      1  C   UNL     1      21.813  68.521  18.751  1.00  0.00     0.000 C 
ENDROOT
BRANCH   1   2
ATOM      2  C   UNL     1      20.821  67.479  19.310  1.00  0.00     0.000 C 
BRANCH   2   3
ATOM      3  C   UNL     1      19.402  67.589  18.726  1.00  0.00     0.000 C 
BRANCH   3   4
ATOM      4  C   UNL     1      19.270  66.934  17.342  1.00  0.00     0.000 C 
BRANCH   4   5
ATOM      5  C   UNL     1      19.213  67.962  16.201  1.00  0.00     0.000 C 
BRANCH   5   6
ATOM      6  C   UNL     1      18.210  69.097  16.475  1.00  0.00     0.000 C 
BRANCH   6   7
ATOM      7  C   UNL     1      18.881  70.482  16.506  1.00  0.00     0.000 C 
BRANCH   7   8
ATOM      8  C   UNL     1      20.380  70.422  16.163  1.00  0.00     0.000 C 
BRANCH   8   9
ATOM      9  C   UNL     1      20.950  71.793  15.765  1.00  0.00     0.000 C 
BRANCH   9  10
ATOM     10  C   UNL     1      22.479  71.781  15.608  1.00  0.00     0.000 C 
BRANCH  10  11
ATOM     11  C   UNL     1      22.880  72.067  14.154  1.00  0.00     0.000 C 
BRANCH  11  12
ATOM     12  C   UNL     1      24.401  72.186  13.970  1.00  0.00     0.006 C 
BRANCH  12  13
ATOM     13  C   UNL     1      24.828  72.072  12.500  1.00  0.00     0.053 C 
BRANCH  13  14
ATOM     14  C   UNL     1      26.249  71.615  12.404  1.00  0.00     0.041 C 
ATOM     15  O   UNL     1      27.096  72.001  13.250  1.00  0.00    -0.550 OA
ATOM     16  O   UNL     1      26.628  70.725  11.405  1.00  0.00    -0.550 OA
ENDBRANCH  13  14
ENDBRANCH  12  13
ENDBRANCH  11  12
ENDBRANCH  10  11
ENDBRANCH   9  10
ENDBRANCH   8   9
ENDBRANCH   7   8
ENDBRANCH   6   7
ENDBRANCH   5   6
ENDBRANCH   4   5
ENDBRANCH   3   4
ENDBRANCH   2   3
ENDBRANCH   1   2
BRANCH   1  17
ATOM     17  C   UNL     1      22.782  67.911  17.723  1.00  0.00     0.000 C 
BRANCH  17  18
ATOM     18  C   UNL     1      23.091  66.427  17.992  1.00  0.00     0.000 C 
BRANCH  18  19
ATOM     19  C   UNL     1      22.971  65.500  16.767  1.00  0.00     0.000 C 
BRANCH  19  20
ATOM     20  C   UNL     1      22.422  66.220  15.523  1.00  0.00     0.000 C 
BRANCH  20  21
ATOM     21  C   UNL     1      21.759  65.262  14.518  1.00  0.00     0.000 C 
BRANCH  21  22
ATOM     22  C   UNL     1      22.268  65.375  13.065  1.00  0.00    -0.000 C 
BRANCH  22  23
ATOM     23  C   UNL     1      21.300  66.054  12.079  1.00  0.00    -0.000 C 
BRANCH  23  24
ATOM     24  C   UNL     1      19.854  66.217  12.586  1.00  0.00    -0.000 C 
BRANCH  24  25
ATOM     25  C   UNL     1      19.369  67.682  12.638  1.00  0.00    -0.000 C 
BRANCH  25  26
ATOM     26  C   UNL     1      20.522  68.682  12.839  1.00  0.00    -0.000 C 
BRANCH  26  27
ATOM     27  C   UNL     1      20.139  70.124  12.458  1.00  0.00    -0.000 C 
BRANCH  27  28
ATOM     28  C   UNL     1      18.682  70.512  12.771  1.00  0.00    -0.000 C 
BRANCH  28  29
ATOM     29  C   UNL     1      18.505  72.016  13.029  1.00  0.00    -0.003 C 
ATOM     30  C   UNL     1      19.673  72.814  12.452  1.00  0.00     0.004 C 
ENDBRANCH  28  29
ENDBRANCH  27  28
ENDBRANCH  26  27
ENDBRANCH  25  26
ENDBRANCH  24  25
ENDBRANCH  23  24
ENDBRANCH  22  23
ENDBRANCH  21  22
ENDBRANCH  20  21
ENDBRANCH  19  20
ENDBRANCH  18  19
ENDBRANCH  17  18
ENDBRANCH   1  17
TORSDOF 26
ENDMDL
MODEL 7
REMARK VINA RESULT:    -2.610      3.129      7.927
REMARK INTER + INTRA:         -11.812
REMARK INTER:                  -7.280
REMARK INTRA:                  -4.531
REMARK UNBOUND:                -5.235
REMARK SMILES CCCCCCCCCCCCCCCCCCCCCCCCCCCC(=O)[O-]
REMARK SMILES IDX 15 1 16 2 17 3 18 4 19 5 20 6 21 7 22 8 23 9 24 10 25 11
REMARK SMILES IDX 26 12 27 13 28 14 29 15 30 16 14 17 13 18 12 19 11 20 10 21
REMARK SMILES IDX 9 22 8 23 7 24 6 25 5 26 4 27 3 28 2 29 1 30
REMARK H PARENT
REMARK Flexibility Score: inf
ROOT
ATOM      1  C   UNL     1      22.061  70.836  16.512  1.00  0.00     0.000 C 
ENDROOT
BRANCH   1   2
ATOM      2  C   UNL     1      21.092  71.812  15.814  1.00  0.00     0.000 C 
BRANCH   2   3
ATOM      3  C   UNL     1      21.645  72.424  14.515  1.00  0.00     0.000 C 
BRANCH   3   4
ATOM      4  C   UNL     1      22.919  71.724  14.016  1.00  0.00     0.000 C 
BRANCH   4   5
ATOM      5  C   UNL     1      23.793  72.636  13.141  1.00  0.00     0.000 C 
BRANCH   5   6
ATOM      6  C   UNL     1      22.982  73.391  12.074  1.00  0.00     0.000 C 
BRANCH   6   7
ATOM      7  C   UNL     1      23.378  72.994  10.641  1.00  0.00     0.000 C 
BRANCH   7   8
ATOM      8  C   UNL     1      22.863  71.597  10.249  1.00  0.00     0.000 C 
BRANCH   8   9
ATOM      9  C   UNL     1      23.927  70.757   9.523  1.00  0.00     0.000 C 
BRANCH   9  10
ATOM     10  C   UNL     1      25.235  70.634  10.319  1.00  0.00     0.000 C 
BRANCH  10  11
ATOM     11  C   UNL     1      26.450  70.866   9.410  1.00  0.00     0.000 C 
BRANCH  11  12
ATOM     12  C   UNL     1      27.537  71.722  10.078  1.00  0.00     0.006 C 
BRANCH  12  13
ATOM     13  C   UNL     1      27.037  72.427  11.346  1.00  0.00     0.053 C 
BRANCH  13  14
ATOM     14  C   UNL     1      27.902  72.074  12.514  1.00  0.00     0.041 C 
ATOM     15  O   UNL     1      29.143  71.926  12.361  1.00  0.00    -0.550 OA
ATOM     16  O   UNL     1      27.345  71.952  13.782  1.00  0.00    -0.550 OA
ENDBRANCH  13  14
ENDBRANCH  12  13
ENDBRANCH  11  12
ENDBRANCH  10  11
ENDBRANCH   9  10
ENDBRANCH   8   9
ENDBRANCH   7   8
ENDBRANCH   6   7
ENDBRANCH   5   6
ENDBRANCH   4   5
ENDBRANCH   3   4
ENDBRANCH   2   3
ENDBRANCH   1   2
BRANCH   1  17
ATOM     17  C   UNL     1      21.389  70.068  17.663  1.00  0.00     0.000 C 
BRANCH  17  18
ATOM     18  C   UNL     1      22.370  69.177  18.447  1.00  0.00     0.000 C 
BRANCH  18  19
ATOM     19  C   UNL     1      21.755  67.901  19.053  1.00  0.00     0.000 C 
BRANCH  19  20
ATOM     20  C   UNL     1      22.295  66.612  18.411  1.00  0.00     0.000 C 
BRANCH  20  21
ATOM     21  C   UNL     1      23.338  66.878  17.311  1.00  0.00     0.000 C 
BRANCH  21  22
ATOM     22  C   UNL     1      22.856  66.615  15.868  1.00  0.00    -0.000 C 
BRANCH  22  23
ATOM     23  C   UNL     1      21.834  65.475  15.713  1.00  0.00    -0.000 C 
BRANCH  23  24
ATOM     24  C   UNL     1      20.508  65.872  15.034  1.00  0.00    -0.000 C 
BRANCH  24  25
ATOM     25  C   UNL     1      19.416  66.345  16.018  1.00  0.00    -0.000 C 
BRANCH  25  26
ATOM     26  C   UNL     1      19.155  67.858  15.931  1.00  0.00    -0.000 C 
BRANCH  26  27
ATOM     27  C   UNL     1      19.814  68.512  14.702  1.00  0.00    -0.000 C 
BRANCH  27  28
ATOM     28  C   UNL     1      18.860  69.329  13.812  1.00  0.00    -0.000 C 
BRANCH  28  29
ATOM     29  C   UNL     1      19.565  69.968  12.605  1.00  0.00    -0.003 C 
ATOM     30  C   UNL     1      20.856  69.224  12.267  1.00  0.00     0.004 C 
ENDBRANCH  28  29
ENDBRANCH  27  28
ENDBRANCH  26  27
ENDBRANCH  25  26
ENDBRANCH  24  25
ENDBRANCH  23  24
ENDBRANCH  22  23
ENDBRANCH  21  22
ENDBRANCH  20  21
ENDBRANCH  19  20
ENDBRANCH  18  19
ENDBRANCH  17  18
ENDBRANCH   1  17
TORSDOF 26
ENDMDL
MODEL 8
REMARK VINA RESULT:    -2.588      2.473      6.350
REMARK INTER + INTRA:         -11.757
REMARK INTER:                  -7.312
REMARK INTRA:                  -4.445
REMARK UNBOUND:                -5.235
REMARK SMILES CCCCCCCCCCCCCCCCCCCCCCCCCCCC(=O)[O-]
REMARK SMILES IDX 15 1 16 2 17 3 18 4 19 5 20 6 21 7 22 8 23 9 24 10 25 11
REMARK SMILES IDX 26 12 27 13 28 14 29 15 30 16 14 17 13 18 12 19 11 20 10 21
REMARK SMILES IDX 9 22 8 23 7 24 6 25 5 26 4 27 3 28 2 29 1 30
REMARK H PARENT
REMARK Flexibility Score: inf
ROOT
ATOM      1  C   UNL     1      21.580  71.627  16.190  1.00  0.00     0.000 C 
ENDROOT
BRANCH   1   2
ATOM      2  C   UNL     1      22.339  70.379  16.688  1.00  0.00     0.000 C 
BRANCH   2   3
ATOM      3  C   UNL     1      22.376  70.238  18.220  1.00  0.00     0.000 C 
BRANCH   3   4
ATOM      4  C   UNL     1      22.223  68.784  18.694  1.00  0.00     0.000 C 
BRANCH   4   5
ATOM      5  C   UNL     1      22.705  67.765  17.649  1.00  0.00     0.000 C 
BRANCH   5   6
ATOM      6  C   UNL     1      22.957  66.371  18.250  1.00  0.00     0.000 C 
BRANCH   6   7
ATOM      7  C   UNL     1      21.821  65.381  17.942  1.00  0.00     0.000 C 
BRANCH   7   8
ATOM      8  C   UNL     1      20.656  65.486  18.942  1.00  0.00     0.000 C 
BRANCH   8   9
ATOM      9  C   UNL     1      19.313  65.787  18.256  1.00  0.00     0.000 C 
BRANCH   9  10
ATOM     10  C   UNL     1      18.790  67.198  18.563  1.00  0.00     0.000 C 
BRANCH  10  11
ATOM     11  C   UNL     1      18.946  68.115  17.341  1.00  0.00     0.000 C 
BRANCH  11  12
ATOM     12  C   UNL     1      19.275  67.339  16.055  1.00  0.00     0.006 C 
BRANCH  12  13
ATOM     13  C   UNL     1      19.960  68.215  14.997  1.00  0.00     0.053 C 
BRANCH  13  14
ATOM     14  C   UNL     1      20.792  67.372  14.083  1.00  0.00     0.041 C 
ATOM     15  O   UNL     1      21.547  66.482  14.555  1.00  0.00    -0.550 OA
ATOM     16  O   UNL     1      20.701  67.540  12.706  1.00  0.00    -0.550 OA
ENDBRANCH  13  14
ENDBRANCH  12  13
ENDBRANCH  11  12
ENDBRANCH  10  11
ENDBRANCH   9  10
ENDBRANCH   8   9
ENDBRANCH   7   8
ENDBRANCH   6   7
ENDBRANCH   5   6
ENDBRANCH   4   5
ENDBRANCH   3   4
ENDBRANCH   2   3
ENDBRANCH   1   2
BRANCH   1  17
ATOM     17  C   UNL     1      20.078  71.565  16.514  1.00  0.00     0.000 C 
BRANCH  17  18
ATOM     18  C   UNL     1      19.265  72.674  15.821  1.00  0.00     0.000 C 
BRANCH  18  19
ATOM     19  C   UNL     1      20.098  73.843  15.260  1.00  0.00     0.000 C 
BRANCH  19  20
ATOM     20  C   UNL     1      19.919  74.032  13.744  1.00  0.00     0.000 C 
BRANCH  20  21
ATOM     21  C   UNL     1      19.497  72.740  13.021  1.00  0.00     0.000 C 
BRANCH  21  22
ATOM     22  C   UNL     1      20.543  72.159  12.046  1.00  0.00    -0.000 C 
BRANCH  22  23
ATOM     23  C   UNL     1      21.512  71.130  12.656  1.00  0.00    -0.000 C 
BRANCH  23  24
ATOM     24  C   UNL     1      22.954  71.631  12.866  1.00  0.00    -0.000 C 
BRANCH  24  25
ATOM     25  C   UNL     1      23.260  72.973  12.165  1.00  0.00    -0.000 C 
BRANCH  25  26
ATOM     26  C   UNL     1      24.586  72.946  11.385  1.00  0.00    -0.000 C 
BRANCH  26  27
ATOM     27  C   UNL     1      25.146  71.523  11.203  1.00  0.00    -0.000 C 
BRANCH  27  28
ATOM     28  C   UNL     1      26.461  71.242  11.952  1.00  0.00    -0.000 C 
BRANCH  28  29
ATOM     29  C   UNL     1      27.506  72.352  11.766  1.00  0.00    -0.003 C 
ATOM     30  C   UNL     1      28.709  72.133  12.682  1.00  0.00     0.004 C 
ENDBRANCH  28  29
ENDBRANCH  27  28
ENDBRANCH  26  27
ENDBRANCH  25  26
ENDBRANCH  24  25
ENDBRANCH  23  24
ENDBRANCH  22  23
ENDBRANCH  21  22
ENDBRANCH  20  21
ENDBRANCH  19  20
ENDBRANCH  18  19
ENDBRANCH  17  18
ENDBRANCH   1  17
TORSDOF 26
ENDMDL
MODEL 9
REMARK VINA RESULT:    -2.545      3.417      7.220
REMARK INTER + INTRA:         -11.650
REMARK INTER:                  -6.117
REMARK INTRA:                  -5.533
REMARK UNBOUND:                -5.235
REMARK SMILES CCCCCCCCCCCCCCCCCCCCCCCCCCCC(=O)[O-]
REMARK SMILES IDX 15 1 16 2 17 3 18 4 19 5 20 6 21 7 22 8 23 9 24 10 25 11
REMARK SMILES IDX 26 12 27 13 28 14 29 15 30 16 14 17 13 18 12 19 11 20 10 21
REMARK SMILES IDX 9 22 8 23 7 24 6 25 5 26 4 27 3 28 2 29 1 30
REMARK H PARENT
REMARK Flexibility Score: inf
ROOT
ATOM      1  C   UNL     1      26.582  71.989  13.118  1.00  0.00     0.000 C 
ENDROOT
BRANCH   1   2
ATOM      2  C   UNL     1      27.738  72.101  12.103  1.00  0.00     0.000 C 
BRANCH   2   3
ATOM      3  C   UNL     1      27.462  71.405  10.758  1.00  0.00     0.000 C 
BRANCH   3   4
ATOM      4  C   UNL     1      27.213  72.395   9.609  1.00  0.00     0.000 C 
BRANCH   4   5
ATOM      5  C   UNL     1      26.242  71.845   8.553  1.00  0.00     0.000 C 
BRANCH   5   6
ATOM      6  C   UNL     1      25.779  70.410   8.860  1.00  0.00     0.000 C 
BRANCH   6   7
ATOM      7  C   UNL     1      24.285  70.194   8.561  1.00  0.00     0.000 C 
BRANCH   7   8
ATOM      8  C   UNL     1      23.502  69.690   9.787  1.00  0.00     0.000 C 
BRANCH   8   9
ATOM      9  C   UNL     1      22.455  70.703  10.276  1.00  0.00     0.000 C 
BRANCH   9  10
ATOM     10  C   UNL     1      22.271  71.884   9.311  1.00  0.00     0.000 C 
BRANCH  10  11
ATOM     11  C   UNL     1      22.404  73.222  10.054  1.00  0.00     0.000 C 
BRANCH  11  12
ATOM     12  C   UNL     1      23.486  74.130   9.451  1.00  0.00     0.006 C 
BRANCH  12  13
ATOM     13  C   UNL     1      24.497  74.618  10.498  1.00  0.00     0.053 C 
BRANCH  13  14
ATOM     14  C   UNL     1      25.321  75.737   9.945  1.00  0.00     0.041 C 
ATOM     15  O   UNL     1      26.505  75.906  10.337  1.00  0.00    -0.550 OA
ATOM     16  O   UNL     1      24.795  76.569   8.961  1.00  0.00    -0.550 OA
ENDBRANCH  13  14
ENDBRANCH  12  13
ENDBRANCH  11  12
ENDBRANCH  10  11
ENDBRANCH   9  10
ENDBRANCH   8   9
ENDBRANCH   7   8
ENDBRANCH   6   7
ENDBRANCH   5   6
ENDBRANCH   4   5
ENDBRANCH   3   4
ENDBRANCH   2   3
ENDBRANCH   1   2
BRANCH   1  17
ATOM     17  C   UNL     1      25.249  71.615  12.446  1.00  0.00     0.000 C 
BRANCH  17  18
ATOM     18  C   UNL     1      24.020  72.128  13.218  1.00  0.00     0.000 C 
BRANCH  18  19
ATOM     19  C   UNL     1      24.314  72.681  14.626  1.00  0.00     0.000 C 
BRANCH  19  20
ATOM     20  C   UNL     1      23.242  73.670  15.117  1.00  0.00     0.000 C 
BRANCH  20  21
ATOM     21  C   UNL     1      22.455  74.324  13.968  1.00  0.00     0.000 C 
BRANCH  21  22
ATOM     22  C   UNL     1      20.918  74.235  14.087  1.00  0.00    -0.000 C 
BRANCH  22  23
ATOM     23  C   UNL     1      20.203  73.578  12.893  1.00  0.00    -0.000 C 
BRANCH  23  24
ATOM     24  C   UNL     1      20.166  72.038  12.918  1.00  0.00    -0.000 C 
BRANCH  24  25
ATOM     25  C   UNL     1      20.228  71.431  14.336  1.00  0.00    -0.000 C 
BRANCH  25  26
ATOM     26  C   UNL     1      20.953  70.074  14.370  1.00  0.00    -0.000 C 
BRANCH  26  27
ATOM     27  C   UNL     1      21.957  69.959  15.532  1.00  0.00    -0.000 C 
BRANCH  27  28
ATOM     28  C   UNL     1      21.609  70.798  16.775  1.00  0.00    -0.000 C 
BRANCH  28  29
ATOM     29  C   UNL     1      22.442  70.417  18.008  1.00  0.00    -0.003 C 
ATOM     30  C   UNL     1      22.366  68.916  18.280  1.00  0.00     0.004 C 
ENDBRANCH  28  29
ENDBRANCH  27  28
ENDBRANCH  26  27
ENDBRANCH  25  26
ENDBRANCH  24  25
ENDBRANCH  23  24
ENDBRANCH  22  23
ENDBRANCH  21  22
ENDBRANCH  20  21
ENDBRANCH  19  20
ENDBRANCH  18  19
ENDBRANCH  17  18
ENDBRANCH   1  17
TORSDOF 26
ENDMDL
