MODEL 1
REMARK VINA RESULT:    -8.781      0.000      0.000
REMARK INTER + INTRA:         -12.223
REMARK INTER:                 -12.631
REMARK INTRA:                   0.407
REMARK UNBOUND:                 0.407
REMARK SMILES O=c1cc(-c2ccc(O)c(O)c2)oc2cc(O[C@@H]3O[C@@H](CO)[C@H](O)[C@@H](O)[C@H]3O)cc(O)c12
REMARK SMILES IDX 17 1 16 2 4 3 3 4 13 5 2 6 14 7 1 8 32 9 15 10 30 11 29 12
REMARK SMILES IDX 5 13 6 14 7 15 8 16 12 17 10 18 9 19 11 21 31 23 18 25 27 26
REMARK SMILES IDX 19 27 25 28 20 29 23 30 28 31 26 33 21 35 22 36 24 38
REMARK H PARENT 9 20 11 22 31 24 28 32 26 34 22 37 24 39
REMARK Flexibility Score: inf
ROOT
ATOM      1  O   UNL     1      -3.060   0.966  12.450  1.00  0.00    -0.462 OA
ENDROOT
BRANCH   1   2
ATOM      2  C   UNL     1      -4.052  -0.002  12.225  1.00  0.00     0.130 A 
ATOM      3  C   UNL     1      -6.319  -3.834  13.933  1.00  0.00     0.138 A 
ATOM      4  C   UNL     1      -7.107  -3.961  12.776  1.00  0.00     0.100 A 
ATOM      5  O   UNL     1      -5.426  -2.850  14.011  1.00  0.00    -0.456 OA
ATOM      6  C   UNL     1      -6.955  -3.043  11.738  1.00  0.00     0.197 A 
ATOM      7  C   UNL     1      -5.241  -1.955  13.046  1.00  0.00     0.146 A 
ATOM      8  O   UNL     1      -7.671  -3.160  10.706  1.00  0.00    -0.289 OA
ATOM      9  C   UNL     1      -6.008  -2.006  11.858  1.00  0.00     0.107 A 
ATOM     10  C   UNL     1      -4.276  -0.958  13.218  1.00  0.00     0.094 A 
ATOM     11  C   UNL     1      -5.789  -1.036  10.854  1.00  0.00     0.134 A 
ATOM     12  C   UNL     1      -4.815  -0.043  11.045  1.00  0.00     0.093 A 
BRANCH   3  13
ATOM     13  C   UNL     1      -6.442  -4.776  15.076  1.00  0.00     0.021 A 
ATOM     14  C   UNL     1      -5.498  -5.808  15.224  1.00  0.00     0.016 A 
ATOM     15  C   UNL     1      -5.582  -6.701  16.295  1.00  0.00     0.051 A 
ATOM     16  C   UNL     1      -6.603  -6.575  17.241  1.00  0.00     0.157 A 
ATOM     17  C   UNL     1      -7.461  -4.648  16.040  1.00  0.00     0.062 A 
ATOM     18  C   UNL     1      -7.547  -5.544  17.115  1.00  0.00     0.158 A 
BRANCH  16  19
ATOM     19  O   UNL     1      -6.662  -7.482  18.299  1.00  0.00    -0.504 OA
ATOM     20  H   UNL     1      -5.876  -8.068  18.551  1.00  0.00     0.293 HD
ENDBRANCH  16  19
BRANCH  18  21
ATOM     21  O   UNL     1      -8.562  -5.410  18.060  1.00  0.00    -0.504 OA
ATOM     22  H   UNL     1      -8.361  -5.186  19.028  1.00  0.00     0.293 HD
ENDBRANCH  18  21
ENDBRANCH   3  13
BRANCH  11  23
ATOM     23  O   UNL     1      -6.528  -1.050   9.670  1.00  0.00    -0.507 OA
ATOM     24  H   UNL     1      -7.319  -0.433   9.528  1.00  0.00     0.293 HD
ENDBRANCH  11  23
ENDBRANCH   1   2
BRANCH   1  25
ATOM     25  C   UNL     1      -1.668   0.800  12.159  1.00  0.00     0.339 C 
ATOM     26  C   UNL     1      -1.386  -0.646  11.707  1.00  0.00     0.214 C 
ATOM     27  O   UNL     1      -1.224   1.737  11.189  1.00  0.00    -0.332 OA
ATOM     28  C   UNL     1      -2.032  -0.904  10.334  1.00  0.00     0.180 C 
ATOM     29  C   UNL     1      -1.909   1.582   9.954  1.00  0.00     0.179 C 
ATOM     30  C   UNL     1      -1.625   0.190   9.338  1.00  0.00     0.177 C 
BRANCH  26  31
ATOM     31  O   UNL     1       0.001  -0.859  11.626  1.00  0.00    -0.384 OA
ATOM     32  H   UNL     1       0.260  -1.372  12.434  1.00  0.00     0.211 HD
ENDBRANCH  26  31
BRANCH  28  33
ATOM     33  O   UNL     1      -1.638  -2.158   9.839  1.00  0.00    -0.387 OA
ATOM     34  H   UNL     1      -0.646  -2.156   9.812  1.00  0.00     0.211 HD
ENDBRANCH  28  33
BRANCH  29  35
ATOM     35  C   UNL     1      -1.480   2.720   9.014  1.00  0.00     0.191 C 
BRANCH  35  36
ATOM     36  O   UNL     1      -0.356   2.358   8.257  1.00  0.00    -0.394 OA
ATOM     37  H   UNL     1       0.281   1.921   8.880  1.00  0.00     0.210 HD
ENDBRANCH  35  36
ENDBRANCH  29  35
BRANCH  30  38
ATOM     38  O   UNL     1      -2.365   0.022   8.154  1.00  0.00    -0.387 OA
ATOM     39  H   UNL     1      -3.245  -0.360   8.411  1.00  0.00     0.211 HD
ENDBRANCH  30  38
ENDBRANCH   1  25
TORSDOF 11
ENDMDL
MODEL 2
REMARK VINA RESULT:    -8.560      1.897      3.269
REMARK INTER + INTRA:         -11.906
REMARK INTER:                 -12.190
REMARK INTRA:                   0.285
REMARK UNBOUND:                 0.407
REMARK SMILES O=c1cc(-c2ccc(O)c(O)c2)oc2cc(O[C@@H]3O[C@@H](CO)[C@H](O)[C@@H](O)[C@H]3O)cc(O)c12
REMARK SMILES IDX 17 1 16 2 4 3 3 4 13 5 2 6 14 7 1 8 32 9 15 10 30 11 29 12
REMARK SMILES IDX 5 13 6 14 7 15 8 16 12 17 10 18 9 19 11 21 31 23 18 25 27 26
REMARK SMILES IDX 19 27 25 28 20 29 23 30 28 31 26 33 21 35 22 36 24 38
REMARK H PARENT 9 20 11 22 31 24 28 32 26 34 22 37 24 39
REMARK Flexibility Score: inf
ROOT
ATOM      1  O   UNL     1      -1.696  -2.096  10.124  1.00  0.00    -0.462 OA
ENDROOT
BRANCH   1   2
ATOM      2  C   UNL     1      -2.457  -1.811  11.270  1.00  0.00     0.130 A 
ATOM      3  C   UNL     1      -5.479  -3.503  14.549  1.00  0.00     0.138 A 
ATOM      4  C   UNL     1      -5.588  -2.253  15.183  1.00  0.00     0.100 A 
ATOM      5  O   UNL     1      -4.701  -3.625  13.476  1.00  0.00    -0.456 OA
ATOM      6  C   UNL     1      -4.864  -1.168  14.690  1.00  0.00     0.197 A 
ATOM      7  C   UNL     1      -3.996  -2.619  12.967  1.00  0.00     0.146 A 
ATOM      8  O   UNL     1      -4.964  -0.051  15.270  1.00  0.00    -0.289 OA
ATOM      9  C   UNL     1      -4.041  -1.336  13.559  1.00  0.00     0.107 A 
ATOM     10  C   UNL     1      -3.209  -2.844  11.834  1.00  0.00     0.094 A 
ATOM     11  C   UNL     1      -3.277  -0.289  12.995  1.00  0.00     0.134 A 
ATOM     12  C   UNL     1      -2.491  -0.535  11.857  1.00  0.00     0.093 A 
BRANCH   3  13
ATOM     13  C   UNL     1      -6.218  -4.698  15.032  1.00  0.00     0.021 A 
ATOM     14  C   UNL     1      -7.498  -4.971  14.519  1.00  0.00     0.016 A 
ATOM     15  C   UNL     1      -8.211  -6.094  14.946  1.00  0.00     0.051 A 
ATOM     16  C   UNL     1      -7.657  -6.968  15.886  1.00  0.00     0.157 A 
ATOM     17  C   UNL     1      -5.660  -5.589  15.971  1.00  0.00     0.062 A 
ATOM     18  C   UNL     1      -6.375  -6.716  16.401  1.00  0.00     0.158 A 
BRANCH  16  19
ATOM     19  O   UNL     1      -8.392  -8.079  16.295  1.00  0.00    -0.504 OA
ATOM     20  H   UNL     1      -9.337  -8.249  15.972  1.00  0.00     0.293 HD
ENDBRANCH  16  19
BRANCH  18  21
ATOM     21  O   UNL     1      -5.815  -7.587  17.333  1.00  0.00    -0.504 OA
ATOM     22  H   UNL     1      -4.859  -7.482  17.652  1.00  0.00     0.293 HD
ENDBRANCH  18  21
ENDBRANCH   3  13
BRANCH  11  23
ATOM     23  O   UNL     1      -3.290   0.990  13.553  1.00  0.00    -0.507 OA
ATOM     24  H   UNL     1      -3.280   1.824  12.978  1.00  0.00     0.293 HD
ENDBRANCH  11  23
ENDBRANCH   1   2
BRANCH   1  25
ATOM     25  C   UNL     1      -2.213  -2.173   8.792  1.00  0.00     0.339 C 
ATOM     26  C   UNL     1      -3.748  -2.037   8.806  1.00  0.00     0.214 C 
ATOM     27  O   UNL     1      -1.619  -1.199   7.946  1.00  0.00    -0.332 OA
ATOM     28  C   UNL     1      -4.147  -0.610   9.221  1.00  0.00     0.180 C 
ATOM     29  C   UNL     1      -1.882   0.122   8.398  1.00  0.00     0.179 C 
ATOM     30  C   UNL     1      -3.400   0.424   8.366  1.00  0.00     0.177 C 
BRANCH  26  31
ATOM     31  O   UNL     1      -4.264  -2.321   7.530  1.00  0.00    -0.384 OA
ATOM     32  H   UNL     1      -5.040  -2.926   7.663  1.00  0.00     0.211 HD
ENDBRANCH  26  31
BRANCH  28  33
ATOM     33  O   UNL     1      -5.532  -0.429   9.072  1.00  0.00    -0.387 OA
ATOM     34  H   UNL     1      -5.692   0.550   9.059  1.00  0.00     0.211 HD
ENDBRANCH  28  33
BRANCH  29  35
ATOM     35  C   UNL     1      -1.087   1.103   7.521  1.00  0.00     0.191 C 
BRANCH  35  36
ATOM     36  O   UNL     1      -1.846   1.534   6.423  1.00  0.00    -0.394 OA
ATOM     37  H   UNL     1      -1.203   1.824   5.726  1.00  0.00     0.210 HD
ENDBRANCH  35  36
ENDBRANCH  29  35
BRANCH  30  38
ATOM     38  O   UNL     1      -3.653   1.706   8.883  1.00  0.00    -0.387 OA
ATOM     39  H   UNL     1      -4.126   2.219   8.176  1.00  0.00     0.211 HD
ENDBRANCH  30  38
ENDBRANCH   1  25
TORSDOF 11
ENDMDL
MODEL 3
REMARK VINA RESULT:    -8.422      1.799      3.149
REMARK INTER + INTRA:         -11.707
REMARK INTER:                 -12.273
REMARK INTRA:                   0.566
REMARK UNBOUND:                 0.407
REMARK SMILES O=c1cc(-c2ccc(O)c(O)c2)oc2cc(O[C@@H]3O[C@@H](CO)[C@H](O)[C@@H](O)[C@H]3O)cc(O)c12
REMARK SMILES IDX 17 1 16 2 4 3 3 4 13 5 2 6 14 7 1 8 32 9 15 10 30 11 29 12
REMARK SMILES IDX 5 13 6 14 7 15 8 16 12 17 10 18 9 19 11 21 31 23 18 25 27 26
REMARK SMILES IDX 19 27 25 28 20 29 23 30 28 31 26 33 21 35 22 36 24 38
REMARK H PARENT 9 20 11 22 31 24 28 32 26 34 22 37 24 39
REMARK Flexibility Score: inf
ROOT
ATOM      1  O   UNL     1      -5.574  -0.460   9.764  1.00  0.00    -0.462 OA
ENDROOT
BRANCH   1   2
ATOM      2  C   UNL     1      -4.883  -1.438  10.497  1.00  0.00     0.130 A 
ATOM      3  C   UNL     1      -5.072  -4.591  14.070  1.00  0.00     0.138 A 
ATOM      4  C   UNL     1      -3.732  -4.973  13.886  1.00  0.00     0.100 A 
ATOM      5  O   UNL     1      -5.598  -3.656  13.283  1.00  0.00    -0.456 OA
ATOM      6  C   UNL     1      -2.983  -4.383  12.869  1.00  0.00     0.197 A 
ATOM      7  C   UNL     1      -4.923  -3.061  12.304  1.00  0.00     0.146 A 
ATOM      8  O   UNL     1      -1.783  -4.738  12.706  1.00  0.00    -0.289 OA
ATOM      9  C   UNL     1      -3.575  -3.404  12.046  1.00  0.00     0.107 A 
ATOM     10  C   UNL     1      -5.561  -2.086  11.531  1.00  0.00     0.094 A 
ATOM     11  C   UNL     1      -2.888  -2.755  10.995  1.00  0.00     0.134 A 
ATOM     12  C   UNL     1      -3.546  -1.780  10.230  1.00  0.00     0.093 A 
BRANCH   3  13
ATOM     13  C   UNL     1      -5.923  -5.190  15.131  1.00  0.00     0.021 A 
ATOM     14  C   UNL     1      -5.384  -6.182  15.969  1.00  0.00     0.016 A 
ATOM     15  C   UNL     1      -6.158  -6.754  16.982  1.00  0.00     0.051 A 
ATOM     16  C   UNL     1      -7.478  -6.342  17.182  1.00  0.00     0.157 A 
ATOM     17  C   UNL     1      -7.251  -4.770  15.345  1.00  0.00     0.062 A 
ATOM     18  C   UNL     1      -8.028  -5.344  16.361  1.00  0.00     0.158 A 
BRANCH  16  19
ATOM     19  O   UNL     1      -8.226  -6.932  18.199  1.00  0.00    -0.504 OA
ATOM     20  H   UNL     1      -7.803  -7.518  18.909  1.00  0.00     0.293 HD
ENDBRANCH  16  19
BRANCH  18  21
ATOM     21  O   UNL     1      -9.341  -4.923  16.561  1.00  0.00    -0.504 OA
ATOM     22  H   UNL     1      -9.982  -4.793  15.786  1.00  0.00     0.293 HD
ENDBRANCH  18  21
ENDBRANCH   3  13
BRANCH  11  23
ATOM     23  O   UNL     1      -1.559  -3.070  10.706  1.00  0.00    -0.507 OA
ATOM     24  H   UNL     1      -1.166  -3.979  10.923  1.00  0.00     0.293 HD
ENDBRANCH  11  23
ENDBRANCH   1   2
BRANCH   1  25
ATOM     25  C   UNL     1      -5.620   0.933  10.092  1.00  0.00     0.339 C 
ATOM     26  C   UNL     1      -5.010   1.174  11.486  1.00  0.00     0.214 C 
ATOM     27  O   UNL     1      -4.973   1.723   9.105  1.00  0.00    -0.332 OA
ATOM     28  C   UNL     1      -3.495   0.905  11.451  1.00  0.00     0.180 C 
ATOM     29  C   UNL     1      -3.598   1.390   8.982  1.00  0.00     0.179 C 
ATOM     30  C   UNL     1      -2.841   1.682  10.300  1.00  0.00     0.177 C 
BRANCH  26  31
ATOM     31  O   UNL     1      -5.247   2.499  11.889  1.00  0.00    -0.384 OA
ATOM     32  H   UNL     1      -5.820   2.913  11.193  1.00  0.00     0.211 HD
ENDBRANCH  26  31
BRANCH  28  33
ATOM     33  O   UNL     1      -2.905   1.285  12.668  1.00  0.00    -0.387 OA
ATOM     34  H   UNL     1      -1.925   1.316  12.513  1.00  0.00     0.211 HD
ENDBRANCH  28  33
BRANCH  29  35
ATOM     35  C   UNL     1      -3.011   2.178   7.800  1.00  0.00     0.191 C 
BRANCH  35  36
ATOM     36  O   UNL     1      -2.552   3.440   8.208  1.00  0.00    -0.394 OA
ATOM     37  H   UNL     1      -1.716   3.617   7.704  1.00  0.00     0.210 HD
ENDBRANCH  35  36
ENDBRANCH  29  35
BRANCH  30  38
ATOM     38  O   UNL     1      -1.498   1.282  10.189  1.00  0.00    -0.387 OA
ATOM     39  H   UNL     1      -1.365   0.957   9.260  1.00  0.00     0.211 HD
ENDBRANCH  30  38
ENDBRANCH   1  25
TORSDOF 11
ENDMDL
MODEL 4
REMARK VINA RESULT:    -7.533      1.132      1.495
REMARK INTER + INTRA:         -10.428
REMARK INTER:                 -12.660
REMARK INTRA:                   2.231
REMARK UNBOUND:                 0.407
REMARK SMILES O=c1cc(-c2ccc(O)c(O)c2)oc2cc(O[C@@H]3O[C@@H](CO)[C@H](O)[C@@H](O)[C@H]3O)cc(O)c12
REMARK SMILES IDX 17 1 16 2 4 3 3 4 13 5 2 6 14 7 1 8 32 9 15 10 30 11 29 12
REMARK SMILES IDX 5 13 6 14 7 15 8 16 12 17 10 18 9 19 11 21 31 23 18 25 27 26
REMARK SMILES IDX 19 27 25 28 20 29 23 30 28 31 26 33 21 35 22 36 24 38
REMARK H PARENT 9 20 11 22 31 24 28 32 26 34 22 37 24 39
REMARK Flexibility Score: inf
ROOT
ATOM      1  O   UNL     1      -2.553   0.539  12.769  1.00  0.00    -0.462 OA
ENDROOT
BRANCH   1   2
ATOM      2  C   UNL     1      -3.649  -0.283  12.462  1.00  0.00     0.130 A 
ATOM      3  C   UNL     1      -6.447  -3.868  13.898  1.00  0.00     0.138 A 
ATOM      4  C   UNL     1      -7.196  -3.842  12.710  1.00  0.00     0.100 A 
ATOM      5  O   UNL     1      -5.441  -3.011  14.055  1.00  0.00    -0.456 OA
ATOM      6  C   UNL     1      -6.888  -2.904  11.725  1.00  0.00     0.197 A 
ATOM      7  C   UNL     1      -5.106  -2.103  13.143  1.00  0.00     0.146 A 
ATOM      8  O   UNL     1      -7.572  -2.883  10.664  1.00  0.00    -0.289 OA
ATOM      9  C   UNL     1      -5.824  -2.003  11.929  1.00  0.00     0.107 A 
ATOM     10  C   UNL     1      -4.031  -1.247  13.397  1.00  0.00     0.094 A 
ATOM     11  C   UNL     1      -5.445  -1.025  10.982  1.00  0.00     0.134 A 
ATOM     12  C   UNL     1      -4.363  -0.174  11.256  1.00  0.00     0.093 A 
BRANCH   3  13
ATOM     13  C   UNL     1      -6.732  -4.838  14.988  1.00  0.00     0.021 A 
ATOM     14  C   UNL     1      -7.734  -5.807  14.804  1.00  0.00     0.016 A 
ATOM     15  C   UNL     1      -8.015  -6.738  15.807  1.00  0.00     0.051 A 
ATOM     16  C   UNL     1      -7.298  -6.724  17.006  1.00  0.00     0.157 A 
ATOM     17  C   UNL     1      -6.005  -4.837  16.195  1.00  0.00     0.062 A 
ATOM     18  C   UNL     1      -6.287  -5.771  17.202  1.00  0.00     0.158 A 
BRANCH  16  19
ATOM     19  O   UNL     1      -7.602  -7.665  17.989  1.00  0.00    -0.504 OA
ATOM     20  H   UNL     1      -7.938  -8.593  17.761  1.00  0.00     0.293 HD
ENDBRANCH  16  19
BRANCH  18  21
ATOM     21  O   UNL     1      -5.564  -5.757  18.393  1.00  0.00    -0.504 OA
ATOM     22  H   UNL     1      -5.490  -4.920  18.960  1.00  0.00     0.293 HD
ENDBRANCH  18  21
ENDBRANCH   3  13
BRANCH  11  23
ATOM     23  O   UNL     1      -6.132  -0.891   9.775  1.00  0.00    -0.507 OA
ATOM     24  H   UNL     1      -7.130  -0.720   9.745  1.00  0.00     0.293 HD
ENDBRANCH  11  23
ENDBRANCH   1   2
BRANCH   1  25
ATOM     25  C   UNL     1      -1.226   0.363  12.263  1.00  0.00     0.339 C 
ATOM     26  C   UNL     1      -0.714  -1.054  12.586  1.00  0.00     0.214 C 
ATOM     27  O   UNL     1      -1.160   0.627  10.868  1.00  0.00    -0.332 OA
ATOM     28  C   UNL     1      -1.504  -2.097  11.777  1.00  0.00     0.180 C 
ATOM     29  C   UNL     1      -1.988  -0.258  10.127  1.00  0.00     0.179 C 
ATOM     30  C   UNL     1      -1.514  -1.723  10.288  1.00  0.00     0.177 C 
BRANCH  26  31
ATOM     31  O   UNL     1       0.654  -1.150  12.276  1.00  0.00    -0.384 OA
ATOM     32  H   UNL     1       1.150  -1.024  13.126  1.00  0.00     0.211 HD
ENDBRANCH  26  31
BRANCH  28  33
ATOM     33  O   UNL     1      -0.933  -3.371  11.936  1.00  0.00    -0.387 OA
ATOM     34  H   UNL     1       0.036  -3.232  12.093  1.00  0.00     0.211 HD
ENDBRANCH  28  33
BRANCH  29  35
ATOM     35  C   UNL     1      -1.977   0.186   8.655  1.00  0.00     0.191 C 
BRANCH  35  36
ATOM     36  O   UNL     1      -2.543   1.461   8.504  1.00  0.00    -0.394 OA
ATOM     37  H   UNL     1      -2.161   2.031   9.220  1.00  0.00     0.210 HD
ENDBRANCH  35  36
ENDBRANCH  29  35
BRANCH  30  38
ATOM     38  O   UNL     1      -2.383  -2.593   9.609  1.00  0.00    -0.387 OA
ATOM     39  H   UNL     1      -3.284  -2.176   9.621  1.00  0.00     0.211 HD
ENDBRANCH  30  38
ENDBRANCH   1  25
TORSDOF 11
ENDMDL
MODEL 5
REMARK VINA RESULT:    -7.351      1.747      3.039
REMARK INTER + INTRA:         -10.167
REMARK INTER:                 -10.632
REMARK INTRA:                   0.465
REMARK UNBOUND:                 0.407
REMARK SMILES O=c1cc(-c2ccc(O)c(O)c2)oc2cc(O[C@@H]3O[C@@H](CO)[C@H](O)[C@@H](O)[C@H]3O)cc(O)c12
REMARK SMILES IDX 17 1 16 2 4 3 3 4 13 5 2 6 14 7 1 8 32 9 15 10 30 11 29 12
REMARK SMILES IDX 5 13 6 14 7 15 8 16 12 17 10 18 9 19 11 21 31 23 18 25 27 26
REMARK SMILES IDX 19 27 25 28 20 29 23 30 28 31 26 33 21 35 22 36 24 38
REMARK H PARENT 9 20 11 22 31 24 28 32 26 34 22 37 24 39
REMARK Flexibility Score: inf
ROOT
ATOM      1  O   UNL     1      -2.158  -0.842  11.843  1.00  0.00    -0.462 OA
ENDROOT
BRANCH   1   2
ATOM      2  C   UNL     1      -3.423  -1.446  11.753  1.00  0.00     0.130 A 
ATOM      3  C   UNL     1      -6.603  -4.323  13.838  1.00  0.00     0.138 A 
ATOM      4  C   UNL     1      -7.502  -4.211  12.764  1.00  0.00     0.100 A 
ATOM      5  O   UNL     1      -5.442  -3.676  13.788  1.00  0.00    -0.456 OA
ATOM      6  C   UNL     1      -7.172  -3.406  11.674  1.00  0.00     0.197 A 
ATOM      7  C   UNL     1      -5.080  -2.902  12.769  1.00  0.00     0.146 A 
ATOM      8  O   UNL     1      -7.989  -3.306  10.717  1.00  0.00    -0.289 OA
ATOM      9  C   UNL     1      -5.938  -2.725  11.659  1.00  0.00     0.107 A 
ATOM     10  C   UNL     1      -3.837  -2.264  12.807  1.00  0.00     0.094 A 
ATOM     11  C   UNL     1      -5.525  -1.893  10.594  1.00  0.00     0.134 A 
ATOM     12  C   UNL     1      -4.274  -1.260  10.650  1.00  0.00     0.093 A 
BRANCH   3  13
ATOM     13  C   UNL     1      -6.902  -5.158  15.031  1.00  0.00     0.021 A 
ATOM     14  C   UNL     1      -7.991  -6.048  14.995  1.00  0.00     0.016 A 
ATOM     15  C   UNL     1      -8.288  -6.853  16.097  1.00  0.00     0.051 A 
ATOM     16  C   UNL     1      -7.500  -6.791  17.250  1.00  0.00     0.157 A 
ATOM     17  C   UNL     1      -6.105  -5.110  16.192  1.00  0.00     0.062 A 
ATOM     18  C   UNL     1      -6.403  -5.918  17.298  1.00  0.00     0.158 A 
BRANCH  16  19
ATOM     19  O   UNL     1      -7.822  -7.606  18.335  1.00  0.00    -0.504 OA
ATOM     20  H   UNL     1      -8.741  -8.016  18.447  1.00  0.00     0.293 HD
ENDBRANCH  16  19
BRANCH  18  21
ATOM     21  O   UNL     1      -5.610  -5.858  18.443  1.00  0.00    -0.504 OA
ATOM     22  H   UNL     1      -4.684  -5.447  18.427  1.00  0.00     0.293 HD
ENDBRANCH  18  21
ENDBRANCH   3  13
BRANCH  11  23
ATOM     23  O   UNL     1      -6.346  -1.689   9.484  1.00  0.00    -0.507 OA
ATOM     24  H   UNL     1      -7.047  -2.365   9.207  1.00  0.00     0.293 HD
ENDBRANCH  11  23
ENDBRANCH   1   2
BRANCH   1  25
ATOM     25  C   UNL     1      -1.770   0.111  12.837  1.00  0.00     0.339 C 
ATOM     26  C   UNL     1      -1.389   1.449  12.175  1.00  0.00     0.214 C 
ATOM     27  O   UNL     1      -2.789   0.292  13.811  1.00  0.00    -0.332 OA
ATOM     28  C   UNL     1      -2.639   2.112  11.568  1.00  0.00     0.180 C 
ATOM     29  C   UNL     1      -3.988   0.788  13.233  1.00  0.00     0.179 C 
ATOM     30  C   UNL     1      -3.763   2.188  12.612  1.00  0.00     0.177 C 
BRANCH  26  31
ATOM     31  O   UNL     1      -0.813   2.308  13.127  1.00  0.00    -0.384 OA
ATOM     32  H   UNL     1      -1.383   3.119  13.164  1.00  0.00     0.211 HD
ENDBRANCH  26  31
BRANCH  28  33
ATOM     33  O   UNL     1      -2.333   3.405  11.114  1.00  0.00    -0.387 OA
ATOM     34  H   UNL     1      -1.690   3.301  10.367  1.00  0.00     0.211 HD
ENDBRANCH  28  33
BRANCH  29  35
ATOM     35  C   UNL     1      -5.076   0.813  14.318  1.00  0.00     0.191 C 
BRANCH  35  36
ATOM     36  O   UNL     1      -6.349   0.608  13.766  1.00  0.00    -0.394 OA
ATOM     37  H   UNL     1      -6.814  -0.044  14.353  1.00  0.00     0.210 HD
ENDBRANCH  35  36
ENDBRANCH  29  35
BRANCH  30  38
ATOM     38  O   UNL     1      -4.937   2.635  11.981  1.00  0.00    -0.387 OA
ATOM     39  H   UNL     1      -4.659   3.224  11.230  1.00  0.00     0.211 HD
ENDBRANCH  30  38
ENDBRANCH   1  25
TORSDOF 11
ENDMDL
MODEL 6
REMARK VINA RESULT:    -7.198      2.033      3.717
REMARK INTER + INTRA:          -9.947
REMARK INTER:                 -10.436
REMARK INTRA:                   0.489
REMARK UNBOUND:                 0.407
REMARK SMILES O=c1cc(-c2ccc(O)c(O)c2)oc2cc(O[C@@H]3O[C@@H](CO)[C@H](O)[C@@H](O)[C@H]3O)cc(O)c12
REMARK SMILES IDX 17 1 16 2 4 3 3 4 13 5 2 6 14 7 1 8 32 9 15 10 30 11 29 12
REMARK SMILES IDX 5 13 6 14 7 15 8 16 12 17 10 18 9 19 11 21 31 23 18 25 27 26
REMARK SMILES IDX 19 27 25 28 20 29 23 30 28 31 26 33 21 35 22 36 24 38
REMARK H PARENT 9 20 11 22 31 24 28 32 26 34 22 37 24 39
REMARK Flexibility Score: inf
ROOT
ATOM      1  O   UNL     1      -3.994  -1.968   9.644  1.00  0.00    -0.462 OA
ENDROOT
BRANCH   1   2
ATOM      2  C   UNL     1      -4.264  -1.682  10.992  1.00  0.00     0.130 A 
ATOM      3  C   UNL     1      -5.916  -3.341  15.147  1.00  0.00     0.138 A 
ATOM      4  C   UNL     1      -5.734  -2.102  15.785  1.00  0.00     0.100 A 
ATOM      5  O   UNL     1      -5.597  -3.466  13.861  1.00  0.00    -0.456 OA
ATOM      6  C   UNL     1      -5.203  -1.031  15.067  1.00  0.00     0.197 A 
ATOM      7  C   UNL     1      -5.093  -2.474  13.134  1.00  0.00     0.146 A 
ATOM      8  O   UNL     1      -5.036   0.075  15.650  1.00  0.00    -0.289 OA
ATOM      9  C   UNL     1      -4.865  -1.202  13.709  1.00  0.00     0.107 A 
ATOM     10  C   UNL     1      -4.792  -2.701  11.788  1.00  0.00     0.094 A 
ATOM     11  C   UNL     1      -4.325  -0.170  12.909  1.00  0.00     0.134 A 
ATOM     12  C   UNL     1      -4.029  -0.417  11.560  1.00  0.00     0.093 A 
BRANCH   3  13
ATOM     13  C   UNL     1      -6.469  -4.521  15.862  1.00  0.00     0.021 A 
ATOM     14  C   UNL     1      -7.040  -4.351  17.135  1.00  0.00     0.016 A 
ATOM     15  C   UNL     1      -7.578  -5.440  17.824  1.00  0.00     0.051 A 
ATOM     16  C   UNL     1      -7.563  -6.716  17.253  1.00  0.00     0.157 A 
ATOM     17  C   UNL     1      -6.468  -5.807  15.286  1.00  0.00     0.062 A 
ATOM     18  C   UNL     1      -7.007  -6.901  15.978  1.00  0.00     0.158 A 
BRANCH  16  19
ATOM     19  O   UNL     1      -8.106  -7.784  17.965  1.00  0.00    -0.504 OA
ATOM     20  H   UNL     1      -8.983  -7.708  18.466  1.00  0.00     0.293 HD
ENDBRANCH  16  19
BRANCH  18  21
ATOM     21  O   UNL     1      -6.996  -8.170  15.400  1.00  0.00    -0.504 OA
ATOM     22  H   UNL     1      -6.768  -8.997  15.939  1.00  0.00     0.293 HD
ENDBRANCH  18  21
ENDBRANCH   3  13
BRANCH  11  23
ATOM     23  O   UNL     1      -4.080   1.097  13.442  1.00  0.00    -0.507 OA
ATOM     24  H   UNL     1      -3.259   1.633  13.188  1.00  0.00     0.293 HD
ENDBRANCH  11  23
ENDBRANCH   1   2
BRANCH   1  25
ATOM     25  C   UNL     1      -3.034  -2.923   9.182  1.00  0.00     0.339 C 
ATOM     26  C   UNL     1      -1.938  -2.223   8.356  1.00  0.00     0.214 C 
ATOM     27  O   UNL     1      -2.473  -3.660  10.259  1.00  0.00    -0.332 OA
ATOM     28  C   UNL     1      -1.082  -1.326   9.268  1.00  0.00     0.180 C 
ATOM     29  C   UNL     1      -1.786  -2.817  11.172  1.00  0.00     0.179 C 
ATOM     30  C   UNL     1      -0.586  -2.121  10.484  1.00  0.00     0.177 C 
BRANCH  26  31
ATOM     31  O   UNL     1      -1.121  -3.183   7.734  1.00  0.00    -0.384 OA
ATOM     32  H   UNL     1      -0.345  -3.331   8.334  1.00  0.00     0.211 HD
ENDBRANCH  26  31
BRANCH  28  33
ATOM     33  O   UNL     1       0.019  -0.819   8.558  1.00  0.00    -0.387 OA
ATOM     34  H   UNL     1      -0.315  -0.056   8.020  1.00  0.00     0.211 HD
ENDBRANCH  28  33
BRANCH  29  35
ATOM     35  C   UNL     1      -1.340  -3.664  12.375  1.00  0.00     0.191 C 
BRANCH  35  36
ATOM     36  O   UNL     1      -1.421  -2.932  13.570  1.00  0.00    -0.394 OA
ATOM     37  H   UNL     1      -1.812  -2.050  13.340  1.00  0.00     0.210 HD
ENDBRANCH  35  36
ENDBRANCH  29  35
BRANCH  30  38
ATOM     38  O   UNL     1       0.041  -1.235  11.378  1.00  0.00    -0.387 OA
ATOM     39  H   UNL     1       0.938  -1.611  11.581  1.00  0.00     0.211 HD
ENDBRANCH  30  38
ENDBRANCH   1  25
TORSDOF 11
ENDMDL
MODEL 7
REMARK VINA RESULT:    -7.181      2.248      4.217
REMARK INTER + INTRA:          -9.923
REMARK INTER:                 -10.391
REMARK INTRA:                   0.468
REMARK UNBOUND:                 0.407
REMARK SMILES O=c1cc(-c2ccc(O)c(O)c2)oc2cc(O[C@@H]3O[C@@H](CO)[C@H](O)[C@@H](O)[C@H]3O)cc(O)c12
REMARK SMILES IDX 17 1 16 2 4 3 3 4 13 5 2 6 14 7 1 8 32 9 15 10 30 11 29 12
REMARK SMILES IDX 5 13 6 14 7 15 8 16 12 17 10 18 9 19 11 21 31 23 18 25 27 26
REMARK SMILES IDX 19 27 25 28 20 29 23 30 28 31 26 33 21 35 22 36 24 38
REMARK H PARENT 9 20 11 22 31 24 28 32 26 34 22 37 24 39
REMARK Flexibility Score: inf
ROOT
ATOM      1  O   UNL     1      -4.759   0.252  11.147  1.00  0.00    -0.462 OA
ENDROOT
BRANCH   1   2
ATOM      2  C   UNL     1      -4.249  -0.966  11.624  1.00  0.00     0.130 A 
ATOM      3  C   UNL     1      -5.000  -4.768  14.403  1.00  0.00     0.138 A 
ATOM      4  C   UNL     1      -3.741  -5.314  14.103  1.00  0.00     0.100 A 
ATOM      5  O   UNL     1      -5.355  -3.606  13.860  1.00  0.00    -0.456 OA
ATOM      6  C   UNL     1      -2.892  -4.641  13.225  1.00  0.00     0.197 A 
ATOM      7  C   UNL     1      -4.578  -2.925  13.022  1.00  0.00     0.146 A 
ATOM      8  O   UNL     1      -1.766  -5.142  12.956  1.00  0.00    -0.289 OA
ATOM      9  C   UNL     1      -3.304  -3.418  12.659  1.00  0.00     0.107 A 
ATOM     10  C   UNL     1      -5.037  -1.710  12.504  1.00  0.00     0.094 A 
ATOM     11  C   UNL     1      -2.506  -2.671  11.763  1.00  0.00     0.134 A 
ATOM     12  C   UNL     1      -2.983  -1.454  11.253  1.00  0.00     0.093 A 
BRANCH   3  13
ATOM     13  C   UNL     1      -5.952  -5.443  15.324  1.00  0.00     0.021 A 
ATOM     14  C   UNL     1      -5.564  -6.631  15.968  1.00  0.00     0.016 A 
ATOM     15  C   UNL     1      -6.433  -7.279  16.848  1.00  0.00     0.051 A 
ATOM     16  C   UNL     1      -7.701  -6.751  17.107  1.00  0.00     0.157 A 
ATOM     17  C   UNL     1      -7.226  -4.909  15.599  1.00  0.00     0.062 A 
ATOM     18  C   UNL     1      -8.100  -5.560  16.482  1.00  0.00     0.158 A 
BRANCH  16  19
ATOM     19  O   UNL     1      -8.547  -7.422  17.989  1.00  0.00    -0.504 OA
ATOM     20  H   UNL     1      -8.805  -8.392  17.856  1.00  0.00     0.293 HD
ENDBRANCH  16  19
BRANCH  18  21
ATOM     21  O   UNL     1      -9.360  -5.024  16.743  1.00  0.00    -0.504 OA
ATOM     22  H   UNL     1     -10.113  -5.083  16.067  1.00  0.00     0.293 HD
ENDBRANCH  18  21
ENDBRANCH   3  13
BRANCH  11  23
ATOM     23  O   UNL     1      -1.245  -3.127  11.375  1.00  0.00    -0.507 OA
ATOM     24  H   UNL     1      -0.402  -2.603  11.580  1.00  0.00     0.293 HD
ENDBRANCH  11  23
ENDBRANCH   1   2
BRANCH   1  25
ATOM     25  C   UNL     1      -6.043   0.424  10.539  1.00  0.00     0.339 C 
ATOM     26  C   UNL     1      -5.896   1.110   9.167  1.00  0.00     0.214 C 
ATOM     27  O   UNL     1      -6.735  -0.811  10.424  1.00  0.00    -0.332 OA
ATOM     28  C   UNL     1      -5.199   0.162   8.176  1.00  0.00     0.180 C 
ATOM     29  C   UNL     1      -6.030  -1.735   9.608  1.00  0.00     0.179 C 
ATOM     30  C   UNL     1      -5.900  -1.203   8.160  1.00  0.00     0.177 C 
BRANCH  26  31
ATOM     31  O   UNL     1      -7.163   1.465   8.672  1.00  0.00    -0.384 OA
ATOM     32  H   UNL     1      -7.012   1.953   7.821  1.00  0.00     0.211 HD
ENDBRANCH  26  31
BRANCH  28  33
ATOM     33  O   UNL     1      -5.214   0.712   6.883  1.00  0.00    -0.387 OA
ATOM     34  H   UNL     1      -5.793   1.517   6.922  1.00  0.00     0.211 HD
ENDBRANCH  28  33
BRANCH  29  35
ATOM     35  C   UNL     1      -6.765  -3.085   9.656  1.00  0.00     0.191 C 
BRANCH  35  36
ATOM     36  O   UNL     1      -5.860  -4.156   9.663  1.00  0.00    -0.394 OA
ATOM     37  H   UNL     1      -5.924  -4.592   8.774  1.00  0.00     0.210 HD
ENDBRANCH  35  36
ENDBRANCH  29  35
BRANCH  30  38
ATOM     38  O   UNL     1      -5.139  -2.093   7.381  1.00  0.00    -0.387 OA
ATOM     39  H   UNL     1      -4.185  -1.947   7.618  1.00  0.00     0.211 HD
ENDBRANCH  30  38
ENDBRANCH   1  25
TORSDOF 11
ENDMDL
MODEL 8
REMARK VINA RESULT:    -7.024      1.320      2.845
REMARK INTER + INTRA:          -9.696
REMARK INTER:                 -11.063
REMARK INTRA:                   1.366
REMARK UNBOUND:                 0.407
REMARK SMILES O=c1cc(-c2ccc(O)c(O)c2)oc2cc(O[C@@H]3O[C@@H](CO)[C@H](O)[C@@H](O)[C@H]3O)cc(O)c12
REMARK SMILES IDX 17 1 16 2 4 3 3 4 13 5 2 6 14 7 1 8 32 9 15 10 30 11 29 12
REMARK SMILES IDX 5 13 6 14 7 15 8 16 12 17 10 18 9 19 11 21 31 23 18 25 27 26
REMARK SMILES IDX 19 27 25 28 20 29 23 30 28 31 26 33 21 35 22 36 24 38
REMARK H PARENT 9 20 11 22 31 24 28 32 26 34 22 37 24 39
REMARK Flexibility Score: inf
ROOT
ATOM      1  O   UNL     1      -1.754  -1.902   9.850  1.00  0.00    -0.462 OA
ENDROOT
BRANCH   1   2
ATOM      2  C   UNL     1      -3.079  -2.107  10.266  1.00  0.00     0.130 A 
ATOM      3  C   UNL     1      -5.955  -3.977  13.580  1.00  0.00     0.138 A 
ATOM      4  C   UNL     1      -7.112  -3.580  12.888  1.00  0.00     0.100 A 
ATOM      5  O   UNL     1      -4.759  -3.696  13.067  1.00  0.00    -0.456 OA
ATOM      6  C   UNL     1      -6.989  -2.882  11.687  1.00  0.00     0.197 A 
ATOM      7  C   UNL     1      -4.591  -3.038  11.924  1.00  0.00     0.146 A 
ATOM      8  O   UNL     1      -8.034  -2.524  11.077  1.00  0.00    -0.289 OA
ATOM      9  C   UNL     1      -5.707  -2.591  11.179  1.00  0.00     0.107 A 
ATOM     10  C   UNL     1      -3.294  -2.793  11.464  1.00  0.00     0.094 A 
ATOM     11  C   UNL     1      -5.494  -1.891   9.970  1.00  0.00     0.134 A 
ATOM     12  C   UNL     1      -4.184  -1.654   9.524  1.00  0.00     0.093 A 
BRANCH   3  13
ATOM     13  C   UNL     1      -6.022  -4.715  14.867  1.00  0.00     0.021 A 
ATOM     14  C   UNL     1      -5.294  -5.909  15.017  1.00  0.00     0.016 A 
ATOM     15  C   UNL     1      -5.329  -6.617  16.220  1.00  0.00     0.051 A 
ATOM     16  C   UNL     1      -6.083  -6.145  17.297  1.00  0.00     0.157 A 
ATOM     17  C   UNL     1      -6.771  -4.238  15.961  1.00  0.00     0.062 A 
ATOM     18  C   UNL     1      -6.807  -4.949  17.169  1.00  0.00     0.158 A 
BRANCH  16  19
ATOM     19  O   UNL     1      -6.100  -6.874  18.485  1.00  0.00    -0.504 OA
ATOM     20  H   UNL     1      -5.937  -6.441  19.386  1.00  0.00     0.293 HD
ENDBRANCH  16  19
BRANCH  18  21
ATOM     21  O   UNL     1      -7.555  -4.469  18.243  1.00  0.00    -0.504 OA
ATOM     22  H   UNL     1      -7.975  -5.095  18.920  1.00  0.00     0.293 HD
ENDBRANCH  18  21
ENDBRANCH   3  13
BRANCH  11  23
ATOM     23  O   UNL     1      -6.569  -1.429   9.209  1.00  0.00    -0.507 OA
ATOM     24  H   UNL     1      -6.447  -0.742   8.475  1.00  0.00     0.293 HD
ENDBRANCH  11  23
ENDBRANCH   1   2
BRANCH   1  25
ATOM     25  C   UNL     1      -0.979  -0.730  10.120  1.00  0.00     0.339 C 
ATOM     26  C   UNL     1      -1.873   0.524  10.072  1.00  0.00     0.214 C 
ATOM     27  O   UNL     1      -0.300  -0.828  11.364  1.00  0.00    -0.332 OA
ATOM     28  C   UNL     1      -2.858   0.514  11.254  1.00  0.00     0.180 C 
ATOM     29  C   UNL     1      -1.206  -0.963  12.449  1.00  0.00     0.179 C 
ATOM     30  C   UNL     1      -2.107   0.290  12.574  1.00  0.00     0.177 C 
BRANCH  26  31
ATOM     31  O   UNL     1      -1.077   1.682  10.128  1.00  0.00    -0.384 OA
ATOM     32  H   UNL     1      -0.207   1.452   9.711  1.00  0.00     0.211 HD
ENDBRANCH  26  31
BRANCH  28  33
ATOM     33  O   UNL     1      -3.558   1.731  11.315  1.00  0.00    -0.387 OA
ATOM     34  H   UNL     1      -4.335   1.644  10.704  1.00  0.00     0.211 HD
ENDBRANCH  28  33
BRANCH  29  35
ATOM     35  C   UNL     1      -0.395  -1.212  13.731  1.00  0.00     0.191 C 
BRANCH  35  36
ATOM     36  O   UNL     1      -1.105  -2.020  14.633  1.00  0.00    -0.394 OA
ATOM     37  H   UNL     1      -2.066  -1.922  14.409  1.00  0.00     0.210 HD
ENDBRANCH  35  36
ENDBRANCH  29  35
BRANCH  30  38
ATOM     38  O   UNL     1      -3.046   0.113  13.605  1.00  0.00    -0.387 OA
ATOM     39  H   UNL     1      -2.918  -0.805  13.963  1.00  0.00     0.211 HD
ENDBRANCH  30  38
ENDBRANCH   1  25
TORSDOF 11
ENDMDL
MODEL 9
REMARK VINA RESULT:    -6.698      1.891      3.253
REMARK INTER + INTRA:          -9.227
REMARK INTER:                  -9.482
REMARK INTRA:                   0.255
REMARK UNBOUND:                 0.407
REMARK SMILES O=c1cc(-c2ccc(O)c(O)c2)oc2cc(O[C@@H]3O[C@@H](CO)[C@H](O)[C@@H](O)[C@H]3O)cc(O)c12
REMARK SMILES IDX 17 1 16 2 4 3 3 4 13 5 2 6 14 7 1 8 32 9 15 10 30 11 29 12
REMARK SMILES IDX 5 13 6 14 7 15 8 16 12 17 10 18 9 19 11 21 31 23 18 25 27 26
REMARK SMILES IDX 19 27 25 28 20 29 23 30 28 31 26 33 21 35 22 36 24 38
REMARK H PARENT 9 20 11 22 31 24 28 32 26 34 22 37 24 39
REMARK Flexibility Score: inf
ROOT
ATOM      1  O   UNL     1      -2.445  -0.262   8.058  1.00  0.00    -0.462 OA
ENDROOT
BRANCH   1   2
ATOM      2  C   UNL     1      -3.487  -0.210   8.998  1.00  0.00     0.130 A 
ATOM      3  C   UNL     1      -5.655  -2.388  12.645  1.00  0.00     0.138 A 
ATOM      4  C   UNL     1      -6.628  -1.380  12.749  1.00  0.00     0.100 A 
ATOM      5  O   UNL     1      -4.713  -2.292  11.709  1.00  0.00    -0.456 OA
ATOM      6  C   UNL     1      -6.580  -0.286  11.885  1.00  0.00     0.197 A 
ATOM      7  C   UNL     1      -4.629  -1.273  10.860  1.00  0.00     0.146 A 
ATOM      8  O   UNL     1      -7.455   0.617  11.990  1.00  0.00    -0.289 OA
ATOM      9  C   UNL     1      -5.562  -0.212  10.913  1.00  0.00     0.107 A 
ATOM     10  C   UNL     1      -3.605  -1.262   9.908  1.00  0.00     0.094 A 
ATOM     11  C   UNL     1      -5.442   0.859   9.998  1.00  0.00     0.134 A 
ATOM     12  C   UNL     1      -4.407   0.852   9.050  1.00  0.00     0.093 A 
BRANCH   3  13
ATOM     13  C   UNL     1      -5.649  -3.572  13.543  1.00  0.00     0.021 A 
ATOM     14  C   UNL     1      -4.454  -4.287  13.734  1.00  0.00     0.016 A 
ATOM     15  C   UNL     1      -4.417  -5.397  14.582  1.00  0.00     0.051 A 
ATOM     16  C   UNL     1      -5.568  -5.808  15.259  1.00  0.00     0.157 A 
ATOM     17  C   UNL     1      -6.803  -3.984  14.238  1.00  0.00     0.062 A 
ATOM     18  C   UNL     1      -6.767  -5.099  15.088  1.00  0.00     0.158 A 
BRANCH  16  19
ATOM     19  O   UNL     1      -5.501  -6.920  16.097  1.00  0.00    -0.504 OA
ATOM     20  H   UNL     1      -6.186  -7.090  16.824  1.00  0.00     0.293 HD
ENDBRANCH  16  19
BRANCH  18  21
ATOM     21  O   UNL     1      -7.916  -5.500  15.767  1.00  0.00    -0.504 OA
ATOM     22  H   UNL     1      -7.961  -5.505  16.779  1.00  0.00     0.293 HD
ENDBRANCH  18  21
ENDBRANCH   3  13
BRANCH  11  23
ATOM     23  O   UNL     1      -6.340   1.927  10.022  1.00  0.00    -0.507 OA
ATOM     24  H   UNL     1      -6.492   2.515   9.211  1.00  0.00     0.293 HD
ENDBRANCH  11  23
ENDBRANCH   1   2
BRANCH   1  25
ATOM     25  C   UNL     1      -1.109   0.200   8.284  1.00  0.00     0.339 C 
ATOM     26  C   UNL     1      -0.611   1.006   7.070  1.00  0.00     0.214 C 
ATOM     27  O   UNL     1      -1.016   0.961   9.479  1.00  0.00    -0.332 OA
ATOM     28  C   UNL     1      -1.390   2.328   6.959  1.00  0.00     0.180 C 
ATOM     29  C   UNL     1      -1.834   2.121   9.429  1.00  0.00     0.179 C 
ATOM     30  C   UNL     1      -1.370   3.074   8.301  1.00  0.00     0.177 C 
BRANCH  26  31
ATOM     31  O   UNL     1       0.762   1.276   7.206  1.00  0.00    -0.384 OA
ATOM     32  H   UNL     1       0.853   1.943   7.935  1.00  0.00     0.211 HD
ENDBRANCH  26  31
BRANCH  28  33
ATOM     33  O   UNL     1      -0.829   3.143   5.962  1.00  0.00    -0.387 OA
ATOM     34  H   UNL     1      -1.556   3.730   5.630  1.00  0.00     0.211 HD
ENDBRANCH  28  33
BRANCH  29  35
ATOM     35  C   UNL     1      -1.793   2.805  10.806  1.00  0.00     0.191 C 
BRANCH  35  36
ATOM     36  O   UNL     1      -2.892   2.429  11.593  1.00  0.00    -0.394 OA
ATOM     37  H   UNL     1      -3.264   3.263  11.982  1.00  0.00     0.210 HD
ENDBRANCH  35  36
ENDBRANCH  29  35
BRANCH  30  38
ATOM     38  O   UNL     1      -2.231   4.183   8.215  1.00  0.00    -0.387 OA
ATOM     39  H   UNL     1      -3.101   3.851   7.870  1.00  0.00     0.211 HD
ENDBRANCH  30  38
ENDBRANCH   1  25
TORSDOF 11
ENDMDL
