MODEL 1
REMARK VINA RESULT:    -5.198      0.000      0.000
REMARK INTER + INTRA:          -5.834
REMARK INTER:                  -5.502
REMARK INTRA:                  -0.332
REMARK UNBOUND:                -0.332
REMARK SMILES C=C1CC[C@]2(C(C)C)C[C@H]12
REMARK SMILES IDX 5 1 4 2 3 3 2 4 1 5 10 6 9 7 6 8 7 9 8 10
REMARK H PARENT
REMARK Flexibility Score: inf
ROOT
ATOM      1  C   UNL     1       9.297  32.975  23.802  1.00  0.00    -0.020 C 
ATOM      2  C   UNL     1       9.189  31.845  22.762  1.00  0.00     0.012 C 
ATOM      3  C   UNL     1      10.531  31.758  22.035  1.00  0.00     0.031 C 
ATOM      4  C   UNL     1      11.333  32.893  22.569  1.00  0.00    -0.074 C 
ATOM      5  C   UNL     1      12.555  33.202  22.125  1.00  0.00     0.008 C 
ATOM      6  C   UNL     1      10.648  33.659  23.643  1.00  0.00     0.021 C 
ATOM      7  C   UNL     1       9.379  34.397  23.237  1.00  0.00     0.016 C 
ENDROOT
BRANCH   1   8
ATOM      8  C   UNL     1       8.810  32.699  25.258  1.00  0.00    -0.011 C 
ATOM      9  C   UNL     1       9.926  32.411  26.274  1.00  0.00     0.008 C 
ATOM     10  C   UNL     1       7.758  31.578  25.295  1.00  0.00     0.008 C 
ENDBRANCH   1   8
TORSDOF 1
ENDMDL
MODEL 2
REMARK VINA RESULT:    -5.109      7.303      9.073
REMARK INTER + INTRA:          -5.739
REMARK INTER:                  -6.138
REMARK INTRA:                   0.399
REMARK UNBOUND:                -0.332
REMARK SMILES C=C1CC[C@]2(C(C)C)C[C@H]12
REMARK SMILES IDX 5 1 4 2 3 3 2 4 1 5 10 6 9 7 6 8 7 9 8 10
REMARK H PARENT
REMARK Flexibility Score: inf
ROOT
ATOM      1  C   UNL     1      17.730  29.885  24.738  1.00  0.00    -0.020 C 
ATOM      2  C   UNL     1      17.881  28.375  24.992  1.00  0.00     0.012 C 
ATOM      3  C   UNL     1      18.582  28.201  26.339  1.00  0.00     0.031 C 
ATOM      4  C   UNL     1      18.927  29.582  26.776  1.00  0.00    -0.074 C 
ATOM      5  C   UNL     1      19.620  29.851  27.886  1.00  0.00     0.008 C 
ATOM      6  C   UNL     1      18.433  30.642  25.857  1.00  0.00     0.021 C 
ATOM      7  C   UNL     1      19.030  30.648  24.456  1.00  0.00     0.016 C 
ENDROOT
BRANCH   1   8
ATOM      8  C   UNL     1      16.343  30.431  24.277  1.00  0.00    -0.011 C 
ATOM      9  C   UNL     1      15.408  29.384  23.653  1.00  0.00     0.008 C 
ATOM     10  C   UNL     1      16.499  31.632  23.331  1.00  0.00     0.008 C 
ENDBRANCH   1   8
TORSDOF 1
ENDMDL
MODEL 3
REMARK VINA RESULT:    -5.098      1.520      3.443
REMARK INTER + INTRA:          -5.728
REMARK INTER:                  -5.390
REMARK INTRA:                  -0.338
REMARK UNBOUND:                -0.332
REMARK SMILES C=C1CC[C@]2(C(C)C)C[C@H]12
REMARK SMILES IDX 5 1 4 2 3 3 2 4 1 5 10 6 9 7 6 8 7 9 8 10
REMARK H PARENT
REMARK Flexibility Score: inf
ROOT
ATOM      1  C   UNL     1       9.462  34.148  23.276  1.00  0.00    -0.020 C 
ATOM      2  C   UNL     1      10.777  33.386  23.036  1.00  0.00     0.012 C 
ATOM      3  C   UNL     1      11.022  32.493  24.253  1.00  0.00     0.031 C 
ATOM      4  C   UNL     1       9.932  32.837  25.208  1.00  0.00    -0.074 C 
ATOM      5  C   UNL     1       9.839  32.316  26.435  1.00  0.00     0.008 C 
ATOM      6  C   UNL     1       8.955  33.823  24.674  1.00  0.00     0.021 C 
ATOM      7  C   UNL     1       9.498  35.214  24.377  1.00  0.00     0.016 C 
ENDROOT
BRANCH   1   8
ATOM      8  C   UNL     1       8.403  34.189  22.131  1.00  0.00    -0.011 C 
ATOM      9  C   UNL     1       7.271  33.158  22.254  1.00  0.00     0.008 C 
ATOM     10  C   UNL     1       9.067  34.084  20.749  1.00  0.00     0.008 C 
ENDBRANCH   1   8
TORSDOF 1
ENDMDL
MODEL 4
REMARK VINA RESULT:    -5.073      7.739      9.374
REMARK INTER + INTRA:          -5.702
REMARK INTER:                  -5.392
REMARK INTRA:                  -0.310
REMARK UNBOUND:                -0.332
REMARK SMILES C=C1CC[C@]2(C(C)C)C[C@H]12
REMARK SMILES IDX 5 1 4 2 3 3 2 4 1 5 10 6 9 7 6 8 7 9 8 10
REMARK H PARENT
REMARK Flexibility Score: inf
ROOT
ATOM      1  C   UNL     1      18.623  29.382  26.029  1.00  0.00    -0.020 C 
ATOM      2  C   UNL     1      18.867  30.651  25.193  1.00  0.00     0.012 C 
ATOM      3  C   UNL     1      17.637  30.868  24.312  1.00  0.00     0.031 C 
ATOM      4  C   UNL     1      16.774  29.680  24.557  1.00  0.00    -0.074 C 
ATOM      5  C   UNL     1      15.625  29.461  23.910  1.00  0.00     0.008 C 
ATOM      6  C   UNL     1      17.308  28.751  25.587  1.00  0.00     0.021 C 
ATOM      7  C   UNL     1      18.624  28.060  25.252  1.00  0.00     0.016 C 
ENDROOT
BRANCH   1   8
ATOM      8  C   UNL     1      18.905  29.430  27.563  1.00  0.00    -0.011 C 
ATOM      9  C   UNL     1      17.655  29.396  28.455  1.00  0.00     0.008 C 
ATOM     10  C   UNL     1      19.786  30.634  27.933  1.00  0.00     0.008 C 
ENDBRANCH   1   8
TORSDOF 1
ENDMDL
MODEL 5
REMARK VINA RESULT:    -4.904      0.712      3.894
REMARK INTER + INTRA:          -5.523
REMARK INTER:                  -5.183
REMARK INTRA:                  -0.340
REMARK UNBOUND:                -0.332
REMARK SMILES C=C1CC[C@]2(C(C)C)C[C@H]12
REMARK SMILES IDX 5 1 4 2 3 3 2 4 1 5 10 6 9 7 6 8 7 9 8 10
REMARK H PARENT
REMARK Flexibility Score: inf
ROOT
ATOM      1  C   UNL     1      10.323  33.501  23.265  1.00  0.00    -0.020 C 
ATOM      2  C   UNL     1      10.983  33.381  24.651  1.00  0.00     0.012 C 
ATOM      3  C   UNL     1       9.935  32.824  25.614  1.00  0.00     0.031 C 
ATOM      4  C   UNL     1       8.680  32.748  24.817  1.00  0.00    -0.074 C 
ATOM      5  C   UNL     1       7.505  32.372  25.330  1.00  0.00     0.008 C 
ATOM      6  C   UNL     1       8.850  33.135  23.391  1.00  0.00     0.021 C 
ATOM      7  C   UNL     1       9.244  34.583  23.131  1.00  0.00     0.016 C 
ENDROOT
BRANCH   1   8
ATOM      8  C   UNL     1      11.087  32.947  22.023  1.00  0.00    -0.011 C 
ATOM      9  C   UNL     1      10.826  31.467  21.707  1.00  0.00     0.008 C 
ATOM     10  C   UNL     1      12.597  33.208  22.132  1.00  0.00     0.008 C 
ENDBRANCH   1   8
TORSDOF 1
ENDMDL
MODEL 6
REMARK VINA RESULT:    -4.902      1.514      3.765
REMARK INTER + INTRA:          -5.521
REMARK INTER:                  -5.203
REMARK INTRA:                  -0.318
REMARK UNBOUND:                -0.332
REMARK SMILES C=C1CC[C@]2(C(C)C)C[C@H]12
REMARK SMILES IDX 5 1 4 2 3 3 2 4 1 5 10 6 9 7 6 8 7 9 8 10
REMARK H PARENT
REMARK Flexibility Score: inf
ROOT
ATOM      1  C   UNL     1       8.508  32.870  23.934  1.00  0.00    -0.020 C 
ATOM      2  C   UNL     1       8.000  32.470  25.332  1.00  0.00     0.012 C 
ATOM      3  C   UNL     1       7.335  31.100  25.207  1.00  0.00     0.031 C 
ATOM      4  C   UNL     1       7.360  30.791  23.750  1.00  0.00    -0.074 C 
ATOM      5  C   UNL     1       6.801  29.698  23.222  1.00  0.00     0.008 C 
ATOM      6  C   UNL     1       8.060  31.815  22.931  1.00  0.00     0.021 C 
ATOM      7  C   UNL     1       7.426  33.199  22.899  1.00  0.00     0.016 C 
ENDROOT
BRANCH   1   8
ATOM      8  C   UNL     1       9.966  33.406  23.794  1.00  0.00    -0.011 C 
ATOM      9  C   UNL     1      10.960  32.429  23.148  1.00  0.00     0.008 C 
ATOM     10  C   UNL     1      10.513  33.903  25.142  1.00  0.00     0.008 C 
ENDBRANCH   1   8
TORSDOF 1
ENDMDL
MODEL 7
REMARK VINA RESULT:    -4.822      1.748      3.605
REMARK INTER + INTRA:          -5.436
REMARK INTER:                  -5.097
REMARK INTRA:                  -0.340
REMARK UNBOUND:                -0.332
REMARK SMILES C=C1CC[C@]2(C(C)C)C[C@H]12
REMARK SMILES IDX 5 1 4 2 3 3 2 4 1 5 10 6 9 7 6 8 7 9 8 10
REMARK H PARENT
REMARK Flexibility Score: inf
ROOT
ATOM      1  C   UNL     1       8.411  33.410  23.543  1.00  0.00    -0.020 C 
ATOM      2  C   UNL     1       9.413  34.566  23.722  1.00  0.00     0.012 C 
ATOM      3  C   UNL     1      10.328  34.206  24.893  1.00  0.00     0.031 C 
ATOM      4  C   UNL     1       9.775  32.935  25.437  1.00  0.00    -0.074 C 
ATOM      5  C   UNL     1      10.261  32.329  26.524  1.00  0.00     0.008 C 
ATOM      6  C   UNL     1       8.625  32.400  24.662  1.00  0.00     0.021 C 
ATOM      7  C   UNL     1       7.365  33.256  24.652  1.00  0.00     0.016 C 
ENDROOT
BRANCH   1   8
ATOM      8  C   UNL     1       8.176  32.841  22.110  1.00  0.00    -0.011 C 
ATOM      9  C   UNL     1       9.021  31.608  21.753  1.00  0.00     0.008 C 
ATOM     10  C   UNL     1       8.349  33.929  21.038  1.00  0.00     0.008 C 
ENDBRANCH   1   8
TORSDOF 1
ENDMDL
MODEL 8
REMARK VINA RESULT:    -4.745      1.648      2.288
REMARK INTER + INTRA:          -5.354
REMARK INTER:                  -5.057
REMARK INTRA:                  -0.297
REMARK UNBOUND:                -0.332
REMARK SMILES C=C1CC[C@]2(C(C)C)C[C@H]12
REMARK SMILES IDX 5 1 4 2 3 3 2 4 1 5 10 6 9 7 6 8 7 9 8 10
REMARK H PARENT
REMARK Flexibility Score: inf
ROOT
ATOM      1  C   UNL     1       8.837  33.840  22.629  1.00  0.00    -0.020 C 
ATOM      2  C   UNL     1       9.127  34.137  21.146  1.00  0.00     0.012 C 
ATOM      3  C   UNL     1      10.566  33.707  20.862  1.00  0.00     0.031 C 
ATOM      4  C   UNL     1      11.112  33.290  22.183  1.00  0.00    -0.074 C 
ATOM      5  C   UNL     1      12.380  32.911  22.368  1.00  0.00     0.008 C 
ATOM      6  C   UNL     1      10.117  33.340  23.287  1.00  0.00     0.021 C 
ATOM      7  C   UNL     1       9.577  34.719  23.643  1.00  0.00     0.016 C 
ENDROOT
BRANCH   1   8
ATOM      8  C   UNL     1       7.515  33.098  22.998  1.00  0.00    -0.011 C 
ATOM      9  C   UNL     1       7.700  31.682  23.564  1.00  0.00     0.008 C 
ATOM     10  C   UNL     1       6.538  33.071  21.812  1.00  0.00     0.008 C 
ENDBRANCH   1   8
TORSDOF 1
ENDMDL
MODEL 9
REMARK VINA RESULT:    -4.713      1.437      3.812
REMARK INTER + INTRA:          -5.320
REMARK INTER:                  -5.000
REMARK INTRA:                  -0.321
REMARK UNBOUND:                -0.332
REMARK SMILES C=C1CC[C@]2(C(C)C)C[C@H]12
REMARK SMILES IDX 5 1 4 2 3 3 2 4 1 5 10 6 9 7 6 8 7 9 8 10
REMARK H PARENT
REMARK Flexibility Score: inf
ROOT
ATOM      1  C   UNL     1       9.630  33.200  22.567  1.00  0.00    -0.020 C 
ATOM      2  C   UNL     1       9.258  34.579  23.141  1.00  0.00     0.012 C 
ATOM      3  C   UNL     1       9.652  34.586  24.618  1.00  0.00     0.031 C 
ATOM      4  C   UNL     1      10.122  33.201  24.898  1.00  0.00    -0.074 C 
ATOM      5  C   UNL     1      10.489  32.782  26.112  1.00  0.00     0.008 C 
ATOM      6  C   UNL     1      10.140  32.320  23.701  1.00  0.00     0.021 C 
ATOM      7  C   UNL     1       8.788  32.020  23.066  1.00  0.00     0.016 C 
ENDROOT
BRANCH   1   8
ATOM      8  C   UNL     1      10.409  33.137  21.217  1.00  0.00    -0.011 C 
ATOM      9  C   UNL     1      11.915  33.423  21.321  1.00  0.00     0.008 C 
ATOM     10  C   UNL     1       9.769  34.049  20.158  1.00  0.00     0.008 C 
ENDBRANCH   1   8
TORSDOF 1
ENDMDL
