MODEL 1
REMARK VINA RESULT:    -2.823      0.000      0.000
REMARK INTER + INTRA:          -3.787
REMARK INTER:                  -3.566
REMARK INTRA:                  -0.221
REMARK UNBOUND:                -0.221
REMARK SMILES CCCCCCO
REMARK SMILES IDX 4 1 3 2 2 3 1 4 5 5 6 6 7 7
REMARK H PARENT 7 8
REMARK Flexibility Score: inf
ROOT
ATOM      1  C   UNL     1     140.957 148.601 139.250  1.00  0.00     0.002 C 
ENDROOT
BRANCH   1   2
ATOM      2  C   UNL     1     140.200 148.775 140.571  1.00  0.00    -0.000 C 
BRANCH   2   3
ATOM      3  C   UNL     1     140.825 149.886 141.422  1.00  0.00    -0.003 C 
ATOM      4  C   UNL     1     141.718 150.791 140.578  1.00  0.00     0.004 C 
ENDBRANCH   2   3
ENDBRANCH   1   2
BRANCH   1   5
ATOM      5  C   UNL     1     141.698 147.258 139.212  1.00  0.00     0.028 C 
BRANCH   5   6
ATOM      6  C   UNL     1     143.216 147.446 139.232  1.00  0.00     0.156 C 
BRANCH   6   7
ATOM      7  O   UNL     1     143.687 147.435 140.551  1.00  0.00    -0.396 OA
ATOM      8  H   UNL     1     144.258 146.628 140.633  1.00  0.00     0.210 HD
ENDBRANCH   6   7
ENDBRANCH   5   6
ENDBRANCH   1   5
TORSDOF 5
ENDMDL
MODEL 2
REMARK VINA RESULT:    -2.820     10.595     11.414
REMARK INTER + INTRA:          -3.783
REMARK INTER:                  -3.612
REMARK INTRA:                  -0.171
REMARK UNBOUND:                -0.221
REMARK SMILES CCCCCCO
REMARK SMILES IDX 4 1 3 2 2 3 1 4 5 5 6 6 7 7
REMARK H PARENT 7 8
REMARK Flexibility Score: inf
ROOT
ATOM      1  C   UNL     1     133.178 140.439 140.099  1.00  0.00     0.002 C 
ENDROOT
BRANCH   1   2
ATOM      2  C   UNL     1     132.057 140.487 141.142  1.00  0.00    -0.000 C 
BRANCH   2   3
ATOM      3  C   UNL     1     131.149 141.702 140.919  1.00  0.00    -0.003 C 
ATOM      4  C   UNL     1     131.217 142.666 142.101  1.00  0.00     0.004 C 
ENDBRANCH   2   3
ENDBRANCH   1   2
BRANCH   1   5
ATOM      5  C   UNL     1     133.198 141.719 139.252  1.00  0.00     0.028 C 
BRANCH   5   6
ATOM      6  C   UNL     1     134.450 142.556 139.519  1.00  0.00     0.156 C 
BRANCH   6   7
ATOM      7  O   UNL     1     134.170 143.559 140.456  1.00  0.00    -0.396 OA
ATOM      8  H   UNL     1     133.430 144.097 140.070  1.00  0.00     0.210 HD
ENDBRANCH   6   7
ENDBRANCH   5   6
ENDBRANCH   1   5
TORSDOF 5
ENDMDL
MODEL 3
REMARK VINA RESULT:    -2.820     10.584     11.427
REMARK INTER + INTRA:          -3.783
REMARK INTER:                  -3.538
REMARK INTRA:                  -0.244
REMARK UNBOUND:                -0.221
REMARK SMILES CCCCCCO
REMARK SMILES IDX 4 1 3 2 2 3 1 4 5 5 6 6 7 7
REMARK H PARENT 7 8
REMARK Flexibility Score: inf
ROOT
ATOM      1  C   UNL     1     148.525 140.674 139.253  1.00  0.00     0.002 C 
ENDROOT
BRANCH   1   2
ATOM      2  C   UNL     1     148.819 141.332 140.606  1.00  0.00    -0.000 C 
BRANCH   2   3
ATOM      3  C   UNL     1     149.939 140.592 141.346  1.00  0.00    -0.003 C 
ATOM      4  C   UNL     1     150.824 139.816 140.374  1.00  0.00     0.004 C 
ENDBRANCH   2   3
ENDBRANCH   1   2
BRANCH   1   5
ATOM      5  C   UNL     1     147.216 139.874 139.302  1.00  0.00     0.028 C 
BRANCH   5   6
ATOM      6  C   UNL     1     147.473 138.366 139.320  1.00  0.00     0.156 C 
BRANCH   6   7
ATOM      7  O   UNL     1     147.567 137.907 140.640  1.00  0.00    -0.396 OA
ATOM      8  H   UNL     1     146.891 138.417 141.157  1.00  0.00     0.210 HD
ENDBRANCH   6   7
ENDBRANCH   5   6
ENDBRANCH   1   5
TORSDOF 5
ENDMDL
MODEL 4
REMARK VINA RESULT:    -2.703     14.593     16.051
REMARK INTER + INTRA:          -3.635
REMARK INTER:                  -3.408
REMARK INTRA:                  -0.227
REMARK UNBOUND:                -0.221
REMARK SMILES CCCCCCO
REMARK SMILES IDX 4 1 3 2 2 3 1 4 5 5 6 6 7 7
REMARK H PARENT 7 8
REMARK Flexibility Score: inf
ROOT
ATOM      1  C   UNL     1     140.676 133.068 139.161  1.00  0.00     0.002 C 
ENDROOT
BRANCH   1   2
ATOM      2  C   UNL     1     141.373 132.903 140.516  1.00  0.00    -0.000 C 
BRANCH   2   3
ATOM      3  C   UNL     1     140.883 131.643 141.238  1.00  0.00    -0.003 C 
ATOM      4  C   UNL     1     139.876 130.875 140.385  1.00  0.00     0.004 C 
ENDBRANCH   2   3
ENDBRANCH   1   2
BRANCH   1   5
ATOM      5  C   UNL     1     139.922 134.402 139.088  1.00  0.00     0.028 C 
BRANCH   5   6
ATOM      6  C   UNL     1     138.408 134.205 139.191  1.00  0.00     0.156 C 
BRANCH   6   7
ATOM      7  O   UNL     1     138.020 134.133 140.535  1.00  0.00    -0.396 OA
ATOM      8  H   UNL     1     137.881 133.170 140.730  1.00  0.00     0.210 HD
ENDBRANCH   6   7
ENDBRANCH   5   6
ENDBRANCH   1   5
TORSDOF 5
ENDMDL
MODEL 5
REMARK VINA RESULT:    -2.473     10.328     11.314
REMARK INTER + INTRA:          -3.345
REMARK INTER:                  -3.202
REMARK INTRA:                  -0.143
REMARK UNBOUND:                -0.221
REMARK SMILES CCCCCCO
REMARK SMILES IDX 4 1 3 2 2 3 1 4 5 5 6 6 7 7
REMARK H PARENT 7 8
REMARK Flexibility Score: inf
ROOT
ATOM      1  C   UNL     1     148.470 141.153 140.111  1.00  0.00     0.002 C 
ENDROOT
BRANCH   1   2
ATOM      2  C   UNL     1     148.556 139.866 139.281  1.00  0.00    -0.000 C 
BRANCH   2   3
ATOM      3  C   UNL     1     148.643 140.182 137.784  1.00  0.00    -0.003 C 
ATOM      4  C   UNL     1     147.941 141.496 137.455  1.00  0.00     0.004 C 
ENDBRANCH   2   3
ENDBRANCH   1   2
BRANCH   1   5
ATOM      5  C   UNL     1     149.576 141.197 141.174  1.00  0.00     0.028 C 
BRANCH   5   6
ATOM      6  C   UNL     1     150.403 139.911 141.185  1.00  0.00     0.156 C 
BRANCH   6   7
ATOM      7  O   UNL     1     150.395 139.342 142.466  1.00  0.00    -0.396 OA
ATOM      8  H   UNL     1     149.979 140.016 143.064  1.00  0.00     0.210 HD
ENDBRANCH   6   7
ENDBRANCH   5   6
ENDBRANCH   1   5
TORSDOF 5
ENDMDL
MODEL 6
REMARK VINA RESULT:    -2.438      1.824      3.480
REMARK INTER + INTRA:          -3.300
REMARK INTER:                  -3.195
REMARK INTRA:                  -0.105
REMARK UNBOUND:                -0.221
REMARK SMILES CCCCCCO
REMARK SMILES IDX 4 1 3 2 2 3 1 4 5 5 6 6 7 7
REMARK H PARENT 7 8
REMARK Flexibility Score: inf
ROOT
ATOM      1  C   UNL     1     140.348 148.534 140.214  1.00  0.00     0.002 C 
ENDROOT
BRANCH   1   2
ATOM      2  C   UNL     1     141.462 148.704 139.175  1.00  0.00    -0.000 C 
BRANCH   2   3
ATOM      3  C   UNL     1     141.278 147.730 138.006  1.00  0.00    -0.003 C 
ATOM      4  C   UNL     1     139.920 147.922 137.336  1.00  0.00     0.004 C 
ENDBRANCH   2   3
ENDBRANCH   1   2
BRANCH   1   5
ATOM      5  C   UNL     1     140.409 149.643 141.273  1.00  0.00     0.028 C 
BRANCH   5   6
ATOM      6  C   UNL     1     141.738 150.399 141.227  1.00  0.00     0.156 C 
BRANCH   6   7
ATOM      7  O   UNL     1     142.301 150.464 142.508  1.00  0.00    -0.396 OA
ATOM      8  H   UNL     1     143.188 150.026 142.441  1.00  0.00     0.210 HD
ENDBRANCH   6   7
ENDBRANCH   5   6
ENDBRANCH   1   5
TORSDOF 5
ENDMDL
MODEL 7
REMARK VINA RESULT:    -2.433     10.487     12.135
REMARK INTER + INTRA:          -3.294
REMARK INTER:                  -3.177
REMARK INTRA:                  -0.118
REMARK UNBOUND:                -0.221
REMARK SMILES CCCCCCO
REMARK SMILES IDX 4 1 3 2 2 3 1 4 5 5 6 6 7 7
REMARK H PARENT 7 8
REMARK Flexibility Score: inf
ROOT
ATOM      1  C   UNL     1     149.709 138.634 140.478  1.00  0.00     0.002 C 
ENDROOT
BRANCH   1   2
ATOM      2  C   UNL     1     150.599 139.856 140.726  1.00  0.00    -0.000 C 
BRANCH   2   3
ATOM      3  C   UNL     1     149.777 141.039 141.249  1.00  0.00    -0.003 C 
ATOM      4  C   UNL     1     148.585 141.328 140.340  1.00  0.00     0.004 C 
ENDBRANCH   2   3
ENDBRANCH   1   2
BRANCH   1   5
ATOM      5  C   UNL     1     149.733 138.226 138.999  1.00  0.00     0.028 C 
BRANCH   5   6
ATOM      6  C   UNL     1     148.321 138.033 138.442  1.00  0.00     0.156 C 
BRANCH   6   7
ATOM      7  O   UNL     1     147.426 137.748 139.481  1.00  0.00    -0.396 OA
ATOM      8  H   UNL     1     147.003 136.881 139.250  1.00  0.00     0.210 HD
ENDBRANCH   6   7
ENDBRANCH   5   6
ENDBRANCH   1   5
TORSDOF 5
ENDMDL
MODEL 8
REMARK VINA RESULT:    -2.385     10.347     11.528
REMARK INTER + INTRA:          -3.233
REMARK INTER:                  -3.003
REMARK INTRA:                  -0.230
REMARK UNBOUND:                -0.221
REMARK SMILES CCCCCCO
REMARK SMILES IDX 4 1 3 2 2 3 1 4 5 5 6 6 7 7
REMARK H PARENT 7 8
REMARK Flexibility Score: inf
ROOT
ATOM      1  C   UNL     1     149.638 139.116 139.602  1.00  0.00     0.002 C 
ENDROOT
BRANCH   1   2
ATOM      2  C   UNL     1     149.345 139.874 138.303  1.00  0.00    -0.000 C 
BRANCH   2   3
ATOM      3  C   UNL     1     148.019 140.638 138.398  1.00  0.00    -0.003 C 
ATOM      4  C   UNL     1     147.036 139.923 139.321  1.00  0.00     0.004 C 
ENDBRANCH   2   3
ENDBRANCH   1   2
BRANCH   1   5
ATOM      5  C   UNL     1     150.644 139.882 140.472  1.00  0.00     0.028 C 
BRANCH   5   6
ATOM      6  C   UNL     1     149.957 140.597 141.637  1.00  0.00     0.156 C 
BRANCH   6   7
ATOM      7  O   UNL     1     149.825 141.963 141.355  1.00  0.00    -0.396 OA
ATOM      8  H   UNL     1     149.418 142.020 140.452  1.00  0.00     0.210 HD
ENDBRANCH   6   7
ENDBRANCH   5   6
ENDBRANCH   1   5
TORSDOF 5
ENDMDL
MODEL 9
REMARK VINA RESULT:    -2.329     10.469     11.570
REMARK INTER + INTRA:          -3.163
REMARK INTER:                  -2.990
REMARK INTRA:                  -0.173
REMARK UNBOUND:                -0.221
REMARK SMILES CCCCCCO
REMARK SMILES IDX 4 1 3 2 2 3 1 4 5 5 6 6 7 7
REMARK H PARENT 7 8
REMARK Flexibility Score: inf
ROOT
ATOM      1  C   UNL     1     133.222 140.622 139.720  1.00  0.00     0.002 C 
ENDROOT
BRANCH   1   2
ATOM      2  C   UNL     1     134.050 140.944 138.471  1.00  0.00    -0.000 C 
BRANCH   2   3
ATOM      3  C   UNL     1     133.566 140.133 137.264  1.00  0.00    -0.003 C 
ATOM      4  C   UNL     1     132.540 140.916 136.449  1.00  0.00     0.004 C 
ENDBRANCH   2   3
ENDBRANCH   1   2
BRANCH   1   5
ATOM      5  C   UNL     1     132.450 141.857 140.202  1.00  0.00     0.028 C 
BRANCH   5   6
ATOM      6  C   UNL     1     133.096 143.155 139.715  1.00  0.00     0.156 C 
BRANCH   6   7
ATOM      7  O   UNL     1     133.942 143.675 140.703  1.00  0.00    -0.396 OA
ATOM      8  H   UNL     1     134.745 144.014 140.229  1.00  0.00     0.210 HD
ENDBRANCH   6   7
ENDBRANCH   5   6
ENDBRANCH   1   5
TORSDOF 5
ENDMDL
