MODEL 1
REMARK VINA RESULT:    -3.733      0.000      0.000
REMARK INTER + INTRA:          -4.187
REMARK INTER:                  -4.169
REMARK INTRA:                  -0.018
REMARK UNBOUND:                -0.018
REMARK SMILES CCCC(=O)[O-]
REMARK SMILES IDX 3 1 4 2 5 3 6 4 2 5 1 6
REMARK H PARENT
REMARK Flexibility Score: inf
ROOT
ATOM      1  C   UNL     1      23.867   7.541  18.984  1.00  0.00     0.052 C 
ENDROOT
BRANCH   1   2
ATOM      2  C   UNL     1      24.950   6.658  19.519  1.00  0.00     0.041 C 
ATOM      3  O   UNL     1      25.239   5.583  18.930  1.00  0.00    -0.550 OA
ATOM      4  O   UNL     1      25.674   7.046  20.638  1.00  0.00    -0.550 OA
ENDBRANCH   1   2
BRANCH   1   5
ATOM      5  C   UNL     1      23.016   8.098  20.130  1.00  0.00     0.003 C 
ATOM      6  C   UNL     1      22.523   9.507  19.814  1.00  0.00     0.004 C 
ENDBRANCH   1   5
TORSDOF 2
ENDMDL
MODEL 2
REMARK VINA RESULT:    -3.692      0.387      1.376
REMARK INTER + INTRA:          -4.141
REMARK INTER:                  -4.124
REMARK INTRA:                  -0.017
REMARK UNBOUND:                -0.018
REMARK SMILES CCCC(=O)[O-]
REMARK SMILES IDX 3 1 4 2 5 3 6 4 2 5 1 6
REMARK H PARENT
REMARK Flexibility Score: inf
ROOT
ATOM      1  C   UNL     1      23.872   7.493  18.787  1.00  0.00     0.052 C 
ENDROOT
BRANCH   1   2
ATOM      2  C   UNL     1      24.879   6.469  19.203  1.00  0.00     0.041 C 
ATOM      3  O   UNL     1      25.599   6.663  20.217  1.00  0.00    -0.550 OA
ATOM      4  O   UNL     1      24.990   5.277  18.499  1.00  0.00    -0.550 OA
ENDBRANCH   1   2
BRANCH   1   5
ATOM      5  C   UNL     1      23.124   8.035  20.009  1.00  0.00     0.003 C 
ATOM      6  C   UNL     1      22.629   9.457  19.765  1.00  0.00     0.004 C 
ENDBRANCH   1   5
TORSDOF 2
ENDMDL
MODEL 3
REMARK VINA RESULT:    -3.549      1.489      1.644
REMARK INTER + INTRA:          -3.981
REMARK INTER:                  -3.944
REMARK INTRA:                  -0.037
REMARK UNBOUND:                -0.018
REMARK SMILES CCCC(=O)[O-]
REMARK SMILES IDX 3 1 4 2 5 3 6 4 2 5 1 6
REMARK H PARENT
REMARK Flexibility Score: inf
ROOT
ATOM      1  C   UNL     1      24.955   6.846  19.802  1.00  0.00     0.052 C 
ENDROOT
BRANCH   1   2
ATOM      2  C   UNL     1      25.162   5.829  18.724  1.00  0.00     0.041 C 
ATOM      3  O   UNL     1      24.176   5.369  18.090  1.00  0.00    -0.550 OA
ATOM      4  O   UNL     1      26.447   5.426  18.387  1.00  0.00    -0.550 OA
ENDBRANCH   1   2
BRANCH   1   5
ATOM      5  C   UNL     1      23.466   7.178  19.945  1.00  0.00     0.003 C 
ATOM      6  C   UNL     1      23.188   8.630  19.566  1.00  0.00     0.004 C 
ENDBRANCH   1   5
TORSDOF 2
ENDMDL
MODEL 4
REMARK VINA RESULT:    -3.513      1.967      3.607
REMARK INTER + INTRA:          -3.941
REMARK INTER:                  -3.924
REMARK INTRA:                  -0.017
REMARK UNBOUND:                -0.018
REMARK SMILES CCCC(=O)[O-]
REMARK SMILES IDX 3 1 4 2 5 3 6 4 2 5 1 6
REMARK H PARENT
REMARK Flexibility Score: inf
ROOT
ATOM      1  C   UNL     1      24.396   6.005  18.655  1.00  0.00     0.052 C 
ENDROOT
BRANCH   1   2
ATOM      2  C   UNL     1      24.385   7.181  19.579  1.00  0.00     0.041 C 
ATOM      3  O   UNL     1      25.252   7.282  20.486  1.00  0.00    -0.550 OA
ATOM      4  O   UNL     1      23.447   8.191  19.409  1.00  0.00    -0.550 OA
ENDBRANCH   1   2
BRANCH   1   5
ATOM      5  C   UNL     1      25.811   5.433  18.534  1.00  0.00     0.003 C 
ATOM      6  C   UNL     1      25.777   3.961  18.133  1.00  0.00     0.004 C 
ENDBRANCH   1   5
TORSDOF 2
ENDMDL
MODEL 5
REMARK VINA RESULT:    -3.274     12.146     12.838
REMARK INTER + INTRA:          -3.674
REMARK INTER:                  -3.642
REMARK INTRA:                  -0.032
REMARK UNBOUND:                -0.018
REMARK SMILES CCCC(=O)[O-]
REMARK SMILES IDX 3 1 4 2 5 3 6 4 2 5 1 6
REMARK H PARENT
REMARK Flexibility Score: inf
ROOT
ATOM      1  C   UNL     1      17.958   1.036  10.522  1.00  0.00     0.052 C 
ENDROOT
BRANCH   1   2
ATOM      2  C   UNL     1      18.215   1.989   9.398  1.00  0.00     0.041 C 
ATOM      3  O   UNL     1      19.255   1.875   8.697  1.00  0.00    -0.550 OA
ATOM      4  O   UNL     1      17.284   2.972   9.093  1.00  0.00    -0.550 OA
ENDBRANCH   1   2
BRANCH   1   5
ATOM      5  C   UNL     1      16.759   1.501  11.354  1.00  0.00     0.003 C 
ATOM      6  C   UNL     1      17.186   1.889  12.766  1.00  0.00     0.004 C 
ENDBRANCH   1   5
TORSDOF 2
ENDMDL
MODEL 6
REMARK VINA RESULT:    -3.165     12.276     12.838
REMARK INTER + INTRA:          -3.553
REMARK INTER:                  -3.530
REMARK INTRA:                  -0.023
REMARK UNBOUND:                -0.018
REMARK SMILES CCCC(=O)[O-]
REMARK SMILES IDX 3 1 4 2 5 3 6 4 2 5 1 6
REMARK H PARENT
REMARK Flexibility Score: inf
ROOT
ATOM      1  C   UNL     1      17.736   1.957   9.680  1.00  0.00     0.052 C 
ENDROOT
BRANCH   1   2
ATOM      2  C   UNL     1      19.120   1.847   9.124  1.00  0.00     0.041 C 
ATOM      3  O   UNL     1      19.588   2.768   8.404  1.00  0.00    -0.550 OA
ATOM      4  O   UNL     1      19.911   0.750   9.440  1.00  0.00    -0.550 OA
ENDBRANCH   1   2
BRANCH   1   5
ATOM      5  C   UNL     1      17.531   0.942  10.810  1.00  0.00     0.003 C 
ATOM      6  C   UNL     1      17.073   1.631  12.092  1.00  0.00     0.004 C 
ENDBRANCH   1   5
TORSDOF 2
ENDMDL
MODEL 7
REMARK VINA RESULT:    -3.079     12.808     13.008
REMARK INTER + INTRA:          -3.457
REMARK INTER:                  -3.448
REMARK INTRA:                  -0.008
REMARK UNBOUND:                -0.018
REMARK SMILES CCCC(=O)[O-]
REMARK SMILES IDX 3 1 4 2 5 3 6 4 2 5 1 6
REMARK H PARENT
REMARK Flexibility Score: inf
ROOT
ATOM      1  C   UNL     1      17.825   1.930   9.414  1.00  0.00     0.052 C 
ENDROOT
BRANCH   1   2
ATOM      2  C   UNL     1      17.608   1.191  10.695  1.00  0.00     0.041 C 
ATOM      3  O   UNL     1      16.659   1.512  11.459  1.00  0.00    -0.550 OA
ATOM      4  O   UNL     1      18.422   0.116  11.025  1.00  0.00    -0.550 OA
ENDBRANCH   1   2
BRANCH   1   5
ATOM      5  C   UNL     1      19.311   1.936   9.044  1.00  0.00     0.003 C 
ATOM      6  C   UNL     1      19.688   3.211   8.295  1.00  0.00     0.004 C 
ENDBRANCH   1   5
TORSDOF 2
ENDMDL
MODEL 8
REMARK VINA RESULT:    -2.897     12.934     13.261
REMARK INTER + INTRA:          -3.253
REMARK INTER:                  -3.241
REMARK INTRA:                  -0.012
REMARK UNBOUND:                -0.018
REMARK SMILES CCCC(=O)[O-]
REMARK SMILES IDX 3 1 4 2 5 3 6 4 2 5 1 6
REMARK H PARENT
REMARK Flexibility Score: inf
ROOT
ATOM      1  C   UNL     1      18.585   1.185   9.973  1.00  0.00     0.052 C 
ENDROOT
BRANCH   1   2
ATOM      2  C   UNL     1      17.273   1.865  10.205  1.00  0.00     0.041 C 
ATOM      3  O   UNL     1      16.561   1.549  11.194  1.00  0.00    -0.550 OA
ATOM      4  O   UNL     1      16.857   2.883   9.356  1.00  0.00    -0.550 OA
ENDBRANCH   1   2
BRANCH   1   5
ATOM      5  C   UNL     1      18.757   0.011  10.942  1.00  0.00     0.003 C 
ATOM      6  C   UNL     1      20.047  -0.753  10.656  1.00  0.00     0.004 C 
ENDBRANCH   1   5
TORSDOF 2
ENDMDL
MODEL 9
REMARK VINA RESULT:    -2.756     11.666     12.332
REMARK INTER + INTRA:          -3.096
REMARK INTER:                  -3.031
REMARK INTRA:                  -0.065
REMARK UNBOUND:                -0.018
REMARK SMILES CCCC(=O)[O-]
REMARK SMILES IDX 3 1 4 2 5 3 6 4 2 5 1 6
REMARK H PARENT
REMARK Flexibility Score: inf
ROOT
ATOM      1  C   UNL     1      22.734  -4.201  20.908  1.00  0.00     0.052 C 
ENDROOT
BRANCH   1   2
ATOM      2  C   UNL     1      22.933  -5.359  19.983  1.00  0.00     0.041 C 
ATOM      3  O   UNL     1      22.266  -6.415  20.138  1.00  0.00    -0.550 OA
ATOM      4  O   UNL     1      23.821  -5.255  18.920  1.00  0.00    -0.550 OA
ENDBRANCH   1   2
BRANCH   1   5
ATOM      5  C   UNL     1      21.276  -3.733  20.872  1.00  0.00     0.003 C 
ATOM      6  C   UNL     1      20.887  -3.248  19.478  1.00  0.00     0.004 C 
ENDBRANCH   1   5
TORSDOF 2
ENDMDL
