MODEL 1
REMARK VINA RESULT:    -3.082      0.000      0.000
REMARK INTER + INTRA:          -3.680
REMARK INTER:                  -3.622
REMARK INTRA:                  -0.058
REMARK UNBOUND:                -0.058
REMARK SMILES O=C([O-])CCC(=O)[O-]
REMARK SMILES IDX 4 1 2 2 1 3 3 4 5 5 6 6 7 7 8 8
REMARK H PARENT
REMARK Flexibility Score: inf
ROOT
ATOM      1  C   UNL     1       3.043 -11.997  -4.789  1.00  0.00     0.059 C 
ENDROOT
BRANCH   1   2
ATOM      2  C   UNL     1       2.880 -11.598  -3.354  1.00  0.00     0.042 C 
ATOM      3  O   UNL     1       3.889 -11.315  -2.655  1.00  0.00    -0.550 OA
ATOM      4  O   UNL     1       1.616 -11.575  -2.778  1.00  0.00    -0.550 OA
ENDBRANCH   1   2
BRANCH   1   5
ATOM      5  C   UNL     1       3.885 -10.978  -5.565  1.00  0.00     0.059 C 
BRANCH   5   6
ATOM      6  C   UNL     1       3.062 -10.243  -6.579  1.00  0.00     0.042 C 
ATOM      7  O   UNL     1       3.402  -9.090  -6.955  1.00  0.00    -0.550 OA
ATOM      8  O   UNL     1       1.900 -10.815  -7.080  1.00  0.00    -0.550 OA
ENDBRANCH   5   6
ENDBRANCH   1   5
TORSDOF 3
ENDMDL
MODEL 2
REMARK VINA RESULT:    -3.075      0.219      3.885
REMARK INTER + INTRA:          -3.673
REMARK INTER:                  -3.605
REMARK INTRA:                  -0.068
REMARK UNBOUND:                -0.058
REMARK SMILES O=C([O-])CCC(=O)[O-]
REMARK SMILES IDX 4 1 2 2 1 3 3 4 5 5 6 6 7 7 8 8
REMARK H PARENT
REMARK Flexibility Score: inf
ROOT
ATOM      1  C   UNL     1       3.923 -11.021  -5.606  1.00  0.00     0.059 C 
ENDROOT
BRANCH   1   2
ATOM      2  C   UNL     1       3.041 -10.259  -6.547  1.00  0.00     0.042 C 
ATOM      3  O   UNL     1       1.995 -10.790  -7.007  1.00  0.00    -0.550 OA
ATOM      4  O   UNL     1       3.395  -8.977  -6.946  1.00  0.00    -0.550 OA
ENDBRANCH   1   2
BRANCH   1   5
ATOM      5  C   UNL     1       3.108 -11.931  -4.681  1.00  0.00     0.059 C 
BRANCH   5   6
ATOM      6  C   UNL     1       3.007 -11.363  -3.297  1.00  0.00     0.042 C 
ATOM      7  O   UNL     1       4.044 -10.987  -2.690  1.00  0.00    -0.550 OA
ATOM      8  O   UNL     1       1.773 -11.287  -2.664  1.00  0.00    -0.550 OA
ENDBRANCH   5   6
ENDBRANCH   1   5
TORSDOF 3
ENDMDL
MODEL 3
REMARK VINA RESULT:    -3.058      7.264      8.710
REMARK INTER + INTRA:          -3.653
REMARK INTER:                  -3.544
REMARK INTRA:                  -0.109
REMARK UNBOUND:                -0.058
REMARK SMILES O=C([O-])CCC(=O)[O-]
REMARK SMILES IDX 4 1 2 2 1 3 3 4 5 5 6 6 7 7 8 8
REMARK H PARENT
REMARK Flexibility Score: inf
ROOT
ATOM      1  C   UNL     1      -3.596 -10.686  -8.502  1.00  0.00     0.059 C 
ENDROOT
BRANCH   1   2
ATOM      2  C   UNL     1      -2.319 -10.213  -9.127  1.00  0.00     0.042 C 
ATOM      3  O   UNL     1      -1.209 -10.570  -8.650  1.00  0.00    -0.550 OA
ATOM      4  O   UNL     1      -2.355  -9.347 -10.213  1.00  0.00    -0.550 OA
ENDBRANCH   1   2
BRANCH   1   5
ATOM      5  C   UNL     1      -4.276 -11.762  -9.355  1.00  0.00     0.059 C 
BRANCH   5   6
ATOM      6  C   UNL     1      -5.377 -11.187 -10.194  1.00  0.00     0.042 C 
ATOM      7  O   UNL     1      -6.564 -11.197  -9.776  1.00  0.00    -0.550 OA
ATOM      8  O   UNL     1      -5.096 -10.677 -11.456  1.00  0.00    -0.550 OA
ENDBRANCH   5   6
ENDBRANCH   1   5
TORSDOF 3
ENDMDL
MODEL 4
REMARK VINA RESULT:    -3.049      7.328      8.926
REMARK INTER + INTRA:          -3.642
REMARK INTER:                  -3.526
REMARK INTRA:                  -0.116
REMARK UNBOUND:                -0.058
REMARK SMILES O=C([O-])CCC(=O)[O-]
REMARK SMILES IDX 4 1 2 2 1 3 3 4 5 5 6 6 7 7 8 8
REMARK H PARENT
REMARK Flexibility Score: inf
ROOT
ATOM      1  C   UNL     1      -4.301 -11.753  -9.477  1.00  0.00     0.059 C 
ENDROOT
BRANCH   1   2
ATOM      2  C   UNL     1      -5.430 -11.176 -10.276  1.00  0.00     0.042 C 
ATOM      3  O   UNL     1      -6.614 -11.265  -9.856  1.00  0.00    -0.550 OA
ATOM      4  O   UNL     1      -5.178 -10.575 -11.502  1.00  0.00    -0.550 OA
ENDBRANCH   1   2
BRANCH   1   5
ATOM      5  C   UNL     1      -3.639 -10.693  -8.590  1.00  0.00     0.059 C 
BRANCH   5   6
ATOM      6  C   UNL     1      -2.345 -10.214  -9.175  1.00  0.00     0.042 C 
ATOM      7  O   UNL     1      -1.250 -10.550  -8.651  1.00  0.00    -0.550 OA
ATOM      8  O   UNL     1      -2.349  -9.365 -10.274  1.00  0.00    -0.550 OA
ENDBRANCH   5   6
ENDBRANCH   1   5
TORSDOF 3
ENDMDL
MODEL 5
REMARK VINA RESULT:    -2.988      7.936      8.699
REMARK INTER + INTRA:          -3.571
REMARK INTER:                  -3.450
REMARK INTRA:                  -0.121
REMARK UNBOUND:                -0.058
REMARK SMILES O=C([O-])CCC(=O)[O-]
REMARK SMILES IDX 4 1 2 2 1 3 3 4 5 5 6 6 7 7 8 8
REMARK H PARENT
REMARK Flexibility Score: inf
ROOT
ATOM      1  C   UNL     1      -3.346  -8.979  -8.359  1.00  0.00     0.059 C 
ENDROOT
BRANCH   1   2
ATOM      2  C   UNL     1      -3.518  -7.692  -9.106  1.00  0.00     0.042 C 
ATOM      3  O   UNL     1      -2.975  -7.534 -10.232  1.00  0.00    -0.550 OA
ATOM      4  O   UNL     1      -4.245  -6.652  -8.540  1.00  0.00    -0.550 OA
ENDBRANCH   1   2
BRANCH   1   5
ATOM      5  C   UNL     1      -2.748 -10.073  -9.252  1.00  0.00     0.059 C 
BRANCH   5   6
ATOM      6  C   UNL     1      -3.812 -10.961  -9.822  1.00  0.00     0.042 C 
ATOM      7  O   UNL     1      -4.071 -12.068  -9.281  1.00  0.00    -0.550 OA
ATOM      8  O   UNL     1      -4.489 -10.584 -10.975  1.00  0.00    -0.550 OA
ENDBRANCH   5   6
ENDBRANCH   1   5
TORSDOF 3
ENDMDL
MODEL 6
REMARK VINA RESULT:    -2.963      6.917      8.311
REMARK INTER + INTRA:          -3.540
REMARK INTER:                  -3.417
REMARK INTRA:                  -0.123
REMARK UNBOUND:                -0.058
REMARK SMILES O=C([O-])CCC(=O)[O-]
REMARK SMILES IDX 4 1 2 2 1 3 3 4 5 5 6 6 7 7 8 8
REMARK H PARENT
REMARK Flexibility Score: inf
ROOT
ATOM      1  C   UNL     1      -3.278  -9.051  -8.092  1.00  0.00     0.059 C 
ENDROOT
BRANCH   1   2
ATOM      2  C   UNL     1      -2.534 -10.026  -8.951  1.00  0.00     0.042 C 
ATOM      3  O   UNL     1      -2.247  -9.732 -10.142  1.00  0.00    -0.550 OA
ATOM      4  O   UNL     1      -2.193 -11.276  -8.450  1.00  0.00    -0.550 OA
ENDBRANCH   1   2
BRANCH   1   5
ATOM      5  C   UNL     1      -4.396  -8.350  -8.872  1.00  0.00     0.059 C 
BRANCH   5   6
ATOM      6  C   UNL     1      -4.131  -6.882  -9.017  1.00  0.00     0.042 C 
ATOM      7  O   UNL     1      -4.941  -6.043  -8.542  1.00  0.00    -0.550 OA
ATOM      8  O   UNL     1      -3.012  -6.442  -9.711  1.00  0.00    -0.550 OA
ENDBRANCH   5   6
ENDBRANCH   1   5
TORSDOF 3
ENDMDL
MODEL 7
REMARK VINA RESULT:    -2.956      7.360      8.543
REMARK INTER + INTRA:          -3.533
REMARK INTER:                  -3.415
REMARK INTRA:                  -0.118
REMARK UNBOUND:                -0.058
REMARK SMILES O=C([O-])CCC(=O)[O-]
REMARK SMILES IDX 4 1 2 2 1 3 3 4 5 5 6 6 7 7 8 8
REMARK H PARENT
REMARK Flexibility Score: inf
ROOT
ATOM      1  C   UNL     1      -4.420  -8.467  -8.758  1.00  0.00     0.059 C 
ENDROOT
BRANCH   1   2
ATOM      2  C   UNL     1      -3.413  -9.520  -8.409  1.00  0.00     0.042 C 
ATOM      3  O   UNL     1      -2.256  -9.480  -8.906  1.00  0.00    -0.550 OA
ATOM      4  O   UNL     1      -3.764 -10.567  -7.567  1.00  0.00    -0.550 OA
ENDBRANCH   1   2
BRANCH   1   5
ATOM      5  C   UNL     1      -3.807  -7.064  -8.714  1.00  0.00     0.059 C 
BRANCH   5   6
ATOM      6  C   UNL     1      -3.707  -6.463 -10.084  1.00  0.00     0.042 C 
ATOM      7  O   UNL     1      -2.719  -6.724 -10.819  1.00  0.00    -0.550 OA
ATOM      8  O   UNL     1      -4.684  -5.583 -10.531  1.00  0.00    -0.550 OA
ENDBRANCH   5   6
ENDBRANCH   1   5
TORSDOF 3
ENDMDL
MODEL 8
REMARK VINA RESULT:    -2.947      7.360      9.147
REMARK INTER + INTRA:          -3.522
REMARK INTER:                  -3.407
REMARK INTRA:                  -0.115
REMARK UNBOUND:                -0.058
REMARK SMILES O=C([O-])CCC(=O)[O-]
REMARK SMILES IDX 4 1 2 2 1 3 3 4 5 5 6 6 7 7 8 8
REMARK H PARENT
REMARK Flexibility Score: inf
ROOT
ATOM      1  C   UNL     1      -3.788  -6.996  -8.734  1.00  0.00     0.059 C 
ENDROOT
BRANCH   1   2
ATOM      2  C   UNL     1      -3.677  -6.422 -10.114  1.00  0.00     0.042 C 
ATOM      3  O   UNL     1      -2.665  -6.666 -10.823  1.00  0.00    -0.550 OA
ATOM      4  O   UNL     1      -4.673  -5.584 -10.601  1.00  0.00    -0.550 OA
ENDBRANCH   1   2
BRANCH   1   5
ATOM      5  C   UNL     1      -4.399  -8.401  -8.757  1.00  0.00     0.059 C 
BRANCH   5   6
ATOM      6  C   UNL     1      -3.384  -9.449  -8.411  1.00  0.00     0.042 C 
ATOM      7  O   UNL     1      -2.246  -9.430  -8.949  1.00  0.00    -0.550 OA
ATOM      8  O   UNL     1      -3.709 -10.468  -7.525  1.00  0.00    -0.550 OA
ENDBRANCH   5   6
ENDBRANCH   1   5
TORSDOF 3
ENDMDL
MODEL 9
REMARK VINA RESULT:    -2.860      7.597      9.077
REMARK INTER + INTRA:          -3.420
REMARK INTER:                  -3.269
REMARK INTRA:                  -0.151
REMARK UNBOUND:                -0.058
REMARK SMILES O=C([O-])CCC(=O)[O-]
REMARK SMILES IDX 4 1 2 2 1 3 3 4 5 5 6 6 7 7 8 8
REMARK H PARENT
REMARK Flexibility Score: inf
ROOT
ATOM      1  C   UNL     1      -4.054  -9.121  -8.715  1.00  0.00     0.059 C 
ENDROOT
BRANCH   1   2
ATOM      2  C   UNL     1      -2.868  -9.921  -9.162  1.00  0.00     0.042 C 
ATOM      3  O   UNL     1      -2.232  -9.587 -10.197  1.00  0.00    -0.550 OA
ATOM      4  O   UNL     1      -2.490 -11.057  -8.459  1.00  0.00    -0.550 OA
ENDBRANCH   1   2
BRANCH   1   5
ATOM      5  C   UNL     1      -5.042  -8.889  -9.863  1.00  0.00     0.059 C 
BRANCH   5   6
ATOM      6  C   UNL     1      -5.572 -10.182 -10.404  1.00  0.00     0.042 C 
ATOM      7  O   UNL     1      -6.231 -10.958  -9.663  1.00  0.00    -0.550 OA
ATOM      8  O   UNL     1      -5.303 -10.549 -11.717  1.00  0.00    -0.550 OA
ENDBRANCH   5   6
ENDBRANCH   1   5
TORSDOF 3
ENDMDL
