MODEL 1
REMARK VINA RESULT:     0.807      0.000      0.000
REMARK INTER + INTRA:          -0.119
REMARK INTER:                   1.844
REMARK INTRA:                  -1.964
REMARK UNBOUND:                -1.964
REMARK SMILES CCCCCCCCCCCCCCCCCCCCCCCC(=O)[O-]
REMARK SMILES IDX 13 1 14 2 15 3 16 4 17 5 18 6 19 7 20 8 21 9 22 10 23 11
REMARK SMILES IDX 24 12 25 13 26 14 12 15 11 16 10 17 9 18 8 19 7 20 6 21 5 22
REMARK SMILES IDX 4 23 3 24 2 25 1 26
REMARK H PARENT
REMARK Flexibility Score: inf
ROOT
ATOM      1  C   UNL     1      55.779  82.609  32.677  1.00  0.00     0.000 C 
ENDROOT
BRANCH   1   2
ATOM      2  C   UNL     1      54.790  81.691  31.938  1.00  0.00     0.000 C 
BRANCH   2   3
ATOM      3  C   UNL     1      53.510  81.432  32.747  1.00  0.00     0.000 C 
BRANCH   3   4
ATOM      4  C   UNL     1      53.756  80.518  33.962  1.00  0.00     0.000 C 
BRANCH   4   5
ATOM      5  C   UNL     1      52.698  79.412  34.093  1.00  0.00     0.000 C 
BRANCH   5   6
ATOM      6  C   UNL     1      53.055  78.378  35.176  1.00  0.00     0.000 C 
BRANCH   6   7
ATOM      7  C   UNL     1      53.928  78.971  36.292  1.00  0.00     0.000 C 
BRANCH   7   8
ATOM      8  C   UNL     1      53.155  79.952  37.192  1.00  0.00     0.000 C 
BRANCH   8   9
ATOM      9  C   UNL     1      54.055  80.571  38.282  1.00  0.00     0.000 C 
BRANCH   9  10
ATOM     10  C   UNL     1      55.175  79.633  38.764  1.00  0.00     0.006 C 
BRANCH  10  11
ATOM     11  C   UNL     1      54.822  78.897  40.062  1.00  0.00     0.053 C 
BRANCH  11  12
ATOM     12  C   UNL     1      55.888  77.905  40.406  1.00  0.00     0.041 C 
ATOM     13  O   UNL     1      56.207  77.008  39.582  1.00  0.00    -0.550 OA
ATOM     14  O   UNL     1      56.557  77.996  41.620  1.00  0.00    -0.550 OA
ENDBRANCH  11  12
ENDBRANCH  10  11
ENDBRANCH   9  10
ENDBRANCH   8   9
ENDBRANCH   7   8
ENDBRANCH   6   7
ENDBRANCH   5   6
ENDBRANCH   4   5
ENDBRANCH   3   4
ENDBRANCH   2   3
ENDBRANCH   1   2
BRANCH   1  15
ATOM     15  C   UNL     1      55.853  84.018  32.068  1.00  0.00     0.000 C 
BRANCH  15  16
ATOM     16  C   UNL     1      56.887  84.116  30.933  1.00  0.00     0.000 C 
BRANCH  16  17
ATOM     17  C   UNL     1      56.314  83.700  29.566  1.00  0.00     0.000 C 
BRANCH  17  18
ATOM     18  C   UNL     1      54.978  84.371  29.178  1.00  0.00    -0.000 C 
BRANCH  18  19
ATOM     19  C   UNL     1      53.775  83.418  29.047  1.00  0.00    -0.000 C 
BRANCH  19  20
ATOM     20  C   UNL     1      52.461  84.046  29.540  1.00  0.00    -0.000 C 
BRANCH  20  21
ATOM     21  C   UNL     1      52.583  84.644  30.952  1.00  0.00    -0.000 C 
BRANCH  21  22
ATOM     22  C   UNL     1      51.242  84.658  31.709  1.00  0.00    -0.000 C 
BRANCH  22  23
ATOM     23  C   UNL     1      50.501  83.313  31.615  1.00  0.00    -0.000 C 
BRANCH  23  24
ATOM     24  C   UNL     1      49.119  83.448  30.952  1.00  0.00    -0.000 C 
BRANCH  24  25
ATOM     25  C   UNL     1      48.073  84.068  31.892  1.00  0.00    -0.003 C 
ATOM     26  C   UNL     1      48.246  83.628  33.345  1.00  0.00     0.004 C 
ENDBRANCH  24  25
ENDBRANCH  23  24
ENDBRANCH  22  23
ENDBRANCH  21  22
ENDBRANCH  20  21
ENDBRANCH  19  20
ENDBRANCH  18  19
ENDBRANCH  17  18
ENDBRANCH  16  17
ENDBRANCH  15  16
ENDBRANCH   1  15
TORSDOF 22
ENDMDL
MODEL 2
REMARK VINA RESULT:     0.980      4.580      8.619
REMARK INTER + INTRA:           0.276
REMARK INTER:                   2.754
REMARK INTRA:                  -2.477
REMARK UNBOUND:                -1.964
REMARK SMILES CCCCCCCCCCCCCCCCCCCCCCCC(=O)[O-]
REMARK SMILES IDX 13 1 14 2 15 3 16 4 17 5 18 6 19 7 20 8 21 9 22 10 23 11
REMARK SMILES IDX 24 12 25 13 26 14 12 15 11 16 10 17 9 18 8 19 7 20 6 21 5 22
REMARK SMILES IDX 4 23 3 24 2 25 1 26
REMARK H PARENT
REMARK Flexibility Score: inf
ROOT
ATOM      1  C   UNL     1      53.896  81.288  32.979  1.00  0.00     0.000 C 
ENDROOT
BRANCH   1   2
ATOM      2  C   UNL     1      55.304  81.678  32.494  1.00  0.00     0.000 C 
BRANCH   2   3
ATOM      3  C   UNL     1      55.435  83.185  32.219  1.00  0.00     0.000 C 
BRANCH   3   4
ATOM      4  C   UNL     1      55.649  83.494  30.726  1.00  0.00     0.000 C 
BRANCH   4   5
ATOM      5  C   UNL     1      55.618  82.231  29.851  1.00  0.00     0.000 C 
BRANCH   5   6
ATOM      6  C   UNL     1      54.381  82.176  28.937  1.00  0.00     0.000 C 
BRANCH   6   7
ATOM      7  C   UNL     1      53.350  81.136  29.403  1.00  0.00     0.000 C 
BRANCH   7   8
ATOM      8  C   UNL     1      51.980  81.761  29.724  1.00  0.00     0.000 C 
BRANCH   8   9
ATOM      9  C   UNL     1      52.034  83.303  29.726  1.00  0.00     0.000 C 
BRANCH   9  10
ATOM     10  C   UNL     1      51.957  83.922  31.132  1.00  0.00     0.006 C 
BRANCH  10  11
ATOM     11  C   UNL     1      51.016  83.159  32.071  1.00  0.00     0.053 C 
BRANCH  11  12
ATOM     12  C   UNL     1      49.746  83.924  32.274  1.00  0.00     0.041 C 
ATOM     13  O   UNL     1      49.559  85.011  31.668  1.00  0.00    -0.550 OA
ATOM     14  O   UNL     1      48.752  83.415  33.099  1.00  0.00    -0.550 OA
ENDBRANCH  11  12
ENDBRANCH  10  11
ENDBRANCH   9  10
ENDBRANCH   8   9
ENDBRANCH   7   8
ENDBRANCH   6   7
ENDBRANCH   5   6
ENDBRANCH   4   5
ENDBRANCH   3   4
ENDBRANCH   2   3
ENDBRANCH   1   2
BRANCH   1  15
ATOM     15  C   UNL     1      53.853  80.955  34.478  1.00  0.00     0.000 C 
BRANCH  15  16
ATOM     16  C   UNL     1      53.495  79.484  34.746  1.00  0.00     0.000 C 
BRANCH  16  17
ATOM     17  C   UNL     1      53.120  79.217  36.214  1.00  0.00     0.000 C 
BRANCH  17  18
ATOM     18  C   UNL     1      53.741  80.189  37.242  1.00  0.00    -0.000 C 
BRANCH  18  19
ATOM     19  C   UNL     1      52.762  80.762  38.284  1.00  0.00    -0.000 C 
BRANCH  19  20
ATOM     20  C   UNL     1      51.359  80.138  38.189  1.00  0.00    -0.000 C 
BRANCH  20  21
ATOM     21  C   UNL     1      50.556  80.283  39.493  1.00  0.00    -0.000 C 
BRANCH  21  22
ATOM     22  C   UNL     1      49.131  79.711  39.380  1.00  0.00    -0.000 C 
BRANCH  22  23
ATOM     23  C   UNL     1      48.054  80.737  39.773  1.00  0.00    -0.000 C 
BRANCH  23  24
ATOM     24  C   UNL     1      48.296  81.338  41.169  1.00  0.00    -0.000 C 
BRANCH  24  25
ATOM     25  C   UNL     1      48.269  82.875  41.160  1.00  0.00    -0.003 C 
ATOM     26  C   UNL     1      49.051  83.488  42.322  1.00  0.00     0.004 C 
ENDBRANCH  24  25
ENDBRANCH  23  24
ENDBRANCH  22  23
ENDBRANCH  21  22
ENDBRANCH  20  21
ENDBRANCH  19  20
ENDBRANCH  18  19
ENDBRANCH  17  18
ENDBRANCH  16  17
ENDBRANCH  15  16
ENDBRANCH   1  15
TORSDOF 22
ENDMDL
MODEL 3
REMARK VINA RESULT:     1.056      4.741      8.968
REMARK INTER + INTRA:           0.451
REMARK INTER:                   2.349
REMARK INTRA:                  -1.898
REMARK UNBOUND:                -1.964
REMARK SMILES CCCCCCCCCCCCCCCCCCCCCCCC(=O)[O-]
REMARK SMILES IDX 13 1 14 2 15 3 16 4 17 5 18 6 19 7 20 8 21 9 22 10 23 11
REMARK SMILES IDX 24 12 25 13 26 14 12 15 11 16 10 17 9 18 8 19 7 20 6 21 5 22
REMARK SMILES IDX 4 23 3 24 2 25 1 26
REMARK H PARENT
REMARK Flexibility Score: inf
ROOT
ATOM      1  C   UNL     1      53.898  80.746  34.453  1.00  0.00     0.000 C 
ENDROOT
BRANCH   1   2
ATOM      2  C   UNL     1      53.532  81.144  33.012  1.00  0.00     0.000 C 
BRANCH   2   3
ATOM      3  C   UNL     1      54.745  81.650  32.215  1.00  0.00     0.000 C 
BRANCH   3   4
ATOM      4  C   UNL     1      55.786  82.349  33.108  1.00  0.00     0.000 C 
BRANCH   4   5
ATOM      5  C   UNL     1      56.064  83.795  32.669  1.00  0.00     0.000 C 
BRANCH   5   6
ATOM      6  C   UNL     1      56.018  83.968  31.140  1.00  0.00     0.000 C 
BRANCH   6   7
ATOM      7  C   UNL     1      55.084  85.108  30.704  1.00  0.00     0.000 C 
BRANCH   7   8
ATOM      8  C   UNL     1      53.820  84.598  29.989  1.00  0.00     0.000 C 
BRANCH   8   9
ATOM      9  C   UNL     1      52.529  85.038  30.711  1.00  0.00     0.000 C 
BRANCH   9  10
ATOM     10  C   UNL     1      52.428  84.531  32.160  1.00  0.00     0.006 C 
BRANCH  10  11
ATOM     11  C   UNL     1      50.981  84.380  32.642  1.00  0.00     0.053 C 
BRANCH  11  12
ATOM     12  C   UNL     1      50.245  83.396  31.788  1.00  0.00     0.041 C 
ATOM     13  O   UNL     1      49.048  83.615  31.461  1.00  0.00    -0.550 OA
ATOM     14  O   UNL     1      50.891  82.260  31.320  1.00  0.00    -0.550 OA
ENDBRANCH  11  12
ENDBRANCH  10  11
ENDBRANCH   9  10
ENDBRANCH   8   9
ENDBRANCH   7   8
ENDBRANCH   6   7
ENDBRANCH   5   6
ENDBRANCH   4   5
ENDBRANCH   3   4
ENDBRANCH   2   3
ENDBRANCH   1   2
BRANCH   1  15
ATOM     15  C   UNL     1      53.433  79.327  34.816  1.00  0.00     0.000 C 
BRANCH  15  16
ATOM     16  C   UNL     1      53.334  79.110  36.335  1.00  0.00     0.000 C 
BRANCH  16  17
ATOM     17  C   UNL     1      53.544  80.406  37.139  1.00  0.00     0.000 C 
BRANCH  17  18
ATOM     18  C   UNL     1      52.633  80.571  38.375  1.00  0.00    -0.000 C 
BRANCH  18  19
ATOM     19  C   UNL     1      51.197  80.039  38.213  1.00  0.00    -0.000 C 
BRANCH  19  20
ATOM     20  C   UNL     1      50.339  80.244  39.473  1.00  0.00    -0.000 C 
BRANCH  20  21
ATOM     21  C   UNL     1      48.876  79.818  39.270  1.00  0.00    -0.000 C 
BRANCH  21  22
ATOM     22  C   UNL     1      47.969  80.231  40.443  1.00  0.00    -0.000 C 
BRANCH  22  23
ATOM     23  C   UNL     1      48.631  81.274  41.359  1.00  0.00    -0.000 C 
BRANCH  23  24
ATOM     24  C   UNL     1      48.155  82.707  41.061  1.00  0.00    -0.000 C 
BRANCH  24  25
ATOM     25  C   UNL     1      47.890  83.517  42.339  1.00  0.00    -0.003 C 
ATOM     26  C   UNL     1      49.172  83.888  43.083  1.00  0.00     0.004 C 
ENDBRANCH  24  25
ENDBRANCH  23  24
ENDBRANCH  22  23
ENDBRANCH  21  22
ENDBRANCH  20  21
ENDBRANCH  19  20
ENDBRANCH  18  19
ENDBRANCH  17  18
ENDBRANCH  16  17
ENDBRANCH  15  16
ENDBRANCH   1  15
TORSDOF 22
ENDMDL
MODEL 4
REMARK VINA RESULT:     1.081      5.299      9.784
REMARK INTER + INTRA:           0.508
REMARK INTER:                   2.161
REMARK INTRA:                  -1.653
REMARK UNBOUND:                -1.964
REMARK SMILES CCCCCCCCCCCCCCCCCCCCCCCC(=O)[O-]
REMARK SMILES IDX 13 1 14 2 15 3 16 4 17 5 18 6 19 7 20 8 21 9 22 10 23 11
REMARK SMILES IDX 24 12 25 13 26 14 12 15 11 16 10 17 9 18 8 19 7 20 6 21 5 22
REMARK SMILES IDX 4 23 3 24 2 25 1 26
REMARK H PARENT
REMARK Flexibility Score: inf
ROOT
ATOM      1  C   UNL     1      53.143  79.250  36.235  1.00  0.00     0.000 C 
ENDROOT
BRANCH   1   2
ATOM      2  C   UNL     1      53.483  79.510  34.756  1.00  0.00     0.000 C 
BRANCH   2   3
ATOM      3  C   UNL     1      53.900  80.966  34.495  1.00  0.00     0.000 C 
BRANCH   3   4
ATOM      4  C   UNL     1      53.723  81.374  33.022  1.00  0.00     0.000 C 
BRANCH   4   5
ATOM      5  C   UNL     1      55.061  81.498  32.278  1.00  0.00     0.000 C 
BRANCH   5   6
ATOM      6  C   UNL     1      55.829  82.779  32.653  1.00  0.00     0.000 C 
BRANCH   6   7
ATOM      7  C   UNL     1      54.982  84.048  32.473  1.00  0.00     0.000 C 
BRANCH   7   8
ATOM      8  C   UNL     1      55.336  84.819  31.188  1.00  0.00     0.000 C 
BRANCH   8   9
ATOM      9  C   UNL     1      54.088  85.124  30.333  1.00  0.00     0.000 C 
BRANCH   9  10
ATOM     10  C   UNL     1      53.353  83.866  29.841  1.00  0.00     0.006 C 
BRANCH  10  11
ATOM     11  C   UNL     1      52.017  83.634  30.556  1.00  0.00     0.053 C 
BRANCH  11  12
ATOM     12  C   UNL     1      51.340  82.413  30.018  1.00  0.00     0.041 C 
ATOM     13  O   UNL     1      51.926  81.299  30.052  1.00  0.00    -0.550 OA
ATOM     14  O   UNL     1      50.048  82.498  29.516  1.00  0.00    -0.550 OA
ENDBRANCH  11  12
ENDBRANCH  10  11
ENDBRANCH   9  10
ENDBRANCH   8   9
ENDBRANCH   7   8
ENDBRANCH   6   7
ENDBRANCH   5   6
ENDBRANCH   4   5
ENDBRANCH   3   4
ENDBRANCH   2   3
ENDBRANCH   1   2
BRANCH   1  15
ATOM     15  C   UNL     1      53.809  80.257  37.185  1.00  0.00     0.000 C 
BRANCH  15  16
ATOM     16  C   UNL     1      52.830  80.813  38.233  1.00  0.00     0.000 C 
BRANCH  16  17
ATOM     17  C   UNL     1      51.479  80.077  38.239  1.00  0.00     0.000 C 
BRANCH  17  18
ATOM     18  C   UNL     1      50.517  80.470  39.381  1.00  0.00    -0.000 C 
BRANCH  18  19
ATOM     19  C   UNL     1      49.136  79.788  39.346  1.00  0.00    -0.000 C 
BRANCH  19  20
ATOM     20  C   UNL     1      48.055  80.592  40.089  1.00  0.00    -0.000 C 
BRANCH  20  21
ATOM     21  C   UNL     1      48.595  81.282  41.353  1.00  0.00    -0.000 C 
BRANCH  21  22
ATOM     22  C   UNL     1      48.564  82.818  41.249  1.00  0.00    -0.000 C 
BRANCH  22  23
ATOM     23  C   UNL     1      49.109  83.502  42.515  1.00  0.00    -0.000 C 
BRANCH  23  24
ATOM     24  C   UNL     1      48.353  83.077  43.786  1.00  0.00    -0.000 C 
BRANCH  24  25
ATOM     25  C   UNL     1      49.228  83.160  45.046  1.00  0.00    -0.003 C 
ATOM     26  C   UNL     1      50.502  83.977  44.831  1.00  0.00     0.004 C 
ENDBRANCH  24  25
ENDBRANCH  23  24
ENDBRANCH  22  23
ENDBRANCH  21  22
ENDBRANCH  20  21
ENDBRANCH  19  20
ENDBRANCH  18  19
ENDBRANCH  17  18
ENDBRANCH  16  17
ENDBRANCH  15  16
ENDBRANCH   1  15
TORSDOF 22
ENDMDL
MODEL 5
REMARK VINA RESULT:     1.299      5.773     10.116
REMARK INTER + INTRA:           1.006
REMARK INTER:                   2.207
REMARK INTRA:                  -1.201
REMARK UNBOUND:                -1.964
REMARK SMILES CCCCCCCCCCCCCCCCCCCCCCCC(=O)[O-]
REMARK SMILES IDX 13 1 14 2 15 3 16 4 17 5 18 6 19 7 20 8 21 9 22 10 23 11
REMARK SMILES IDX 24 12 25 13 26 14 12 15 11 16 10 17 9 18 8 19 7 20 6 21 5 22
REMARK SMILES IDX 4 23 3 24 2 25 1 26
REMARK H PARENT
REMARK Flexibility Score: inf
ROOT
ATOM      1  C   UNL     1      53.652  80.289  37.114  1.00  0.00     0.000 C 
ENDROOT
BRANCH   1   2
ATOM      2  C   UNL     1      53.128  79.118  36.264  1.00  0.00     0.000 C 
BRANCH   2   3
ATOM      3  C   UNL     1      53.260  79.379  34.755  1.00  0.00     0.000 C 
BRANCH   3   4
ATOM      4  C   UNL     1      53.890  80.750  34.448  1.00  0.00     0.000 C 
BRANCH   4   5
ATOM      5  C   UNL     1      53.668  81.189  32.993  1.00  0.00     0.000 C 
BRANCH   5   6
ATOM      6  C   UNL     1      54.956  81.710  32.330  1.00  0.00     0.000 C 
BRANCH   6   7
ATOM      7  C   UNL     1      54.713  82.962  31.473  1.00  0.00     0.000 C 
BRANCH   7   8
ATOM      8  C   UNL     1      53.553  83.826  32.001  1.00  0.00     0.000 C 
BRANCH   8   9
ATOM      9  C   UNL     1      52.385  83.905  30.996  1.00  0.00     0.000 C 
BRANCH   9  10
ATOM     10  C   UNL     1      51.016  84.137  31.658  1.00  0.00     0.006 C 
BRANCH  10  11
ATOM     11  C   UNL     1      50.049  82.964  31.458  1.00  0.00     0.053 C 
BRANCH  11  12
ATOM     12  C   UNL     1      48.636  83.411  31.664  1.00  0.00     0.041 C 
ATOM     13  O   UNL     1      47.876  83.580  30.674  1.00  0.00    -0.550 OA
ATOM     14  O   UNL     1      48.146  83.600  32.950  1.00  0.00    -0.550 OA
ENDBRANCH  11  12
ENDBRANCH  10  11
ENDBRANCH   9  10
ENDBRANCH   8   9
ENDBRANCH   7   8
ENDBRANCH   6   7
ENDBRANCH   5   6
ENDBRANCH   4   5
ENDBRANCH   3   4
ENDBRANCH   2   3
ENDBRANCH   1   2
BRANCH   1  15
ATOM     15  C   UNL     1      52.717  80.644  38.281  1.00  0.00     0.000 C 
BRANCH  15  16
ATOM     16  C   UNL     1      51.384  79.879  38.222  1.00  0.00     0.000 C 
BRANCH  16  17
ATOM     17  C   UNL     1      50.435  80.242  39.377  1.00  0.00     0.000 C 
BRANCH  17  18
ATOM     18  C   UNL     1      49.033  79.600  39.307  1.00  0.00    -0.000 C 
BRANCH  18  19
ATOM     19  C   UNL     1      47.905  80.403  39.982  1.00  0.00    -0.000 C 
BRANCH  19  20
ATOM     20  C   UNL     1      48.379  81.161  41.234  1.00  0.00    -0.000 C 
BRANCH  20  21
ATOM     21  C   UNL     1      48.423  82.683  41.024  1.00  0.00    -0.000 C 
BRANCH  21  22
ATOM     22  C   UNL     1      48.012  83.469  42.282  1.00  0.00    -0.000 C 
BRANCH  22  23
ATOM     23  C   UNL     1      49.222  83.890  43.133  1.00  0.00    -0.000 C 
BRANCH  23  24
ATOM     24  C   UNL     1      48.814  84.692  44.381  1.00  0.00    -0.000 C 
BRANCH  24  25
ATOM     25  C   UNL     1      49.832  84.560  45.524  1.00  0.00    -0.003 C 
ATOM     26  C   UNL     1      51.258  84.330  45.025  1.00  0.00     0.004 C 
ENDBRANCH  24  25
ENDBRANCH  23  24
ENDBRANCH  22  23
ENDBRANCH  21  22
ENDBRANCH  20  21
ENDBRANCH  19  20
ENDBRANCH  18  19
ENDBRANCH  17  18
ENDBRANCH  16  17
ENDBRANCH  15  16
ENDBRANCH   1  15
TORSDOF 22
ENDMDL
MODEL 6
REMARK VINA RESULT:     1.336      5.927     10.826
REMARK INTER + INTRA:           1.091
REMARK INTER:                   2.586
REMARK INTRA:                  -1.495
REMARK UNBOUND:                -1.964
REMARK SMILES CCCCCCCCCCCCCCCCCCCCCCCC(=O)[O-]
REMARK SMILES IDX 13 1 14 2 15 3 16 4 17 5 18 6 19 7 20 8 21 9 22 10 23 11
REMARK SMILES IDX 24 12 25 13 26 14 12 15 11 16 10 17 9 18 8 19 7 20 6 21 5 22
REMARK SMILES IDX 4 23 3 24 2 25 1 26
REMARK H PARENT
REMARK Flexibility Score: inf
ROOT
ATOM      1  C   UNL     1      52.427  80.483  38.541  1.00  0.00     0.000 C 
ENDROOT
BRANCH   1   2
ATOM      2  C   UNL     1      53.259  80.506  37.246  1.00  0.00     0.000 C 
BRANCH   2   3
ATOM      3  C   UNL     1      53.232  79.159  36.505  1.00  0.00     0.000 C 
BRANCH   3   4
ATOM      4  C   UNL     1      53.368  79.324  34.981  1.00  0.00     0.000 C 
BRANCH   4   5
ATOM      5  C   UNL     1      53.824  80.734  34.577  1.00  0.00     0.000 C 
BRANCH   5   6
ATOM      6  C   UNL     1      53.646  81.005  33.072  1.00  0.00     0.000 C 
BRANCH   6   7
ATOM      7  C   UNL     1      54.798  81.834  32.482  1.00  0.00     0.000 C 
BRANCH   7   8
ATOM      8  C   UNL     1      54.984  81.600  30.972  1.00  0.00     0.000 C 
BRANCH   8   9
ATOM      9  C   UNL     1      54.510  82.808  30.137  1.00  0.00     0.000 C 
BRANCH   9  10
ATOM     10  C   UNL     1      54.014  83.990  30.986  1.00  0.00     0.006 C 
BRANCH  10  11
ATOM     11  C   UNL     1      52.646  84.516  30.538  1.00  0.00     0.053 C 
BRANCH  11  12
ATOM     12  C   UNL     1      51.671  84.472  31.673  1.00  0.00     0.041 C 
ATOM     13  O   UNL     1      50.433  84.481  31.443  1.00  0.00    -0.550 OA
ATOM     14  O   UNL     1      52.129  84.379  32.981  1.00  0.00    -0.550 OA
ENDBRANCH  11  12
ENDBRANCH  10  11
ENDBRANCH   9  10
ENDBRANCH   8   9
ENDBRANCH   7   8
ENDBRANCH   6   7
ENDBRANCH   5   6
ENDBRANCH   4   5
ENDBRANCH   3   4
ENDBRANCH   2   3
ENDBRANCH   1   2
BRANCH   1  15
ATOM     15  C   UNL     1      50.929  80.257  38.283  1.00  0.00     0.000 C 
BRANCH  15  16
ATOM     16  C   UNL     1      50.158  79.895  39.564  1.00  0.00     0.000 C 
BRANCH  16  17
ATOM     17  C   UNL     1      48.975  80.841  39.836  1.00  0.00     0.000 C 
BRANCH  17  18
ATOM     18  C   UNL     1      48.051  80.425  41.001  1.00  0.00    -0.000 C 
BRANCH  18  19
ATOM     19  C   UNL     1      48.120  81.321  42.251  1.00  0.00    -0.000 C 
BRANCH  19  20
ATOM     20  C   UNL     1      48.656  82.730  41.945  1.00  0.00    -0.000 C 
BRANCH  20  21
ATOM     21  C   UNL     1      48.954  83.541  43.217  1.00  0.00    -0.000 C 
BRANCH  21  22
ATOM     22  C   UNL     1      48.402  82.873  44.490  1.00  0.00    -0.000 C 
BRANCH  22  23
ATOM     23  C   UNL     1      49.452  82.788  45.611  1.00  0.00    -0.000 C 
BRANCH  23  24
ATOM     24  C   UNL     1      49.209  81.599  46.556  1.00  0.00    -0.000 C 
BRANCH  24  25
ATOM     25  C   UNL     1      48.473  80.440  45.866  1.00  0.00    -0.003 C 
ATOM     26  C   UNL     1      48.734  79.090  46.534  1.00  0.00     0.004 C 
ENDBRANCH  24  25
ENDBRANCH  23  24
ENDBRANCH  22  23
ENDBRANCH  21  22
ENDBRANCH  20  21
ENDBRANCH  19  20
ENDBRANCH  18  19
ENDBRANCH  17  18
ENDBRANCH  16  17
ENDBRANCH  15  16
ENDBRANCH   1  15
TORSDOF 22
ENDMDL
MODEL 7
REMARK VINA RESULT:     1.351      5.325      7.075
REMARK INTER + INTRA:           1.124
REMARK INTER:                   2.514
REMARK INTRA:                  -1.389
REMARK UNBOUND:                -1.964
REMARK SMILES CCCCCCCCCCCCCCCCCCCCCCCC(=O)[O-]
REMARK SMILES IDX 13 1 14 2 15 3 16 4 17 5 18 6 19 7 20 8 21 9 22 10 23 11
REMARK SMILES IDX 24 12 25 13 26 14 12 15 11 16 10 17 9 18 8 19 7 20 6 21 5 22
REMARK SMILES IDX 4 23 3 24 2 25 1 26
REMARK H PARENT
REMARK Flexibility Score: inf
ROOT
ATOM      1  C   UNL     1      52.768  80.837  38.294  1.00  0.00     0.000 C 
ENDROOT
BRANCH   1   2
ATOM      2  C   UNL     1      51.368  80.205  38.190  1.00  0.00     0.000 C 
BRANCH   2   3
ATOM      3  C   UNL     1      50.606  80.239  39.525  1.00  0.00     0.000 C 
BRANCH   3   4
ATOM      4  C   UNL     1      49.132  79.823  39.372  1.00  0.00     0.000 C 
BRANCH   4   5
ATOM      5  C   UNL     1      48.261  80.293  40.546  1.00  0.00     0.000 C 
BRANCH   5   6
ATOM      6  C   UNL     1      48.011  81.812  40.526  1.00  0.00     0.000 C 
BRANCH   6   7
ATOM      7  C   UNL     1      48.538  82.513  41.789  1.00  0.00     0.000 C 
BRANCH   7   8
ATOM      8  C   UNL     1      47.983  81.896  43.085  1.00  0.00     0.000 C 
BRANCH   8   9
ATOM      9  C   UNL     1      48.300  82.763  44.321  1.00  0.00     0.000 C 
BRANCH   9  10
ATOM     10  C   UNL     1      48.888  81.968  45.499  1.00  0.00     0.006 C 
BRANCH  10  11
ATOM     11  C   UNL     1      47.896  80.965  46.099  1.00  0.00     0.053 C 
BRANCH  11  12
ATOM     12  C   UNL     1      48.626  79.849  46.778  1.00  0.00     0.041 C 
ATOM     13  O   UNL     1      48.826  78.764  46.172  1.00  0.00    -0.550 OA
ATOM     14  O   UNL     1      49.120  80.022  48.064  1.00  0.00    -0.550 OA
ENDBRANCH  11  12
ENDBRANCH  10  11
ENDBRANCH   9  10
ENDBRANCH   8   9
ENDBRANCH   7   8
ENDBRANCH   6   7
ENDBRANCH   5   6
ENDBRANCH   4   5
ENDBRANCH   3   4
ENDBRANCH   2   3
ENDBRANCH   1   2
BRANCH   1  15
ATOM     15  C   UNL     1      53.762  80.254  37.279  1.00  0.00     0.000 C 
BRANCH  15  16
ATOM     16  C   UNL     1      53.129  79.169  36.390  1.00  0.00     0.000 C 
BRANCH  16  17
ATOM     17  C   UNL     1      53.487  79.332  34.902  1.00  0.00     0.000 C 
BRANCH  17  18
ATOM     18  C   UNL     1      53.873  80.763  34.468  1.00  0.00    -0.000 C 
BRANCH  18  19
ATOM     19  C   UNL     1      53.677  81.075  32.973  1.00  0.00    -0.000 C 
BRANCH  19  20
ATOM     20  C   UNL     1      54.879  81.810  32.355  1.00  0.00    -0.000 C 
BRANCH  20  21
ATOM     21  C   UNL     1      54.456  82.951  31.415  1.00  0.00    -0.000 C 
BRANCH  21  22
ATOM     22  C   UNL     1      53.227  83.721  31.930  1.00  0.00    -0.000 C 
BRANCH  22  23
ATOM     23  C   UNL     1      52.174  83.948  30.832  1.00  0.00    -0.000 C 
BRANCH  23  24
ATOM     24  C   UNL     1      51.107  82.839  30.802  1.00  0.00    -0.000 C 
BRANCH  24  25
ATOM     25  C   UNL     1      50.113  82.947  31.969  1.00  0.00    -0.003 C 
ATOM     26  C   UNL     1      48.746  83.475  31.537  1.00  0.00     0.004 C 
ENDBRANCH  24  25
ENDBRANCH  23  24
ENDBRANCH  22  23
ENDBRANCH  21  22
ENDBRANCH  20  21
ENDBRANCH  19  20
ENDBRANCH  18  19
ENDBRANCH  17  18
ENDBRANCH  16  17
ENDBRANCH  15  16
ENDBRANCH   1  15
TORSDOF 22
ENDMDL
MODEL 8
REMARK VINA RESULT:     1.387      5.156      9.401
REMARK INTER + INTRA:           1.207
REMARK INTER:                   3.029
REMARK INTRA:                  -1.821
REMARK UNBOUND:                -1.964
REMARK SMILES CCCCCCCCCCCCCCCCCCCCCCCC(=O)[O-]
REMARK SMILES IDX 13 1 14 2 15 3 16 4 17 5 18 6 19 7 20 8 21 9 22 10 23 11
REMARK SMILES IDX 24 12 25 13 26 14 12 15 11 16 10 17 9 18 8 19 7 20 6 21 5 22
REMARK SMILES IDX 4 23 3 24 2 25 1 26
REMARK H PARENT
REMARK Flexibility Score: inf
ROOT
ATOM      1  C   UNL     1      53.392  79.267  34.837  1.00  0.00     0.000 C 
ENDROOT
BRANCH   1   2
ATOM      2  C   UNL     1      53.881  80.678  34.463  1.00  0.00     0.000 C 
BRANCH   2   3
ATOM      3  C   UNL     1      53.576  81.038  33.000  1.00  0.00     0.000 C 
BRANCH   3   4
ATOM      4  C   UNL     1      53.898  82.508  32.676  1.00  0.00     0.000 C 
BRANCH   4   5
ATOM      5  C   UNL     1      54.379  82.702  31.230  1.00  0.00     0.000 C 
BRANCH   5   6
ATOM      6  C   UNL     1      54.600  81.366  30.496  1.00  0.00     0.000 C 
BRANCH   6   7
ATOM      7  C   UNL     1      53.678  81.204  29.277  1.00  0.00     0.000 C 
BRANCH   7   8
ATOM      8  C   UNL     1      52.186  81.310  29.643  1.00  0.00     0.000 C 
BRANCH   8   9
ATOM      9  C   UNL     1      51.485  82.458  28.887  1.00  0.00     0.000 C 
BRANCH   9  10
ATOM     10  C   UNL     1      50.800  83.479  29.812  1.00  0.00     0.006 C 
BRANCH  10  11
ATOM     11  C   UNL     1      50.608  82.957  31.241  1.00  0.00     0.053 C 
BRANCH  11  12
ATOM     12  C   UNL     1      49.202  83.188  31.697  1.00  0.00     0.041 C 
ATOM     13  O   UNL     1      48.236  82.861  30.958  1.00  0.00    -0.550 OA
ATOM     14  O   UNL     1      48.957  83.727  32.953  1.00  0.00    -0.550 OA
ENDBRANCH  11  12
ENDBRANCH  10  11
ENDBRANCH   9  10
ENDBRANCH   8   9
ENDBRANCH   7   8
ENDBRANCH   6   7
ENDBRANCH   5   6
ENDBRANCH   4   5
ENDBRANCH   3   4
ENDBRANCH   2   3
ENDBRANCH   1   2
BRANCH   1  15
ATOM     15  C   UNL     1      53.221  79.078  36.352  1.00  0.00     0.000 C 
BRANCH  15  16
ATOM     16  C   UNL     1      53.681  80.307  37.155  1.00  0.00     0.000 C 
BRANCH  16  17
ATOM     17  C   UNL     1      52.678  80.717  38.248  1.00  0.00     0.000 C 
BRANCH  17  18
ATOM     18  C   UNL     1      51.371  79.895  38.287  1.00  0.00    -0.000 C 
BRANCH  18  19
ATOM     19  C   UNL     1      50.357  80.320  39.365  1.00  0.00    -0.000 C 
BRANCH  19  20
ATOM     20  C   UNL     1      49.040  79.528  39.290  1.00  0.00    -0.000 C 
BRANCH  20  21
ATOM     21  C   UNL     1      47.905  80.188  40.089  1.00  0.00    -0.000 C 
BRANCH  21  22
ATOM     22  C   UNL     1      48.122  81.699  40.293  1.00  0.00    -0.000 C 
BRANCH  22  23
ATOM     23  C   UNL     1      47.938  82.125  41.760  1.00  0.00    -0.000 C 
BRANCH  23  24
ATOM     24  C   UNL     1      48.372  83.581  42.008  1.00  0.00    -0.000 C 
BRANCH  24  25
ATOM     25  C   UNL     1      49.526  83.686  43.018  1.00  0.00    -0.003 C 
ATOM     26  C   UNL     1      49.061  84.124  44.406  1.00  0.00     0.004 C 
ENDBRANCH  24  25
ENDBRANCH  23  24
ENDBRANCH  22  23
ENDBRANCH  21  22
ENDBRANCH  20  21
ENDBRANCH  19  20
ENDBRANCH  18  19
ENDBRANCH  17  18
ENDBRANCH  16  17
ENDBRANCH  15  16
ENDBRANCH   1  15
TORSDOF 22
ENDMDL
