MODEL 1
REMARK VINA RESULT:    -4.850      0.000      0.000
REMARK INTER + INTRA:          -5.918
REMARK INTER:                  -5.842
REMARK INTRA:                  -0.076
REMARK UNBOUND:                -0.076
REMARK SMILES OCCc1ccc(O)c(O)c1
REMARK SMILES IDX 3 1 4 2 5 3 6 4 7 5 11 6 9 7 8 8 10 10 2 12 1 13
REMARK H PARENT 8 9 10 11 1 14
REMARK Flexibility Score: inf
ROOT
ATOM      1  C   UNL     1      21.290  40.460  27.548  1.00  0.00     0.064 C 
ENDROOT
BRANCH   1   2
ATOM      2  C   UNL     1      21.620  41.681  26.731  1.00  0.00    -0.042 A 
ATOM      3  C   UNL     1      21.269  41.740  25.373  1.00  0.00     0.008 A 
ATOM      4  C   UNL     1      21.548  42.885  24.623  1.00  0.00     0.050 A 
ATOM      5  C   UNL     1      22.170  43.988  25.222  1.00  0.00     0.157 A 
ATOM      6  C   UNL     1      22.232  42.792  27.333  1.00  0.00     0.054 A 
ATOM      7  C   UNL     1      22.511  43.942  26.581  1.00  0.00     0.157 A 
BRANCH   5   8
ATOM      8  O   UNL     1      22.450  45.132  24.478  1.00  0.00    -0.504 OA
ATOM      9  H   UNL     1      22.780  45.074  23.521  1.00  0.00     0.293 HD
ENDBRANCH   5   8
BRANCH   7  10
ATOM     10  O   UNL     1      23.125  45.043  27.176  1.00  0.00    -0.504 OA
ATOM     11  H   UNL     1      24.114  45.042  27.396  1.00  0.00     0.293 HD
ENDBRANCH   7  10
ENDBRANCH   1   2
BRANCH   1  12
ATOM     12  C   UNL     1      20.833  40.855  28.950  1.00  0.00     0.161 C 
BRANCH  12  13
ATOM     13  O   UNL     1      21.247  39.882  29.867  1.00  0.00    -0.396 OA
ATOM     14  H   UNL     1      20.465  39.705  30.452  1.00  0.00     0.210 HD
ENDBRANCH  12  13
ENDBRANCH   1  12
TORSDOF 5
ENDMDL
MODEL 2
REMARK VINA RESULT:    -4.762      1.601      4.576
REMARK INTER + INTRA:          -5.812
REMARK INTER:                  -5.748
REMARK INTRA:                  -0.064
REMARK UNBOUND:                -0.076
REMARK SMILES OCCc1ccc(O)c(O)c1
REMARK SMILES IDX 3 1 4 2 5 3 6 4 7 5 11 6 9 7 8 8 10 10 2 12 1 13
REMARK H PARENT 8 9 10 11 1 14
REMARK Flexibility Score: inf
ROOT
ATOM      1  C   UNL     1      22.310  42.730  25.871  1.00  0.00     0.064 C 
ENDROOT
BRANCH   1   2
ATOM      2  C   UNL     1      21.822  42.152  27.174  1.00  0.00    -0.042 A 
ATOM      3  C   UNL     1      21.343  40.835  27.229  1.00  0.00     0.008 A 
ATOM      4  C   UNL     1      20.919  40.289  28.444  1.00  0.00     0.050 A 
ATOM      5  C   UNL     1      20.981  41.049  29.618  1.00  0.00     0.157 A 
ATOM      6  C   UNL     1      21.895  42.908  28.355  1.00  0.00     0.054 A 
ATOM      7  C   UNL     1      21.471  42.361  29.575  1.00  0.00     0.157 A 
BRANCH   5   8
ATOM      8  O   UNL     1      20.559  40.509  30.832  1.00  0.00    -0.504 OA
ATOM      9  H   UNL     1      19.961  41.028  31.464  1.00  0.00     0.293 HD
ENDBRANCH   5   8
BRANCH   7  10
ATOM     10  O   UNL     1      21.536  43.113  30.746  1.00  0.00    -0.504 OA
ATOM     11  H   UNL     1      21.117  44.034  30.809  1.00  0.00     0.293 HD
ENDBRANCH   7  10
ENDBRANCH   1   2
BRANCH   1  12
ATOM     12  C   UNL     1      21.268  42.537  24.771  1.00  0.00     0.161 C 
BRANCH  12  13
ATOM     13  O   UNL     1      20.913  43.783  24.241  1.00  0.00    -0.396 OA
ATOM     14  H   UNL     1      19.945  43.894  24.426  1.00  0.00     0.210 HD
ENDBRANCH  12  13
ENDBRANCH   1  12
TORSDOF 5
ENDMDL
MODEL 3
REMARK VINA RESULT:    -4.654      0.797      1.987
REMARK INTER + INTRA:          -5.682
REMARK INTER:                  -5.597
REMARK INTRA:                  -0.085
REMARK UNBOUND:                -0.076
REMARK SMILES OCCc1ccc(O)c(O)c1
REMARK SMILES IDX 3 1 4 2 5 3 6 4 7 5 11 6 9 7 8 8 10 10 2 12 1 13
REMARK H PARENT 8 9 10 11 1 14
REMARK Flexibility Score: inf
ROOT
ATOM      1  C   UNL     1      21.275  40.249  27.501  1.00  0.00     0.064 C 
ENDROOT
BRANCH   1   2
ATOM      2  C   UNL     1      21.638  41.580  26.897  1.00  0.00    -0.042 A 
ATOM      3  C   UNL     1      22.356  42.524  27.646  1.00  0.00     0.008 A 
ATOM      4  C   UNL     1      22.719  43.748  27.075  1.00  0.00     0.050 A 
ATOM      5  C   UNL     1      22.378  44.035  25.747  1.00  0.00     0.157 A 
ATOM      6  C   UNL     1      21.308  41.865  25.562  1.00  0.00     0.054 A 
ATOM      7  C   UNL     1      21.673  43.092  24.988  1.00  0.00     0.157 A 
BRANCH   5   8
ATOM      8  O   UNL     1      22.737  45.254  25.175  1.00  0.00    -0.504 OA
ATOM      9  H   UNL     1      23.692  45.593  25.205  1.00  0.00     0.293 HD
ENDBRANCH   5   8
BRANCH   7  10
ATOM     10  O   UNL     1      21.340  43.379  23.666  1.00  0.00    -0.504 OA
ATOM     11  H   UNL     1      21.174  42.643  22.989  1.00  0.00     0.293 HD
ENDBRANCH   7  10
ENDBRANCH   1   2
BRANCH   1  12
ATOM     12  C   UNL     1      20.547  40.438  28.830  1.00  0.00     0.161 C 
BRANCH  12  13
ATOM     13  O   UNL     1      21.336  39.933  29.870  1.00  0.00    -0.396 OA
ATOM     14  H   UNL     1      20.715  39.748  30.621  1.00  0.00     0.210 HD
ENDBRANCH  12  13
ENDBRANCH   1  12
TORSDOF 5
ENDMDL
MODEL 4
REMARK VINA RESULT:    -4.252      1.570      4.652
REMARK INTER + INTRA:          -5.198
REMARK INTER:                  -5.099
REMARK INTRA:                  -0.099
REMARK UNBOUND:                -0.076
REMARK SMILES OCCc1ccc(O)c(O)c1
REMARK SMILES IDX 3 1 4 2 5 3 6 4 7 5 11 6 9 7 8 8 10 10 2 12 1 13
REMARK H PARENT 8 9 10 11 1 14
REMARK Flexibility Score: inf
ROOT
ATOM      1  C   UNL     1      22.115  42.069  25.141  1.00  0.00     0.064 C 
ENDROOT
BRANCH   1   2
ATOM      2  C   UNL     1      21.897  42.084  26.631  1.00  0.00    -0.042 A 
ATOM      3  C   UNL     1      22.253  43.210  27.388  1.00  0.00     0.008 A 
ATOM      4  C   UNL     1      22.023  43.235  28.766  1.00  0.00     0.050 A 
ATOM      5  C   UNL     1      21.423  42.140  29.401  1.00  0.00     0.157 A 
ATOM      6  C   UNL     1      21.284  40.992  27.268  1.00  0.00     0.054 A 
ATOM      7  C   UNL     1      21.051  41.016  28.651  1.00  0.00     0.157 A 
BRANCH   5   8
ATOM      8  O   UNL     1      21.192  42.160  30.775  1.00  0.00    -0.504 OA
ATOM      9  H   UNL     1      21.426  42.969  31.340  1.00  0.00     0.293 HD
ENDBRANCH   5   8
BRANCH   7  10
ATOM     10  O   UNL     1      20.450  39.931  29.284  1.00  0.00    -0.504 OA
ATOM     11  H   UNL     1      20.857  39.003  29.246  1.00  0.00     0.293 HD
ENDBRANCH   7  10
ENDBRANCH   1   2
BRANCH   1  12
ATOM     12  C   UNL     1      22.037  43.483  24.570  1.00  0.00     0.161 C 
BRANCH  12  13
ATOM     13  O   UNL     1      20.735  43.735  24.122  1.00  0.00    -0.396 OA
ATOM     14  H   UNL     1      20.206  42.926  24.346  1.00  0.00     0.210 HD
ENDBRANCH  12  13
ENDBRANCH   1  12
TORSDOF 5
ENDMDL
MODEL 5
REMARK VINA RESULT:    -4.109     14.765     15.837
REMARK INTER + INTRA:          -5.025
REMARK INTER:                  -4.965
REMARK INTRA:                  -0.061
REMARK UNBOUND:                -0.076
REMARK SMILES OCCc1ccc(O)c(O)c1
REMARK SMILES IDX 3 1 4 2 5 3 6 4 7 5 11 6 9 7 8 8 10 10 2 12 1 13
REMARK H PARENT 8 9 10 11 1 14
REMARK Flexibility Score: inf
ROOT
ATOM      1  C   UNL     1      15.271  28.266  23.649  1.00  0.00     0.064 C 
ENDROOT
BRANCH   1   2
ATOM      2  C   UNL     1      15.386  28.558  22.176  1.00  0.00    -0.042 A 
ATOM      3  C   UNL     1      14.578  27.875  21.254  1.00  0.00     0.008 A 
ATOM      4  C   UNL     1      14.663  28.168  19.890  1.00  0.00     0.050 A 
ATOM      5  C   UNL     1      15.548  29.153  19.434  1.00  0.00     0.157 A 
ATOM      6  C   UNL     1      16.263  29.554  21.718  1.00  0.00     0.054 A 
ATOM      7  C   UNL     1      16.348  29.850  20.349  1.00  0.00     0.157 A 
BRANCH   5   8
ATOM      8  O   UNL     1      15.636  29.448  18.075  1.00  0.00    -0.504 OA
ATOM      9  H   UNL     1      15.622  28.718  17.372  1.00  0.00     0.293 HD
ENDBRANCH   5   8
BRANCH   7  10
ATOM     10  O   UNL     1      17.223  30.833  19.893  1.00  0.00    -0.504 OA
ATOM     11  H   UNL     1      17.023  31.375  19.060  1.00  0.00     0.293 HD
ENDBRANCH   7  10
ENDBRANCH   1   2
BRANCH   1  12
ATOM     12  C   UNL     1      15.268  29.561  24.458  1.00  0.00     0.161 C 
BRANCH  12  13
ATOM     13  O   UNL     1      14.885  29.287  25.776  1.00  0.00    -0.396 OA
ATOM     14  H   UNL     1      14.656  28.322  25.801  1.00  0.00     0.210 HD
ENDBRANCH  12  13
ENDBRANCH   1  12
TORSDOF 5
ENDMDL
MODEL 6
REMARK VINA RESULT:    -4.091      2.321      4.756
REMARK INTER + INTRA:          -5.004
REMARK INTER:                  -4.912
REMARK INTRA:                  -0.091
REMARK UNBOUND:                -0.076
REMARK SMILES OCCc1ccc(O)c(O)c1
REMARK SMILES IDX 3 1 4 2 5 3 6 4 7 5 11 6 9 7 8 8 10 10 2 12 1 13
REMARK H PARENT 8 9 10 11 1 14
REMARK Flexibility Score: inf
ROOT
ATOM      1  C   UNL     1      22.768  43.748  26.205  1.00  0.00     0.064 C 
ENDROOT
BRANCH   1   2
ATOM      2  C   UNL     1      22.395  43.746  27.664  1.00  0.00    -0.042 A 
ATOM      3  C   UNL     1      22.413  44.940  28.402  1.00  0.00     0.008 A 
ATOM      4  C   UNL     1      22.037  44.942  29.748  1.00  0.00     0.050 A 
ATOM      5  C   UNL     1      21.628  43.755  30.368  1.00  0.00     0.157 A 
ATOM      6  C   UNL     1      21.973  42.559  28.285  1.00  0.00     0.054 A 
ATOM      7  C   UNL     1      21.594  42.561  29.636  1.00  0.00     0.157 A 
BRANCH   5   8
ATOM      8  O   UNL     1      21.253  43.753  31.710  1.00  0.00    -0.504 OA
ATOM      9  H   UNL     1      21.906  44.006  32.444  1.00  0.00     0.293 HD
ENDBRANCH   5   8
BRANCH   7  10
ATOM     10  O   UNL     1      21.181  41.383  30.255  1.00  0.00    -0.504 OA
ATOM     11  H   UNL     1      20.199  41.170  30.388  1.00  0.00     0.293 HD
ENDBRANCH   7  10
ENDBRANCH   1   2
BRANCH   1  12
ATOM     12  C   UNL     1      22.012  42.657  25.452  1.00  0.00     0.161 C 
BRANCH  12  13
ATOM     13  O   UNL     1      20.963  43.232  24.726  1.00  0.00    -0.396 OA
ATOM     14  H   UNL     1      21.164  43.060  23.770  1.00  0.00     0.210 HD
ENDBRANCH  12  13
ENDBRANCH   1  12
TORSDOF 5
ENDMDL
MODEL 7
REMARK VINA RESULT:    -4.037      2.535      4.110
REMARK INTER + INTRA:          -4.939
REMARK INTER:                  -4.875
REMARK INTRA:                  -0.064
REMARK UNBOUND:                -0.076
REMARK SMILES OCCc1ccc(O)c(O)c1
REMARK SMILES IDX 3 1 4 2 5 3 6 4 7 5 11 6 9 7 8 8 10 10 2 12 1 13
REMARK H PARENT 8 9 10 11 1 14
REMARK Flexibility Score: inf
ROOT
ATOM      1  C   UNL     1      22.450  42.435  26.239  1.00  0.00     0.064 C 
ENDROOT
BRANCH   1   2
ATOM      2  C   UNL     1      22.352  43.364  27.421  1.00  0.00    -0.042 A 
ATOM      3  C   UNL     1      21.921  42.882  28.666  1.00  0.00     0.008 A 
ATOM      4  C   UNL     1      21.860  43.737  29.770  1.00  0.00     0.050 A 
ATOM      5  C   UNL     1      22.240  45.079  29.645  1.00  0.00     0.157 A 
ATOM      6  C   UNL     1      22.744  44.707  27.301  1.00  0.00     0.054 A 
ATOM      7  C   UNL     1      22.685  45.565  28.408  1.00  0.00     0.157 A 
BRANCH   5   8
ATOM      8  O   UNL     1      22.180  45.935  30.743  1.00  0.00    -0.504 OA
ATOM      9  H   UNL     1      22.395  46.922  30.658  1.00  0.00     0.293 HD
ENDBRANCH   5   8
BRANCH   7  10
ATOM     10  O   UNL     1      23.067  46.900  28.288  1.00  0.00    -0.504 OA
ATOM     11  H   UNL     1      22.393  47.628  28.080  1.00  0.00     0.293 HD
ENDBRANCH   7  10
ENDBRANCH   1   2
BRANCH   1  12
ATOM     12  C   UNL     1      22.010  43.142  24.959  1.00  0.00     0.161 C 
BRANCH  12  13
ATOM     13  O   UNL     1      21.075  42.347  24.286  1.00  0.00    -0.396 OA
ATOM     14  H   UNL     1      20.646  41.781  24.978  1.00  0.00     0.210 HD
ENDBRANCH  12  13
ENDBRANCH   1  12
TORSDOF 5
ENDMDL
MODEL 8
REMARK VINA RESULT:    -3.935     14.898     16.193
REMARK INTER + INTRA:          -4.816
REMARK INTER:                  -4.756
REMARK INTRA:                  -0.060
REMARK UNBOUND:                -0.076
REMARK SMILES OCCc1ccc(O)c(O)c1
REMARK SMILES IDX 3 1 4 2 5 3 6 4 7 5 11 6 9 7 8 8 10 10 2 12 1 13
REMARK H PARENT 8 9 10 11 1 14
REMARK Flexibility Score: inf
ROOT
ATOM      1  C   UNL     1      15.263  28.437  23.530  1.00  0.00     0.064 C 
ENDROOT
BRANCH   1   2
ATOM      2  C   UNL     1      15.335  28.809  22.073  1.00  0.00    -0.042 A 
ATOM      3  C   UNL     1      16.275  29.751  21.629  1.00  0.00     0.008 A 
ATOM      4  C   UNL     1      16.364  30.074  20.272  1.00  0.00     0.050 A 
ATOM      5  C   UNL     1      15.521  29.450  19.342  1.00  0.00     0.157 A 
ATOM      6  C   UNL     1      14.501  28.176  21.137  1.00  0.00     0.054 A 
ATOM      7  C   UNL     1      14.589  28.497  19.775  1.00  0.00     0.157 A 
BRANCH   5   8
ATOM      8  O   UNL     1      15.605  29.769  17.988  1.00  0.00    -0.504 OA
ATOM      9  H   UNL     1      14.918  29.437  17.321  1.00  0.00     0.293 HD
ENDBRANCH   5   8
BRANCH   7  10
ATOM     10  O   UNL     1      13.757  27.875  18.847  1.00  0.00    -0.504 OA
ATOM     11  H   UNL     1      14.037  27.026  18.369  1.00  0.00     0.293 HD
ENDBRANCH   7  10
ENDBRANCH   1   2
BRANCH   1  12
ATOM     12  C   UNL     1      15.259  29.686  24.407  1.00  0.00     0.161 C 
BRANCH  12  13
ATOM     13  O   UNL     1      15.211  29.310  25.754  1.00  0.00    -0.396 OA
ATOM     14  H   UNL     1      15.944  29.806  26.204  1.00  0.00     0.210 HD
ENDBRANCH  12  13
ENDBRANCH   1  12
TORSDOF 5
ENDMDL
