MODEL 1
REMARK VINA RESULT:    -5.084      0.000      0.000
REMARK INTER + INTRA:          -9.502
REMARK INTER:                  -8.650
REMARK INTRA:                  -0.852
REMARK UNBOUND:                -0.852
REMARK SMILES CCCCCCCCCCCCCC(=O)[O-]
REMARK SMILES IDX 8 1 9 2 10 3 11 4 12 5 13 6 14 7 15 8 16 9 7 10 6 11 5 12
REMARK SMILES IDX 4 13 3 14 2 15 1 16
REMARK H PARENT
REMARK Flexibility Score: inf
ROOT
ATOM      1  C   UNL     1      -7.464  -5.965  -5.602  1.00  0.00     0.000 C 
ENDROOT
BRANCH   1   2
ATOM      2  C   UNL     1      -8.626  -5.039  -5.208  1.00  0.00     0.000 C 
BRANCH   2   3
ATOM      3  C   UNL     1      -9.992  -5.744  -5.276  1.00  0.00     0.000 C 
BRANCH   3   4
ATOM      4  C   UNL     1     -11.061  -5.024  -4.426  1.00  0.00     0.000 C 
BRANCH   4   5
ATOM      5  C   UNL     1     -10.587  -3.677  -3.855  1.00  0.00     0.006 C 
BRANCH   5   6
ATOM      6  C   UNL     1     -10.579  -3.646  -2.323  1.00  0.00     0.053 C 
BRANCH   6   7
ATOM      7  C   UNL     1      -9.209  -3.332  -1.813  1.00  0.00     0.041 C 
ATOM      8  O   UNL     1      -8.813  -2.138  -1.751  1.00  0.00    -0.550 OA
ATOM      9  O   UNL     1      -8.349  -4.361  -1.451  1.00  0.00    -0.550 OA
ENDBRANCH   6   7
ENDBRANCH   5   6
ENDBRANCH   4   5
ENDBRANCH   3   4
ENDBRANCH   2   3
ENDBRANCH   1   2
BRANCH   1  10
ATOM     10  C   UNL     1      -7.190  -5.959  -7.115  1.00  0.00     0.000 C 
BRANCH  10  11
ATOM     11  C   UNL     1      -5.735  -6.320  -7.459  1.00  0.00    -0.000 C 
BRANCH  11  12
ATOM     12  C   UNL     1      -4.866  -6.730  -6.252  1.00  0.00    -0.000 C 
BRANCH  12  13
ATOM     13  C   UNL     1      -3.717  -5.758  -5.915  1.00  0.00    -0.000 C 
BRANCH  13  14
ATOM     14  C   UNL     1      -4.110  -4.268  -5.889  1.00  0.00    -0.000 C 
BRANCH  14  15
ATOM     15  C   UNL     1      -2.944  -3.297  -5.632  1.00  0.00    -0.003 C 
ATOM     16  C   UNL     1      -3.244  -1.870  -6.089  1.00  0.00     0.004 C 
ENDBRANCH  14  15
ENDBRANCH  13  14
ENDBRANCH  12  13
ENDBRANCH  11  12
ENDBRANCH  10  11
ENDBRANCH   1  10
TORSDOF 12
ENDMDL
MODEL 2
REMARK VINA RESULT:    -4.844      0.730      1.132
REMARK INTER + INTRA:          -9.094
REMARK INTER:                  -8.335
REMARK INTRA:                  -0.759
REMARK UNBOUND:                -0.852
REMARK SMILES CCCCCCCCCCCCCC(=O)[O-]
REMARK SMILES IDX 8 1 9 2 10 3 11 4 12 5 13 6 14 7 15 8 16 9 7 10 6 11 5 12
REMARK SMILES IDX 4 13 3 14 2 15 1 16
REMARK H PARENT
REMARK Flexibility Score: inf
ROOT
ATOM      1  C   UNL     1      -8.352  -5.340  -6.345  1.00  0.00     0.000 C 
ENDROOT
BRANCH   1   2
ATOM      2  C   UNL     1      -9.880  -5.384  -6.190  1.00  0.00     0.000 C 
BRANCH   2   3
ATOM      3  C   UNL     1     -10.323  -6.096  -4.901  1.00  0.00     0.000 C 
BRANCH   3   4
ATOM      4  C   UNL     1     -11.124  -5.164  -3.966  1.00  0.00     0.000 C 
BRANCH   4   5
ATOM      5  C   UNL     1     -10.489  -3.775  -3.793  1.00  0.00     0.006 C 
BRANCH   5   6
ATOM      6  C   UNL     1     -10.413  -3.331  -2.328  1.00  0.00     0.053 C 
BRANCH   6   7
ATOM      7  C   UNL     1      -8.988  -3.258  -1.877  1.00  0.00     0.041 C 
ATOM      8  O   UNL     1      -8.385  -4.300  -1.510  1.00  0.00    -0.550 OA
ATOM      9  O   UNL     1      -8.342  -2.030  -1.813  1.00  0.00    -0.550 OA
ENDBRANCH   6   7
ENDBRANCH   5   6
ENDBRANCH   4   5
ENDBRANCH   3   4
ENDBRANCH   2   3
ENDBRANCH   1   2
BRANCH   1  10
ATOM     10  C   UNL     1      -7.896  -5.618  -7.788  1.00  0.00     0.000 C 
BRANCH  10  11
ATOM     11  C   UNL     1      -6.366  -5.709  -7.922  1.00  0.00    -0.000 C 
BRANCH  11  12
ATOM     12  C   UNL     1      -5.669  -6.558  -6.839  1.00  0.00    -0.000 C 
BRANCH  12  13
ATOM     13  C   UNL     1      -4.717  -5.778  -5.910  1.00  0.00    -0.000 C 
BRANCH  13  14
ATOM     14  C   UNL     1      -4.529  -4.291  -6.269  1.00  0.00    -0.000 C 
BRANCH  14  15
ATOM     15  C   UNL     1      -3.248  -3.648  -5.710  1.00  0.00    -0.003 C 
ATOM     16  C   UNL     1      -3.292  -2.121  -5.722  1.00  0.00     0.004 C 
ENDBRANCH  14  15
ENDBRANCH  13  14
ENDBRANCH  12  13
ENDBRANCH  11  12
ENDBRANCH  10  11
ENDBRANCH   1  10
TORSDOF 12
ENDMDL
MODEL 3
REMARK VINA RESULT:    -4.634      2.477      6.027
REMARK INTER + INTRA:          -8.737
REMARK INTER:                  -7.885
REMARK INTRA:                  -0.852
REMARK UNBOUND:                -0.852
REMARK SMILES CCCCCCCCCCCCCC(=O)[O-]
REMARK SMILES IDX 8 1 9 2 10 3 11 4 12 5 13 6 14 7 15 8 16 9 7 10 6 11 5 12
REMARK SMILES IDX 4 13 3 14 2 15 1 16
REMARK H PARENT
REMARK Flexibility Score: inf
ROOT
ATOM      1  C   UNL     1      -9.759  -5.443  -6.539  1.00  0.00     0.000 C 
ENDROOT
BRANCH   1   2
ATOM      2  C   UNL     1      -8.464  -4.655  -6.788  1.00  0.00     0.000 C 
BRANCH   2   3
ATOM      3  C   UNL     1      -7.820  -4.990  -8.145  1.00  0.00     0.000 C 
BRANCH   3   4
ATOM      4  C   UNL     1      -6.333  -5.381  -8.003  1.00  0.00     0.000 C 
BRANCH   4   5
ATOM      5  C   UNL     1      -5.687  -4.878  -6.701  1.00  0.00     0.006 C 
BRANCH   5   6
ATOM      6  C   UNL     1      -4.932  -5.975  -5.944  1.00  0.00     0.053 C 
BRANCH   6   7
ATOM      7  C   UNL     1      -5.875  -7.050  -5.504  1.00  0.00     0.041 C 
ATOM      8  O   UNL     1      -5.790  -8.208  -5.991  1.00  0.00    -0.550 OA
ATOM      9  O   UNL     1      -6.881  -6.761  -4.591  1.00  0.00    -0.550 OA
ENDBRANCH   6   7
ENDBRANCH   5   6
ENDBRANCH   4   5
ENDBRANCH   3   4
ENDBRANCH   2   3
ENDBRANCH   1   2
BRANCH   1  10
ATOM     10  C   UNL     1     -10.884  -4.565  -5.966  1.00  0.00     0.000 C 
BRANCH  10  11
ATOM     11  C   UNL     1     -10.428  -3.722  -4.762  1.00  0.00    -0.000 C 
BRANCH  11  12
ATOM     12  C   UNL     1     -11.058  -4.124  -3.413  1.00  0.00    -0.000 C 
BRANCH  12  13
ATOM     13  C   UNL     1     -10.898  -3.088  -2.283  1.00  0.00    -0.000 C 
BRANCH  13  14
ATOM     14  C   UNL     1      -9.768  -3.388  -1.277  1.00  0.00    -0.000 C 
BRANCH  14  15
ATOM     15  C   UNL     1      -8.351  -3.071  -1.784  1.00  0.00    -0.003 C 
ATOM     16  C   UNL     1      -7.945  -1.616  -1.548  1.00  0.00     0.004 C 
ENDBRANCH  14  15
ENDBRANCH  13  14
ENDBRANCH  12  13
ENDBRANCH  11  12
ENDBRANCH  10  11
ENDBRANCH   1  10
TORSDOF 12
ENDMDL
MODEL 4
REMARK VINA RESULT:    -4.625      3.142      6.198
REMARK INTER + INTRA:          -8.721
REMARK INTER:                  -7.715
REMARK INTRA:                  -1.005
REMARK UNBOUND:                -0.852
REMARK SMILES CCCCCCCCCCCCCC(=O)[O-]
REMARK SMILES IDX 8 1 9 2 10 3 11 4 12 5 13 6 14 7 15 8 16 9 7 10 6 11 5 12
REMARK SMILES IDX 4 13 3 14 2 15 1 16
REMARK H PARENT
REMARK Flexibility Score: inf
ROOT
ATOM      1  C   UNL     1      -9.709  -4.114  -6.080  1.00  0.00     0.000 C 
ENDROOT
BRANCH   1   2
ATOM      2  C   UNL     1     -10.212  -4.658  -7.426  1.00  0.00     0.000 C 
BRANCH   2   3
ATOM      3  C   UNL     1      -9.142  -5.474  -8.171  1.00  0.00     0.000 C 
BRANCH   3   4
ATOM      4  C   UNL     1      -7.759  -4.788  -8.137  1.00  0.00     0.000 C 
BRANCH   4   5
ATOM      5  C   UNL     1      -6.600  -5.759  -7.852  1.00  0.00     0.006 C 
BRANCH   5   6
ATOM      6  C   UNL     1      -6.027  -5.607  -6.439  1.00  0.00     0.053 C 
BRANCH   6   7
ATOM      7  C   UNL     1      -5.073  -6.720  -6.140  1.00  0.00     0.041 C 
ATOM      8  O   UNL     1      -5.498  -7.894  -5.980  1.00  0.00    -0.550 OA
ATOM      9  O   UNL     1      -3.719  -6.451  -5.988  1.00  0.00    -0.550 OA
ENDBRANCH   6   7
ENDBRANCH   5   6
ENDBRANCH   4   5
ENDBRANCH   3   4
ENDBRANCH   2   3
ENDBRANCH   1   2
BRANCH   1  10
ATOM     10  C   UNL     1      -9.823  -5.146  -4.945  1.00  0.00     0.000 C 
BRANCH  10  11
ATOM     11  C   UNL     1     -11.010  -4.870  -4.007  1.00  0.00    -0.000 C 
BRANCH  11  12
ATOM     12  C   UNL     1     -11.010  -3.473  -3.353  1.00  0.00    -0.000 C 
BRANCH  12  13
ATOM     13  C   UNL     1     -11.111  -3.472  -1.815  1.00  0.00    -0.000 C 
BRANCH  13  14
ATOM     14  C   UNL     1      -9.763  -3.367  -1.073  1.00  0.00    -0.000 C 
BRANCH  14  15
ATOM     15  C   UNL     1      -8.563  -2.999  -1.963  1.00  0.00    -0.003 C 
ATOM     16  C   UNL     1      -7.837  -1.739  -1.493  1.00  0.00     0.004 C 
ENDBRANCH  14  15
ENDBRANCH  13  14
ENDBRANCH  12  13
ENDBRANCH  11  12
ENDBRANCH  10  11
ENDBRANCH   1  10
TORSDOF 12
ENDMDL
MODEL 5
REMARK VINA RESULT:    -4.534      1.181      1.585
REMARK INTER + INTRA:          -8.566
REMARK INTER:                  -7.816
REMARK INTRA:                  -0.751
REMARK UNBOUND:                -0.852
REMARK SMILES CCCCCCCCCCCCCC(=O)[O-]
REMARK SMILES IDX 8 1 9 2 10 3 11 4 12 5 13 6 14 7 15 8 16 9 7 10 6 11 5 12
REMARK SMILES IDX 4 13 3 14 2 15 1 16
REMARK H PARENT
REMARK Flexibility Score: inf
ROOT
ATOM      1  C   UNL     1      -7.902  -5.151  -7.729  1.00  0.00     0.000 C 
ENDROOT
BRANCH   1   2
ATOM      2  C   UNL     1      -9.402  -5.119  -8.060  1.00  0.00     0.000 C 
BRANCH   2   3
ATOM      3  C   UNL     1     -10.285  -5.403  -6.832  1.00  0.00     0.000 C 
BRANCH   3   4
ATOM      4  C   UNL     1     -10.214  -4.266  -5.789  1.00  0.00     0.000 C 
BRANCH   4   5
ATOM      5  C   UNL     1      -9.508  -4.673  -4.485  1.00  0.00     0.006 C 
BRANCH   5   6
ATOM      6  C   UNL     1     -10.084  -3.975  -3.249  1.00  0.00     0.053 C 
BRANCH   6   7
ATOM      7  C   UNL     1      -8.983  -3.530  -2.339  1.00  0.00     0.041 C 
ATOM      8  O   UNL     1      -8.653  -4.236  -1.351  1.00  0.00    -0.550 OA
ATOM      9  O   UNL     1      -8.355  -2.310  -2.554  1.00  0.00    -0.550 OA
ENDBRANCH   6   7
ENDBRANCH   5   6
ENDBRANCH   4   5
ENDBRANCH   3   4
ENDBRANCH   2   3
ENDBRANCH   1   2
BRANCH   1  10
ATOM     10  C   UNL     1      -7.062  -5.781  -8.853  1.00  0.00     0.000 C 
BRANCH  10  11
ATOM     11  C   UNL     1      -5.719  -6.338  -8.352  1.00  0.00    -0.000 C 
BRANCH  11  12
ATOM     12  C   UNL     1      -5.656  -6.613  -6.835  1.00  0.00    -0.000 C 
BRANCH  12  13
ATOM     13  C   UNL     1      -4.522  -5.885  -6.086  1.00  0.00    -0.000 C 
BRANCH  13  14
ATOM     14  C   UNL     1      -4.562  -4.347  -6.179  1.00  0.00    -0.000 C 
BRANCH  14  15
ATOM     15  C   UNL     1      -3.304  -3.635  -5.651  1.00  0.00    -0.003 C 
ATOM     16  C   UNL     1      -3.236  -2.163  -6.058  1.00  0.00     0.004 C 
ENDBRANCH  14  15
ENDBRANCH  13  14
ENDBRANCH  12  13
ENDBRANCH  11  12
ENDBRANCH  10  11
ENDBRANCH   1  10
TORSDOF 12
ENDMDL
MODEL 6
REMARK VINA RESULT:    -4.388      2.586      6.339
REMARK INTER + INTRA:          -8.319
REMARK INTER:                  -7.494
REMARK INTRA:                  -0.824
REMARK UNBOUND:                -0.852
REMARK SMILES CCCCCCCCCCCCCC(=O)[O-]
REMARK SMILES IDX 8 1 9 2 10 3 11 4 12 5 13 6 14 7 15 8 16 9 7 10 6 11 5 12
REMARK SMILES IDX 4 13 3 14 2 15 1 16
REMARK H PARENT
REMARK Flexibility Score: inf
ROOT
ATOM      1  C   UNL     1      -8.189  -5.099  -6.051  1.00  0.00     0.000 C 
ENDROOT
BRANCH   1   2
ATOM      2  C   UNL     1      -7.344  -6.213  -5.415  1.00  0.00     0.000 C 
BRANCH   2   3
ATOM      3  C   UNL     1      -6.268  -6.758  -6.370  1.00  0.00     0.000 C 
BRANCH   3   4
ATOM      4  C   UNL     1      -4.918  -6.990  -5.657  1.00  0.00     0.000 C 
BRANCH   4   5
ATOM      5  C   UNL     1      -3.835  -5.969  -6.044  1.00  0.00     0.006 C 
BRANCH   5   6
ATOM      6  C   UNL     1      -4.348  -4.525  -6.047  1.00  0.00     0.053 C 
BRANCH   6   7
ATOM      7  C   UNL     1      -3.265  -3.585  -5.621  1.00  0.00     0.041 C 
ATOM      8  O   UNL     1      -2.077  -3.989  -5.520  1.00  0.00    -0.550 OA
ATOM      9  O   UNL     1      -3.577  -2.273  -5.288  1.00  0.00    -0.550 OA
ENDBRANCH   6   7
ENDBRANCH   5   6
ENDBRANCH   4   5
ENDBRANCH   3   4
ENDBRANCH   2   3
ENDBRANCH   1   2
BRANCH   1  10
ATOM     10  C   UNL     1      -9.571  -4.955  -5.390  1.00  0.00     0.000 C 
BRANCH  10  11
ATOM     11  C   UNL     1     -10.043  -3.493  -5.308  1.00  0.00    -0.000 C 
BRANCH  11  12
ATOM     12  C   UNL     1     -11.125  -3.220  -4.243  1.00  0.00    -0.000 C 
BRANCH  12  13
ATOM     13  C   UNL     1     -11.049  -4.118  -2.992  1.00  0.00    -0.000 C 
BRANCH  13  14
ATOM     14  C   UNL     1     -10.473  -3.437  -1.734  1.00  0.00    -0.000 C 
BRANCH  14  15
ATOM     15  C   UNL     1      -8.953  -3.591  -1.555  1.00  0.00    -0.003 C 
ATOM     16  C   UNL     1      -8.185  -2.302  -1.844  1.00  0.00     0.004 C 
ENDBRANCH  14  15
ENDBRANCH  13  14
ENDBRANCH  12  13
ENDBRANCH  11  12
ENDBRANCH  10  11
ENDBRANCH   1  10
TORSDOF 12
ENDMDL
MODEL 7
REMARK VINA RESULT:    -4.353      1.694      2.663
REMARK INTER + INTRA:          -8.258
REMARK INTER:                  -7.245
REMARK INTRA:                  -1.013
REMARK UNBOUND:                -0.852
REMARK SMILES CCCCCCCCCCCCCC(=O)[O-]
REMARK SMILES IDX 8 1 9 2 10 3 11 4 12 5 13 6 14 7 15 8 16 9 7 10 6 11 5 12
REMARK SMILES IDX 4 13 3 14 2 15 1 16
REMARK H PARENT
REMARK Flexibility Score: inf
ROOT
ATOM      1  C   UNL     1      -9.414  -5.666  -7.741  1.00  0.00     0.000 C 
ENDROOT
BRANCH   1   2
ATOM      2  C   UNL     1     -10.500  -5.407  -6.685  1.00  0.00     0.000 C 
BRANCH   2   3
ATOM      3  C   UNL     1     -10.124  -5.962  -5.301  1.00  0.00     0.000 C 
BRANCH   3   4
ATOM      4  C   UNL     1     -11.123  -5.526  -4.207  1.00  0.00     0.000 C 
BRANCH   4   5
ATOM      5  C   UNL     1     -10.808  -4.147  -3.603  1.00  0.00     0.006 C 
BRANCH   5   6
ATOM      6  C   UNL     1      -9.306  -3.844  -3.556  1.00  0.00     0.053 C 
BRANCH   6   7
ATOM      7  C   UNL     1      -8.897  -3.444  -2.173  1.00  0.00     0.041 C 
ATOM      8  O   UNL     1      -9.032  -2.252  -1.791  1.00  0.00    -0.550 OA
ATOM      9  O   UNL     1      -8.319  -4.379  -1.323  1.00  0.00    -0.550 OA
ENDBRANCH   6   7
ENDBRANCH   5   6
ENDBRANCH   4   5
ENDBRANCH   3   4
ENDBRANCH   2   3
ENDBRANCH   1   2
BRANCH   1  10
ATOM     10  C   UNL     1      -9.007  -4.389  -8.496  1.00  0.00     0.000 C 
BRANCH  10  11
ATOM     11  C   UNL     1      -7.629  -4.509  -9.170  1.00  0.00    -0.000 C 
BRANCH  11  12
ATOM     12  C   UNL     1      -6.641  -5.458  -8.461  1.00  0.00    -0.000 C 
BRANCH  12  13
ATOM     13  C   UNL     1      -5.951  -4.869  -7.214  1.00  0.00    -0.000 C 
BRANCH  13  14
ATOM     14  C   UNL     1      -4.870  -5.767  -6.581  1.00  0.00    -0.000 C 
BRANCH  14  15
ATOM     15  C   UNL     1      -5.402  -7.055  -5.927  1.00  0.00    -0.003 C 
ATOM     16  C   UNL     1      -6.598  -6.807  -5.009  1.00  0.00     0.004 C 
ENDBRANCH  14  15
ENDBRANCH  13  14
ENDBRANCH  12  13
ENDBRANCH  11  12
ENDBRANCH  10  11
ENDBRANCH   1  10
TORSDOF 12
ENDMDL
MODEL 8
REMARK VINA RESULT:    -4.324      2.542      5.833
REMARK INTER + INTRA:          -8.210
REMARK INTER:                  -7.020
REMARK INTRA:                  -1.190
REMARK UNBOUND:                -0.852
REMARK SMILES CCCCCCCCCCCCCC(=O)[O-]
REMARK SMILES IDX 8 1 9 2 10 3 11 4 12 5 13 6 14 7 15 8 16 9 7 10 6 11 5 12
REMARK SMILES IDX 4 13 3 14 2 15 1 16
REMARK H PARENT
REMARK Flexibility Score: inf
ROOT
ATOM      1  C   UNL     1      -9.909  -4.714  -8.425  1.00  0.00     0.000 C 
ENDROOT
BRANCH   1   2
ATOM      2  C   UNL     1      -8.602  -4.804  -9.228  1.00  0.00     0.000 C 
BRANCH   2   3
ATOM      3  C   UNL     1      -7.884  -6.151  -9.040  1.00  0.00     0.000 C 
BRANCH   3   4
ATOM      4  C   UNL     1      -6.436  -5.974  -8.532  1.00  0.00     0.000 C 
BRANCH   4   5
ATOM      5  C   UNL     1      -6.307  -4.949  -7.393  1.00  0.00     0.006 C 
BRANCH   5   6
ATOM      6  C   UNL     1      -5.485  -5.470  -6.210  1.00  0.00     0.053 C 
BRANCH   6   7
ATOM      7  C   UNL     1      -6.104  -6.712  -5.649  1.00  0.00     0.041 C 
ATOM      8  O   UNL     1      -7.086  -6.632  -4.865  1.00  0.00    -0.550 OA
ATOM      9  O   UNL     1      -5.565  -7.955  -5.954  1.00  0.00    -0.550 OA
ENDBRANCH   6   7
ENDBRANCH   5   6
ENDBRANCH   4   5
ENDBRANCH   3   4
ENDBRANCH   2   3
ENDBRANCH   1   2
BRANCH   1  10
ATOM     10  C   UNL     1     -10.132  -5.937  -7.520  1.00  0.00     0.000 C 
BRANCH  10  11
ATOM     11  C   UNL     1     -10.265  -5.562  -6.034  1.00  0.00    -0.000 C 
BRANCH  11  12
ATOM     12  C   UNL     1     -10.074  -4.063  -5.724  1.00  0.00    -0.000 C 
BRANCH  12  13
ATOM     13  C   UNL     1     -10.181  -3.686  -4.233  1.00  0.00    -0.000 C 
BRANCH  13  14
ATOM     14  C   UNL     1      -8.855  -3.746  -3.448  1.00  0.00    -0.000 C 
BRANCH  14  15
ATOM     15  C   UNL     1      -8.975  -3.411  -1.951  1.00  0.00    -0.003 C 
ATOM     16  C   UNL     1     -10.418  -3.176  -1.506  1.00  0.00     0.004 C 
ENDBRANCH  14  15
ENDBRANCH  13  14
ENDBRANCH  12  13
ENDBRANCH  11  12
ENDBRANCH  10  11
ENDBRANCH   1  10
TORSDOF 12
ENDMDL
MODEL 9
REMARK VINA RESULT:    -4.290      2.117      4.014
REMARK INTER + INTRA:          -8.151
REMARK INTER:                  -6.421
REMARK INTRA:                  -1.730
REMARK UNBOUND:                -0.852
REMARK SMILES CCCCCCCCCCCCCC(=O)[O-]
REMARK SMILES IDX 8 1 9 2 10 3 11 4 12 5 13 6 14 7 15 8 16 9 7 10 6 11 5 12
REMARK SMILES IDX 4 13 3 14 2 15 1 16
REMARK H PARENT
REMARK Flexibility Score: inf
ROOT
ATOM      1  C   UNL     1      -7.443  -6.186  -5.604  1.00  0.00     0.000 C 
ENDROOT
BRANCH   1   2
ATOM      2  C   UNL     1      -8.833  -5.667  -5.206  1.00  0.00     0.000 C 
BRANCH   2   3
ATOM      3  C   UNL     1      -8.928  -4.132  -5.258  1.00  0.00     0.000 C 
BRANCH   3   4
ATOM      4  C   UNL     1     -10.277  -3.613  -4.715  1.00  0.00     0.000 C 
BRANCH   4   5
ATOM      5  C   UNL     1     -10.750  -4.344  -3.447  1.00  0.00     0.006 C 
BRANCH   5   6
ATOM      6  C   UNL     1     -10.679  -3.468  -2.191  1.00  0.00     0.053 C 
BRANCH   6   7
ATOM      7  C   UNL     1      -9.255  -3.231  -1.798  1.00  0.00     0.041 C 
ATOM      8  O   UNL     1      -8.790  -2.062  -1.774  1.00  0.00    -0.550 OA
ATOM      9  O   UNL     1      -8.428  -4.307  -1.504  1.00  0.00    -0.550 OA
ENDBRANCH   6   7
ENDBRANCH   5   6
ENDBRANCH   4   5
ENDBRANCH   3   4
ENDBRANCH   2   3
ENDBRANCH   1   2
BRANCH   1  10
ATOM     10  C   UNL     1      -6.678  -5.199  -6.503  1.00  0.00     0.000 C 
BRANCH  10  11
ATOM     11  C   UNL     1      -6.848  -5.504  -8.001  1.00  0.00    -0.000 C 
BRANCH  11  12
ATOM     12  C   UNL     1      -7.506  -4.375  -8.822  1.00  0.00    -0.000 C 
BRANCH  12  13
ATOM     13  C   UNL     1      -8.814  -4.766  -9.538  1.00  0.00    -0.000 C 
BRANCH  13  14
ATOM     14  C   UNL     1      -9.704  -5.765  -8.772  1.00  0.00    -0.000 C 
BRANCH  14  15
ATOM     15  C   UNL     1     -10.993  -5.164  -8.186  1.00  0.00    -0.003 C 
ATOM     16  C   UNL     1     -11.124  -3.664  -8.448  1.00  0.00     0.004 C 
ENDBRANCH  14  15
ENDBRANCH  13  14
ENDBRANCH  12  13
ENDBRANCH  11  12
ENDBRANCH  10  11
ENDBRANCH   1  10
TORSDOF 12
ENDMDL
