MODEL 1
REMARK VINA RESULT:    -3.572      0.000      0.000
REMARK INTER + INTRA:          -7.022
REMARK INTER:                  -6.077
REMARK INTRA:                  -0.945
REMARK UNBOUND:                -0.945
REMARK SMILES CCCCCCCCCCCCCC(=O)[O-]
REMARK SMILES IDX 8 1 9 2 10 3 11 4 12 5 13 6 14 7 15 8 16 9 7 10 6 11 5 12
REMARK SMILES IDX 4 13 3 14 2 15 1 16
REMARK H PARENT
REMARK Flexibility Score: inf
ROOT
ATOM      1  C   UNL     1      15.607  16.813   8.205  1.00  0.00     0.000 C 
ENDROOT
BRANCH   1   2
ATOM      2  C   UNL     1      15.984  15.771   7.146  1.00  0.00     0.000 C 
BRANCH   2   3
ATOM      3  C   UNL     1      16.069  14.367   7.762  1.00  0.00     0.000 C 
BRANCH   3   4
ATOM      4  C   UNL     1      15.002  13.410   7.206  1.00  0.00     0.000 C 
BRANCH   4   5
ATOM      5  C   UNL     1      14.043  12.898   8.292  1.00  0.00     0.006 C 
BRANCH   5   6
ATOM      6  C   UNL     1      14.447  13.424   9.671  1.00  0.00     0.053 C 
BRANCH   6   7
ATOM      7  C   UNL     1      14.121  12.420  10.732  1.00  0.00     0.041 C 
ATOM      8  O   UNL     1      13.229  12.667  11.586  1.00  0.00    -0.550 OA
ATOM      9  O   UNL     1      14.838  11.233  10.809  1.00  0.00    -0.550 OA
ENDBRANCH   6   7
ENDBRANCH   5   6
ENDBRANCH   4   5
ENDBRANCH   3   4
ENDBRANCH   2   3
ENDBRANCH   1   2
BRANCH   1  10
ATOM     10  C   UNL     1      16.482  16.669   9.457  1.00  0.00     0.000 C 
BRANCH  10  11
ATOM     11  C   UNL     1      16.033  17.638  10.558  1.00  0.00    -0.000 C 
BRANCH  11  12
ATOM     12  C   UNL     1      16.118  19.093  10.077  1.00  0.00    -0.000 C 
BRANCH  12  13
ATOM     13  C   UNL     1      15.485  20.083  11.068  1.00  0.00    -0.000 C 
BRANCH  13  14
ATOM     14  C   UNL     1      14.485  19.409  12.021  1.00  0.00    -0.000 C 
BRANCH  14  15
ATOM     15  C   UNL     1      13.199  20.236  12.139  1.00  0.00    -0.003 C 
ATOM     16  C   UNL     1      13.478  21.722  11.930  1.00  0.00     0.004 C 
ENDBRANCH  14  15
ENDBRANCH  13  14
ENDBRANCH  12  13
ENDBRANCH  11  12
ENDBRANCH  10  11
ENDBRANCH   1  10
TORSDOF 12
ENDMDL
MODEL 2
REMARK VINA RESULT:    -3.371      3.362      6.804
REMARK INTER + INTRA:          -6.681
REMARK INTER:                  -5.573
REMARK INTRA:                  -1.108
REMARK UNBOUND:                -0.945
REMARK SMILES CCCCCCCCCCCCCC(=O)[O-]
REMARK SMILES IDX 8 1 9 2 10 3 11 4 12 5 13 6 14 7 15 8 16 9 7 10 6 11 5 12
REMARK SMILES IDX 4 13 3 14 2 15 1 16
REMARK H PARENT
REMARK Flexibility Score: inf
ROOT
ATOM      1  C   UNL     1      15.876  15.840   7.148  1.00  0.00     0.000 C 
ENDROOT
BRANCH   1   2
ATOM      2  C   UNL     1      15.600  16.842   8.275  1.00  0.00     0.000 C 
BRANCH   2   3
ATOM      3  C   UNL     1      16.399  16.485   9.536  1.00  0.00     0.000 C 
BRANCH   3   4
ATOM      4  C   UNL     1      16.555  17.675  10.497  1.00  0.00     0.000 C 
BRANCH   4   5
ATOM      5  C   UNL     1      15.554  18.804  10.208  1.00  0.00     0.006 C 
BRANCH   5   6
ATOM      6  C   UNL     1      14.710  19.118  11.446  1.00  0.00     0.053 C 
BRANCH   6   7
ATOM      7  C   UNL     1      14.534  20.595  11.602  1.00  0.00     0.041 C 
ATOM      8  O   UNL     1      15.540  21.349  11.677  1.00  0.00    -0.550 OA
ATOM      9  O   UNL     1      13.259  21.135  11.714  1.00  0.00    -0.550 OA
ENDBRANCH   6   7
ENDBRANCH   5   6
ENDBRANCH   4   5
ENDBRANCH   3   4
ENDBRANCH   2   3
ENDBRANCH   1   2
BRANCH   1  10
ATOM     10  C   UNL     1      16.190  14.448   7.711  1.00  0.00     0.000 C 
BRANCH  10  11
ATOM     11  C   UNL     1      15.275  13.384   7.093  1.00  0.00    -0.000 C 
BRANCH  11  12
ATOM     12  C   UNL     1      14.102  13.058   8.028  1.00  0.00    -0.000 C 
BRANCH  12  13
ATOM     13  C   UNL     1      14.431  13.323   9.506  1.00  0.00    -0.000 C 
BRANCH  13  14
ATOM     14  C   UNL     1      13.910  12.217  10.436  1.00  0.00    -0.000 C 
BRANCH  14  15
ATOM     15  C   UNL     1      15.070  11.429  11.055  1.00  0.00    -0.003 C 
ATOM     16  C   UNL     1      16.395  12.165  10.872  1.00  0.00     0.004 C 
ENDBRANCH  14  15
ENDBRANCH  13  14
ENDBRANCH  12  13
ENDBRANCH  11  12
ENDBRANCH  10  11
ENDBRANCH   1  10
TORSDOF 12
ENDMDL
MODEL 3
REMARK VINA RESULT:    -3.183      2.948      6.165
REMARK INTER + INTRA:          -6.360
REMARK INTER:                  -5.092
REMARK INTRA:                  -1.268
REMARK UNBOUND:                -0.945
REMARK SMILES CCCCCCCCCCCCCC(=O)[O-]
REMARK SMILES IDX 8 1 9 2 10 3 11 4 12 5 13 6 14 7 15 8 16 9 7 10 6 11 5 12
REMARK SMILES IDX 4 13 3 14 2 15 1 16
REMARK H PARENT
REMARK Flexibility Score: inf
ROOT
ATOM      1  C   UNL     1      16.040  13.838   7.332  1.00  0.00     0.000 C 
ENDROOT
BRANCH   1   2
ATOM      2  C   UNL     1      15.978  15.338   7.024  1.00  0.00     0.000 C 
BRANCH   2   3
ATOM      3  C   UNL     1      16.479  16.166   8.216  1.00  0.00     0.000 C 
BRANCH   3   4
ATOM      4  C   UNL     1      15.335  16.841   8.990  1.00  0.00     0.000 C 
BRANCH   4   5
ATOM      5  C   UNL     1      15.818  17.539  10.271  1.00  0.00     0.006 C 
BRANCH   5   6
ATOM      6  C   UNL     1      15.947  19.049  10.057  1.00  0.00     0.053 C 
BRANCH   6   7
ATOM      7  C   UNL     1      15.069  19.793  11.014  1.00  0.00     0.041 C 
ATOM      8  O   UNL     1      15.264  21.017  11.232  1.00  0.00    -0.550 OA
ATOM      9  O   UNL     1      14.068  19.121  11.703  1.00  0.00    -0.550 OA
ENDBRANCH   6   7
ENDBRANCH   5   6
ENDBRANCH   4   5
ENDBRANCH   3   4
ENDBRANCH   2   3
ENDBRANCH   1   2
BRANCH   1  10
ATOM     10  C   UNL     1      14.633  13.229   7.396  1.00  0.00     0.000 C 
BRANCH  10  11
ATOM     11  C   UNL     1      14.184  13.030   8.848  1.00  0.00    -0.000 C 
BRANCH  11  12
ATOM     12  C   UNL     1      15.393  12.857   9.779  1.00  0.00    -0.000 C 
BRANCH  12  13
ATOM     13  C   UNL     1      15.277  13.694  11.063  1.00  0.00    -0.000 C 
BRANCH  13  14
ATOM     14  C   UNL     1      15.698  12.915  12.318  1.00  0.00    -0.000 C 
BRANCH  14  15
ATOM     15  C   UNL     1      14.579  11.974  12.779  1.00  0.00    -0.003 C 
ATOM     16  C   UNL     1      13.244  12.709  12.870  1.00  0.00     0.004 C 
ENDBRANCH  14  15
ENDBRANCH  13  14
ENDBRANCH  12  13
ENDBRANCH  11  12
ENDBRANCH  10  11
ENDBRANCH   1  10
TORSDOF 12
ENDMDL
MODEL 4
REMARK VINA RESULT:    -3.158      1.271      2.390
REMARK INTER + INTRA:          -6.318
REMARK INTER:                  -5.462
REMARK INTRA:                  -0.856
REMARK UNBOUND:                -0.945
REMARK SMILES CCCCCCCCCCCCCC(=O)[O-]
REMARK SMILES IDX 8 1 9 2 10 3 11 4 12 5 13 6 14 7 15 8 16 9 7 10 6 11 5 12
REMARK SMILES IDX 4 13 3 14 2 15 1 16
REMARK H PARENT
REMARK Flexibility Score: inf
ROOT
ATOM      1  C   UNL     1      15.668  15.006   7.126  1.00  0.00     0.000 C 
ENDROOT
BRANCH   1   2
ATOM      2  C   UNL     1      15.582  13.493   7.360  1.00  0.00     0.000 C 
BRANCH   2   3
ATOM      3  C   UNL     1      14.312  13.129   8.143  1.00  0.00     0.000 C 
BRANCH   3   4
ATOM      4  C   UNL     1      14.506  13.230   9.665  1.00  0.00     0.000 C 
BRANCH   4   5
ATOM      5  C   UNL     1      13.913  12.029  10.418  1.00  0.00     0.006 C 
BRANCH   5   6
ATOM      6  C   UNL     1      14.370  12.020  11.879  1.00  0.00     0.053 C 
BRANCH   6   7
ATOM      7  C   UNL     1      15.814  11.641  11.975  1.00  0.00     0.041 C 
ATOM      8  O   UNL     1      16.610  12.344  12.652  1.00  0.00    -0.550 OA
ATOM      9  O   UNL     1      16.291  10.540  11.276  1.00  0.00    -0.550 OA
ENDBRANCH   6   7
ENDBRANCH   5   6
ENDBRANCH   4   5
ENDBRANCH   3   4
ENDBRANCH   2   3
ENDBRANCH   1   2
BRANCH   1  10
ATOM     10  C   UNL     1      17.046  15.549   7.524  1.00  0.00     0.000 C 
BRANCH  10  11
ATOM     11  C   UNL     1      16.968  16.344   8.833  1.00  0.00    -0.000 C 
BRANCH  11  12
ATOM     12  C   UNL     1      15.687  17.189   8.886  1.00  0.00    -0.000 C 
BRANCH  12  13
ATOM     13  C   UNL     1      15.549  17.973  10.202  1.00  0.00    -0.000 C 
BRANCH  13  14
ATOM     14  C   UNL     1      16.085  19.409  10.095  1.00  0.00    -0.000 C 
BRANCH  14  15
ATOM     15  C   UNL     1      15.498  20.296  11.199  1.00  0.00    -0.003 C 
ATOM     16  C   UNL     1      14.103  19.823  11.602  1.00  0.00     0.004 C 
ENDBRANCH  14  15
ENDBRANCH  13  14
ENDBRANCH  12  13
ENDBRANCH  11  12
ENDBRANCH  10  11
ENDBRANCH   1  10
TORSDOF 12
ENDMDL
MODEL 5
REMARK VINA RESULT:    -3.037      1.345      1.946
REMARK INTER + INTRA:          -6.113
REMARK INTER:                  -5.084
REMARK INTRA:                  -1.029
REMARK UNBOUND:                -0.945
REMARK SMILES CCCCCCCCCCCCCC(=O)[O-]
REMARK SMILES IDX 8 1 9 2 10 3 11 4 12 5 13 6 14 7 15 8 16 9 7 10 6 11 5 12
REMARK SMILES IDX 4 13 3 14 2 15 1 16
REMARK H PARENT
REMARK Flexibility Score: inf
ROOT
ATOM      1  C   UNL     1      15.424  15.499   8.752  1.00  0.00     0.000 C 
ENDROOT
BRANCH   1   2
ATOM      2  C   UNL     1      16.748  14.829   8.365  1.00  0.00     0.000 C 
BRANCH   2   3
ATOM      3  C   UNL     1      17.123  13.730   9.369  1.00  0.00     0.000 C 
BRANCH   3   4
ATOM      4  C   UNL     1      17.037  14.206  10.828  1.00  0.00     0.000 C 
BRANCH   4   5
ATOM      5  C   UNL     1      16.093  13.342  11.679  1.00  0.00     0.006 C 
BRANCH   5   6
ATOM      6  C   UNL     1      15.596  12.130  10.886  1.00  0.00     0.053 C 
BRANCH   6   7
ATOM      7  C   UNL     1      14.139  12.267  10.576  1.00  0.00     0.041 C 
ATOM      8  O   UNL     1      13.730  12.163   9.390  1.00  0.00    -0.550 OA
ATOM      9  O   UNL     1      13.238  12.559  11.592  1.00  0.00    -0.550 OA
ENDBRANCH   6   7
ENDBRANCH   5   6
ENDBRANCH   4   5
ENDBRANCH   3   4
ENDBRANCH   2   3
ENDBRANCH   1   2
BRANCH   1  10
ATOM     10  C   UNL     1      15.523  17.025   8.634  1.00  0.00     0.000 C 
BRANCH  10  11
ATOM     11  C   UNL     1      15.909  17.658   9.977  1.00  0.00    -0.000 C 
BRANCH  11  12
ATOM     12  C   UNL     1      16.140  19.169   9.825  1.00  0.00    -0.000 C 
BRANCH  12  13
ATOM     13  C   UNL     1      15.545  19.979  10.988  1.00  0.00    -0.000 C 
BRANCH  13  14
ATOM     14  C   UNL     1      14.743  19.108  11.967  1.00  0.00    -0.000 C 
BRANCH  14  15
ATOM     15  C   UNL     1      13.357  19.711  12.226  1.00  0.00    -0.003 C 
ATOM     16  C   UNL     1      13.347  21.211  11.943  1.00  0.00     0.004 C 
ENDBRANCH  14  15
ENDBRANCH  13  14
ENDBRANCH  12  13
ENDBRANCH  11  12
ENDBRANCH  10  11
ENDBRANCH   1  10
TORSDOF 12
ENDMDL
MODEL 6
REMARK VINA RESULT:    -2.883      1.401      2.255
REMARK INTER + INTRA:          -5.850
REMARK INTER:                  -4.592
REMARK INTRA:                  -1.259
REMARK UNBOUND:                -0.945
REMARK SMILES CCCCCCCCCCCCCC(=O)[O-]
REMARK SMILES IDX 8 1 9 2 10 3 11 4 12 5 13 6 14 7 15 8 16 9 7 10 6 11 5 12
REMARK SMILES IDX 4 13 3 14 2 15 1 16
REMARK H PARENT
REMARK Flexibility Score: inf
ROOT
ATOM      1  C   UNL     1      15.572  15.489   7.147  1.00  0.00     0.000 C 
ENDROOT
BRANCH   1   2
ATOM      2  C   UNL     1      15.606  13.957   7.203  1.00  0.00     0.000 C 
BRANCH   2   3
ATOM      3  C   UNL     1      16.720  13.465   8.138  1.00  0.00     0.000 C 
BRANCH   3   4
ATOM      4  C   UNL     1      16.220  13.198   9.567  1.00  0.00     0.000 C 
BRANCH   4   5
ATOM      5  C   UNL     1      14.689  13.103   9.651  1.00  0.00     0.006 C 
BRANCH   5   6
ATOM      6  C   UNL     1      14.261  11.899  10.494  1.00  0.00     0.053 C 
BRANCH   6   7
ATOM      7  C   UNL     1      14.092  12.296  11.927  1.00  0.00     0.041 C 
ATOM      8  O   UNL     1      15.074  12.263  12.714  1.00  0.00    -0.550 OA
ATOM      9  O   UNL     1      12.837  12.652  12.405  1.00  0.00    -0.550 OA
ENDBRANCH   6   7
ENDBRANCH   5   6
ENDBRANCH   4   5
ENDBRANCH   3   4
ENDBRANCH   2   3
ENDBRANCH   1   2
BRANCH   1  10
ATOM     10  C   UNL     1      16.989  16.074   7.193  1.00  0.00     0.000 C 
BRANCH  10  11
ATOM     11  C   UNL     1      17.125  17.102   8.323  1.00  0.00    -0.000 C 
BRANCH  11  12
ATOM     12  C   UNL     1      15.828  17.194   9.140  1.00  0.00    -0.000 C 
BRANCH  12  13
ATOM     13  C   UNL     1      16.046  16.899  10.633  1.00  0.00    -0.000 C 
BRANCH  13  14
ATOM     14  C   UNL     1      15.971  18.162  11.504  1.00  0.00    -0.000 C 
BRANCH  14  15
ATOM     15  C   UNL     1      15.445  19.354  10.695  1.00  0.00    -0.003 C 
ATOM     16  C   UNL     1      15.841  20.678  11.343  1.00  0.00     0.004 C 
ENDBRANCH  14  15
ENDBRANCH  13  14
ENDBRANCH  12  13
ENDBRANCH  11  12
ENDBRANCH  10  11
ENDBRANCH   1  10
TORSDOF 12
ENDMDL
MODEL 7
REMARK VINA RESULT:    -2.672      2.965      6.674
REMARK INTER + INTRA:          -5.491
REMARK INTER:                  -4.141
REMARK INTRA:                  -1.350
REMARK UNBOUND:                -0.945
REMARK SMILES CCCCCCCCCCCCCC(=O)[O-]
REMARK SMILES IDX 8 1 9 2 10 3 11 4 12 5 13 6 14 7 15 8 16 9 7 10 6 11 5 12
REMARK SMILES IDX 4 13 3 14 2 15 1 16
REMARK H PARENT
REMARK Flexibility Score: inf
ROOT
ATOM      1  C   UNL     1      15.869  11.819  12.206  1.00  0.00     0.000 C 
ENDROOT
BRANCH   1   2
ATOM      2  C   UNL     1      16.696  13.087  11.967  1.00  0.00     0.000 C 
BRANCH   2   3
ATOM      3  C   UNL     1      16.442  14.125  13.070  1.00  0.00     0.000 C 
BRANCH   3   4
ATOM      4  C   UNL     1      16.165  15.530  12.509  1.00  0.00     0.000 C 
BRANCH   4   5
ATOM      5  C   UNL     1      16.638  15.692  11.057  1.00  0.00     0.006 C 
BRANCH   5   6
ATOM      6  C   UNL     1      17.028  17.144  10.767  1.00  0.00     0.053 C 
BRANCH   6   7
ATOM      7  C   UNL     1      15.867  17.895  10.195  1.00  0.00     0.041 C 
ATOM      8  O   UNL     1      15.202  17.406   9.244  1.00  0.00    -0.550 OA
ATOM      9  O   UNL     1      15.550  19.158  10.679  1.00  0.00    -0.550 OA
ENDBRANCH   6   7
ENDBRANCH   5   6
ENDBRANCH   4   5
ENDBRANCH   3   4
ENDBRANCH   2   3
ENDBRANCH   1   2
BRANCH   1  10
ATOM     10  C   UNL     1      14.879  11.581  11.059  1.00  0.00     0.000 C 
BRANCH  10  11
ATOM     11  C   UNL     1      14.174  12.883  10.660  1.00  0.00    -0.000 C 
BRANCH  11  12
ATOM     12  C   UNL     1      14.091  13.015   9.132  1.00  0.00    -0.000 C 
BRANCH  12  13
ATOM     13  C   UNL     1      15.473  12.995   8.459  1.00  0.00    -0.000 C 
BRANCH  13  14
ATOM     14  C   UNL     1      15.823  14.330   7.784  1.00  0.00    -0.000 C 
BRANCH  14  15
ATOM     15  C   UNL     1      17.052  14.180   6.880  1.00  0.00    -0.003 C 
ATOM     16  C   UNL     1      17.125  12.780   6.277  1.00  0.00     0.004 C 
ENDBRANCH  14  15
ENDBRANCH  13  14
ENDBRANCH  12  13
ENDBRANCH  11  12
ENDBRANCH  10  11
ENDBRANCH   1  10
TORSDOF 12
ENDMDL
MODEL 8
REMARK VINA RESULT:    -2.440      1.965      2.346
REMARK INTER + INTRA:          -5.097
REMARK INTER:                  -4.188
REMARK INTRA:                  -0.909
REMARK UNBOUND:                -0.945
REMARK SMILES CCCCCCCCCCCCCC(=O)[O-]
REMARK SMILES IDX 8 1 9 2 10 3 11 4 12 5 13 6 14 7 15 8 16 9 7 10 6 11 5 12
REMARK SMILES IDX 4 13 3 14 2 15 1 16
REMARK H PARENT
REMARK Flexibility Score: inf
ROOT
ATOM      1  C   UNL     1      16.224  16.651  10.085  1.00  0.00     0.000 C 
ENDROOT
BRANCH   1   2
ATOM      2  C   UNL     1      17.124  15.434   9.844  1.00  0.00     0.000 C 
BRANCH   2   3
ATOM      3  C   UNL     1      17.055  14.456  11.027  1.00  0.00     0.000 C 
BRANCH   3   4
ATOM      4  C   UNL     1      16.895  12.995  10.578  1.00  0.00     0.000 C 
BRANCH   4   5
ATOM      5  C   UNL     1      16.173  12.130  11.623  1.00  0.00     0.006 C 
BRANCH   5   6
ATOM      6  C   UNL     1      15.195  12.972  12.448  1.00  0.00     0.053 C 
BRANCH   6   7
ATOM      7  C   UNL     1      13.784  12.688  12.040  1.00  0.00     0.041 C 
ATOM      8  O   UNL     1      12.853  12.764  12.883  1.00  0.00    -0.550 OA
ATOM      9  O   UNL     1      13.504  12.291  10.738  1.00  0.00    -0.550 OA
ENDBRANCH   6   7
ENDBRANCH   5   6
ENDBRANCH   4   5
ENDBRANCH   3   4
ENDBRANCH   2   3
ENDBRANCH   1   2
BRANCH   1  10
ATOM     10  C   UNL     1      16.083  17.494   8.811  1.00  0.00     0.000 C 
BRANCH  10  11
ATOM     11  C   UNL     1      16.466  18.956   9.072  1.00  0.00    -0.000 C 
BRANCH  11  12
ATOM     12  C   UNL     1      16.827  19.174  10.549  1.00  0.00    -0.000 C 
BRANCH  12  13
ATOM     13  C   UNL     1      16.501  20.596  11.035  1.00  0.00    -0.000 C 
BRANCH  13  14
ATOM     14  C   UNL     1      15.043  20.744  11.496  1.00  0.00    -0.000 C 
BRANCH  14  15
ATOM     15  C   UNL     1      14.557  19.467  12.190  1.00  0.00    -0.003 C 
ATOM     16  C   UNL     1      13.138  19.637  12.727  1.00  0.00     0.004 C 
ENDBRANCH  14  15
ENDBRANCH  13  14
ENDBRANCH  12  13
ENDBRANCH  11  12
ENDBRANCH  10  11
ENDBRANCH   1  10
TORSDOF 12
ENDMDL
MODEL 9
REMARK VINA RESULT:    -2.378      1.349      1.925
REMARK INTER + INTRA:          -4.992
REMARK INTER:                  -4.611
REMARK INTRA:                  -0.381
REMARK UNBOUND:                -0.945
REMARK SMILES CCCCCCCCCCCCCC(=O)[O-]
REMARK SMILES IDX 8 1 9 2 10 3 11 4 12 5 13 6 14 7 15 8 16 9 7 10 6 11 5 12
REMARK SMILES IDX 4 13 3 14 2 15 1 16
REMARK H PARENT
REMARK Flexibility Score: inf
ROOT
ATOM      1  C   UNL     1      16.351  15.921  11.142  1.00  0.00     0.000 C 
ENDROOT
BRANCH   1   2
ATOM      2  C   UNL     1      15.996  16.260   9.690  1.00  0.00     0.000 C 
BRANCH   2   3
ATOM      3  C   UNL     1      15.790  14.983   8.862  1.00  0.00     0.000 C 
BRANCH   3   4
ATOM      4  C   UNL     1      15.532  13.745   9.735  1.00  0.00     0.000 C 
BRANCH   4   5
ATOM      5  C   UNL     1      14.367  12.887   9.219  1.00  0.00     0.006 C 
BRANCH   5   6
ATOM      6  C   UNL     1      13.748  12.066  10.353  1.00  0.00     0.053 C 
BRANCH   6   7
ATOM      7  C   UNL     1      14.805  11.610  11.309  1.00  0.00     0.041 C 
ATOM      8  O   UNL     1      14.708  11.877  12.535  1.00  0.00    -0.550 OA
ATOM      9  O   UNL     1      15.922  10.932  10.837  1.00  0.00    -0.550 OA
ENDBRANCH   6   7
ENDBRANCH   5   6
ENDBRANCH   4   5
ENDBRANCH   3   4
ENDBRANCH   2   3
ENDBRANCH   1   2
BRANCH   1  10
ATOM     10  C   UNL     1      16.957  17.133  11.860  1.00  0.00     0.000 C 
BRANCH  10  11
ATOM     11  C   UNL     1      16.024  17.643  12.965  1.00  0.00    -0.000 C 
BRANCH  11  12
ATOM     12  C   UNL     1      15.830  19.163  12.862  1.00  0.00    -0.000 C 
BRANCH  12  13
ATOM     13  C   UNL     1      14.911  19.565  11.697  1.00  0.00    -0.000 C 
BRANCH  13  14
ATOM     14  C   UNL     1      13.447  19.741  12.132  1.00  0.00    -0.000 C 
BRANCH  14  15
ATOM     15  C   UNL     1      13.124  21.218  12.380  1.00  0.00    -0.003 C 
ATOM     16  C   UNL     1      14.311  22.110  12.026  1.00  0.00     0.004 C 
ENDBRANCH  14  15
ENDBRANCH  13  14
ENDBRANCH  12  13
ENDBRANCH  11  12
ENDBRANCH  10  11
ENDBRANCH   1  10
TORSDOF 12
ENDMDL
