MODEL 1
REMARK VINA RESULT:    -2.541      0.000      0.000
REMARK INTER + INTRA:          -2.541
REMARK INTER:                  -2.541
REMARK INTRA:                   0.000
REMARK UNBOUND:                 0.000
REMARK SMILES CC(=O)[O-]
REMARK SMILES IDX 1 1 2 2 3 3 4 4
REMARK H PARENT
REMARK Flexibility Score: inf
ROOT
ATOM      1  C   UNL     1      12.996  17.994   0.379  1.00  0.00     0.063 C 
ATOM      2  C   UNL     1      14.069  19.029   0.372  1.00  0.00     0.038 C 
ATOM      3  O   UNL     1      15.234  18.733   0.744  1.00  0.00    -0.550 OA
ATOM      4  O   UNL     1      13.797  20.309  -0.095  1.00  0.00    -0.550 OA
ENDROOT
TORSDOF 0
ENDMDL
MODEL 2
REMARK VINA RESULT:    -2.539      0.079      1.621
REMARK INTER + INTRA:          -2.539
REMARK INTER:                  -2.539
REMARK INTRA:                   0.000
REMARK UNBOUND:                 0.000
REMARK SMILES CC(=O)[O-]
REMARK SMILES IDX 1 1 2 2 3 3 4 4
REMARK H PARENT
REMARK Flexibility Score: inf
ROOT
ATOM      1  C   UNL     1      12.981  18.019   0.392  1.00  0.00     0.063 C 
ATOM      2  C   UNL     1      14.055  19.051   0.339  1.00  0.00     0.038 C 
ATOM      3  O   UNL     1      13.790  20.219  -0.047  1.00  0.00    -0.550 OA
ATOM      4  O   UNL     1      15.341  18.740   0.765  1.00  0.00    -0.550 OA
ENDROOT
TORSDOF 0
ENDMDL
MODEL 3
REMARK VINA RESULT:    -2.539      1.410      2.016
REMARK INTER + INTRA:          -2.539
REMARK INTER:                  -2.539
REMARK INTRA:                   0.000
REMARK UNBOUND:                 0.000
REMARK SMILES CC(=O)[O-]
REMARK SMILES IDX 1 1 2 2 3 3 4 4
REMARK H PARENT
REMARK Flexibility Score: inf
ROOT
ATOM      1  C   UNL     1      13.795  20.267  -0.377  1.00  0.00     0.063 C 
ATOM      2  C   UNL     1      14.174  19.024   0.355  1.00  0.00     0.038 C 
ATOM      3  O   UNL     1      13.314  18.132   0.573  1.00  0.00    -0.550 OA
ATOM      4  O   UNL     1      15.490  18.826   0.753  1.00  0.00    -0.550 OA
ENDROOT
TORSDOF 0
ENDMDL
MODEL 4
REMARK VINA RESULT:    -2.537      1.374      1.758
REMARK INTER + INTRA:          -2.537
REMARK INTER:                  -2.537
REMARK INTRA:                   0.000
REMARK UNBOUND:                 0.000
REMARK SMILES CC(=O)[O-]
REMARK SMILES IDX 1 1 2 2 3 3 4 4
REMARK H PARENT
REMARK Flexibility Score: inf
ROOT
ATOM      1  C   UNL     1      13.786  20.267  -0.361  1.00  0.00     0.063 C 
ATOM      2  C   UNL     1      14.127  18.994   0.336  1.00  0.00     0.038 C 
ATOM      3  O   UNL     1      15.296  18.798   0.759  1.00  0.00    -0.550 OA
ATOM      4  O   UNL     1      13.141  18.042   0.566  1.00  0.00    -0.550 OA
ENDROOT
TORSDOF 0
ENDMDL
MODEL 5
REMARK VINA RESULT:    -2.525      2.094      2.343
REMARK INTER + INTRA:          -2.525
REMARK INTER:                  -2.525
REMARK INTRA:                   0.000
REMARK UNBOUND:                 0.000
REMARK SMILES CC(=O)[O-]
REMARK SMILES IDX 1 1 2 2 3 3 4 4
REMARK H PARENT
REMARK Flexibility Score: inf
ROOT
ATOM      1  C   UNL     1      14.063  18.867   0.445  1.00  0.00     0.063 C 
ATOM      2  C   UNL     1      12.879  17.966   0.345  1.00  0.00     0.038 C 
ATOM      3  O   UNL     1      12.768  16.980   1.119  1.00  0.00    -0.550 OA
ATOM      4  O   UNL     1      11.869  18.244  -0.567  1.00  0.00    -0.550 OA
ENDROOT
TORSDOF 0
ENDMDL
MODEL 6
REMARK VINA RESULT:    -2.376      1.775      2.057
REMARK INTER + INTRA:          -2.376
REMARK INTER:                  -2.376
REMARK INTRA:                   0.000
REMARK UNBOUND:                 0.000
REMARK SMILES CC(=O)[O-]
REMARK SMILES IDX 1 1 2 2 3 3 4 4
REMARK H PARENT
REMARK Flexibility Score: inf
ROOT
ATOM      1  C   UNL     1      12.085  18.590  -0.655  1.00  0.00     0.063 C 
ATOM      2  C   UNL     1      13.017  18.061   0.381  1.00  0.00     0.038 C 
ATOM      3  O   UNL     1      12.723  17.019   1.022  1.00  0.00    -0.550 OA
ATOM      4  O   UNL     1      14.237  18.688   0.603  1.00  0.00    -0.550 OA
ENDROOT
TORSDOF 0
ENDMDL
MODEL 7
REMARK VINA RESULT:    -2.188     17.569     18.099
REMARK INTER + INTRA:          -2.188
REMARK INTER:                  -2.188
REMARK INTRA:                   0.000
REMARK UNBOUND:                 0.000
REMARK SMILES CC(=O)[O-]
REMARK SMILES IDX 1 1 2 2 3 3 4 4
REMARK H PARENT
REMARK Flexibility Score: inf
ROOT
ATOM      1  C   UNL     1      -1.986  12.404  -0.432  1.00  0.00     0.063 C 
ATOM      2  C   UNL     1      -2.081  11.097  -1.143  1.00  0.00     0.038 C 
ATOM      3  O   UNL     1      -3.124  10.798  -1.778  1.00  0.00    -0.550 OA
ATOM      4  O   UNL     1      -0.996  10.229  -1.149  1.00  0.00    -0.550 OA
ENDROOT
TORSDOF 0
ENDMDL
MODEL 8
REMARK VINA RESULT:    -2.109      2.197      2.723
REMARK INTER + INTRA:          -2.109
REMARK INTER:                  -2.109
REMARK INTRA:                   0.000
REMARK UNBOUND:                 0.000
REMARK SMILES CC(=O)[O-]
REMARK SMILES IDX 1 1 2 2 3 3 4 4
REMARK H PARENT
REMARK Flexibility Score: inf
ROOT
ATOM      1  C   UNL     1      14.894  21.724  -1.696  1.00  0.00     0.063 C 
ATOM      2  C   UNL     1      14.410  20.672  -0.758  1.00  0.00     0.038 C 
ATOM      3  O   UNL     1      15.158  20.256   0.165  1.00  0.00    -0.550 OA
ATOM      4  O   UNL     1      13.113  20.185  -0.867  1.00  0.00    -0.550 OA
ENDROOT
TORSDOF 0
ENDMDL
MODEL 9
REMARK VINA RESULT:    -2.092     24.043     24.463
REMARK INTER + INTRA:          -2.092
REMARK INTER:                  -2.092
REMARK INTRA:                   0.000
REMARK UNBOUND:                 0.000
REMARK SMILES CC(=O)[O-]
REMARK SMILES IDX 1 1 2 2 3 3 4 4
REMARK H PARENT
REMARK Flexibility Score: inf
ROOT
ATOM      1  C   UNL     1      -1.273   2.282  11.957  1.00  0.00     0.063 C 
ATOM      2  C   UNL     1      -1.420   3.548  11.183  1.00  0.00     0.038 C 
ATOM      3  O   UNL     1      -0.683   4.535  11.441  1.00  0.00    -0.550 OA
ATOM      4  O   UNL     1      -2.334   3.623  10.139  1.00  0.00    -0.550 OA
ENDROOT
TORSDOF 0
ENDMDL
