MODEL 1
REMARK VINA RESULT:    -4.944      0.000      0.000
REMARK INTER + INTRA:          -4.944
REMARK INTER:                  -4.944
REMARK INTRA:                   0.000
REMARK UNBOUND:                 0.000
REMARK SMILES C=C1CCC[C@@]2(C)CC(=O)C(=C(C)C)C[C@@H]12
REMARK SMILES IDX 13 1 12 2 11 3 15 4 16 5 2 6 1 7 3 8 4 9 5 10 6 11 8 12 9 13
REMARK SMILES IDX 10 14 7 15 14 16
REMARK H PARENT
REMARK Flexibility Score: inf
ROOT
ATOM      1  C   UNL     1      19.743   4.144  18.674  1.00  0.00     0.039 C 
ATOM      2  C   UNL     1      19.580   2.669  18.964  1.00  0.00    -0.070 C 
ATOM      3  C   UNL     1      19.569   2.205  20.245  1.00  0.00    -0.006 C 
ATOM      4  C   UNL     1      19.647   3.145  21.433  1.00  0.00     0.047 C 
ATOM      5  C   UNL     1      20.145   2.401  22.689  1.00  0.00     0.025 C 
ATOM      6  C   UNL     1      20.379   3.384  23.826  1.00  0.00    -0.073 C 
ATOM      7  C   UNL     1      21.586   3.948  23.998  1.00  0.00     0.008 C 
ATOM      8  C   UNL     1      19.208   3.835  24.661  1.00  0.00     0.031 C 
ATOM      9  C   UNL     1      18.391   2.631  25.125  1.00  0.00     0.005 C 
ATOM     10  C   UNL     1      17.981   1.753  23.936  1.00  0.00     0.008 C 
ATOM     11  C   UNL     1      19.191   1.219  23.107  1.00  0.00    -0.018 C 
ATOM     12  C   UNL     1      18.625   0.450  21.858  1.00  0.00     0.088 C 
ATOM     13  C   UNL     1      19.347   0.777  20.584  1.00  0.00     0.159 C 
ATOM     14  O   UNL     1      19.776  -0.154  19.851  1.00  0.00    -0.295 OA
ATOM     15  C   UNL     1      20.003   0.214  23.964  1.00  0.00     0.012 C 
ATOM     16  C   UNL     1      19.379   1.743  17.785  1.00  0.00     0.039 C 
ENDROOT
TORSDOF 0
ENDMDL
MODEL 2
REMARK VINA RESULT:    -3.115      1.623      3.205
REMARK INTER + INTRA:          -3.115
REMARK INTER:                  -3.115
REMARK INTRA:                   0.000
REMARK UNBOUND:                 0.000
REMARK SMILES C=C1CCC[C@@]2(C)CC(=O)C(=C(C)C)C[C@@H]12
REMARK SMILES IDX 13 1 12 2 11 3 15 4 16 5 2 6 1 7 3 8 4 9 5 10 6 11 8 12 9 13
REMARK SMILES IDX 10 14 7 15 14 16
REMARK H PARENT
REMARK Flexibility Score: inf
ROOT
ATOM      1  C   UNL     1      19.082   0.642  18.479  1.00  0.00     0.039 C 
ATOM      2  C   UNL     1      19.335   2.005  19.082  1.00  0.00    -0.070 C 
ATOM      3  C   UNL     1      19.338   2.182  20.434  1.00  0.00    -0.006 C 
ATOM      4  C   UNL     1      19.160   1.018  21.390  1.00  0.00     0.047 C 
ATOM      5  C   UNL     1      18.676   1.511  22.769  1.00  0.00     0.025 C 
ATOM      6  C   UNL     1      18.340   0.327  23.664  1.00  0.00    -0.073 C 
ATOM      7  C   UNL     1      17.094  -0.172  23.691  1.00  0.00     0.008 C 
ATOM      8  C   UNL     1      19.452  -0.377  24.399  1.00  0.00     0.031 C 
ATOM      9  C   UNL     1      20.334   0.637  25.125  1.00  0.00     0.005 C 
ATOM     10  C   UNL     1      20.839   1.717  24.160  1.00  0.00     0.008 C 
ATOM     11  C   UNL     1      19.694   2.502  23.447  1.00  0.00    -0.018 C 
ATOM     12  C   UNL     1      20.349   3.478  22.402  1.00  0.00     0.088 C 
ATOM     13  C   UNL     1      19.647   3.485  21.076  1.00  0.00     0.159 C 
ATOM     14  O   UNL     1      19.305   4.580  20.554  1.00  0.00    -0.295 OA
ATOM     15  C   UNL     1      18.927   3.357  24.488  1.00  0.00     0.012 C 
ATOM     16  C   UNL     1      19.635   3.144  18.135  1.00  0.00     0.039 C 
ENDROOT
TORSDOF 0
ENDMDL
MODEL 3
REMARK VINA RESULT:    -2.990      2.596      4.741
REMARK INTER + INTRA:          -2.990
REMARK INTER:                  -2.990
REMARK INTRA:                   0.000
REMARK UNBOUND:                 0.000
REMARK SMILES C=C1CCC[C@@]2(C)CC(=O)C(=C(C)C)C[C@@H]12
REMARK SMILES IDX 13 1 12 2 11 3 15 4 16 5 2 6 1 7 3 8 4 9 5 10 6 11 8 12 9 13
REMARK SMILES IDX 10 14 7 15 14 16
REMARK H PARENT
REMARK Flexibility Score: inf
ROOT
ATOM      1  C   UNL     1      14.983   3.723  25.019  1.00  0.00     0.039 C 
ATOM      2  C   UNL     1      15.026   2.223  24.844  1.00  0.00    -0.070 C 
ATOM      3  C   UNL     1      16.182   1.593  24.490  1.00  0.00    -0.006 C 
ATOM      4  C   UNL     1      17.485   2.353  24.327  1.00  0.00     0.047 C 
ATOM      5  C   UNL     1      18.471   1.565  23.440  1.00  0.00     0.025 C 
ATOM      6  C   UNL     1      19.704   2.407  23.146  1.00  0.00    -0.073 C 
ATOM      7  C   UNL     1      19.748   3.189  22.054  1.00  0.00     0.008 C 
ATOM      8  C   UNL     1      20.809   2.475  24.169  1.00  0.00     0.031 C 
ATOM      9  C   UNL     1      21.191   1.071  24.632  1.00  0.00     0.005 C 
ATOM     10  C   UNL     1      19.960   0.300  25.124  1.00  0.00     0.008 C 
ATOM     11  C   UNL     1      18.839   0.160  24.048  1.00  0.00    -0.018 C 
ATOM     12  C   UNL     1      17.599  -0.531  24.724  1.00  0.00     0.088 C 
ATOM     13  C   UNL     1      16.293   0.117  24.369  1.00  0.00     0.159 C 
ATOM     14  O   UNL     1      15.337  -0.588  23.949  1.00  0.00    -0.295 OA
ATOM     15  C   UNL     1      19.335  -0.756  22.900  1.00  0.00     0.012 C 
ATOM     16  C   UNL     1      13.758   1.449  25.125  1.00  0.00     0.039 C 
ENDROOT
TORSDOF 0
ENDMDL
MODEL 4
REMARK VINA RESULT:    -2.981      2.535      4.735
REMARK INTER + INTRA:          -2.981
REMARK INTER:                  -2.981
REMARK INTRA:                   0.000
REMARK UNBOUND:                 0.000
REMARK SMILES C=C1CCC[C@@]2(C)CC(=O)C(=C(C)C)C[C@@H]12
REMARK SMILES IDX 13 1 12 2 11 3 15 4 16 5 2 6 1 7 3 8 4 9 5 10 6 11 8 12 9 13
REMARK SMILES IDX 10 14 7 15 14 16
REMARK H PARENT
REMARK Flexibility Score: inf
ROOT
ATOM      1  C   UNL     1      22.453   3.968  23.632  1.00  0.00     0.039 C 
ATOM      2  C   UNL     1      21.085   4.115  24.258  1.00  0.00    -0.070 C 
ATOM      3  C   UNL     1      20.129   3.160  24.081  1.00  0.00    -0.006 C 
ATOM      4  C   UNL     1      20.412   1.882  23.315  1.00  0.00     0.047 C 
ATOM      5  C   UNL     1      19.102   1.247  22.805  1.00  0.00     0.025 C 
ATOM      6  C   UNL     1      19.407   0.064  21.899  1.00  0.00    -0.073 C 
ATOM      7  C   UNL     1      19.535   0.238  20.574  1.00  0.00     0.008 C 
ATOM      8  C   UNL     1      19.717  -1.276  22.518  1.00  0.00     0.031 C 
ATOM      9  C   UNL     1      18.665  -1.633  23.566  1.00  0.00     0.005 C 
ATOM     10  C   UNL     1      18.515  -0.511  24.600  1.00  0.00     0.008 C 
ATOM     11  C   UNL     1      18.122   0.865  23.977  1.00  0.00    -0.018 C 
ATOM     12  C   UNL     1      18.130   1.939  25.125  1.00  0.00     0.088 C 
ATOM     13  C   UNL     1      18.794   3.226  24.728  1.00  0.00     0.159 C 
ATOM     14  O   UNL     1      18.200   4.321  24.917  1.00  0.00    -0.295 OA
ATOM     15  C   UNL     1      16.683   0.782  23.406  1.00  0.00     0.012 C 
ATOM     16  C   UNL     1      20.839   5.329  25.125  1.00  0.00     0.039 C 
ENDROOT
TORSDOF 0
ENDMDL
MODEL 5
REMARK VINA RESULT:    -2.655      1.400      4.939
REMARK INTER + INTRA:          -2.655
REMARK INTER:                  -2.655
REMARK INTRA:                   0.000
REMARK UNBOUND:                 0.000
REMARK SMILES C=C1CCC[C@@]2(C)CC(=O)C(=C(C)C)C[C@@H]12
REMARK SMILES IDX 13 1 12 2 11 3 15 4 16 5 2 6 1 7 3 8 4 9 5 10 6 11 8 12 9 13
REMARK SMILES IDX 10 14 7 15 14 16
REMARK H PARENT
REMARK Flexibility Score: inf
ROOT
ATOM      1  C   UNL     1      20.872   3.582  23.999  1.00  0.00     0.039 C 
ATOM      2  C   UNL     1      20.141   2.430  23.350  1.00  0.00    -0.070 C 
ATOM      3  C   UNL     1      19.724   2.506  22.055  1.00  0.00    -0.006 C 
ATOM      4  C   UNL     1      20.034   3.712  21.188  1.00  0.00     0.047 C 
ATOM      5  C   UNL     1      19.047   3.806  20.006  1.00  0.00     0.025 C 
ATOM      6  C   UNL     1      19.260   5.105  19.244  1.00  0.00    -0.073 C 
ATOM      7  C   UNL     1      18.568   6.208  19.574  1.00  0.00     0.008 C 
ATOM      8  C   UNL     1      20.364   5.184  18.220  1.00  0.00     0.031 C 
ATOM      9  C   UNL     1      20.297   3.988  17.273  1.00  0.00     0.005 C 
ATOM     10  C   UNL     1      20.292   2.668  18.054  1.00  0.00     0.008 C 
ATOM     11  C   UNL     1      19.111   2.545  19.066  1.00  0.00    -0.018 C 
ATOM     12  C   UNL     1      19.304   1.213  19.880  1.00  0.00     0.088 C 
ATOM     13  C   UNL     1      19.061   1.378  21.352  1.00  0.00     0.159 C 
ATOM     14  O   UNL     1      18.283   0.588  21.951  1.00  0.00    -0.295 OA
ATOM     15  C   UNL     1      17.773   2.444  18.290  1.00  0.00     0.012 C 
ATOM     16  C   UNL     1      19.938   1.178  24.173  1.00  0.00     0.039 C 
ENDROOT
TORSDOF 0
ENDMDL
