MODEL 1
REMARK VINA RESULT:    -3.139      0.000      0.000
REMARK INTER + INTRA:          -3.025
REMARK INTER:                  -3.873
REMARK INTRA:                   0.849
REMARK UNBOUND:                 0.849
REMARK SMILES CC1=CC=CC(C)(C)CC1=O
REMARK SMILES IDX 1 1 2 2 3 3 10 4 11 5 9 6 4 8 5 9 6 10 7 11 8 12
REMARK H PARENT
REMARK Flexibility Score: 80.00
ROOT
ATOM      1  C   UNL     1     137.635 182.696 189.279  1.00  0.00     0.048 C 
ATOM      2  C   UNL     1     137.271 183.845 190.189  1.00  0.00    -0.008 C 
ATOM      3  C   UNL     1     138.221 184.768 190.451  1.00  0.00     0.007 C 
ENDROOT
BRANCH   2   4
ATOM      4  C   UNL     1     135.867 183.891 190.679  1.00  0.00     0.159 C 
ATOM      5  O   UNL     1     135.090 182.946 190.371  1.00  0.00    -0.295 OA
BRANCH   4   6
ATOM      6  C   UNL     1     135.296 185.015 191.490  1.00  0.00     0.091 CG0
ATOM      7  G   UNL     1     136.150 185.398 192.720  1.00  0.00     0.000 G0
ENDBRANCH   4   6
ENDBRANCH   2   4
BRANCH   3   8
ATOM      8  C   UNL     1     138.158 185.977 191.303  1.00  0.00    -0.003 C 
ATOM      9  C   UNL     1     137.303 186.256 192.294  1.00  0.00    -0.020 C 
BRANCH   9  10
ATOM     10  C   UNL     1     136.136 185.402 192.729  1.00  0.00    -0.010 CG0
ATOM     11  C   UNL     1     136.635 184.180 193.534  1.00  0.00     0.016 C 
ATOM     12  C   UNL     1     135.238 186.249 193.661  1.00  0.00     0.016 C 
ATOM     13  G   UNL     1     135.302 185.002 191.492  1.00  0.00     0.000 G0
ENDBRANCH   9  10
ENDBRANCH   3   8
TORSDOF 0
ENDMDL
MODEL 2
REMARK VINA RESULT:    -3.106      1.507      2.597
REMARK INTER + INTRA:          -2.983
REMARK INTER:                  -3.826
REMARK INTRA:                   0.843
REMARK UNBOUND:                 0.849
REMARK SMILES CC1=CC=CC(C)(C)CC1=O
REMARK SMILES IDX 1 1 2 2 3 3 10 4 11 5 9 6 4 8 5 9 6 10 7 11 8 12
REMARK H PARENT
REMARK Flexibility Score: 80.00
ROOT
ATOM      1  C   UNL     1     135.013 184.001 189.157  1.00  0.00     0.048 C 
ATOM      2  C   UNL     1     135.512 184.497 190.494  1.00  0.00    -0.008 C 
ATOM      3  C   UNL     1     134.636 185.138 191.296  1.00  0.00     0.007 C 
ENDROOT
BRANCH   2   4
ATOM      4  C   UNL     1     136.926 184.185 190.836  1.00  0.00     0.159 C 
ATOM      5  O   UNL     1     137.648 183.626 189.966  1.00  0.00    -0.295 OA
BRANCH   4   6
ATOM      6  C   UNL     1     137.546 184.457 192.174  1.00  0.00     0.091 CG0
ATOM      7  G   UNL     1     137.378 185.914 192.659  1.00  0.00     0.000 G0
ENDBRANCH   4   6
ENDBRANCH   2   4
BRANCH   3   8
ATOM      8  C   UNL     1     134.840 185.735 192.636  1.00  0.00    -0.003 C 
ATOM      9  C   UNL     1     135.987 186.103 193.220  1.00  0.00    -0.020 C 
BRANCH   9  10
ATOM     10  C   UNL     1     137.374 185.922 192.650  1.00  0.00    -0.010 CG0
ATOM     11  C   UNL     1     137.638 186.965 191.540  1.00  0.00     0.016 C 
ATOM     12  C   UNL     1     138.397 186.165 193.784  1.00  0.00     0.016 C 
ATOM     13  G   UNL     1     137.541 184.468 192.156  1.00  0.00     0.000 G0
ENDBRANCH   9  10
ENDBRANCH   3   8
TORSDOF 0
ENDMDL
MODEL 3
REMARK VINA RESULT:    -3.077      1.269      1.465
REMARK INTER + INTRA:          -2.948
REMARK INTER:                  -3.776
REMARK INTRA:                   0.828
REMARK UNBOUND:                 0.849
REMARK SMILES CC1=CC=CC(C)(C)CC1=O
REMARK SMILES IDX 1 1 2 2 3 3 10 4 11 5 9 6 4 8 5 9 6 10 7 11 8 12
REMARK H PARENT
REMARK Flexibility Score: 80.00
ROOT
ATOM      1  C   UNL     1     137.999 182.125 188.913  1.00  0.00     0.048 C 
ATOM      2  C   UNL     1     137.281 183.231 189.649  1.00  0.00    -0.008 C 
ATOM      3  C   UNL     1     138.030 184.133 190.319  1.00  0.00     0.007 C 
ENDROOT
BRANCH   2   4
ATOM      4  C   UNL     1     135.798 183.263 189.526  1.00  0.00     0.159 C 
ATOM      5  O   UNL     1     135.223 182.320 188.918  1.00  0.00    -0.295 OA
BRANCH   4   6
ATOM      6  C   UNL     1     134.936 184.373 190.049  1.00  0.00     0.091 CG0
ATOM      7  G   UNL     1     135.164 184.695 191.542  1.00  0.00     0.000 G0
ENDBRANCH   4   6
ENDBRANCH   2   4
BRANCH   3   8
ATOM      8  C   UNL     1     137.610 185.299 191.128  1.00  0.00    -0.003 C 
ATOM      9  C   UNL     1     136.414 185.547 191.678  1.00  0.00    -0.020 C 
BRANCH   9  10
ATOM     10  C   UNL     1     135.175 184.697 191.532  1.00  0.00    -0.010 CG0
ATOM     11  C   UNL     1     135.276 183.441 192.429  1.00  0.00     0.016 C 
ATOM     12  C   UNL     1     133.961 185.526 192.013  1.00  0.00     0.016 C 
ATOM     13  G   UNL     1     134.960 184.351 190.042  1.00  0.00     0.000 G0
ENDBRANCH   9  10
ENDBRANCH   3   8
TORSDOF 0
ENDMDL
MODEL 4
REMARK VINA RESULT:    -3.062      1.598      2.717
REMARK INTER + INTRA:          -2.930
REMARK INTER:                  -3.787
REMARK INTRA:                   0.857
REMARK UNBOUND:                 0.849
REMARK SMILES CC1=CC=CC(C)(C)CC1=O
REMARK SMILES IDX 1 1 2 2 3 3 10 4 11 5 9 6 4 8 5 9 6 10 7 11 8 12
REMARK H PARENT
REMARK Flexibility Score: 80.00
ROOT
ATOM      1  C   UNL     1     138.974 186.636 190.862  1.00  0.00     0.048 C 
ATOM      2  C   UNL     1     137.599 186.035 191.032  1.00  0.00    -0.008 C 
ATOM      3  C   UNL     1     136.639 186.802 191.590  1.00  0.00     0.007 C 
ENDROOT
BRANCH   2   4
ATOM      4  C   UNL     1     137.405 184.654 190.513  1.00  0.00     0.159 C 
ATOM      5  O   UNL     1     138.407 184.033 190.061  1.00  0.00    -0.295 OA
BRANCH   4   6
ATOM      6  C   UNL     1     136.079 183.956 190.455  1.00  0.00     0.091 CG0
ATOM      7  G   UNL     1     135.320 183.940 191.801  1.00  0.00     0.000 G0
ENDBRANCH   4   6
ENDBRANCH   2   4
BRANCH   3   8
ATOM      8  C   UNL     1     135.225 186.483 191.888  1.00  0.00    -0.003 C 
ATOM      9  C   UNL     1     134.648 185.281 192.008  1.00  0.00    -0.020 C 
BRANCH   9  10
ATOM     10  C   UNL     1     135.320 183.945 191.793  1.00  0.00    -0.010 CG0
ATOM     11  C   UNL     1     136.233 183.604 192.993  1.00  0.00     0.016 C 
ATOM     12  C   UNL     1     134.222 182.860 191.707  1.00  0.00     0.016 C 
ATOM     13  G   UNL     1     136.083 183.965 190.449  1.00  0.00     0.000 G0
ENDBRANCH   9  10
ENDBRANCH   3   8
TORSDOF 0
ENDMDL
MODEL 5
REMARK VINA RESULT:    -3.048      1.138      1.463
REMARK INTER + INTRA:          -2.912
REMARK INTER:                  -3.757
REMARK INTRA:                   0.845
REMARK UNBOUND:                 0.849
REMARK SMILES CC1=CC=CC(C)(C)CC1=O
REMARK SMILES IDX 1 1 2 2 3 3 10 4 11 5 9 6 4 8 5 9 6 10 7 11 8 12
REMARK H PARENT
REMARK Flexibility Score: 80.00
ROOT
ATOM      1  C   UNL     1     136.154 181.747 188.239  1.00  0.00     0.048 C 
ATOM      2  C   UNL     1     136.403 182.868 189.221  1.00  0.00    -0.008 C 
ATOM      3  C   UNL     1     137.684 183.214 189.472  1.00  0.00     0.007 C 
ENDROOT
BRANCH   2   4
ATOM      4  C   UNL     1     135.203 183.537 189.791  1.00  0.00     0.159 C 
ATOM      5  O   UNL     1     134.063 183.087 189.492  1.00  0.00    -0.295 OA
BRANCH   4   6
ATOM      6  C   UNL     1     135.255 184.746 190.676  1.00  0.00     0.091 CG0
ATOM      7  G   UNL     1     136.212 184.602 191.880  1.00  0.00     0.000 G0
ENDBRANCH   4   6
ENDBRANCH   2   4
BRANCH   3   8
ATOM      8  C   UNL     1     138.225 184.250 190.381  1.00  0.00    -0.003 C 
ATOM      9  C   UNL     1     137.629 184.838 191.425  1.00  0.00    -0.020 C 
BRANCH   9  10
ATOM     10  C   UNL     1     136.205 184.617 191.877  1.00  0.00    -0.010 CG0
ATOM     11  C   UNL     1     136.078 183.258 192.604  1.00  0.00     0.016 C 
ATOM     12  C   UNL     1     135.840 185.731 192.886  1.00  0.00     0.016 C 
ATOM     13  G   UNL     1     135.256 184.737 190.665  1.00  0.00     0.000 G0
ENDBRANCH   9  10
ENDBRANCH   3   8
TORSDOF 0
ENDMDL
MODEL 6
REMARK VINA RESULT:    -3.003      1.791      3.453
REMARK INTER + INTRA:          -2.857
REMARK INTER:                  -3.725
REMARK INTRA:                   0.868
REMARK UNBOUND:                 0.849
REMARK SMILES CC1=CC=CC(C)(C)CC1=O
REMARK SMILES IDX 1 1 2 2 3 3 10 4 11 5 9 6 4 8 5 9 6 10 7 11 8 12
REMARK H PARENT
REMARK Flexibility Score: 80.00
ROOT
ATOM      1  C   UNL     1     137.663 186.997 191.012  1.00  0.00     0.048 C 
ATOM      2  C   UNL     1     137.124 185.596 190.841  1.00  0.00    -0.008 C 
ATOM      3  C   UNL     1     137.948 184.664 190.317  1.00  0.00     0.007 C 
ENDROOT
BRANCH   2   4
ATOM      4  C   UNL     1     135.737 185.350 191.320  1.00  0.00     0.159 C 
ATOM      5  O   UNL     1     135.061 186.329 191.739  1.00  0.00    -0.295 OA
BRANCH   4   6
ATOM      6  C   UNL     1     135.095 183.996 191.375  1.00  0.00     0.091 CG0
ATOM      7  G   UNL     1     135.141 183.225 190.037  1.00  0.00     0.000 G0
ENDBRANCH   4   6
ENDBRANCH   2   4
BRANCH   3   8
ATOM      8  C   UNL     1     137.697 183.234 190.026  1.00  0.00    -0.003 C 
ATOM      9  C   UNL     1     136.524 182.606 189.875  1.00  0.00    -0.020 C 
BRANCH   9  10
ATOM     10  C   UNL     1     135.156 183.225 190.040  1.00  0.00    -0.010 CG0
ATOM     11  C   UNL     1     134.821 184.119 188.825  1.00  0.00     0.016 C 
ATOM     12  C   UNL     1     134.113 182.084 190.091  1.00  0.00     0.016 C 
ATOM     13  G   UNL     1     135.096 183.991 191.380  1.00  0.00     0.000 G0
ENDBRANCH   9  10
ENDBRANCH   3   8
TORSDOF 0
ENDMDL
MODEL 7
REMARK VINA RESULT:    -2.951      1.961      3.095
REMARK INTER + INTRA:          -2.792
REMARK INTER:                  -3.637
REMARK INTRA:                   0.845
REMARK UNBOUND:                 0.849
REMARK SMILES CC1=CC=CC(C)(C)CC1=O
REMARK SMILES IDX 1 1 2 2 3 3 10 4 11 5 9 6 4 8 5 9 6 10 7 11 8 12
REMARK H PARENT
REMARK Flexibility Score: 80.00
ROOT
ATOM      1  C   UNL     1     138.945 186.421 190.740  1.00  0.00     0.048 C 
ATOM      2  C   UNL     1     138.098 185.274 191.238  1.00  0.00    -0.008 C 
ATOM      3  C   UNL     1     137.650 184.380 190.331  1.00  0.00     0.007 C 
ENDROOT
BRANCH   2   4
ATOM      4  C   UNL     1     137.874 185.197 192.707  1.00  0.00     0.159 C 
ATOM      5  O   UNL     1     138.290 186.143 193.431  1.00  0.00    -0.295 OA
BRANCH   4   6
ATOM      6  C   UNL     1     137.214 184.041 193.398  1.00  0.00     0.091 CG0
ATOM      7  G   UNL     1     135.831 183.670 192.818  1.00  0.00     0.000 G0
ENDBRANCH   4   6
ENDBRANCH   2   4
BRANCH   3   8
ATOM      8  C   UNL     1     136.804 183.180 190.522  1.00  0.00    -0.003 C 
ATOM      9  C   UNL     1     136.005 182.877 191.552  1.00  0.00    -0.020 C 
BRANCH   9  10
ATOM     10  C   UNL     1     135.837 183.686 192.816  1.00  0.00    -0.010 CG0
ATOM     11  C   UNL     1     134.955 184.927 192.547  1.00  0.00     0.016 C 
ATOM     12  C   UNL     1     135.111 182.806 193.861  1.00  0.00     0.016 C 
ATOM     13  G   UNL     1     137.228 184.053 193.380  1.00  0.00     0.000 G0
ENDBRANCH   9  10
ENDBRANCH   3   8
TORSDOF 0
ENDMDL
MODEL 8
REMARK VINA RESULT:    -2.884      1.785      3.714
REMARK INTER + INTRA:          -2.710
REMARK INTER:                  -3.579
REMARK INTRA:                   0.869
REMARK UNBOUND:                 0.849
REMARK SMILES CC1=CC=CC(C)(C)CC1=O
REMARK SMILES IDX 1 1 2 2 3 3 10 4 11 5 9 6 4 8 5 9 6 10 7 11 8 12
REMARK H PARENT
REMARK Flexibility Score: 80.00
ROOT
ATOM      1  C   UNL     1     134.194 186.168 192.356  1.00  0.00     0.048 C 
ATOM      2  C   UNL     1     135.138 185.181 191.710  1.00  0.00    -0.008 C 
ATOM      3  C   UNL     1     136.378 185.610 191.390  1.00  0.00     0.007 C 
ENDROOT
BRANCH   2   4
ATOM      4  C   UNL     1     134.633 183.793 191.531  1.00  0.00     0.159 C 
ATOM      5  O   UNL     1     133.430 183.547 191.818  1.00  0.00    -0.295 OA
BRANCH   4   6
ATOM      6  C   UNL     1     135.477 182.646 191.062  1.00  0.00     0.091 CG0
ATOM      7  G   UNL     1     136.229 182.919 189.740  1.00  0.00     0.000 G0
ENDBRANCH   4   6
ENDBRANCH   2   4
BRANCH   3   8
ATOM      8  C   UNL     1     137.495 184.883 190.748  1.00  0.00    -0.003 C 
ATOM      9  C   UNL     1     137.452 183.760 190.020  1.00  0.00    -0.020 C 
BRANCH   9  10
ATOM     10  C   UNL     1     136.223 182.926 189.743  1.00  0.00    -0.010 CG0
ATOM     11  C   UNL     1     135.326 183.625 188.696  1.00  0.00     0.016 C 
ATOM     12  C   UNL     1     136.681 181.574 189.148  1.00  0.00     0.016 C 
ATOM     13  G   UNL     1     135.484 182.642 191.069  1.00  0.00     0.000 G0
ENDBRANCH   9  10
ENDBRANCH   3   8
TORSDOF 0
ENDMDL
MODEL 9
REMARK VINA RESULT:    -2.764      2.134      3.917
REMARK INTER + INTRA:          -2.562
REMARK INTER:                  -3.413
REMARK INTRA:                   0.851
REMARK UNBOUND:                 0.849
REMARK SMILES CC1=CC=CC(C)(C)CC1=O
REMARK SMILES IDX 1 1 2 2 3 3 10 4 11 5 9 6 4 8 5 9 6 10 7 11 8 12
REMARK H PARENT
REMARK Flexibility Score: 80.00
ROOT
ATOM      1  C   UNL     1     137.458 186.246 195.522  1.00  0.00     0.048 C 
ATOM      2  C   UNL     1     136.708 186.081 194.222  1.00  0.00    -0.008 C 
ATOM      3  C   UNL     1     135.360 186.008 194.276  1.00  0.00     0.007 C 
ENDROOT
BRANCH   2   4
ATOM      4  C   UNL     1     137.522 186.069 192.977  1.00  0.00     0.159 C 
ATOM      5  O   UNL     1     138.779 186.112 193.078  1.00  0.00    -0.295 OA
BRANCH   4   6
ATOM      6  C   UNL     1     136.942 186.047 191.594  1.00  0.00     0.091 CG0
ATOM      7  G   UNL     1     135.904 184.926 191.367  1.00  0.00     0.000 G0
ENDBRANCH   4   6
ENDBRANCH   2   4
BRANCH   3   8
ATOM      8  C   UNL     1     134.376 185.837 193.184  1.00  0.00    -0.003 C 
ATOM      9  C   UNL     1     134.573 185.354 191.951  1.00  0.00    -0.020 C 
BRANCH   9  10
ATOM     10  C   UNL     1     135.897 184.926 191.363  1.00  0.00    -0.010 CG0
ATOM     11  C   UNL     1     136.329 183.563 191.950  1.00  0.00     0.016 C 
ATOM     12  C   UNL     1     135.714 184.750 189.838  1.00  0.00     0.016 C 
ATOM     13  G   UNL     1     136.945 186.036 191.597  1.00  0.00     0.000 G0
ENDBRANCH   9  10
ENDBRANCH   3   8
TORSDOF 0
ENDMDL
