MODEL 1
REMARK VINA RESULT:    -3.571      0.000      0.000
REMARK INTER + INTRA:          -5.284
REMARK INTER:                  -4.823
REMARK INTRA:                  -0.461
REMARK UNBOUND:                -0.461
REMARK SMILES CCCCCCCC(=O)[O-]
REMARK SMILES IDX 5 1 6 2 7 3 8 4 9 5 10 6 4 7 3 8 2 9 1 10
REMARK H PARENT
REMARK Flexibility Score: inf
ROOT
ATOM      1  C   UNL     1     104.818  11.251  15.005  1.00  0.00     0.000 C 
ENDROOT
BRANCH   1   2
ATOM      2  C   UNL     1     103.772  12.197  15.614  1.00  0.00     0.006 C 
BRANCH   2   3
ATOM      3  C   UNL     1     103.092  11.602  16.855  1.00  0.00     0.053 C 
BRANCH   3   4
ATOM      4  C   UNL     1     101.794  10.961  16.482  1.00  0.00     0.041 C 
ATOM      5  O   UNL     1     101.200  11.300  15.424  1.00  0.00    -0.550 OA
ATOM      6  O   UNL     1     101.212  10.024  17.326  1.00  0.00    -0.550 OA
ENDBRANCH   3   4
ENDBRANCH   2   3
ENDBRANCH   1   2
BRANCH   1   7
ATOM      7  C   UNL     1     106.258  11.640  15.383  1.00  0.00     0.000 C 
BRANCH   7   8
ATOM      8  C   UNL     1     106.909  10.643  16.359  1.00  0.00    -0.000 C 
BRANCH   8   9
ATOM      9  C   UNL     1     107.359  11.254  17.698  1.00  0.00    -0.003 C 
ATOM     10  C   UNL     1     106.598  12.529  18.059  1.00  0.00     0.004 C 
ENDBRANCH   8   9
ENDBRANCH   7   8
ENDBRANCH   1   7
TORSDOF 6
ENDMDL
MODEL 2
REMARK VINA RESULT:    -3.521     11.357     13.173
REMARK INTER + INTRA:          -5.216
REMARK INTER:                  -4.535
REMARK INTRA:                  -0.681
REMARK UNBOUND:                -0.461
REMARK SMILES CCCCCCCC(=O)[O-]
REMARK SMILES IDX 5 1 6 2 7 3 8 4 9 5 10 6 4 7 3 8 2 9 1 10
REMARK H PARENT
REMARK Flexibility Score: inf
ROOT
ATOM      1  C   UNL     1      95.720   6.488  24.840  1.00  0.00     0.000 C 
ENDROOT
BRANCH   1   2
ATOM      2  C   UNL     1      95.438   5.217  25.657  1.00  0.00     0.006 C 
BRANCH   2   3
ATOM      3  C   UNL     1      96.716   4.441  26.001  1.00  0.00     0.053 C 
BRANCH   3   4
ATOM      4  C   UNL     1      96.819   3.207  25.163  1.00  0.00     0.041 C 
ATOM      5  O   UNL     1      97.799   2.428  25.299  1.00  0.00    -0.550 OA
ATOM      6  O   UNL     1      95.859   2.941  24.195  1.00  0.00    -0.550 OA
ENDBRANCH   3   4
ENDBRANCH   2   3
ENDBRANCH   1   2
BRANCH   1   7
ATOM      7  C   UNL     1      95.213   6.385  23.392  1.00  0.00     0.000 C 
BRANCH   7   8
ATOM      8  C   UNL     1      96.311   5.950  22.404  1.00  0.00    -0.000 C 
BRANCH   8   9
ATOM      9  C   UNL     1      97.735   6.386  22.793  1.00  0.00    -0.003 C 
ATOM     10  C   UNL     1      98.734   5.230  22.795  1.00  0.00     0.004 C 
ENDBRANCH   8   9
ENDBRANCH   7   8
ENDBRANCH   1   7
TORSDOF 6
ENDMDL
MODEL 3
REMARK VINA RESULT:    -3.422     11.585     13.594
REMARK INTER + INTRA:          -5.083
REMARK INTER:                  -4.615
REMARK INTRA:                  -0.468
REMARK UNBOUND:                -0.461
REMARK SMILES CCCCCCCC(=O)[O-]
REMARK SMILES IDX 5 1 6 2 7 3 8 4 9 5 10 6 4 7 3 8 2 9 1 10
REMARK H PARENT
REMARK Flexibility Score: inf
ROOT
ATOM      1  C   UNL     1      98.014   1.482  24.425  1.00  0.00     0.000 C 
ENDROOT
BRANCH   1   2
ATOM      2  C   UNL     1      99.354   1.647  25.160  1.00  0.00     0.006 C 
BRANCH   2   3
ATOM      3  C   UNL     1      99.979   3.031  24.942  1.00  0.00     0.053 C 
BRANCH   3   4
ATOM      4  C   UNL     1     100.218   3.274  23.486  1.00  0.00     0.041 C 
ATOM      5  O   UNL     1     101.073   2.592  22.862  1.00  0.00    -0.550 OA
ATOM      6  O   UNL     1      99.532   4.286  22.828  1.00  0.00    -0.550 OA
ENDBRANCH   3   4
ENDBRANCH   2   3
ENDBRANCH   1   2
BRANCH   1   7
ATOM      7  C   UNL     1      96.898   2.351  25.030  1.00  0.00     0.000 C 
BRANCH   7   8
ATOM      8  C   UNL     1      96.148   3.180  23.972  1.00  0.00    -0.000 C 
BRANCH   8   9
ATOM      9  C   UNL     1      96.185   4.702  24.201  1.00  0.00    -0.003 C 
ATOM     10  C   UNL     1      95.541   5.124  25.521  1.00  0.00     0.004 C 
ENDBRANCH   8   9
ENDBRANCH   7   8
ENDBRANCH   1   7
TORSDOF 6
ENDMDL
MODEL 4
REMARK VINA RESULT:    -3.418     11.402     12.878
REMARK INTER + INTRA:          -5.078
REMARK INTER:                  -4.414
REMARK INTRA:                  -0.665
REMARK UNBOUND:                -0.461
REMARK SMILES CCCCCCCC(=O)[O-]
REMARK SMILES IDX 5 1 6 2 7 3 8 4 9 5 10 6 4 7 3 8 2 9 1 10
REMARK H PARENT
REMARK Flexibility Score: inf
ROOT
ATOM      1  C   UNL     1      98.727   5.230  22.837  1.00  0.00     0.000 C 
ENDROOT
BRANCH   1   2
ATOM      2  C   UNL     1      98.906   4.437  24.141  1.00  0.00     0.006 C 
BRANCH   2   3
ATOM      3  C   UNL     1      98.412   2.989  24.023  1.00  0.00     0.053 C 
BRANCH   3   4
ATOM      4  C   UNL     1      97.028   2.862  24.576  1.00  0.00     0.041 C 
ATOM      5  O   UNL     1      96.818   3.042  25.805  1.00  0.00    -0.550 OA
ATOM      6  O   UNL     1      95.977   2.497  23.745  1.00  0.00    -0.550 OA
ENDBRANCH   3   4
ENDBRANCH   2   3
ENDBRANCH   1   2
BRANCH   1   7
ATOM      7  C   UNL     1      97.692   6.360  22.969  1.00  0.00     0.000 C 
BRANCH   7   8
ATOM      8  C   UNL     1      96.265   5.906  22.615  1.00  0.00    -0.000 C 
BRANCH   8   9
ATOM      9  C   UNL     1      95.222   6.134  23.724  1.00  0.00    -0.003 C 
ATOM     10  C   UNL     1      95.851   6.435  25.083  1.00  0.00     0.004 C 
ENDBRANCH   8   9
ENDBRANCH   7   8
ENDBRANCH   1   7
TORSDOF 6
ENDMDL
MODEL 5
REMARK VINA RESULT:    -3.416     10.663     12.858
REMARK INTER + INTRA:          -5.075
REMARK INTER:                  -4.447
REMARK INTRA:                  -0.627
REMARK UNBOUND:                -0.461
REMARK SMILES CCCCCCCC(=O)[O-]
REMARK SMILES IDX 5 1 6 2 7 3 8 4 9 5 10 6 4 7 3 8 2 9 1 10
REMARK H PARENT
REMARK Flexibility Score: inf
ROOT
ATOM      1  C   UNL     1      95.678   6.533  24.815  1.00  0.00     0.000 C 
ENDROOT
BRANCH   1   2
ATOM      2  C   UNL     1      95.188   6.702  23.369  1.00  0.00     0.006 C 
BRANCH   2   3
ATOM      3  C   UNL     1      96.101   6.003  22.352  1.00  0.00     0.053 C 
BRANCH   3   4
ATOM      4  C   UNL     1      97.523   6.420  22.553  1.00  0.00     0.041 C 
ATOM      5  O   UNL     1      97.872   7.609  22.333  1.00  0.00    -0.550 OA
ATOM      6  O   UNL     1      98.475   5.485  22.939  1.00  0.00    -0.550 OA
ENDBRANCH   3   4
ENDBRANCH   2   3
ENDBRANCH   1   2
BRANCH   1   7
ATOM      7  C   UNL     1      95.419   5.120  25.366  1.00  0.00     0.000 C 
BRANCH   7   8
ATOM      8  C   UNL     1      96.699   4.438  25.883  1.00  0.00    -0.000 C 
BRANCH   8   9
ATOM      9  C   UNL     1      96.951   3.029  25.317  1.00  0.00    -0.003 C 
ATOM     10  C   UNL     1      96.124   2.730  24.068  1.00  0.00     0.004 C 
ENDBRANCH   8   9
ENDBRANCH   7   8
ENDBRANCH   1   7
TORSDOF 6
ENDMDL
MODEL 6
REMARK VINA RESULT:    -3.412     11.723     12.911
REMARK INTER + INTRA:          -5.069
REMARK INTER:                  -4.434
REMARK INTRA:                  -0.635
REMARK UNBOUND:                -0.461
REMARK SMILES CCCCCCCC(=O)[O-]
REMARK SMILES IDX 5 1 6 2 7 3 8 4 9 5 10 6 4 7 3 8 2 9 1 10
REMARK H PARENT
REMARK Flexibility Score: inf
ROOT
ATOM      1  C   UNL     1      99.078   4.523  23.048  1.00  0.00     0.000 C 
ENDROOT
BRANCH   1   2
ATOM      2  C   UNL     1      98.059   4.964  24.110  1.00  0.00     0.006 C 
BRANCH   2   3
ATOM      3  C   UNL     1      96.638   4.470  23.805  1.00  0.00     0.053 C 
BRANCH   3   4
ATOM      4  C   UNL     1      96.428   3.101  24.368  1.00  0.00     0.041 C 
ATOM      5  O   UNL     1      96.012   2.170  23.632  1.00  0.00    -0.550 OA
ATOM      6  O   UNL     1      96.646   2.864  25.720  1.00  0.00    -0.550 OA
ENDBRANCH   3   4
ENDBRANCH   2   3
ENDBRANCH   1   2
BRANCH   1   7
ATOM      7  C   UNL     1     100.229   3.694  23.641  1.00  0.00     0.000 C 
BRANCH   7   8
ATOM      8  C   UNL     1      99.933   2.183  23.652  1.00  0.00    -0.000 C 
BRANCH   8   9
ATOM      9  C   UNL     1      99.840   1.556  25.055  1.00  0.00    -0.003 C 
ATOM     10  C   UNL     1     100.134   2.552  26.176  1.00  0.00     0.004 C 
ENDBRANCH   8   9
ENDBRANCH   7   8
ENDBRANCH   1   7
TORSDOF 6
ENDMDL
MODEL 7
REMARK VINA RESULT:    -3.386     10.576     12.408
REMARK INTER + INTRA:          -5.034
REMARK INTER:                  -4.615
REMARK INTRA:                  -0.420
REMARK UNBOUND:                -0.461
REMARK SMILES CCCCCCCC(=O)[O-]
REMARK SMILES IDX 5 1 6 2 7 3 8 4 9 5 10 6 4 7 3 8 2 9 1 10
REMARK H PARENT
REMARK Flexibility Score: inf
ROOT
ATOM      1  C   UNL     1      97.477   6.407  22.167  1.00  0.00     0.000 C 
ENDROOT
BRANCH   1   2
ATOM      2  C   UNL     1      98.772   5.611  22.394  1.00  0.00     0.006 C 
BRANCH   2   3
ATOM      3  C   UNL     1      98.774   4.859  23.732  1.00  0.00     0.053 C 
BRANCH   3   4
ATOM      4  C   UNL     1      99.268   3.461  23.544  1.00  0.00     0.041 C 
ATOM      5  O   UNL     1      98.614   2.490  24.007  1.00  0.00    -0.550 OA
ATOM      6  O   UNL     1     100.477   3.230  22.901  1.00  0.00    -0.550 OA
ENDBRANCH   3   4
ENDBRANCH   2   3
ENDBRANCH   1   2
BRANCH   1   7
ATOM      7  C   UNL     1      96.230   5.666  22.679  1.00  0.00     0.000 C 
BRANCH   7   8
ATOM      8  C   UNL     1      95.289   6.573  23.492  1.00  0.00    -0.000 C 
BRANCH   8   9
ATOM      9  C   UNL     1      95.672   6.733  24.974  1.00  0.00    -0.003 C 
ATOM     10  C   UNL     1      95.400   5.478  25.801  1.00  0.00     0.004 C 
ENDBRANCH   8   9
ENDBRANCH   7   8
ENDBRANCH   1   7
TORSDOF 6
ENDMDL
MODEL 8
REMARK VINA RESULT:    -3.382     11.690     13.803
REMARK INTER + INTRA:          -5.029
REMARK INTER:                  -4.430
REMARK INTRA:                  -0.599
REMARK UNBOUND:                -0.461
REMARK SMILES CCCCCCCC(=O)[O-]
REMARK SMILES IDX 5 1 6 2 7 3 8 4 9 5 10 6 4 7 3 8 2 9 1 10
REMARK H PARENT
REMARK Flexibility Score: inf
ROOT
ATOM      1  C   UNL     1      96.766   5.136  26.210  1.00  0.00     0.000 C 
ENDROOT
BRANCH   1   2
ATOM      2  C   UNL     1      97.193   3.661  26.224  1.00  0.00     0.006 C 
BRANCH   2   3
ATOM      3  C   UNL     1      97.981   3.263  24.968  1.00  0.00     0.053 C 
BRANCH   3   4
ATOM      4  C   UNL     1      97.296   2.141  24.256  1.00  0.00     0.041 C 
ATOM      5  O   UNL     1      97.918   1.075  24.006  1.00  0.00    -0.550 OA
ATOM      6  O   UNL     1      95.985   2.288  23.824  1.00  0.00    -0.550 OA
ENDBRANCH   3   4
ENDBRANCH   2   3
ENDBRANCH   1   2
BRANCH   1   7
ATOM      7  C   UNL     1      95.408   5.352  25.520  1.00  0.00     0.000 C 
BRANCH   7   8
ATOM      8  C   UNL     1      95.488   6.337  24.340  1.00  0.00    -0.000 C 
BRANCH   8   9
ATOM      9  C   UNL     1      95.920   5.706  23.004  1.00  0.00    -0.003 C 
ATOM     10  C   UNL     1      97.346   6.076  22.601  1.00  0.00     0.004 C 
ENDBRANCH   8   9
ENDBRANCH   7   8
ENDBRANCH   1   7
TORSDOF 6
ENDMDL
MODEL 9
REMARK VINA RESULT:    -3.329     11.616     13.204
REMARK INTER + INTRA:          -4.957
REMARK INTER:                  -4.543
REMARK INTRA:                  -0.414
REMARK UNBOUND:                -0.461
REMARK SMILES CCCCCCCC(=O)[O-]
REMARK SMILES IDX 5 1 6 2 7 3 8 4 9 5 10 6 4 7 3 8 2 9 1 10
REMARK H PARENT
REMARK Flexibility Score: inf
ROOT
ATOM      1  C   UNL     1      99.040   4.876  22.950  1.00  0.00     0.000 C 
ENDROOT
BRANCH   1   2
ATOM      2  C   UNL     1      99.794   4.026  23.984  1.00  0.00     0.006 C 
BRANCH   2   3
ATOM      3  C   UNL     1     100.147   2.629  23.454  1.00  0.00     0.053 C 
BRANCH   3   4
ATOM      4  C   UNL     1      99.316   1.588  24.134  1.00  0.00     0.041 C 
ATOM      5  O   UNL     1      98.812   1.818  25.264  1.00  0.00    -0.550 OA
ATOM      6  O   UNL     1      99.138   0.344  23.542  1.00  0.00    -0.550 OA
ENDBRANCH   3   4
ENDBRANCH   2   3
ENDBRANCH   1   2
BRANCH   1   7
ATOM      7  C   UNL     1      97.740   5.476  23.513  1.00  0.00     0.000 C 
BRANCH   7   8
ATOM      8  C   UNL     1      96.622   4.430  23.676  1.00  0.00    -0.000 C 
BRANCH   8   9
ATOM      9  C   UNL     1      96.139   4.223  25.122  1.00  0.00    -0.003 C 
ATOM     10  C   UNL     1      95.384   5.430  25.678  1.00  0.00     0.004 C 
ENDBRANCH   8   9
ENDBRANCH   7   8
ENDBRANCH   1   7
TORSDOF 6
ENDMDL
