MODEL 1
REMARK VINA RESULT:    -2.274      0.000      0.000
REMARK INTER + INTRA:          -3.771
REMARK INTER:                  -3.471
REMARK INTRA:                  -0.300
REMARK UNBOUND:                -0.300
REMARK SMILES CC1=CCC[C@@H](C)C(=O)C[C@H](C(C)C)C(=O)C1
REMARK SMILES IDX 8 1 9 2 6 3 7 4 5 5 4 6 3 7 2 8 1 9 10 11 11 12 15 13 16 14
REMARK SMILES IDX 17 15 12 17 13 18 14 19
REMARK H PARENT
REMARK Flexibility Score: 70.00
ROOT
ATOM      1  C   UNL     1      64.243  15.819  -0.876  1.00  0.00     0.136 C 
ATOM      2  O   UNL     1      64.849  16.878  -0.965  1.00  0.00    -0.299 OA
ENDROOT
BRANCH   1   3
ATOM      3  C   UNL     1      63.122  15.495  -1.849  1.00  0.00     0.053 C 
ATOM      4  C   UNL     1      61.748  15.946  -1.331  1.00  0.00     0.016 C 
BRANCH   3   5
ATOM      5  C   UNL     1      63.124  14.001  -2.232  1.00  0.00     0.015 C 
BRANCH   5   6
ATOM      6  C   UNL     1      61.828  13.261  -1.845  1.00  0.00     0.028 C 
BRANCH   6   7
ATOM      7  C   UNL     1      62.139  11.971  -1.132  1.00  0.00    -0.028 C 
ATOM      8  C   UNL     1      62.211  11.832   0.213  1.00  0.00    -0.070 CG0
ATOM      9  C   UNL     1      62.582  10.479   0.766  1.00  0.00     0.039 C 
ATOM     10  G   UNL     1      61.913  12.967   1.183  1.00  0.00     0.000 G0
ENDBRANCH   6   7
ENDBRANCH   5   6
ENDBRANCH   3   5
ENDBRANCH   1   3
BRANCH   1  11
ATOM     11  C   UNL     1      64.618  14.850   0.220  1.00  0.00     0.087 C 
BRANCH  11  12
ATOM     12  C   UNL     1      63.645  14.928   1.427  1.00  0.00     0.066 C 
BRANCH  12  13
ATOM     13  C   UNL     1      63.147  13.547   1.823  1.00  0.00     0.140 C 
ATOM     14  O   UNL     1      63.722  12.920   2.702  1.00  0.00    -0.299 OA
BRANCH  13  15
ATOM     15  C   UNL     1      61.898  12.967   1.201  1.00  0.00     0.106 CG0
ATOM     16  G   UNL     1      62.205  11.850   0.215  1.00  0.00     0.000 G0
ENDBRANCH  13  15
ENDBRANCH  12  13
BRANCH  12  17
ATOM     17  C   UNL     1      64.248  15.674   2.662  1.00  0.00    -0.006 C 
ATOM     18  C   UNL     1      65.774  15.865   2.598  1.00  0.00     0.008 C 
ATOM     19  C   UNL     1      63.563  17.031   2.889  1.00  0.00     0.008 C 
ENDBRANCH  12  17
ENDBRANCH  11  12
ENDBRANCH   1  11
TORSDOF 1
ENDMDL
MODEL 2
REMARK VINA RESULT:    -2.262      3.399      4.970
REMARK INTER + INTRA:          -3.753
REMARK INTER:                  -3.672
REMARK INTRA:                  -0.081
REMARK UNBOUND:                -0.300
REMARK SMILES CC1=CCC[C@@H](C)C(=O)C[C@H](C(C)C)C(=O)C1
REMARK SMILES IDX 8 1 9 2 6 3 7 4 5 5 4 6 3 7 2 8 1 9 10 11 11 12 15 13 16 14
REMARK SMILES IDX 17 15 12 17 13 18 14 19
REMARK H PARENT
REMARK Flexibility Score: 70.00
ROOT
ATOM      1  C   UNL     1      61.288  16.913   0.284  1.00  0.00     0.136 C 
ATOM      2  O   UNL     1      62.322  16.861   0.936  1.00  0.00    -0.299 OA
ENDROOT
BRANCH   1   3
ATOM      3  C   UNL     1      60.209  17.921   0.640  1.00  0.00     0.053 C 
ATOM      4  C   UNL     1      60.514  19.324   0.092  1.00  0.00     0.016 C 
BRANCH   3   5
ATOM      5  C   UNL     1      59.946  17.949   2.160  1.00  0.00     0.015 C 
BRANCH   5   6
ATOM      6  C   UNL     1      59.368  16.632   2.714  1.00  0.00     0.028 C 
BRANCH   6   7
ATOM      7  C   UNL     1      58.183  16.182   1.900  1.00  0.00    -0.028 C 
ATOM      8  C   UNL     1      58.127  15.029   1.192  1.00  0.00    -0.070 CG0
ATOM      9  C   UNL     1      56.882  14.750   0.390  1.00  0.00     0.039 C 
ATOM     10  G   UNL     1      59.249  14.000   1.192  1.00  0.00     0.000 G0
ENDBRANCH   6   7
ENDBRANCH   5   6
ENDBRANCH   3   5
ENDBRANCH   1   3
BRANCH   1  11
ATOM     11  C   UNL     1      61.100  15.955  -0.868  1.00  0.00     0.087 C 
BRANCH  11  12
ATOM     12  C   UNL     1      61.268  14.475  -0.431  1.00  0.00     0.066 C 
BRANCH  12  13
ATOM     13  C   UNL     1      59.922  13.828  -0.148  1.00  0.00     0.140 C 
ATOM     14  O   UNL     1      59.393  13.125  -0.997  1.00  0.00    -0.299 OA
BRANCH  13  15
ATOM     15  C   UNL     1      59.262  13.975   1.203  1.00  0.00     0.106 CG0
ATOM     16  G   UNL     1      58.143  15.006   1.195  1.00  0.00     0.000 G0
ENDBRANCH  13  15
ENDBRANCH  12  13
BRANCH  12  17
ATOM     17  C   UNL     1      62.091  13.618  -1.447  1.00  0.00    -0.006 C 
ATOM     18  C   UNL     1      63.081  14.433  -2.300  1.00  0.00     0.008 C 
ATOM     19  C   UNL     1      62.833  12.470  -0.744  1.00  0.00     0.008 C 
ENDBRANCH  12  17
ENDBRANCH  11  12
ENDBRANCH   1  11
TORSDOF 1
ENDMDL
MODEL 3
REMARK VINA RESULT:    -2.252      2.401      4.366
REMARK INTER + INTRA:          -3.737
REMARK INTER:                  -3.538
REMARK INTRA:                  -0.199
REMARK UNBOUND:                -0.300
REMARK SMILES CC1=CCC[C@@H](C)C(=O)C[C@H](C(C)C)C(=O)C1
REMARK SMILES IDX 8 1 9 2 6 3 7 4 5 5 4 6 3 7 2 8 1 9 10 11 11 12 15 13 16 14
REMARK SMILES IDX 17 15 12 17 13 18 14 19
REMARK H PARENT
REMARK Flexibility Score: 70.00
ROOT
ATOM      1  C   UNL     1      62.682  13.683  -1.370  1.00  0.00     0.136 C 
ATOM      2  O   UNL     1      63.506  12.806  -1.588  1.00  0.00    -0.299 OA
ENDROOT
BRANCH   1   3
ATOM      3  C   UNL     1      62.920  15.098  -1.868  1.00  0.00     0.053 C 
ATOM      4  C   UNL     1      63.151  15.153  -3.386  1.00  0.00     0.016 C 
BRANCH   3   5
ATOM      5  C   UNL     1      64.067  15.781  -1.094  1.00  0.00     0.015 C 
BRANCH   5   6
ATOM      6  C   UNL     1      63.700  16.153   0.357  1.00  0.00     0.028 C 
BRANCH   6   7
ATOM      7  C   UNL     1      62.465  17.015   0.394  1.00  0.00    -0.028 C 
ATOM      8  C   UNL     1      61.390  16.787   1.184  1.00  0.00    -0.070 CG0
ATOM      9  C   UNL     1      60.213  17.722   1.064  1.00  0.00     0.039 C 
ATOM     10  G   UNL     1      61.328  15.652   2.195  1.00  0.00     0.000 G0
ENDBRANCH   6   7
ENDBRANCH   5   6
ENDBRANCH   3   5
ENDBRANCH   1   3
BRANCH   1  11
ATOM     11  C   UNL     1      61.436  13.339  -0.589  1.00  0.00     0.087 C 
BRANCH  11  12
ATOM     12  C   UNL     1      61.676  13.379   0.944  1.00  0.00     0.066 C 
BRANCH  12  13
ATOM     13  C   UNL     1      60.765  14.394   1.617  1.00  0.00     0.140 C 
ATOM     14  O   UNL     1      59.574  14.149   1.750  1.00  0.00    -0.299 OA
BRANCH  13  15
ATOM     15  C   UNL     1      61.325  15.670   2.200  1.00  0.00     0.106 CG0
ATOM     16  G   UNL     1      61.395  16.795   1.176  1.00  0.00     0.000 G0
ENDBRANCH  13  15
ENDBRANCH  12  13
BRANCH  12  17
ATOM     17  C   UNL     1      61.548  11.980   1.629  1.00  0.00    -0.006 C 
ATOM     18  C   UNL     1      60.868  10.911   0.753  1.00  0.00     0.008 C 
ATOM     19  C   UNL     1      62.913  11.464   2.114  1.00  0.00     0.008 C 
ENDBRANCH  12  17
ENDBRANCH  11  12
ENDBRANCH   1  11
TORSDOF 1
ENDMDL
MODEL 4
REMARK VINA RESULT:    -2.111     12.326     13.431
REMARK INTER + INTRA:          -3.521
REMARK INTER:                  -3.398
REMARK INTRA:                  -0.124
REMARK UNBOUND:                -0.300
REMARK SMILES CC1=CCC[C@@H](C)C(=O)C[C@H](C(C)C)C(=O)C1
REMARK SMILES IDX 8 1 9 2 6 3 7 4 5 5 4 6 3 7 2 8 1 9 10 11 11 12 15 13 16 14
REMARK SMILES IDX 17 15 12 17 13 18 14 19
REMARK H PARENT
REMARK Flexibility Score: 70.00
ROOT
ATOM      1  C   UNL     1      55.305   4.953   4.798  1.00  0.00     0.136 C 
ATOM      2  O   UNL     1      54.474   5.375   5.590  1.00  0.00    -0.299 OA
ENDROOT
BRANCH   1   3
ATOM      3  C   UNL     1      54.873   4.082   3.630  1.00  0.00     0.053 C 
ATOM      4  C   UNL     1      54.003   4.846   2.620  1.00  0.00     0.016 C 
BRANCH   3   5
ATOM      5  C   UNL     1      54.180   2.793   4.117  1.00  0.00     0.015 C 
BRANCH   5   6
ATOM      6  C   UNL     1      55.161   1.687   4.554  1.00  0.00     0.028 C 
BRANCH   6   7
ATOM      7  C   UNL     1      56.249   1.499   3.529  1.00  0.00    -0.028 C 
ATOM      8  C   UNL     1      57.572   1.657   3.771  1.00  0.00    -0.070 CG0
ATOM      9  C   UNL     1      58.528   1.478   2.618  1.00  0.00     0.039 C 
ATOM     10  G   UNL     1      58.132   1.981   5.148  1.00  0.00     0.000 G0
ENDBRANCH   6   7
ENDBRANCH   5   6
ENDBRANCH   3   5
ENDBRANCH   1   3
BRANCH   1  11
ATOM     11  C   UNL     1      56.759   5.301   5.006  1.00  0.00     0.087 C 
BRANCH  11  12
ATOM     12  C   UNL     1      57.448   4.350   6.021  1.00  0.00     0.066 C 
BRANCH  12  13
ATOM     13  C   UNL     1      58.454   3.442   5.330  1.00  0.00     0.140 C 
ATOM     14  O   UNL     1      59.535   3.889   4.975  1.00  0.00    -0.299 OA
BRANCH  13  15
ATOM     15  C   UNL     1      58.170   1.970   5.147  1.00  0.00     0.106 CG0
ATOM     16  G   UNL     1      57.572   1.658   3.782  1.00  0.00     0.000 G0
ENDBRANCH  13  15
ENDBRANCH  12  13
BRANCH  12  17
ATOM     17  C   UNL     1      58.113   5.100   7.221  1.00  0.00    -0.006 C 
ATOM     18  C   UNL     1      57.110   5.795   8.161  1.00  0.00     0.008 C 
ATOM     19  C   UNL     1      59.025   4.166   8.032  1.00  0.00     0.008 C 
ENDBRANCH  12  17
ENDBRANCH  11  12
ENDBRANCH   1  11
TORSDOF 1
ENDMDL
MODEL 5
REMARK VINA RESULT:    -2.079      1.727      3.980
REMARK INTER + INTRA:          -3.474
REMARK INTER:                  -3.628
REMARK INTRA:                   0.155
REMARK UNBOUND:                -0.300
REMARK SMILES CC1=CCC[C@@H](C)C(=O)C[C@H](C(C)C)C(=O)C1
REMARK SMILES IDX 8 1 9 2 6 3 7 4 5 5 4 6 3 7 2 8 1 9 10 11 11 12 15 13 16 14
REMARK SMILES IDX 17 15 12 17 13 18 14 19
REMARK H PARENT
REMARK Flexibility Score: 70.00
ROOT
ATOM      1  C   UNL     1      61.737  15.708  -0.781  1.00  0.00     0.136 C 
ATOM      2  O   UNL     1      61.221  16.665  -0.218  1.00  0.00    -0.299 OA
ENDROOT
BRANCH   1   3
ATOM      3  C   UNL     1      63.062  15.870  -1.505  1.00  0.00     0.053 C 
ATOM      4  C   UNL     1      63.076  15.157  -2.866  1.00  0.00     0.016 C 
BRANCH   3   5
ATOM      5  C   UNL     1      64.245  15.426  -0.619  1.00  0.00     0.015 C 
BRANCH   5   6
ATOM      6  C   UNL     1      64.237  16.058   0.788  1.00  0.00     0.028 C 
BRANCH   6   7
ATOM      7  C   UNL     1      64.588  15.036   1.837  1.00  0.00    -0.028 C 
ATOM      8  C   UNL     1      63.686  14.293   2.521  1.00  0.00    -0.070 CG0
ATOM      9  C   UNL     1      64.203  13.347   3.576  1.00  0.00     0.039 C 
ATOM     10  G   UNL     1      62.188  14.354   2.258  1.00  0.00     0.000 G0
ENDBRANCH   6   7
ENDBRANCH   5   6
ENDBRANCH   3   5
ENDBRANCH   1   3
BRANCH   1  11
ATOM     11  C   UNL     1      61.029  14.374  -0.753  1.00  0.00     0.087 C 
BRANCH  11  12
ATOM     12  C   UNL     1      61.900  13.264  -0.106  1.00  0.00     0.066 C 
BRANCH  12  13
ATOM     13  C   UNL     1      61.698  13.212   1.400  1.00  0.00     0.140 C 
ATOM     14  O   UNL     1      61.206  12.217   1.914  1.00  0.00    -0.299 OA
BRANCH  13  15
ATOM     15  C   UNL     1      62.171  14.342   2.284  1.00  0.00     0.106 CG0
ATOM     16  G   UNL     1      63.675  14.307   2.517  1.00  0.00     0.000 G0
ENDBRANCH  13  15
ENDBRANCH  12  13
BRANCH  12  17
ATOM     17  C   UNL     1      61.680  11.853  -0.744  1.00  0.00    -0.006 C 
ATOM     18  C   UNL     1      61.313  11.890  -2.239  1.00  0.00     0.008 C 
ATOM     19  C   UNL     1      62.900  10.942  -0.530  1.00  0.00     0.008 C 
ENDBRANCH  12  17
ENDBRANCH  11  12
ENDBRANCH   1  11
TORSDOF 1
ENDMDL
MODEL 6
REMARK VINA RESULT:    -2.007      9.962     12.548
REMARK INTER + INTRA:          -3.364
REMARK INTER:                  -3.220
REMARK INTRA:                  -0.144
REMARK UNBOUND:                -0.300
REMARK SMILES CC1=CCC[C@@H](C)C(=O)C[C@H](C(C)C)C(=O)C1
REMARK SMILES IDX 8 1 9 2 6 3 7 4 5 5 4 6 3 7 2 8 1 9 10 11 11 12 15 13 16 14
REMARK SMILES IDX 17 15 12 17 13 18 14 19
REMARK H PARENT
REMARK Flexibility Score: 70.00
ROOT
ATOM      1  C   UNL     1      52.993   6.131   3.199  1.00  0.00     0.136 C 
ATOM      2  O   UNL     1      53.114   5.526   2.143  1.00  0.00    -0.299 OA
ENDROOT
BRANCH   1   3
ATOM      3  C   UNL     1      52.403   7.531   3.214  1.00  0.00     0.053 C 
ATOM      4  C   UNL     1      50.959   7.563   2.688  1.00  0.00     0.016 C 
BRANCH   3   5
ATOM      5  C   UNL     1      53.305   8.530   2.461  1.00  0.00     0.015 C 
BRANCH   5   6
ATOM      6  C   UNL     1      54.069   9.496   3.388  1.00  0.00     0.028 C 
BRANCH   6   7
ATOM      7  C   UNL     1      55.535   9.151   3.433  1.00  0.00    -0.028 C 
ATOM      8  C   UNL     1      56.126   8.426   4.412  1.00  0.00    -0.070 CG0
ATOM      9  C   UNL     1      57.616   8.211   4.331  1.00  0.00     0.039 C 
ATOM     10  G   UNL     1      55.354   7.805   5.568  1.00  0.00     0.000 G0
ENDBRANCH   6   7
ENDBRANCH   5   6
ENDBRANCH   3   5
ENDBRANCH   1   3
BRANCH   1  11
ATOM     11  C   UNL     1      53.451   5.472   4.478  1.00  0.00     0.087 C 
BRANCH  11  12
ATOM     12  C   UNL     1      54.998   5.393   4.574  1.00  0.00     0.066 C 
BRANCH  12  13
ATOM     13  C   UNL     1      55.530   6.309   5.665  1.00  0.00     0.140 C 
ATOM     14  O   UNL     1      56.163   5.839   6.600  1.00  0.00    -0.299 OA
BRANCH  13  15
ATOM     15  C   UNL     1      55.358   7.807   5.571  1.00  0.00     0.106 CG0
ATOM     16  G   UNL     1      56.147   8.411   4.418  1.00  0.00     0.000 G0
ENDBRANCH  13  15
ENDBRANCH  12  13
BRANCH  12  17
ATOM     17  C   UNL     1      55.535   3.936   4.763  1.00  0.00    -0.006 C 
ATOM     18  C   UNL     1      54.500   2.840   4.448  1.00  0.00     0.008 C 
ATOM     19  C   UNL     1      56.813   3.696   3.943  1.00  0.00     0.008 C 
ENDBRANCH  12  17
ENDBRANCH  11  12
ENDBRANCH   1  11
TORSDOF 1
ENDMDL
MODEL 7
REMARK VINA RESULT:    -1.991     10.755     12.053
REMARK INTER + INTRA:          -3.339
REMARK INTER:                  -3.246
REMARK INTRA:                  -0.093
REMARK UNBOUND:                -0.300
REMARK SMILES CC1=CCC[C@@H](C)C(=O)C[C@H](C(C)C)C(=O)C1
REMARK SMILES IDX 8 1 9 2 6 3 7 4 5 5 4 6 3 7 2 8 1 9 10 11 11 12 15 13 16 14
REMARK SMILES IDX 17 15 12 17 13 18 14 19
REMARK H PARENT
REMARK Flexibility Score: 70.00
ROOT
ATOM      1  C   UNL     1      56.281   7.965   5.582  1.00  0.00     0.136 C 
ATOM      2  O   UNL     1      55.613   8.907   5.178  1.00  0.00    -0.299 OA
ENDROOT
BRANCH   1   3
ATOM      3  C   UNL     1      56.050   6.570   5.027  1.00  0.00     0.053 C 
ATOM      4  C   UNL     1      54.747   5.942   5.543  1.00  0.00     0.016 C 
BRANCH   3   5
ATOM      5  C   UNL     1      57.265   5.655   5.285  1.00  0.00     0.015 C 
BRANCH   5   6
ATOM      6  C   UNL     1      57.034   4.620   6.405  1.00  0.00     0.028 C 
BRANCH   6   7
ATOM      7  C   UNL     1      58.253   4.496   7.281  1.00  0.00    -0.028 C 
ATOM      8  C   UNL     1      58.393   5.082   8.493  1.00  0.00    -0.070 CG0
ATOM      9  C   UNL     1      59.700   4.897   9.222  1.00  0.00     0.039 C 
ATOM     10  G   UNL     1      57.290   5.894   9.157  1.00  0.00     0.000 G0
ENDBRANCH   6   7
ENDBRANCH   5   6
ENDBRANCH   3   5
ENDBRANCH   1   3
BRANCH   1  11
ATOM     11  C   UNL     1      57.324   8.211   6.646  1.00  0.00     0.087 C 
BRANCH  11  12
ATOM     12  C   UNL     1      56.709   8.239   8.072  1.00  0.00     0.066 C 
BRANCH  12  13
ATOM     13  C   UNL     1      57.526   7.396   9.039  1.00  0.00     0.140 C 
ATOM     14  O   UNL     1      58.340   7.934   9.777  1.00  0.00    -0.299 OA
BRANCH  13  15
ATOM     15  C   UNL     1      57.288   5.910   9.163  1.00  0.00     0.106 CG0
ATOM     16  G   UNL     1      58.386   5.089   8.503  1.00  0.00     0.000 G0
ENDBRANCH  13  15
ENDBRANCH  12  13
BRANCH  12  17
ATOM     17  C   UNL     1      56.506   9.684   8.631  1.00  0.00    -0.006 C 
ATOM     18  C   UNL     1      56.777  10.799   7.604  1.00  0.00     0.008 C 
ATOM     19  C   UNL     1      55.103   9.862   9.234  1.00  0.00     0.008 C 
ENDBRANCH  12  17
ENDBRANCH  11  12
ENDBRANCH   1  11
TORSDOF 1
ENDMDL
MODEL 8
REMARK VINA RESULT:    -1.963      3.608      5.505
REMARK INTER + INTRA:          -3.296
REMARK INTER:                  -2.989
REMARK INTRA:                  -0.307
REMARK UNBOUND:                -0.300
REMARK SMILES CC1=CCC[C@@H](C)C(=O)C[C@H](C(C)C)C(=O)C1
REMARK SMILES IDX 8 1 9 2 6 3 7 4 5 5 4 6 3 7 2 8 1 9 10 11 11 12 15 13 16 14
REMARK SMILES IDX 17 15 12 17 13 18 14 19
REMARK H PARENT
REMARK Flexibility Score: 70.00
ROOT
ATOM      1  C   UNL     1      58.565  15.681   2.310  1.00  0.00     0.136 C 
ATOM      2  O   UNL     1      57.876  16.205   3.174  1.00  0.00    -0.299 OA
ENDROOT
BRANCH   1   3
ATOM      3  C   UNL     1      59.181  14.313   2.548  1.00  0.00     0.053 C 
ATOM      4  C   UNL     1      58.128  13.194   2.585  1.00  0.00     0.016 C 
BRANCH   3   5
ATOM      5  C   UNL     1      60.061  14.306   3.815  1.00  0.00     0.015 C 
BRANCH   5   6
ATOM      6  C   UNL     1      61.485  14.851   3.584  1.00  0.00     0.028 C 
BRANCH   6   7
ATOM      7  C   UNL     1      62.104  14.232   2.358  1.00  0.00    -0.028 C 
ATOM      8  C   UNL     1      62.491  14.921   1.259  1.00  0.00    -0.070 CG0
ATOM      9  C   UNL     1      63.050  14.141   0.095  1.00  0.00     0.039 C 
ATOM     10  G   UNL     1      62.409  16.437   1.157  1.00  0.00     0.000 G0
ENDBRANCH   6   7
ENDBRANCH   5   6
ENDBRANCH   3   5
ENDBRANCH   1   3
BRANCH   1  11
ATOM     11  C   UNL     1      58.800  16.418   1.014  1.00  0.00     0.087 C 
BRANCH  11  12
ATOM     12  C   UNL     1      59.970  17.432   1.122  1.00  0.00     0.066 C 
BRANCH  12  13
ATOM     13  C   UNL     1      61.203  16.930   0.388  1.00  0.00     0.140 C 
ATOM     14  O   UNL     1      61.242  16.967  -0.834  1.00  0.00    -0.299 OA
BRANCH  13  15
ATOM     15  C   UNL     1      62.420  16.460   1.150  1.00  0.00     0.106 CG0
ATOM     16  G   UNL     1      62.486  14.944   1.262  1.00  0.00     0.000 G0
ENDBRANCH  13  15
ENDBRANCH  12  13
BRANCH  12  17
ATOM     17  C   UNL     1      59.590  18.872   0.645  1.00  0.00    -0.006 C 
ATOM     18  C   UNL     1      58.092  19.204   0.781  1.00  0.00     0.008 C 
ATOM     19  C   UNL     1      60.427  19.942   1.364  1.00  0.00     0.008 C 
ENDBRANCH  12  17
ENDBRANCH  11  12
ENDBRANCH   1  11
TORSDOF 1
ENDMDL
MODEL 9
REMARK VINA RESULT:    -1.786      4.320      6.396
REMARK INTER + INTRA:          -3.026
REMARK INTER:                  -2.742
REMARK INTRA:                  -0.284
REMARK UNBOUND:                -0.300
REMARK SMILES CC1=CCC[C@@H](C)C(=O)C[C@H](C(C)C)C(=O)C1
REMARK SMILES IDX 8 1 9 2 6 3 7 4 5 5 4 6 3 7 2 8 1 9 10 11 11 12 15 13 16 14
REMARK SMILES IDX 17 15 12 17 13 18 14 19
REMARK H PARENT
REMARK Flexibility Score: 70.00
ROOT
ATOM      1  C   UNL     1      57.779  16.797   1.481  1.00  0.00     0.136 C 
ATOM      2  O   UNL     1      56.914  16.334   0.751  1.00  0.00    -0.299 OA
ENDROOT
BRANCH   1   3
ATOM      3  C   UNL     1      57.941  18.301   1.618  1.00  0.00     0.053 C 
ATOM      4  C   UNL     1      56.609  19.008   1.918  1.00  0.00     0.016 C 
BRANCH   3   5
ATOM      5  C   UNL     1      58.640  18.906   0.383  1.00  0.00     0.015 C 
BRANCH   5   6
ATOM      6  C   UNL     1      60.144  19.175   0.592  1.00  0.00     0.028 C 
BRANCH   6   7
ATOM      7  C   UNL     1      60.455  19.376   2.052  1.00  0.00    -0.028 C 
ATOM      8  C   UNL     1      61.236  18.554   2.794  1.00  0.00    -0.070 CG0
ATOM      9  C   UNL     1      61.408  18.872   4.258  1.00  0.00     0.039 C 
ATOM     10  G   UNL     1      61.960  17.348   2.213  1.00  0.00     0.000 G0
ENDBRANCH   6   7
ENDBRANCH   5   6
ENDBRANCH   3   5
ENDBRANCH   1   3
BRANCH   1  11
ATOM     11  C   UNL     1      58.688  15.851   2.230  1.00  0.00     0.087 C 
BRANCH  11  12
ATOM     12  C   UNL     1      60.057  15.672   1.522  1.00  0.00     0.066 C 
BRANCH  12  13
ATOM     13  C   UNL     1      61.206  16.054   2.441  1.00  0.00     0.140 C 
ATOM     14  O   UNL     1      61.565  15.285   3.321  1.00  0.00    -0.299 OA
BRANCH  13  15
ATOM     15  C   UNL     1      61.970  17.341   2.232  1.00  0.00     0.106 CG0
ATOM     16  G   UNL     1      61.240  18.550   2.798  1.00  0.00     0.000 G0
ENDBRANCH  13  15
ENDBRANCH  12  13
BRANCH  12  17
ATOM     17  C   UNL     1      60.270  14.238   0.936  1.00  0.00    -0.006 C 
ATOM     18  C   UNL     1      59.139  13.248   1.272  1.00  0.00     0.008 C 
ATOM     19  C   UNL     1      60.492  14.278  -0.584  1.00  0.00     0.008 C 
ENDBRANCH  12  17
ENDBRANCH  11  12
ENDBRANCH   1  11
TORSDOF 1
ENDMDL
