MODEL 1
REMARK VINA RESULT:    -3.372      0.000      0.000
REMARK INTER + INTRA:          -4.086
REMARK INTER:                  -3.964
REMARK INTRA:                  -0.122
REMARK UNBOUND:                -0.122
REMARK SMILES O=C([O-])CCC(=O)[O-]
REMARK SMILES IDX 4 1 2 2 1 3 3 4 5 5 6 6 7 7 8 8
REMARK H PARENT
REMARK Flexibility Score: inf
ROOT
ATOM      1  C   UNL     1      10.982 -35.646 -26.308  1.00  0.00     0.059 C 
ENDROOT
BRANCH   1   2
ATOM      2  C   UNL     1      11.754 -34.725 -25.412  1.00  0.00     0.042 C 
ATOM      3  O   UNL     1      11.256 -33.624 -25.057  1.00  0.00    -0.550 OA
ATOM      4  O   UNL     1      13.037 -35.064 -25.004  1.00  0.00    -0.550 OA
ENDBRANCH   1   2
BRANCH   1   5
ATOM      5  C   UNL     1      10.086 -36.596 -25.506  1.00  0.00     0.059 C 
BRANCH   5   6
ATOM      6  C   UNL     1      10.727 -37.939 -25.328  1.00  0.00     0.042 C 
ATOM      7  O   UNL     1      10.350 -38.919 -26.024  1.00  0.00    -0.550 OA
ATOM      8  O   UNL     1      11.712 -38.118 -24.364  1.00  0.00    -0.550 OA
ENDBRANCH   5   6
ENDBRANCH   1   5
TORSDOF 3
ENDMDL
MODEL 2
REMARK VINA RESULT:    -3.237     15.147     16.647
REMARK INTER + INTRA:          -3.927
REMARK INTER:                  -3.899
REMARK INTRA:                  -0.028
REMARK UNBOUND:                -0.122
REMARK SMILES O=C([O-])CCC(=O)[O-]
REMARK SMILES IDX 4 1 2 2 1 3 3 4 5 5 6 6 7 7 8 8
REMARK H PARENT
REMARK Flexibility Score: inf
ROOT
ATOM      1  C   UNL     1      -0.987 -44.260 -17.769  1.00  0.00     0.059 C 
ENDROOT
BRANCH   1   2
ATOM      2  C   UNL     1      -2.073 -45.032 -17.083  1.00  0.00     0.042 C 
ATOM      3  O   UNL     1      -2.208 -44.958 -15.833  1.00  0.00    -0.550 OA
ATOM      4  O   UNL     1      -2.907 -45.864 -17.818  1.00  0.00    -0.550 OA
ENDBRANCH   1   2
BRANCH   1   5
ATOM      5  C   UNL     1      -1.396 -42.803 -18.013  1.00  0.00     0.059 C 
BRANCH   5   6
ATOM      6  C   UNL     1      -0.310 -42.032 -18.700  1.00  0.00     0.042 C 
ATOM      7  O   UNL     1      -0.587 -41.268 -19.662  1.00  0.00    -0.550 OA
ATOM      8  O   UNL     1       1.013 -42.190 -18.305  1.00  0.00    -0.550 OA
ENDBRANCH   5   6
ENDBRANCH   1   5
TORSDOF 3
ENDMDL
MODEL 3
REMARK VINA RESULT:    -3.230     15.173     16.300
REMARK INTER + INTRA:          -3.918
REMARK INTER:                  -3.889
REMARK INTRA:                  -0.030
REMARK UNBOUND:                -0.122
REMARK SMILES O=C([O-])CCC(=O)[O-]
REMARK SMILES IDX 4 1 2 2 1 3 3 4 5 5 6 6 7 7 8 8
REMARK H PARENT
REMARK Flexibility Score: inf
ROOT
ATOM      1  C   UNL     1      -1.475 -42.742 -18.094  1.00  0.00     0.059 C 
ENDROOT
BRANCH   1   2
ATOM      2  C   UNL     1      -0.379 -41.985 -18.781  1.00  0.00     0.042 C 
ATOM      3  O   UNL     1       0.804 -42.059 -18.353  1.00  0.00    -0.550 OA
ATOM      4  O   UNL     1      -0.670 -41.167 -19.864  1.00  0.00    -0.550 OA
ENDBRANCH   1   2
BRANCH   1   5
ATOM      5  C   UNL     1      -1.036 -44.162 -17.722  1.00  0.00     0.059 C 
BRANCH   5   6
ATOM      6  C   UNL     1      -2.121 -44.905 -17.003  1.00  0.00     0.042 C 
ATOM      7  O   UNL     1      -3.055 -45.447 -17.652  1.00  0.00    -0.550 OA
ATOM      8  O   UNL     1      -2.123 -44.964 -15.615  1.00  0.00    -0.550 OA
ENDBRANCH   5   6
ENDBRANCH   1   5
TORSDOF 3
ENDMDL
MODEL 4
REMARK VINA RESULT:    -3.196      9.937     10.900
REMARK INTER + INTRA:          -3.879
REMARK INTER:                  -3.847
REMARK INTRA:                  -0.031
REMARK UNBOUND:                -0.122
REMARK SMILES O=C([O-])CCC(=O)[O-]
REMARK SMILES IDX 4 1 2 2 1 3 3 4 5 5 6 6 7 7 8 8
REMARK H PARENT
REMARK Flexibility Score: inf
ROOT
ATOM      1  C   UNL     1       6.589 -29.301 -17.618  1.00  0.00     0.059 C 
ENDROOT
BRANCH   1   2
ATOM      2  C   UNL     1       7.694 -28.472 -17.037  1.00  0.00     0.042 C 
ATOM      3  O   UNL     1       7.963 -28.549 -15.809  1.00  0.00    -0.550 OA
ATOM      4  O   UNL     1       8.398 -27.586 -17.842  1.00  0.00    -0.550 OA
ENDBRANCH   1   2
BRANCH   1   5
ATOM      5  C   UNL     1       7.093 -30.672 -18.082  1.00  0.00     0.059 C 
BRANCH   5   6
ATOM      6  C   UNL     1       5.993 -31.488 -18.690  1.00  0.00     0.042 C 
ATOM      7  O   UNL     1       4.794 -31.272 -18.371  1.00  0.00    -0.550 OA
ATOM      8  O   UNL     1       6.296 -32.513 -19.578  1.00  0.00    -0.550 OA
ENDBRANCH   5   6
ENDBRANCH   1   5
TORSDOF 3
ENDMDL
MODEL 5
REMARK VINA RESULT:    -3.187      2.083      2.688
REMARK INTER + INTRA:          -3.868
REMARK INTER:                  -3.746
REMARK INTRA:                  -0.122
REMARK UNBOUND:                -0.122
REMARK SMILES O=C([O-])CCC(=O)[O-]
REMARK SMILES IDX 4 1 2 2 1 3 3 4 5 5 6 6 7 7 8 8
REMARK H PARENT
REMARK Flexibility Score: inf
ROOT
ATOM      1  C   UNL     1      10.721 -36.149 -25.800  1.00  0.00     0.059 C 
ENDROOT
BRANCH   1   2
ATOM      2  C   UNL     1      11.653 -34.977 -25.756  1.00  0.00     0.042 C 
ATOM      3  O   UNL     1      12.775 -35.040 -26.326  1.00  0.00    -0.550 OA
ATOM      4  O   UNL     1      11.302 -33.833 -25.052  1.00  0.00    -0.550 OA
ENDBRANCH   1   2
BRANCH   1   5
ATOM      5  C   UNL     1       9.665 -35.993 -26.899  1.00  0.00     0.059 C 
BRANCH   5   6
ATOM      6  C   UNL     1      10.059 -36.719 -28.150  1.00  0.00     0.042 C 
ATOM      7  O   UNL     1       9.737 -37.927 -28.308  1.00  0.00    -0.550 OA
ATOM      8  O   UNL     1      10.815 -36.075 -29.121  1.00  0.00    -0.550 OA
ENDBRANCH   5   6
ENDBRANCH   1   5
TORSDOF 3
ENDMDL
MODEL 6
REMARK VINA RESULT:    -3.182     10.012     11.417
REMARK INTER + INTRA:          -3.862
REMARK INTER:                  -3.825
REMARK INTRA:                  -0.038
REMARK UNBOUND:                -0.122
REMARK SMILES O=C([O-])CCC(=O)[O-]
REMARK SMILES IDX 4 1 2 2 1 3 3 4 5 5 6 6 7 7 8 8
REMARK H PARENT
REMARK Flexibility Score: inf
ROOT
ATOM      1  C   UNL     1       7.133 -30.623 -18.241  1.00  0.00     0.059 C 
ENDROOT
BRANCH   1   2
ATOM      2  C   UNL     1       6.190 -31.725 -18.618  1.00  0.00     0.042 C 
ATOM      3  O   UNL     1       5.253 -32.049 -17.840  1.00  0.00    -0.550 OA
ATOM      4  O   UNL     1       6.371 -32.421 -19.806  1.00  0.00    -0.550 OA
ENDBRANCH   1   2
BRANCH   1   5
ATOM      5  C   UNL     1       6.586 -29.780 -17.084  1.00  0.00     0.059 C 
BRANCH   5   6
ATOM      6  C   UNL     1       7.628 -28.856 -16.532  1.00  0.00     0.042 C 
ATOM      7  O   UNL     1       8.560 -28.440 -17.270  1.00  0.00    -0.550 OA
ATOM      8  O   UNL     1       7.594 -28.488 -15.193  1.00  0.00    -0.550 OA
ENDBRANCH   5   6
ENDBRANCH   1   5
TORSDOF 3
ENDMDL
MODEL 7
REMARK VINA RESULT:    -3.154     10.045     10.933
REMARK INTER + INTRA:          -3.829
REMARK INTER:                  -3.795
REMARK INTRA:                  -0.034
REMARK UNBOUND:                -0.122
REMARK SMILES O=C([O-])CCC(=O)[O-]
REMARK SMILES IDX 4 1 2 2 1 3 3 4 5 5 6 6 7 7 8 8
REMARK H PARENT
REMARK Flexibility Score: inf
ROOT
ATOM      1  C   UNL     1       6.588 -29.710 -17.154  1.00  0.00     0.059 C 
ENDROOT
BRANCH   1   2
ATOM      2  C   UNL     1       7.676 -28.851 -16.584  1.00  0.00     0.042 C 
ATOM      3  O   UNL     1       8.581 -28.397 -17.333  1.00  0.00    -0.550 OA
ATOM      4  O   UNL     1       7.713 -28.589 -15.221  1.00  0.00    -0.550 OA
ENDBRANCH   1   2
BRANCH   1   5
ATOM      5  C   UNL     1       7.127 -30.674 -18.217  1.00  0.00     0.059 C 
BRANCH   5   6
ATOM      6  C   UNL     1       6.154 -31.777 -18.506  1.00  0.00     0.042 C 
ATOM      7  O   UNL     1       6.250 -32.444 -19.569  1.00  0.00    -0.550 OA
ATOM      8  O   UNL     1       5.118 -32.041 -17.619  1.00  0.00    -0.550 OA
ENDBRANCH   5   6
ENDBRANCH   1   5
TORSDOF 3
ENDMDL
MODEL 8
REMARK VINA RESULT:    -3.127     11.147     12.302
REMARK INTER + INTRA:          -3.797
REMARK INTER:                  -3.717
REMARK INTRA:                  -0.080
REMARK UNBOUND:                -0.122
REMARK SMILES O=C([O-])CCC(=O)[O-]
REMARK SMILES IDX 4 1 2 2 1 3 3 4 5 5 6 6 7 7 8 8
REMARK H PARENT
REMARK Flexibility Score: inf
ROOT
ATOM      1  C   UNL     1       6.986 -30.044 -17.877  1.00  0.00     0.059 C 
ENDROOT
BRANCH   1   2
ATOM      2  C   UNL     1       6.006 -30.784 -17.018  1.00  0.00     0.042 C 
ATOM      3  O   UNL     1       6.410 -31.672 -16.221  1.00  0.00    -0.550 OA
ATOM      4  O   UNL     1       4.647 -30.524 -17.128  1.00  0.00    -0.550 OA
ENDBRANCH   1   2
BRANCH   1   5
ATOM      5  C   UNL     1       7.780 -29.011 -17.070  1.00  0.00     0.059 C 
BRANCH   5   6
ATOM      6  C   UNL     1       7.523 -27.616 -17.555  1.00  0.00     0.042 C 
ATOM      7  O   UNL     1       6.396 -27.082 -17.381  1.00  0.00    -0.550 OA
ATOM      8  O   UNL     1       8.517 -26.922 -18.234  1.00  0.00    -0.550 OA
ENDBRANCH   5   6
ENDBRANCH   1   5
TORSDOF 3
ENDMDL
MODEL 9
REMARK VINA RESULT:    -3.106     11.490     12.349
REMARK INTER + INTRA:          -3.773
REMARK INTER:                  -3.620
REMARK INTRA:                  -0.154
REMARK UNBOUND:                -0.122
REMARK SMILES O=C([O-])CCC(=O)[O-]
REMARK SMILES IDX 4 1 2 2 1 3 3 4 5 5 6 6 7 7 8 8
REMARK H PARENT
REMARK Flexibility Score: inf
ROOT
ATOM      1  C   UNL     1       7.082 -29.781 -17.878  1.00  0.00     0.059 C 
ENDROOT
BRANCH   1   2
ATOM      2  C   UNL     1       7.814 -28.685 -17.165  1.00  0.00     0.042 C 
ATOM      3  O   UNL     1       7.891 -28.690 -15.908  1.00  0.00    -0.550 OA
ATOM      4  O   UNL     1       8.373 -27.638 -17.885  1.00  0.00    -0.550 OA
ENDBRANCH   1   2
BRANCH   1   5
ATOM      5  C   UNL     1       5.665 -29.969 -17.326  1.00  0.00     0.059 C 
BRANCH   5   6
ATOM      6  C   UNL     1       4.847 -28.721 -17.468  1.00  0.00     0.042 C 
ATOM      7  O   UNL     1       4.518 -28.307 -18.611  1.00  0.00    -0.550 OA
ATOM      8  O   UNL     1       4.484 -27.994 -16.341  1.00  0.00    -0.550 OA
ENDBRANCH   5   6
ENDBRANCH   1   5
TORSDOF 3
ENDMDL
