MODEL 1
REMARK VINA RESULT:    -6.694      0.000      0.000
REMARK INTER + INTRA:          -8.162
REMARK INTER:                  -7.868
REMARK INTRA:                  -0.294
REMARK UNBOUND:                -0.294
REMARK SMILES O=c1cc(-c2ccc(O)c(O)c2)oc2cc(O)cc(O)c12
REMARK SMILES IDX 4 1 3 2 2 3 1 4 21 5 19 6 18 7 16 8 15 9 14 10 13 11 5 12
REMARK SMILES IDX 6 13 7 14 8 15 12 16 10 17 9 18 11 20 20 22 17 24
REMARK H PARENT 9 19 11 21 20 23 17 25
REMARK Flexibility Score: inf
ROOT
ATOM      1  C   UNL     1      27.231  47.879  60.895  1.00  0.00     0.138 A 
ATOM      2  C   UNL     1      26.900  46.531  60.696  1.00  0.00     0.100 A 
ATOM      3  C   UNL     1      27.503  45.549  61.483  1.00  0.00     0.197 A 
ATOM      4  O   UNL     1      27.140  44.355  61.324  1.00  0.00    -0.289 OA
ATOM      5  C   UNL     1      28.466  45.916  62.453  1.00  0.00     0.107 A 
ATOM      6  C   UNL     1      29.175  44.998  63.282  1.00  0.00     0.134 A 
ATOM      7  C   UNL     1      30.019  45.487  64.288  1.00  0.00     0.093 A 
ATOM      8  C   UNL     1      30.226  46.859  64.452  1.00  0.00     0.123 A 
ATOM      9  C   UNL     1      29.580  47.761  63.610  1.00  0.00     0.094 A 
ATOM     10  C   UNL     1      28.705  47.307  62.622  1.00  0.00     0.146 A 
ATOM     11  O   UNL     1      28.098  48.202  61.849  1.00  0.00    -0.456 OA
ENDROOT
BRANCH   1  12
ATOM     12  C   UNL     1      26.620  48.964  60.086  1.00  0.00     0.021 A 
ATOM     13  C   UNL     1      26.695  50.291  60.541  1.00  0.00     0.016 A 
ATOM     14  C   UNL     1      26.136  51.331  59.795  1.00  0.00     0.051 A 
ATOM     15  C   UNL     1      25.501  51.066  58.578  1.00  0.00     0.157 A 
ATOM     16  C   UNL     1      25.991  48.704  58.853  1.00  0.00     0.062 A 
ATOM     17  C   UNL     1      25.431  49.747  58.102  1.00  0.00     0.158 A 
BRANCH  15  18
ATOM     18  O   UNL     1      24.950  52.125  57.856  1.00  0.00    -0.504 OA
ATOM     19  H   UNL     1      24.542  52.932  58.312  1.00  0.00     0.293 HD
ENDBRANCH  15  18
BRANCH  17  20
ATOM     20  O   UNL     1      24.809  49.478  56.883  1.00  0.00    -0.504 OA
ATOM     21  H   UNL     1      23.811  49.597  56.760  1.00  0.00     0.293 HD
ENDBRANCH  17  20
ENDBRANCH   1  12
BRANCH   6  22
ATOM     22  O   UNL     1      29.106  43.609  63.148  1.00  0.00    -0.507 OA
ATOM     23  H   UNL     1      29.812  42.963  63.467  1.00  0.00     0.293 HD
ENDBRANCH   6  22
BRANCH   8  24
ATOM     24  O   UNL     1      31.080  47.335  65.444  1.00  0.00    -0.508 OA
ATOM     25  H   UNL     1      32.014  47.663  65.226  1.00  0.00     0.293 HD
ENDBRANCH   8  24
TORSDOF 5
ENDMDL
MODEL 2
REMARK VINA RESULT:    -6.398      1.070      2.673
REMARK INTER + INTRA:          -7.814
REMARK INTER:                  -7.506
REMARK INTRA:                  -0.308
REMARK UNBOUND:                -0.294
REMARK SMILES O=c1cc(-c2ccc(O)c(O)c2)oc2cc(O)cc(O)c12
REMARK SMILES IDX 4 1 3 2 2 3 1 4 21 5 19 6 18 7 16 8 15 9 14 10 13 11 5 12
REMARK SMILES IDX 6 13 7 14 8 15 12 16 10 17 9 18 11 20 20 22 17 24
REMARK H PARENT 9 19 11 21 20 23 17 25
REMARK Flexibility Score: inf
ROOT
ATOM      1  C   UNL     1      27.767  48.787  61.186  1.00  0.00     0.138 A 
ATOM      2  C   UNL     1      28.631  49.534  61.998  1.00  0.00     0.100 A 
ATOM      3  C   UNL     1      29.411  48.885  62.956  1.00  0.00     0.197 A 
ATOM      4  O   UNL     1      30.223  49.574  63.627  1.00  0.00    -0.289 OA
ATOM      5  C   UNL     1      29.301  47.484  63.122  1.00  0.00     0.107 A 
ATOM      6  C   UNL     1      30.016  46.722  64.093  1.00  0.00     0.134 A 
ATOM      7  C   UNL     1      29.913  45.325  64.086  1.00  0.00     0.093 A 
ATOM      8  C   UNL     1      29.074  44.669  63.182  1.00  0.00     0.123 A 
ATOM      9  C   UNL     1      28.331  45.408  62.266  1.00  0.00     0.094 A 
ATOM     10  C   UNL     1      28.439  46.799  62.224  1.00  0.00     0.146 A 
ATOM     11  O   UNL     1      27.722  47.466  61.325  1.00  0.00    -0.456 OA
ENDROOT
BRANCH   1  12
ATOM     12  C   UNL     1      26.914  49.427  60.152  1.00  0.00     0.021 A 
ATOM     13  C   UNL     1      26.515  50.764  60.316  1.00  0.00     0.016 A 
ATOM     14  C   UNL     1      25.720  51.392  59.354  1.00  0.00     0.051 A 
ATOM     15  C   UNL     1      25.318  50.701  58.208  1.00  0.00     0.157 A 
ATOM     16  C   UNL     1      26.518  48.738  58.989  1.00  0.00     0.062 A 
ATOM     17  C   UNL     1      25.721  49.368  58.022  1.00  0.00     0.158 A 
BRANCH  15  18
ATOM     18  O   UNL     1      24.523  51.353  57.266  1.00  0.00    -0.504 OA
ATOM     19  H   UNL     1      24.243  50.910  56.400  1.00  0.00     0.293 HD
ENDBRANCH  15  18
BRANCH  17  20
ATOM     20  O   UNL     1      25.333  48.676  56.875  1.00  0.00    -0.504 OA
ATOM     21  H   UNL     1      24.485  48.915  56.374  1.00  0.00     0.293 HD
ENDBRANCH  17  20
ENDBRANCH   1  12
BRANCH   6  22
ATOM     22  O   UNL     1      30.814  47.283  65.094  1.00  0.00    -0.507 OA
ATOM     23  H   UNL     1      30.468  47.826  65.870  1.00  0.00     0.293 HD
ENDBRANCH   6  22
BRANCH   8  24
ATOM     24  O   UNL     1      28.966  43.280  63.193  1.00  0.00    -0.508 OA
ATOM     25  H   UNL     1      29.526  42.710  63.816  1.00  0.00     0.293 HD
ENDBRANCH   8  24
TORSDOF 5
ENDMDL
MODEL 3
REMARK VINA RESULT:    -5.618      1.789      2.397
REMARK INTER + INTRA:          -6.897
REMARK INTER:                  -6.611
REMARK INTRA:                  -0.286
REMARK UNBOUND:                -0.294
REMARK SMILES O=c1cc(-c2ccc(O)c(O)c2)oc2cc(O)cc(O)c12
REMARK SMILES IDX 4 1 3 2 2 3 1 4 21 5 19 6 18 7 16 8 15 9 14 10 13 11 5 12
REMARK SMILES IDX 6 13 7 14 8 15 12 16 10 17 9 18 11 20 20 22 17 24
REMARK H PARENT 9 19 11 21 20 23 17 25
REMARK Flexibility Score: inf
ROOT
ATOM      1  C   UNL     1      27.397  49.124  61.303  1.00  0.00     0.138 A 
ATOM      2  C   UNL     1      26.998  49.315  62.633  1.00  0.00     0.100 A 
ATOM      3  C   UNL     1      27.689  48.669  63.660  1.00  0.00     0.197 A 
ATOM      4  O   UNL     1      27.349  48.908  64.847  1.00  0.00    -0.289 OA
ATOM      5  C   UNL     1      28.765  47.804  63.349  1.00  0.00     0.107 A 
ATOM      6  C   UNL     1      29.514  47.061  64.309  1.00  0.00     0.134 A 
ATOM      7  C   UNL     1      30.633  46.328  63.894  1.00  0.00     0.093 A 
ATOM      8  C   UNL     1      30.991  46.261  62.545  1.00  0.00     0.123 A 
ATOM      9  C   UNL     1      30.233  46.938  61.594  1.00  0.00     0.094 A 
ATOM     10  C   UNL     1      29.134  47.707  61.980  1.00  0.00     0.146 A 
ATOM     11  O   UNL     1      28.445  48.349  61.042  1.00  0.00    -0.456 OA
ENDROOT
BRANCH   1  12
ATOM     12  C   UNL     1      26.697  49.786  60.173  1.00  0.00     0.021 A 
ATOM     13  C   UNL     1      26.489  51.174  60.208  1.00  0.00     0.016 A 
ATOM     14  C   UNL     1      25.840  51.823  59.154  1.00  0.00     0.051 A 
ATOM     15  C   UNL     1      25.398  51.099  58.043  1.00  0.00     0.157 A 
ATOM     16  C   UNL     1      26.262  49.062  59.046  1.00  0.00     0.062 A 
ATOM     17  C   UNL     1      25.612  49.711  57.986  1.00  0.00     0.158 A 
BRANCH  15  18
ATOM     18  O   UNL     1      24.752  51.773  57.007  1.00  0.00    -0.504 OA
ATOM     19  H   UNL     1      24.475  51.306  56.152  1.00  0.00     0.293 HD
ENDBRANCH  15  18
BRANCH  17  20
ATOM     20  O   UNL     1      25.184  48.986  56.876  1.00  0.00    -0.504 OA
ATOM     21  H   UNL     1      24.207  48.951  56.609  1.00  0.00     0.293 HD
ENDBRANCH  17  20
ENDBRANCH   1  12
BRANCH   6  22
ATOM     22  O   UNL     1      29.193  46.991  65.668  1.00  0.00    -0.507 OA
ATOM     23  H   UNL     1      29.852  46.799  66.406  1.00  0.00     0.293 HD
ENDBRANCH   6  22
BRANCH   8  24
ATOM     24  O   UNL     1      32.096  45.515  62.140  1.00  0.00    -0.508 OA
ATOM     25  H   UNL     1      32.509  45.637  61.223  1.00  0.00     0.293 HD
ENDBRANCH   8  24
TORSDOF 5
ENDMDL
MODEL 4
REMARK VINA RESULT:    -5.043      1.679      7.153
REMARK INTER + INTRA:          -6.221
REMARK INTER:                  -5.908
REMARK INTRA:                  -0.313
REMARK UNBOUND:                -0.294
REMARK SMILES O=c1cc(-c2ccc(O)c(O)c2)oc2cc(O)cc(O)c12
REMARK SMILES IDX 4 1 3 2 2 3 1 4 21 5 19 6 18 7 16 8 15 9 14 10 13 11 5 12
REMARK SMILES IDX 6 13 7 14 8 15 12 16 10 17 9 18 11 20 20 22 17 24
REMARK H PARENT 9 19 11 21 20 23 17 25
REMARK Flexibility Score: inf
ROOT
ATOM      1  C   UNL     1      28.196  47.553  61.380  1.00  0.00     0.138 A 
ATOM      2  C   UNL     1      29.081  48.631  61.517  1.00  0.00     0.100 A 
ATOM      3  C   UNL     1      28.860  49.802  60.790  1.00  0.00     0.197 A 
ATOM      4  O   UNL     1      29.635  50.775  60.980  1.00  0.00    -0.289 OA
ATOM      5  C   UNL     1      27.763  49.881  59.899  1.00  0.00     0.107 A 
ATOM      6  C   UNL     1      27.464  51.008  59.077  1.00  0.00     0.134 A 
ATOM      7  C   UNL     1      26.285  51.016  58.321  1.00  0.00     0.093 A 
ATOM      8  C   UNL     1      25.427  49.913  58.310  1.00  0.00     0.123 A 
ATOM      9  C   UNL     1      25.740  48.787  59.067  1.00  0.00     0.094 A 
ATOM     10  C   UNL     1      26.889  48.762  59.859  1.00  0.00     0.146 A 
ATOM     11  O   UNL     1      27.143  47.673  60.578  1.00  0.00    -0.456 OA
ENDROOT
BRANCH   1  12
ATOM     12  C   UNL     1      28.384  46.284  62.129  1.00  0.00     0.021 A 
ATOM     13  C   UNL     1      29.209  46.270  63.266  1.00  0.00     0.016 A 
ATOM     14  C   UNL     1      29.397  45.092  63.992  1.00  0.00     0.051 A 
ATOM     15  C   UNL     1      28.758  43.911  63.603  1.00  0.00     0.157 A 
ATOM     16  C   UNL     1      27.731  45.096  61.748  1.00  0.00     0.062 A 
ATOM     17  C   UNL     1      27.917  43.913  62.478  1.00  0.00     0.158 A 
BRANCH  15  18
ATOM     18  O   UNL     1      28.965  42.750  64.348  1.00  0.00    -0.504 OA
ATOM     19  H   UNL     1      29.091  42.770  65.352  1.00  0.00     0.293 HD
ENDBRANCH  15  18
BRANCH  17  20
ATOM     20  O   UNL     1      27.268  42.741  62.091  1.00  0.00    -0.504 OA
ATOM     21  H   UNL     1      26.278  42.730  61.875  1.00  0.00     0.293 HD
ENDBRANCH  17  20
ENDBRANCH   1  12
BRANCH   6  22
ATOM     22  O   UNL     1      28.294  52.125  58.948  1.00  0.00    -0.507 OA
ATOM     23  H   UNL     1      28.036  53.066  59.200  1.00  0.00     0.293 HD
ENDBRANCH   6  22
BRANCH   8  24
ATOM     24  O   UNL     1      24.265  49.924  57.542  1.00  0.00    -0.508 OA
ATOM     25  H   UNL     1      24.096  50.642  56.847  1.00  0.00     0.293 HD
ENDBRANCH   8  24
TORSDOF 5
ENDMDL
MODEL 5
REMARK VINA RESULT:    -4.922      1.742      7.396
REMARK INTER + INTRA:          -6.079
REMARK INTER:                  -5.805
REMARK INTRA:                  -0.274
REMARK UNBOUND:                -0.294
REMARK SMILES O=c1cc(-c2ccc(O)c(O)c2)oc2cc(O)cc(O)c12
REMARK SMILES IDX 4 1 3 2 2 3 1 4 21 5 19 6 18 7 16 8 15 9 14 10 13 11 5 12
REMARK SMILES IDX 6 13 7 14 8 15 12 16 10 17 9 18 11 20 20 22 17 24
REMARK H PARENT 9 19 11 21 20 23 17 25
REMARK Flexibility Score: inf
ROOT
ATOM      1  C   UNL     1      28.341  48.293  61.314  1.00  0.00     0.138 A 
ATOM      2  C   UNL     1      29.266  49.328  61.117  1.00  0.00     0.100 A 
ATOM      3  C   UNL     1      29.021  50.296  60.142  1.00  0.00     0.197 A 
ATOM      4  O   UNL     1      29.838  51.247  60.030  1.00  0.00    -0.289 OA
ATOM      5  C   UNL     1      27.858  50.209  59.340  1.00  0.00     0.107 A 
ATOM      6  C   UNL     1      27.526  51.114  58.289  1.00  0.00     0.134 A 
ATOM      7  C   UNL     1      26.290  50.995  57.640  1.00  0.00     0.093 A 
ATOM      8  C   UNL     1      25.403  49.967  57.963  1.00  0.00     0.123 A 
ATOM      9  C   UNL     1      25.742  49.045  58.951  1.00  0.00     0.094 A 
ATOM     10  C   UNL     1      26.951  49.157  59.640  1.00  0.00     0.146 A 
ATOM     11  O   UNL     1      27.230  48.265  60.585  1.00  0.00    -0.456 OA
ENDROOT
BRANCH   1  12
ATOM     12  C   UNL     1      28.552  47.237  62.337  1.00  0.00     0.021 A 
ATOM     13  C   UNL     1      28.403  45.888  61.977  1.00  0.00     0.016 A 
ATOM     14  C   UNL     1      28.604  44.875  62.918  1.00  0.00     0.051 A 
ATOM     15  C   UNL     1      28.967  45.190  64.230  1.00  0.00     0.157 A 
ATOM     16  C   UNL     1      28.931  47.550  63.656  1.00  0.00     0.062 A 
ATOM     17  C   UNL     1      29.135  46.535  64.602  1.00  0.00     0.158 A 
BRANCH  15  18
ATOM     18  O   UNL     1      29.159  44.158  65.148  1.00  0.00    -0.504 OA
ATOM     19  H   UNL     1      29.834  43.419  64.993  1.00  0.00     0.293 HD
ENDBRANCH  15  18
BRANCH  17  20
ATOM     20  O   UNL     1      29.509  46.856  65.906  1.00  0.00    -0.504 OA
ATOM     21  H   UNL     1      29.664  46.139  66.605  1.00  0.00     0.293 HD
ENDBRANCH  17  20
ENDBRANCH   1  12
BRANCH   6  22
ATOM     22  O   UNL     1      28.376  52.125  57.830  1.00  0.00    -0.507 OA
ATOM     23  H   UNL     1      29.381  52.057  57.788  1.00  0.00     0.293 HD
ENDBRANCH   6  22
BRANCH   8  24
ATOM     24  O   UNL     1      24.182  49.847  57.302  1.00  0.00    -0.508 OA
ATOM     25  H   UNL     1      23.318  50.167  57.722  1.00  0.00     0.293 HD
ENDBRANCH   8  24
TORSDOF 5
ENDMDL
MODEL 6
REMARK VINA RESULT:    -4.596      2.513      7.387
REMARK INTER + INTRA:          -5.695
REMARK INTER:                  -5.432
REMARK INTRA:                  -0.263
REMARK UNBOUND:                -0.294
REMARK SMILES O=c1cc(-c2ccc(O)c(O)c2)oc2cc(O)cc(O)c12
REMARK SMILES IDX 4 1 3 2 2 3 1 4 21 5 19 6 18 7 16 8 15 9 14 10 13 11 5 12
REMARK SMILES IDX 6 13 7 14 8 15 12 16 10 17 9 18 11 20 20 22 17 24
REMARK H PARENT 9 19 11 21 20 23 17 25
REMARK Flexibility Score: inf
ROOT
ATOM      1  C   UNL     1      29.534  48.301  62.072  1.00  0.00     0.138 A 
ATOM      2  C   UNL     1      30.794  48.888  61.886  1.00  0.00     0.100 A 
ATOM      3  C   UNL     1      30.930  49.966  61.009  1.00  0.00     0.197 A 
ATOM      4  O   UNL     1      32.059  50.512  60.910  1.00  0.00    -0.289 OA
ATOM      5  C   UNL     1      29.805  50.436  60.291  1.00  0.00     0.107 A 
ATOM      6  C   UNL     1      29.834  51.498  59.340  1.00  0.00     0.134 A 
ATOM      7  C   UNL     1      28.634  51.954  58.778  1.00  0.00     0.093 A 
ATOM      8  C   UNL     1      27.416  51.344  59.087  1.00  0.00     0.123 A 
ATOM      9  C   UNL     1      27.385  50.270  59.972  1.00  0.00     0.094 A 
ATOM     10  C   UNL     1      28.559  49.815  60.577  1.00  0.00     0.146 A 
ATOM     11  O   UNL     1      28.484  48.796  61.427  1.00  0.00    -0.456 OA
ENDROOT
BRANCH   1  12
ATOM     12  C   UNL     1      29.333  47.153  62.992  1.00  0.00     0.021 A 
ATOM     13  C   UNL     1      29.163  45.864  62.462  1.00  0.00     0.016 A 
ATOM     14  C   UNL     1      28.980  44.766  63.306  1.00  0.00     0.051 A 
ATOM     15  C   UNL     1      28.974  44.934  64.693  1.00  0.00     0.157 A 
ATOM     16  C   UNL     1      29.340  47.316  64.391  1.00  0.00     0.062 A 
ATOM     17  C   UNL     1      29.159  46.215  65.240  1.00  0.00     0.158 A 
BRANCH  15  18
ATOM     18  O   UNL     1      28.788  43.820  65.511  1.00  0.00    -0.504 OA
ATOM     19  H   UNL     1      27.967  43.712  66.095  1.00  0.00     0.293 HD
ENDBRANCH  15  18
BRANCH  17  20
ATOM     20  O   UNL     1      29.165  46.387  66.624  1.00  0.00    -0.504 OA
ATOM     21  H   UNL     1      28.877  47.259  67.051  1.00  0.00     0.293 HD
ENDBRANCH  17  20
ENDBRANCH   1  12
BRANCH   6  22
ATOM     22  O   UNL     1      31.005  52.121  58.898  1.00  0.00    -0.507 OA
ATOM     23  H   UNL     1      31.447  52.904  59.352  1.00  0.00     0.293 HD
ENDBRANCH   6  22
BRANCH   8  24
ATOM     24  O   UNL     1      26.230  51.793  58.510  1.00  0.00    -0.508 OA
ATOM     25  H   UNL     1      26.015  52.781  58.443  1.00  0.00     0.293 HD
ENDBRANCH   8  24
TORSDOF 5
ENDMDL
MODEL 7
REMARK VINA RESULT:    -4.551      2.429      7.217
REMARK INTER + INTRA:          -5.643
REMARK INTER:                  -5.375
REMARK INTRA:                  -0.268
REMARK UNBOUND:                -0.294
REMARK SMILES O=c1cc(-c2ccc(O)c(O)c2)oc2cc(O)cc(O)c12
REMARK SMILES IDX 4 1 3 2 2 3 1 4 21 5 19 6 18 7 16 8 15 9 14 10 13 11 5 12
REMARK SMILES IDX 6 13 7 14 8 15 12 16 10 17 9 18 11 20 20 22 17 24
REMARK H PARENT 9 19 11 21 20 23 17 25
REMARK Flexibility Score: inf
ROOT
ATOM      1  C   UNL     1      29.617  47.954  62.472  1.00  0.00     0.138 A 
ATOM      2  C   UNL     1      30.860  48.596  62.385  1.00  0.00     0.100 A 
ATOM      3  C   UNL     1      31.016  49.681  61.521  1.00  0.00     0.197 A 
ATOM      4  O   UNL     1      32.124  50.277  61.509  1.00  0.00    -0.289 OA
ATOM      5  C   UNL     1      29.930  50.103  60.717  1.00  0.00     0.107 A 
ATOM      6  C   UNL     1      29.986  51.169  59.770  1.00  0.00     0.134 A 
ATOM      7  C   UNL     1      28.814  51.572  59.116  1.00  0.00     0.093 A 
ATOM      8  C   UNL     1      27.605  50.908  59.329  1.00  0.00     0.123 A 
ATOM      9  C   UNL     1      27.552  49.831  60.210  1.00  0.00     0.094 A 
ATOM     10  C   UNL     1      28.695  49.427  60.905  1.00  0.00     0.146 A 
ATOM     11  O   UNL     1      28.599  48.404  61.747  1.00  0.00    -0.456 OA
ENDROOT
BRANCH   1  12
ATOM     12  C   UNL     1      29.396  46.795  63.375  1.00  0.00     0.021 A 
ATOM     13  C   UNL     1      29.331  47.004  64.763  1.00  0.00     0.016 A 
ATOM     14  C   UNL     1      29.116  45.933  65.634  1.00  0.00     0.051 A 
ATOM     15  C   UNL     1      28.952  44.638  65.135  1.00  0.00     0.157 A 
ATOM     16  C   UNL     1      29.217  45.491  62.876  1.00  0.00     0.062 A 
ATOM     17  C   UNL     1      28.999  44.415  63.748  1.00  0.00     0.158 A 
BRANCH  15  18
ATOM     18  O   UNL     1      28.740  43.588  66.028  1.00  0.00    -0.504 OA
ATOM     19  H   UNL     1      27.941  43.564  66.650  1.00  0.00     0.293 HD
ENDBRANCH  15  18
BRANCH  17  20
ATOM     20  O   UNL     1      28.825  43.127  63.244  1.00  0.00    -0.504 OA
ATOM     21  H   UNL     1      28.999  42.911  62.270  1.00  0.00     0.293 HD
ENDBRANCH  17  20
ENDBRANCH   1  12
BRANCH   6  22
ATOM     22  O   UNL     1      31.159  51.843  59.420  1.00  0.00    -0.507 OA
ATOM     23  H   UNL     1      31.293  52.840  59.490  1.00  0.00     0.293 HD
ENDBRANCH   6  22
BRANCH   8  24
ATOM     24  O   UNL     1      26.448  51.306  58.662  1.00  0.00    -0.508 OA
ATOM     25  H   UNL     1      25.528  51.138  59.050  1.00  0.00     0.293 HD
ENDBRANCH   8  24
TORSDOF 5
ENDMDL
MODEL 8
REMARK VINA RESULT:    -4.279      2.515      6.602
REMARK INTER + INTRA:          -5.323
REMARK INTER:                  -5.044
REMARK INTRA:                  -0.279
REMARK UNBOUND:                -0.294
REMARK SMILES O=c1cc(-c2ccc(O)c(O)c2)oc2cc(O)cc(O)c12
REMARK SMILES IDX 4 1 3 2 2 3 1 4 21 5 19 6 18 7 16 8 15 9 14 10 13 11 5 12
REMARK SMILES IDX 6 13 7 14 8 15 12 16 10 17 9 18 11 20 20 22 17 24
REMARK H PARENT 9 19 11 21 20 23 17 25
REMARK Flexibility Score: inf
ROOT
ATOM      1  C   UNL     1      28.395  47.667  61.511  1.00  0.00     0.138 A 
ATOM      2  C   UNL     1      27.194  48.124  60.950  1.00  0.00     0.100 A 
ATOM      3  C   UNL     1      27.167  49.351  60.285  1.00  0.00     0.197 A 
ATOM      4  O   UNL     1      26.091  49.706  59.738  1.00  0.00    -0.289 OA
ATOM      5  C   UNL     1      28.340  50.138  60.210  1.00  0.00     0.107 A 
ATOM      6  C   UNL     1      28.420  51.422  59.595  1.00  0.00     0.134 A 
ATOM      7  C   UNL     1      29.664  52.056  59.479  1.00  0.00     0.093 A 
ATOM      8  C   UNL     1      30.819  51.479  60.011  1.00  0.00     0.123 A 
ATOM      9  C   UNL     1      30.742  50.250  60.662  1.00  0.00     0.094 A 
ATOM     10  C   UNL     1      29.523  49.577  60.763  1.00  0.00     0.146 A 
ATOM     11  O   UNL     1      29.496  48.400  61.380  1.00  0.00    -0.456 OA
ENDROOT
BRANCH   1  12
ATOM     12  C   UNL     1      28.480  46.370  62.229  1.00  0.00     0.021 A 
ATOM     13  C   UNL     1      29.207  46.291  63.429  1.00  0.00     0.016 A 
ATOM     14  C   UNL     1      29.296  45.085  64.128  1.00  0.00     0.051 A 
ATOM     15  C   UNL     1      28.655  43.940  63.647  1.00  0.00     0.157 A 
ATOM     16  C   UNL     1      27.824  45.217  61.756  1.00  0.00     0.062 A 
ATOM     17  C   UNL     1      27.911  44.006  62.457  1.00  0.00     0.158 A 
BRANCH  15  18
ATOM     18  O   UNL     1      28.763  42.749  64.366  1.00  0.00    -0.504 OA
ATOM     19  H   UNL     1      29.147  42.719  65.302  1.00  0.00     0.293 HD
ENDBRANCH  15  18
BRANCH  17  20
ATOM     20  O   UNL     1      27.259  42.870  61.979  1.00  0.00    -0.504 OA
ATOM     21  H   UNL     1      26.344  42.925  61.550  1.00  0.00     0.293 HD
ENDBRANCH  17  20
ENDBRANCH   1  12
BRANCH   6  22
ATOM     22  O   UNL     1      27.314  52.125  59.107  1.00  0.00    -0.507 OA
ATOM     23  H   UNL     1      27.293  53.119  58.937  1.00  0.00     0.293 HD
ENDBRANCH   6  22
BRANCH   8  24
ATOM     24  O   UNL     1      32.049  52.125  59.906  1.00  0.00    -0.508 OA
ATOM     25  H   UNL     1      32.117  53.135  59.894  1.00  0.00     0.293 HD
ENDBRANCH   8  24
TORSDOF 5
ENDMDL
MODEL 9
REMARK VINA RESULT:    -3.882      2.984      4.553
REMARK INTER + INTRA:          -4.856
REMARK INTER:                  -4.590
REMARK INTRA:                  -0.266
REMARK UNBOUND:                -0.294
REMARK SMILES O=c1cc(-c2ccc(O)c(O)c2)oc2cc(O)cc(O)c12
REMARK SMILES IDX 4 1 3 2 2 3 1 4 21 5 19 6 18 7 16 8 15 9 14 10 13 11 5 12
REMARK SMILES IDX 6 13 7 14 8 15 12 16 10 17 9 18 11 20 20 22 17 24
REMARK H PARENT 9 19 11 21 20 23 17 25
REMARK Flexibility Score: inf
ROOT
ATOM      1  C   UNL     1      30.173  47.924  62.565  1.00  0.00     0.138 A 
ATOM      2  C   UNL     1      30.468  48.101  63.925  1.00  0.00     0.100 A 
ATOM      3  C   UNL     1      30.147  47.095  64.837  1.00  0.00     0.197 A 
ATOM      4  O   UNL     1      30.479  47.255  66.040  1.00  0.00    -0.289 OA
ATOM      5  C   UNL     1      29.500  45.919  64.389  1.00  0.00     0.107 A 
ATOM      6  C   UNL     1      29.088  44.846  65.234  1.00  0.00     0.134 A 
ATOM      7  C   UNL     1      28.561  43.681  64.662  1.00  0.00     0.093 A 
ATOM      8  C   UNL     1      28.374  43.576  63.282  1.00  0.00     0.123 A 
ATOM      9  C   UNL     1      28.723  44.640  62.454  1.00  0.00     0.094 A 
ATOM     10  C   UNL     1      29.283  45.801  62.990  1.00  0.00     0.146 A 
ATOM     11  O   UNL     1      29.615  46.787  62.163  1.00  0.00    -0.456 OA
ENDROOT
BRANCH   1  12
ATOM     12  C   UNL     1      30.493  48.962  61.553  1.00  0.00     0.021 A 
ATOM     13  C   UNL     1      31.799  49.049  61.042  1.00  0.00     0.016 A 
ATOM     14  C   UNL     1      32.124  50.011  60.082  1.00  0.00     0.051 A 
ATOM     15  C   UNL     1      31.150  50.896  59.610  1.00  0.00     0.157 A 
ATOM     16  C   UNL     1      29.512  49.846  61.063  1.00  0.00     0.062 A 
ATOM     17  C   UNL     1      29.836  50.811  60.099  1.00  0.00     0.158 A 
BRANCH  15  18
ATOM     18  O   UNL     1      31.504  51.847  58.653  1.00  0.00    -0.504 OA
ATOM     19  H   UNL     1      31.941  51.591  57.776  1.00  0.00     0.293 HD
ENDBRANCH  15  18
BRANCH  17  20
ATOM     20  O   UNL     1      28.858  51.683  59.623  1.00  0.00    -0.504 OA
ATOM     21  H   UNL     1      28.263  51.436  58.841  1.00  0.00     0.293 HD
ENDBRANCH  17  20
ENDBRANCH   1  12
BRANCH   6  22
ATOM     22  O   UNL     1      29.151  44.881  66.630  1.00  0.00    -0.507 OA
ATOM     23  H   UNL     1      29.827  45.408  67.163  1.00  0.00     0.293 HD
ENDBRANCH   6  22
BRANCH   8  24
ATOM     24  O   UNL     1      27.834  42.419  62.724  1.00  0.00    -0.508 OA
ATOM     25  H   UNL     1      28.107  41.498  63.047  1.00  0.00     0.293 HD
ENDBRANCH   8  24
TORSDOF 5
ENDMDL
