MODEL 1
REMARK VINA RESULT:    -3.640      0.000      0.000
REMARK INTER + INTRA:          -3.977
REMARK INTER:                  -3.959
REMARK INTRA:                  -0.018
REMARK UNBOUND:                -0.018
REMARK SMILES OCc1ccccc1
REMARK SMILES IDX 2 1 3 2 6 3 5 4 7 5 4 6 8 7 1 8
REMARK H PARENT 1 9
REMARK Flexibility Score: inf
ROOT
ATOM      1  C   UNL     1     168.611 161.650 178.977  1.00  0.00     0.191 C 
ENDROOT
BRANCH   1   2
ATOM      2  C   UNL     1     167.127 161.405 178.940  1.00  0.00    -0.023 A 
ATOM      3  C   UNL     1     164.364 160.936 178.795  1.00  0.00     0.000 A 
ATOM      4  C   UNL     1     164.867 162.222 178.578  1.00  0.00     0.000 A 
ATOM      5  C   UNL     1     165.239 159.881 179.074  1.00  0.00     0.000 A 
ATOM      6  C   UNL     1     166.244 162.457 178.645  1.00  0.00     0.006 A 
ATOM      7  C   UNL     1     166.617 160.112 179.141  1.00  0.00     0.006 A 
ENDBRANCH   1   2
BRANCH   1   8
ATOM      8  O   UNL     1     169.246 160.643 179.716  1.00  0.00    -0.392 OA
ATOM      9  H   UNL     1     168.984 160.779 180.665  1.00  0.00     0.211 HD
ENDBRANCH   1   8
TORSDOF 2
ENDMDL
MODEL 2
REMARK VINA RESULT:    -3.556      8.449      9.806
REMARK INTER + INTRA:          -3.886
REMARK INTER:                  -3.870
REMARK INTRA:                  -0.016
REMARK UNBOUND:                -0.018
REMARK SMILES OCc1ccccc1
REMARK SMILES IDX 2 1 3 2 6 3 5 4 7 5 4 6 8 7 1 8
REMARK H PARENT 1 9
REMARK Flexibility Score: inf
ROOT
ATOM      1  C   UNL     1     163.135 168.409 177.878  1.00  0.00     0.191 C 
ENDROOT
BRANCH   1   2
ATOM      2  C   UNL     1     164.164 169.504 177.911  1.00  0.00    -0.023 A 
ATOM      3  C   UNL     1     166.081 171.555 177.893  1.00  0.00     0.000 A 
ATOM      4  C   UNL     1     166.477 170.226 177.720  1.00  0.00     0.000 A 
ATOM      5  C   UNL     1     164.727 171.864 178.065  1.00  0.00     0.000 A 
ATOM      6  C   UNL     1     165.524 169.203 177.723  1.00  0.00     0.006 A 
ATOM      7  C   UNL     1     163.770 170.843 178.068  1.00  0.00     0.006 A 
ENDBRANCH   1   2
BRANCH   1   8
ATOM      8  O   UNL     1     162.096 168.698 178.773  1.00  0.00    -0.392 OA
ATOM      9  H   UNL     1     161.342 169.047 178.228  1.00  0.00     0.211 HD
ENDBRANCH   1   8
TORSDOF 2
ENDMDL
MODEL 3
REMARK VINA RESULT:    -3.507      1.530      2.073
REMARK INTER + INTRA:          -3.833
REMARK INTER:                  -3.814
REMARK INTRA:                  -0.018
REMARK UNBOUND:                -0.018
REMARK SMILES OCc1ccccc1
REMARK SMILES IDX 2 1 3 2 6 3 5 4 7 5 4 6 8 7 1 8
REMARK H PARENT 1 9
REMARK Flexibility Score: inf
ROOT
ATOM      1  C   UNL     1     169.700 163.412 178.185  1.00  0.00     0.191 C 
ENDROOT
BRANCH   1   2
ATOM      2  C   UNL     1     168.470 162.599 178.481  1.00  0.00    -0.023 A 
ATOM      3  C   UNL     1     166.180 161.049 178.964  1.00  0.00     0.000 A 
ATOM      4  C   UNL     1     166.064 162.291 178.333  1.00  0.00     0.000 A 
ATOM      5  C   UNL     1     167.439 160.575 179.346  1.00  0.00     0.000 A 
ATOM      6  C   UNL     1     167.204 163.062 178.086  1.00  0.00     0.006 A 
ATOM      7  C   UNL     1     168.582 161.344 179.101  1.00  0.00     0.006 A 
ENDBRANCH   1   2
BRANCH   1   8
ATOM      8  O   UNL     1     170.821 162.576 178.105  1.00  0.00    -0.392 OA
ATOM      9  H   UNL     1     170.527 161.678 178.413  1.00  0.00     0.211 HD
ENDBRANCH   1   8
TORSDOF 2
ENDMDL
MODEL 4
REMARK VINA RESULT:    -3.498      1.512      2.604
REMARK INTER + INTRA:          -3.823
REMARK INTER:                  -3.805
REMARK INTRA:                  -0.017
REMARK UNBOUND:                -0.018
REMARK SMILES OCc1ccccc1
REMARK SMILES IDX 2 1 3 2 6 3 5 4 7 5 4 6 8 7 1 8
REMARK H PARENT 1 9
REMARK Flexibility Score: inf
ROOT
ATOM      1  C   UNL     1     169.693 163.375 178.204  1.00  0.00     0.191 C 
ENDROOT
BRANCH   1   2
ATOM      2  C   UNL     1     168.488 162.512 178.460  1.00  0.00    -0.023 A 
ATOM      3  C   UNL     1     166.233 160.933 179.007  1.00  0.00     0.000 A 
ATOM      4  C   UNL     1     167.502 160.498 179.398  1.00  0.00     0.000 A 
ATOM      5  C   UNL     1     166.086 162.160 178.352  1.00  0.00     0.000 A 
ATOM      6  C   UNL     1     168.627 161.286 179.132  1.00  0.00     0.006 A 
ATOM      7  C   UNL     1     167.208 162.950 178.084  1.00  0.00     0.006 A 
ENDBRANCH   1   2
BRANCH   1   8
ATOM      8  O   UNL     1     170.845 162.582 178.131  1.00  0.00    -0.392 OA
ATOM      9  H   UNL     1     170.539 161.637 178.109  1.00  0.00     0.211 HD
ENDBRANCH   1   8
TORSDOF 2
ENDMDL
MODEL 5
REMARK VINA RESULT:    -3.218     10.548     11.123
REMARK INTER + INTRA:          -3.518
REMARK INTER:                  -3.505
REMARK INTRA:                  -0.014
REMARK UNBOUND:                -0.018
REMARK SMILES OCc1ccccc1
REMARK SMILES IDX 2 1 3 2 6 3 5 4 7 5 4 6 8 7 1 8
REMARK H PARENT 1 9
REMARK Flexibility Score: inf
ROOT
ATOM      1  C   UNL     1     163.876 170.760 174.138  1.00  0.00     0.191 C 
ENDROOT
BRANCH   1   2
ATOM      2  C   UNL     1     164.308 171.042 175.551  1.00  0.00    -0.023 A 
ATOM      3  C   UNL     1     165.074 171.633 178.185  1.00  0.00     0.000 A 
ATOM      4  C   UNL     1     165.815 172.135 177.113  1.00  0.00     0.000 A 
ATOM      5  C   UNL     1     163.944 170.844 177.946  1.00  0.00     0.000 A 
ATOM      6  C   UNL     1     165.433 171.847 175.798  1.00  0.00     0.006 A 
ATOM      7  C   UNL     1     163.558 170.553 176.633  1.00  0.00     0.006 A 
ENDBRANCH   1   2
BRANCH   1   8
ATOM      8  O   UNL     1     162.523 171.086 173.975  1.00  0.00    -0.392 OA
ATOM      9  H   UNL     1     162.334 171.832 174.604  1.00  0.00     0.211 HD
ENDBRANCH   1   8
TORSDOF 2
ENDMDL
MODEL 6
REMARK VINA RESULT:    -3.210      2.346      3.508
REMARK INTER + INTRA:          -3.509
REMARK INTER:                  -3.496
REMARK INTRA:                  -0.014
REMARK UNBOUND:                -0.018
REMARK SMILES OCc1ccccc1
REMARK SMILES IDX 2 1 3 2 6 3 5 4 7 5 4 6 8 7 1 8
REMARK H PARENT 1 9
REMARK Flexibility Score: inf
ROOT
ATOM      1  C   UNL     1     165.152 163.376 178.208  1.00  0.00     0.191 C 
ENDROOT
BRANCH   1   2
ATOM      2  C   UNL     1     166.465 162.683 178.448  1.00  0.00    -0.023 A 
ATOM      3  C   UNL     1     168.921 161.427 178.966  1.00  0.00     0.000 A 
ATOM      4  C   UNL     1     168.894 162.686 178.360  1.00  0.00     0.000 A 
ATOM      5  C   UNL     1     167.725 160.798 179.324  1.00  0.00     0.000 A 
ATOM      6  C   UNL     1     167.671 163.317 178.106  1.00  0.00     0.006 A 
ATOM      7  C   UNL     1     166.500 161.425 179.072  1.00  0.00     0.006 A 
ENDBRANCH   1   2
BRANCH   1   8
ATOM      8  O   UNL     1     164.400 163.404 179.390  1.00  0.00    -0.392 OA
ATOM      9  H   UNL     1     164.869 164.024 180.009  1.00  0.00     0.211 HD
ENDBRANCH   1   8
TORSDOF 2
ENDMDL
MODEL 7
REMARK VINA RESULT:    -3.209      2.353      4.126
REMARK INTER + INTRA:          -3.508
REMARK INTER:                  -3.490
REMARK INTRA:                  -0.018
REMARK UNBOUND:                -0.018
REMARK SMILES OCc1ccccc1
REMARK SMILES IDX 2 1 3 2 6 3 5 4 7 5 4 6 8 7 1 8
REMARK H PARENT 1 9
REMARK Flexibility Score: inf
ROOT
ATOM      1  C   UNL     1     168.108 161.247 178.928  1.00  0.00     0.191 C 
ENDROOT
BRANCH   1   2
ATOM      2  C   UNL     1     168.588 162.567 178.390  1.00  0.00    -0.023 A 
ATOM      3  C   UNL     1     169.485 165.058 177.458  1.00  0.00     0.000 A 
ATOM      4  C   UNL     1     168.118 164.829 177.635  1.00  0.00     0.000 A 
ATOM      5  C   UNL     1     170.407 164.049 177.756  1.00  0.00     0.000 A 
ATOM      6  C   UNL     1     167.668 163.590 178.104  1.00  0.00     0.006 A 
ATOM      7  C   UNL     1     169.962 162.809 178.226  1.00  0.00     0.006 A 
ENDBRANCH   1   2
BRANCH   1   8
ATOM      8  O   UNL     1     169.093 160.674 179.743  1.00  0.00    -0.392 OA
ATOM      9  H   UNL     1     168.952 159.691 179.709  1.00  0.00     0.211 HD
ENDBRANCH   1   8
TORSDOF 2
ENDMDL
MODEL 8
REMARK VINA RESULT:    -3.202      2.442      3.780
REMARK INTER + INTRA:          -3.500
REMARK INTER:                  -3.484
REMARK INTRA:                  -0.016
REMARK UNBOUND:                -0.018
REMARK SMILES OCc1ccccc1
REMARK SMILES IDX 2 1 3 2 6 3 5 4 7 5 4 6 8 7 1 8
REMARK H PARENT 1 9
REMARK Flexibility Score: inf
ROOT
ATOM      1  C   UNL     1     163.790 162.008 177.935  1.00  0.00     0.191 C 
ENDROOT
BRANCH   1   2
ATOM      2  C   UNL     1     165.125 161.556 178.458  1.00  0.00    -0.023 A 
ATOM      3  C   UNL     1     167.636 160.687 179.362  1.00  0.00     0.000 A 
ATOM      4  C   UNL     1     166.551 159.807 179.363  1.00  0.00     0.000 A 
ATOM      5  C   UNL     1     167.474 161.997 178.901  1.00  0.00     0.000 A 
ATOM      6  C   UNL     1     165.299 160.236 178.907  1.00  0.00     0.006 A 
ATOM      7  C   UNL     1     166.225 162.430 178.444  1.00  0.00     0.006 A 
ENDBRANCH   1   2
BRANCH   1   8
ATOM      8  O   UNL     1     162.758 161.368 178.636  1.00  0.00    -0.392 OA
ATOM      9  H   UNL     1     163.146 160.534 179.012  1.00  0.00     0.211 HD
ENDBRANCH   1   8
TORSDOF 2
ENDMDL
MODEL 9
REMARK VINA RESULT:    -3.185      3.233      4.404
REMARK INTER + INTRA:          -3.482
REMARK INTER:                  -3.469
REMARK INTRA:                  -0.012
REMARK UNBOUND:                -0.018
REMARK SMILES OCc1ccccc1
REMARK SMILES IDX 2 1 3 2 6 3 5 4 7 5 4 6 8 7 1 8
REMARK H PARENT 1 9
REMARK Flexibility Score: inf
ROOT
ATOM      1  C   UNL     1     164.376 160.973 178.599  1.00  0.00     0.191 C 
ENDROOT
BRANCH   1   2
ATOM      2  C   UNL     1     164.542 159.587 178.039  1.00  0.00    -0.023 A 
ATOM      3  C   UNL     1     164.783 156.980 177.029  1.00  0.00     0.000 A 
ATOM      4  C   UNL     1     165.270 157.283 178.303  1.00  0.00     0.000 A 
ATOM      5  C   UNL     1     164.166 157.973 176.262  1.00  0.00     0.000 A 
ATOM      6  C   UNL     1     165.146 158.581 178.811  1.00  0.00     0.006 A 
ATOM      7  C   UNL     1     164.040 159.272 176.766  1.00  0.00     0.006 A 
ENDBRANCH   1   2
BRANCH   1   8
ATOM      8  O   UNL     1     163.017 161.306 178.664  1.00  0.00    -0.392 OA
ATOM      9  H   UNL     1     162.518 160.449 178.725  1.00  0.00     0.211 HD
ENDBRANCH   1   8
TORSDOF 2
ENDMDL
