MODEL 1
REMARK VINA RESULT:    -3.513      0.000      0.000
REMARK INTER + INTRA:          -4.527
REMARK INTER:                  -4.334
REMARK INTRA:                  -0.193
REMARK UNBOUND:                -0.193
REMARK SMILES CCCCCC(=O)[O-]
REMARK SMILES IDX 4 1 5 2 6 3 7 4 8 5 3 6 2 7 1 8
REMARK H PARENT
REMARK Flexibility Score: inf
ROOT
ATOM      1  C   UNL     1      50.636  -1.290  72.830  1.00  0.00     0.006 C 
ENDROOT
BRANCH   1   2
ATOM      2  C   UNL     1      52.052  -1.611  72.335  1.00  0.00     0.053 C 
BRANCH   2   3
ATOM      3  C   UNL     1      52.655  -0.417  71.665  1.00  0.00     0.041 C 
ATOM      4  O   UNL     1      53.812  -0.483  71.174  1.00  0.00    -0.550 OA
ATOM      5  O   UNL     1      51.919   0.755  71.539  1.00  0.00    -0.550 OA
ENDBRANCH   2   3
ENDBRANCH   1   2
BRANCH   1   6
ATOM      6  C   UNL     1      49.549  -1.783  71.852  1.00  0.00     0.000 C 
BRANCH   6   7
ATOM      7  C   UNL     1      48.480  -0.725  71.534  1.00  0.00    -0.003 C 
ATOM      8  C   UNL     1      48.447   0.417  72.548  1.00  0.00     0.004 C 
ENDBRANCH   6   7
ENDBRANCH   1   6
TORSDOF 4
ENDMDL
MODEL 2
REMARK VINA RESULT:    -3.443      1.032      1.290
REMARK INTER + INTRA:          -4.442
REMARK INTER:                  -4.347
REMARK INTRA:                  -0.094
REMARK UNBOUND:                -0.193
REMARK SMILES CCCCCC(=O)[O-]
REMARK SMILES IDX 4 1 5 2 6 3 7 4 8 5 3 6 2 7 1 8
REMARK H PARENT
REMARK Flexibility Score: inf
ROOT
ATOM      1  C   UNL     1      50.640  -2.169  72.086  1.00  0.00     0.006 C 
ENDROOT
BRANCH   1   2
ATOM      2  C   UNL     1      51.522  -0.919  72.204  1.00  0.00     0.053 C 
BRANCH   2   3
ATOM      3  C   UNL     1      52.954  -1.262  71.940  1.00  0.00     0.041 C 
ATOM      4  O   UNL     1      53.430  -2.353  72.348  1.00  0.00    -0.550 OA
ATOM      5  O   UNL     1      53.751  -0.397  71.201  1.00  0.00    -0.550 OA
ENDBRANCH   2   3
ENDBRANCH   1   2
BRANCH   1   6
ATOM      6  C   UNL     1      49.140  -1.844  72.243  1.00  0.00     0.000 C 
BRANCH   6   7
ATOM      7  C   UNL     1      48.712  -0.550  71.532  1.00  0.00    -0.003 C 
ATOM      8  C   UNL     1      48.148   0.500  72.488  1.00  0.00     0.004 C 
ENDBRANCH   6   7
ENDBRANCH   1   6
TORSDOF 4
ENDMDL
MODEL 3
REMARK VINA RESULT:    -3.434      3.740      4.600
REMARK INTER + INTRA:          -4.430
REMARK INTER:                  -4.333
REMARK INTRA:                  -0.097
REMARK UNBOUND:                -0.193
REMARK SMILES CCCCCC(=O)[O-]
REMARK SMILES IDX 4 1 5 2 6 3 7 4 8 5 3 6 2 7 1 8
REMARK H PARENT
REMARK Flexibility Score: inf
ROOT
ATOM      1  C   UNL     1      52.422  -2.499  72.764  1.00  0.00     0.006 C 
ENDROOT
BRANCH   1   2
ATOM      2  C   UNL     1      53.724  -2.756  73.533  1.00  0.00     0.053 C 
BRANCH   2   3
ATOM      3  C   UNL     1      54.067  -4.211  73.510  1.00  0.00     0.041 C 
ATOM      4  O   UNL     1      53.230  -5.066  73.902  1.00  0.00    -0.550 OA
ATOM      5  O   UNL     1      55.294  -4.629  73.008  1.00  0.00    -0.550 OA
ENDBRANCH   2   3
ENDBRANCH   1   2
BRANCH   1   6
ATOM      6  C   UNL     1      52.416  -1.122  72.066  1.00  0.00     0.000 C 
BRANCH   6   7
ATOM      7  C   UNL     1      53.761  -0.754  71.418  1.00  0.00    -0.003 C 
ATOM      8  C   UNL     1      53.741   0.611  70.732  1.00  0.00     0.004 C 
ENDBRANCH   6   7
ENDBRANCH   1   6
TORSDOF 4
ENDMDL
MODEL 4
REMARK VINA RESULT:    -3.431     12.708     13.094
REMARK INTER + INTRA:          -4.426
REMARK INTER:                  -4.293
REMARK INTRA:                  -0.134
REMARK UNBOUND:                -0.193
REMARK SMILES CCCCCC(=O)[O-]
REMARK SMILES IDX 4 1 5 2 6 3 7 4 8 5 3 6 2 7 1 8
REMARK H PARENT
REMARK Flexibility Score: inf
ROOT
ATOM      1  C   UNL     1      57.150  -3.460  82.105  1.00  0.00     0.006 C 
ENDROOT
BRANCH   1   2
ATOM      2  C   UNL     1      58.434  -2.708  81.730  1.00  0.00     0.053 C 
BRANCH   2   3
ATOM      3  C   UNL     1      59.639  -3.497  82.132  1.00  0.00     0.041 C 
ATOM      4  O   UNL     1      59.510  -4.552  82.806  1.00  0.00    -0.550 OA
ATOM      5  O   UNL     1      60.903  -3.095  81.720  1.00  0.00    -0.550 OA
ENDBRANCH   2   3
ENDBRANCH   1   2
BRANCH   1   6
ATOM      6  C   UNL     1      56.139  -2.558  82.844  1.00  0.00     0.000 C 
BRANCH   6   7
ATOM      7  C   UNL     1      56.741  -1.233  83.340  1.00  0.00    -0.003 C 
ATOM      8  C   UNL     1      55.709  -0.311  83.986  1.00  0.00     0.004 C 
ENDBRANCH   6   7
ENDBRANCH   1   6
TORSDOF 4
ENDMDL
MODEL 5
REMARK VINA RESULT:    -3.380     12.248     13.070
REMARK INTER + INTRA:          -4.363
REMARK INTER:                  -4.245
REMARK INTRA:                  -0.118
REMARK UNBOUND:                -0.193
REMARK SMILES CCCCCC(=O)[O-]
REMARK SMILES IDX 4 1 5 2 6 3 7 4 8 5 3 6 2 7 1 8
REMARK H PARENT
REMARK Flexibility Score: inf
ROOT
ATOM      1  C   UNL     1      58.407  -2.562  82.015  1.00  0.00     0.006 C 
ENDROOT
BRANCH   1   2
ATOM      2  C   UNL     1      59.666  -3.217  82.600  1.00  0.00     0.053 C 
BRANCH   2   3
ATOM      3  C   UNL     1      60.593  -3.638  81.506  1.00  0.00     0.041 C 
ATOM      4  O   UNL     1      61.019  -2.792  80.676  1.00  0.00    -0.550 OA
ATOM      5  O   UNL     1      61.028  -4.955  81.430  1.00  0.00    -0.550 OA
ENDBRANCH   2   3
ENDBRANCH   1   2
BRANCH   1   6
ATOM      6  C   UNL     1      57.206  -3.530  81.980  1.00  0.00     0.000 C 
BRANCH   6   7
ATOM      7  C   UNL     1      55.891  -2.900  82.467  1.00  0.00    -0.003 C 
ATOM      8  C   UNL     1      56.106  -1.672  83.350  1.00  0.00     0.004 C 
ENDBRANCH   6   7
ENDBRANCH   1   6
TORSDOF 4
ENDMDL
MODEL 6
REMARK VINA RESULT:    -3.362      2.527      4.143
REMARK INTER + INTRA:          -4.341
REMARK INTER:                  -4.240
REMARK INTRA:                  -0.100
REMARK UNBOUND:                -0.193
REMARK SMILES CCCCCC(=O)[O-]
REMARK SMILES IDX 4 1 5 2 6 3 7 4 8 5 3 6 2 7 1 8
REMARK H PARENT
REMARK Flexibility Score: inf
ROOT
ATOM      1  C   UNL     1      51.453  -1.719  72.337  1.00  0.00     0.006 C 
ENDROOT
BRANCH   1   2
ATOM      2  C   UNL     1      50.385  -0.621  72.421  1.00  0.00     0.053 C 
BRANCH   2   3
ATOM      3  C   UNL     1      49.044  -1.166  72.044  1.00  0.00     0.041 C 
ATOM      4  O   UNL     1      48.322  -0.555  71.214  1.00  0.00    -0.550 OA
ATOM      5  O   UNL     1      48.611  -2.376  72.573  1.00  0.00    -0.550 OA
ENDBRANCH   2   3
ENDBRANCH   1   2
BRANCH   1   6
ATOM      6  C   UNL     1      52.846  -1.154  71.988  1.00  0.00     0.000 C 
BRANCH   6   7
ATOM      7  C   UNL     1      52.801   0.226  71.312  1.00  0.00    -0.003 C 
ATOM      8  C   UNL     1      54.145   0.648  70.721  1.00  0.00     0.004 C 
ENDBRANCH   6   7
ENDBRANCH   1   6
TORSDOF 4
ENDMDL
MODEL 7
REMARK VINA RESULT:    -3.342      2.053      2.520
REMARK INTER + INTRA:          -4.316
REMARK INTER:                  -4.254
REMARK INTRA:                  -0.062
REMARK UNBOUND:                -0.193
REMARK SMILES CCCCCC(=O)[O-]
REMARK SMILES IDX 4 1 5 2 6 3 7 4 8 5 3 6 2 7 1 8
REMARK H PARENT
REMARK Flexibility Score: inf
ROOT
ATOM      1  C   UNL     1      51.348  -1.241  72.337  1.00  0.00     0.006 C 
ENDROOT
BRANCH   1   2
ATOM      2  C   UNL     1      52.850  -1.235  72.025  1.00  0.00     0.053 C 
BRANCH   2   3
ATOM      3  C   UNL     1      53.492  -2.493  72.516  1.00  0.00     0.041 C 
ATOM      4  O   UNL     1      53.298  -2.884  73.697  1.00  0.00    -0.550 OA
ATOM      5  O   UNL     1      54.266  -3.261  71.655  1.00  0.00    -0.550 OA
ENDBRANCH   2   3
ENDBRANCH   1   2
BRANCH   1   6
ATOM      6  C   UNL     1      50.689   0.128  72.067  1.00  0.00     0.000 C 
BRANCH   6   7
ATOM      7  C   UNL     1      49.201   0.183  72.452  1.00  0.00    -0.003 C 
ATOM      8  C   UNL     1      48.315  -0.661  71.538  1.00  0.00     0.004 C 
ENDBRANCH   6   7
ENDBRANCH   1   6
TORSDOF 4
ENDMDL
MODEL 8
REMARK VINA RESULT:    -3.277      2.818      4.346
REMARK INTER + INTRA:          -4.236
REMARK INTER:                  -4.131
REMARK INTRA:                  -0.105
REMARK UNBOUND:                -0.193
REMARK SMILES CCCCCC(=O)[O-]
REMARK SMILES IDX 4 1 5 2 6 3 7 4 8 5 3 6 2 7 1 8
REMARK H PARENT
REMARK Flexibility Score: inf
ROOT
ATOM      1  C   UNL     1      49.687  -1.319  71.994  1.00  0.00     0.006 C 
ENDROOT
BRANCH   1   2
ATOM      2  C   UNL     1      48.466  -0.469  71.618  1.00  0.00     0.053 C 
BRANCH   2   3
ATOM      3  C   UNL     1      48.049   0.387  72.772  1.00  0.00     0.041 C 
ATOM      4  O   UNL     1      47.824   1.614  72.601  1.00  0.00    -0.550 OA
ATOM      5  O   UNL     1      47.862  -0.179  74.026  1.00  0.00    -0.550 OA
ENDBRANCH   2   3
ENDBRANCH   1   2
BRANCH   1   6
ATOM      6  C   UNL     1      50.967  -0.470  72.144  1.00  0.00     0.000 C 
BRANCH   6   7
ATOM      7  C   UNL     1      52.258  -1.304  72.184  1.00  0.00    -0.003 C 
ATOM      8  C   UNL     1      53.435  -0.618  71.492  1.00  0.00     0.004 C 
ENDBRANCH   6   7
ENDBRANCH   1   6
TORSDOF 4
ENDMDL
MODEL 9
REMARK VINA RESULT:    -3.160     13.422     14.590
REMARK INTER + INTRA:          -4.092
REMARK INTER:                  -3.973
REMARK INTRA:                  -0.119
REMARK UNBOUND:                -0.193
REMARK SMILES CCCCCC(=O)[O-]
REMARK SMILES IDX 4 1 5 2 6 3 7 4 8 5 3 6 2 7 1 8
REMARK H PARENT
REMARK Flexibility Score: inf
ROOT
ATOM      1  C   UNL     1      58.791  -5.483  82.795  1.00  0.00     0.006 C 
ENDROOT
BRANCH   1   2
ATOM      2  C   UNL     1      59.785  -6.402  83.518  1.00  0.00     0.053 C 
BRANCH   2   3
ATOM      3  C   UNL     1      60.632  -7.136  82.528  1.00  0.00     0.041 C 
ATOM      4  O   UNL     1      60.178  -8.146  81.930  1.00  0.00    -0.550 OA
ATOM      5  O   UNL     1      61.909  -6.677  82.230  1.00  0.00    -0.550 OA
ENDBRANCH   2   3
ENDBRANCH   1   2
BRANCH   1   6
ATOM      6  C   UNL     1      59.411  -4.115  82.438  1.00  0.00     0.000 C 
BRANCH   6   7
ATOM      7  C   UNL     1      58.423  -3.147  81.766  1.00  0.00    -0.003 C 
ATOM      8  C   UNL     1      56.964  -3.567  81.934  1.00  0.00     0.004 C 
ENDBRANCH   6   7
ENDBRANCH   1   6
TORSDOF 4
ENDMDL
