MODEL 1
REMARK VINA RESULT:    -4.583      0.000      0.000
REMARK INTER + INTRA:          -4.944
REMARK INTER:                  -4.851
REMARK INTRA:                  -0.094
REMARK UNBOUND:                -0.094
REMARK SMILES C=C(C)[C@H]1CC=C(C)C(=O)C1
REMARK SMILES IDX 8 1 7 2 6 3 5 4 4 5 11 6 9 7 10 8 2 9 1 10 3 11
REMARK H PARENT
REMARK Flexibility Score: inf
ROOT
ATOM      1  C   UNL     1       1.353  11.275   9.474  1.00  0.00     0.048 C 
ATOM      2  C   UNL     1       2.046  10.737  10.697  1.00  0.00    -0.012 C 
ATOM      3  C   UNL     1       2.698  11.571  11.525  1.00  0.00    -0.019 C 
ATOM      4  C   UNL     1       3.473  11.071  12.716  1.00  0.00     0.036 C 
ATOM      5  C   UNL     1       2.853   9.778  13.281  1.00  0.00     0.025 C 
ATOM      6  C   UNL     1       2.731   8.714  12.174  1.00  0.00     0.089 C 
ATOM      7  C   UNL     1       2.028   9.279  10.970  1.00  0.00     0.158 C 
ATOM      8  O   UNL     1       1.458   8.491  10.168  1.00  0.00    -0.295 OA
ENDROOT
BRANCH   5   9
ATOM      9  C   UNL     1       3.636   9.257  14.479  1.00  0.00    -0.077 C 
ATOM     10  C   UNL     1       4.979   9.291  14.505  1.00  0.00     0.008 C 
ATOM     11  C   UNL     1       2.906   8.685  15.667  1.00  0.00     0.039 C 
ENDBRANCH   5   9
TORSDOF 1
ENDMDL
MODEL 2
REMARK VINA RESULT:    -4.583     12.321     14.174
REMARK INTER + INTRA:          -4.944
REMARK INTER:                  -4.856
REMARK INTRA:                  -0.088
REMARK UNBOUND:                -0.094
REMARK SMILES C=C(C)[C@H]1CC=C(C)C(=O)C1
REMARK SMILES IDX 8 1 7 2 6 3 5 4 4 5 11 6 9 7 10 8 2 9 1 10 3 11
REMARK H PARENT
REMARK Flexibility Score: inf
ROOT
ATOM      1  C   UNL     1       5.012  20.497   0.544  1.00  0.00     0.048 C 
ATOM      2  C   UNL     1       4.789  20.626   2.027  1.00  0.00    -0.012 C 
ATOM      3  C   UNL     1       5.819  20.484   2.878  1.00  0.00    -0.019 C 
ATOM      4  C   UNL     1       5.632  20.524   4.372  1.00  0.00     0.036 C 
ATOM      5  C   UNL     1       4.451  21.434   4.761  1.00  0.00     0.025 C 
ATOM      6  C   UNL     1       3.172  20.996   4.023  1.00  0.00     0.089 C 
ATOM      7  C   UNL     1       3.424  20.884   2.545  1.00  0.00     0.158 C 
ATOM      8  O   UNL     1       2.450  20.969   1.749  1.00  0.00    -0.295 OA
ENDROOT
BRANCH   5   9
ATOM      9  C   UNL     1       4.244  21.473   6.270  1.00  0.00    -0.077 C 
ATOM     10  C   UNL     1       4.650  22.524   7.004  1.00  0.00     0.008 C 
ATOM     11  C   UNL     1       3.575  20.320   6.970  1.00  0.00     0.039 C 
ENDBRANCH   5   9
TORSDOF 1
ENDMDL
MODEL 3
REMARK VINA RESULT:    -4.565      1.403      2.347
REMARK INTER + INTRA:          -4.925
REMARK INTER:                  -4.832
REMARK INTRA:                  -0.094
REMARK UNBOUND:                -0.094
REMARK SMILES C=C(C)[C@H]1CC=C(C)C(=O)C1
REMARK SMILES IDX 8 1 7 2 6 3 5 4 4 5 11 6 9 7 10 8 2 9 1 10 3 11
REMARK H PARENT
REMARK Flexibility Score: inf
ROOT
ATOM      1  C   UNL     1       1.514   8.606   8.765  1.00  0.00     0.048 C 
ATOM      2  C   UNL     1       1.967   8.930  10.163  1.00  0.00    -0.012 C 
ATOM      3  C   UNL     1       2.015   7.965  11.097  1.00  0.00    -0.019 C 
ATOM      4  C   UNL     1       2.384   8.257  12.528  1.00  0.00     0.036 C 
ATOM      5  C   UNL     1       3.359   9.446  12.621  1.00  0.00     0.025 C 
ATOM      6  C   UNL     1       2.769  10.677  11.907  1.00  0.00     0.089 C 
ATOM      7  C   UNL     1       2.334  10.324  10.512  1.00  0.00     0.158 C 
ATOM      8  O   UNL     1       2.243  11.238   9.648  1.00  0.00    -0.295 OA
ENDROOT
BRANCH   5   9
ATOM      9  C   UNL     1       3.729   9.758  14.065  1.00  0.00    -0.077 C 
ATOM     10  C   UNL     1       2.926  10.497  14.849  1.00  0.00     0.008 C 
ATOM     11  C   UNL     1       5.019   9.236  14.643  1.00  0.00     0.039 C 
ENDBRANCH   5   9
TORSDOF 1
ENDMDL
MODEL 4
REMARK VINA RESULT:    -4.465     13.710     15.341
REMARK INTER + INTRA:          -4.820
REMARK INTER:                  -4.729
REMARK INTRA:                  -0.090
REMARK UNBOUND:                -0.094
REMARK SMILES C=C(C)[C@H]1CC=C(C)C(=O)C1
REMARK SMILES IDX 8 1 7 2 6 3 5 4 4 5 11 6 9 7 10 8 2 9 1 10 3 11
REMARK H PARENT
REMARK Flexibility Score: inf
ROOT
ATOM      1  C   UNL     1       4.236  21.819   6.664  1.00  0.00     0.048 C 
ATOM      2  C   UNL     1       4.480  21.575   5.200  1.00  0.00    -0.012 C 
ATOM      3  C   UNL     1       5.497  20.788   4.808  1.00  0.00    -0.019 C 
ATOM      4  C   UNL     1       5.830  20.579   3.354  1.00  0.00     0.036 C 
ATOM      5  C   UNL     1       4.569  20.676   2.474  1.00  0.00     0.025 C 
ATOM      6  C   UNL     1       3.846  22.014   2.721  1.00  0.00     0.089 C 
ATOM      7  C   UNL     1       3.610  22.226   4.191  1.00  0.00     0.158 C 
ATOM      8  O   UNL     1       2.686  23.001   4.558  1.00  0.00    -0.295 OA
ENDROOT
BRANCH   5   9
ATOM      9  C   UNL     1       4.895  20.478   1.000  1.00  0.00    -0.077 C 
ATOM     10  C   UNL     1       5.138  19.255   0.496  1.00  0.00     0.008 C 
ATOM     11  C   UNL     1       4.953  21.664   0.072  1.00  0.00     0.039 C 
ENDBRANCH   5   9
TORSDOF 1
ENDMDL
MODEL 5
REMARK VINA RESULT:    -4.361     12.611     13.686
REMARK INTER + INTRA:          -4.709
REMARK INTER:                  -4.616
REMARK INTRA:                  -0.093
REMARK UNBOUND:                -0.094
REMARK SMILES C=C(C)[C@H]1CC=C(C)C(=O)C1
REMARK SMILES IDX 8 1 7 2 6 3 5 4 4 5 11 6 9 7 10 8 2 9 1 10 3 11
REMARK H PARENT
REMARK Flexibility Score: inf
ROOT
ATOM      1  C   UNL     1       1.656  21.393   7.981  1.00  0.00     0.048 C 
ATOM      2  C   UNL     1       2.646  21.309   6.851  1.00  0.00    -0.012 C 
ATOM      3  C   UNL     1       3.910  21.730   7.029  1.00  0.00    -0.019 C 
ATOM      4  C   UNL     1       4.914  21.741   5.906  1.00  0.00     0.036 C 
ATOM      5  C   UNL     1       4.629  20.615   4.893  1.00  0.00     0.025 C 
ATOM      6  C   UNL     1       3.178  20.710   4.382  1.00  0.00     0.089 C 
ATOM      7  C   UNL     1       2.214  20.784   5.533  1.00  0.00     0.158 C 
ATOM      8  O   UNL     1       1.016  20.435   5.352  1.00  0.00    -0.295 OA
ENDROOT
BRANCH   5   9
ATOM      9  C   UNL     1       5.631  20.624   3.746  1.00  0.00    -0.077 C 
ATOM     10  C   UNL     1       6.954  20.554   3.973  1.00  0.00     0.008 C 
ATOM     11  C   UNL     1       5.148  20.715   2.322  1.00  0.00     0.039 C 
ENDBRANCH   5   9
TORSDOF 1
ENDMDL
MODEL 6
REMARK VINA RESULT:    -4.350     12.163     13.967
REMARK INTER + INTRA:          -4.698
REMARK INTER:                  -4.605
REMARK INTRA:                  -0.093
REMARK UNBOUND:                -0.094
REMARK SMILES C=C(C)[C@H]1CC=C(C)C(=O)C1
REMARK SMILES IDX 8 1 7 2 6 3 5 4 4 5 11 6 9 7 10 8 2 9 1 10 3 11
REMARK H PARENT
REMARK Flexibility Score: inf
ROOT
ATOM      1  C   UNL     1       4.999  20.249   1.000  1.00  0.00     0.048 C 
ATOM      2  C   UNL     1       4.796  20.665   2.432  1.00  0.00    -0.012 C 
ATOM      3  C   UNL     1       3.750  21.439   2.768  1.00  0.00    -0.019 C 
ATOM      4  C   UNL     1       3.551  21.947   4.173  1.00  0.00     0.036 C 
ATOM      5  C   UNL     1       4.123  20.960   5.208  1.00  0.00     0.025 C 
ATOM      6  C   UNL     1       5.602  20.659   4.900  1.00  0.00     0.089 C 
ATOM      7  C   UNL     1       5.771  20.239   3.466  1.00  0.00     0.158 C 
ATOM      8  O   UNL     1       6.778  19.554   3.142  1.00  0.00    -0.295 OA
ENDROOT
BRANCH   5   9
ATOM      9  C   UNL     1       3.937  21.469   6.632  1.00  0.00    -0.077 C 
ATOM     10  C   UNL     1       4.379  22.683   7.004  1.00  0.00     0.008 C 
ATOM     11  C   UNL     1       3.249  20.607   7.658  1.00  0.00     0.039 C 
ENDBRANCH   5   9
TORSDOF 1
ENDMDL
MODEL 7
REMARK VINA RESULT:    -4.341     12.070     13.763
REMARK INTER + INTRA:          -4.689
REMARK INTER:                  -4.595
REMARK INTRA:                  -0.093
REMARK UNBOUND:                -0.094
REMARK SMILES C=C(C)[C@H]1CC=C(C)C(=O)C1
REMARK SMILES IDX 8 1 7 2 6 3 5 4 4 5 11 6 9 7 10 8 2 9 1 10 3 11
REMARK H PARENT
REMARK Flexibility Score: inf
ROOT
ATOM      1  C   UNL     1       1.625  21.372   8.313  1.00  0.00     0.048 C 
ATOM      2  C   UNL     1       2.695  21.181   7.273  1.00  0.00    -0.012 C 
ATOM      3  C   UNL     1       3.108  19.944   6.949  1.00  0.00    -0.019 C 
ATOM      4  C   UNL     1       4.231  19.706   5.973  1.00  0.00     0.036 C 
ATOM      5  C   UNL     1       4.297  20.825   4.916  1.00  0.00     0.025 C 
ATOM      6  C   UNL     1       4.397  22.202   5.600  1.00  0.00     0.089 C 
ATOM      7  C   UNL     1       3.311  22.365   6.626  1.00  0.00     0.158 C 
ATOM      8  O   UNL     1       2.958  23.527   6.966  1.00  0.00    -0.295 OA
ENDROOT
BRANCH   5   9
ATOM      9  C   UNL     1       5.437  20.601   3.931  1.00  0.00    -0.077 C 
ATOM     10  C   UNL     1       6.688  20.351   4.355  1.00  0.00     0.008 C 
ATOM     11  C   UNL     1       5.176  20.659   2.448  1.00  0.00     0.039 C 
ENDBRANCH   5   9
TORSDOF 1
ENDMDL
MODEL 8
REMARK VINA RESULT:    -4.319      9.713     12.092
REMARK INTER + INTRA:          -4.665
REMARK INTER:                  -4.570
REMARK INTRA:                  -0.095
REMARK UNBOUND:                -0.094
REMARK SMILES C=C(C)[C@H]1CC=C(C)C(=O)C1
REMARK SMILES IDX 8 1 7 2 6 3 5 4 4 5 11 6 9 7 10 8 2 9 1 10 3 11
REMARK H PARENT
REMARK Flexibility Score: inf
ROOT
ATOM      1  C   UNL     1       1.595  16.642   6.611  1.00  0.00     0.048 C 
ATOM      2  C   UNL     1       2.020  18.085   6.579  1.00  0.00    -0.012 C 
ATOM      3  C   UNL     1       1.096  19.058   6.510  1.00  0.00    -0.019 C 
ATOM      4  C   UNL     1       1.474  20.512   6.395  1.00  0.00     0.036 C 
ATOM      5  C   UNL     1       2.819  20.795   7.092  1.00  0.00     0.025 C 
ATOM      6  C   UNL     1       3.913  19.860   6.543  1.00  0.00     0.089 C 
ATOM      7  C   UNL     1       3.463  18.427   6.596  1.00  0.00     0.158 C 
ATOM      8  O   UNL     1       4.330  17.512   6.612  1.00  0.00    -0.295 OA
ENDROOT
BRANCH   5   9
ATOM      9  C   UNL     1       3.217  22.260   6.972  1.00  0.00    -0.077 C 
ATOM     10  C   UNL     1       2.293  23.235   6.928  1.00  0.00     0.008 C 
ATOM     11  C   UNL     1       4.673  22.643   6.896  1.00  0.00     0.039 C 
ENDBRANCH   5   9
TORSDOF 1
ENDMDL
MODEL 9
REMARK VINA RESULT:    -4.312      1.346      4.476
REMARK INTER + INTRA:          -4.658
REMARK INTER:                  -4.560
REMARK INTRA:                  -0.098
REMARK UNBOUND:                -0.094
REMARK SMILES C=C(C)[C@H]1CC=C(C)C(=O)C1
REMARK SMILES IDX 8 1 7 2 6 3 5 4 4 5 11 6 9 7 10 8 2 9 1 10 3 11
REMARK H PARENT
REMARK Flexibility Score: inf
ROOT
ATOM      1  C   UNL     1       3.842   9.929  14.445  1.00  0.00     0.048 C 
ATOM      2  C   UNL     1       3.139  10.076  13.123  1.00  0.00    -0.012 C 
ATOM      3  C   UNL     1       3.211  11.236  12.447  1.00  0.00    -0.019 C 
ATOM      4  C   UNL     1       2.460  11.457  11.160  1.00  0.00     0.036 C 
ATOM      5  C   UNL     1       2.285  10.139  10.381  1.00  0.00     0.025 C 
ATOM      6  C   UNL     1       1.617   9.076  11.274  1.00  0.00     0.089 C 
ATOM      7  C   UNL     1       2.345   8.946  12.582  1.00  0.00     0.158 C 
ATOM      8  O   UNL     1       2.239   7.876  13.240  1.00  0.00    -0.295 OA
ENDROOT
BRANCH   5   9
ATOM      9  C   UNL     1       1.516  10.350   9.084  1.00  0.00    -0.077 C 
ATOM     10  C   UNL     1       0.917   9.326   8.453  1.00  0.00     0.008 C 
ATOM     11  C   UNL     1       1.417  11.726   8.480  1.00  0.00     0.039 C 
ENDBRANCH   5   9
TORSDOF 1
ENDMDL
