MODEL 1
REMARK VINA RESULT:    -4.024      0.000      0.000
REMARK INTER + INTRA:          -5.078
REMARK INTER:                  -4.965
REMARK INTRA:                  -0.113
REMARK UNBOUND:                -0.113
REMARK SMILES CCCCCC(=O)[O-]
REMARK SMILES IDX 4 1 5 2 6 3 7 4 8 5 3 6 2 7 1 8
REMARK H PARENT
REMARK Flexibility Score: inf
ROOT
ATOM      1  C   UNL     1     -15.097  -5.983  38.796  1.00  0.00     0.006 C 
ENDROOT
BRANCH   1   2
ATOM      2  C   UNL     1     -16.479  -5.450  39.196  1.00  0.00     0.053 C 
BRANCH   2   3
ATOM      3  C   UNL     1     -17.344  -6.565  39.693  1.00  0.00     0.041 C 
ATOM      4  O   UNL     1     -17.739  -7.460  38.902  1.00  0.00    -0.550 OA
ATOM      5  O   UNL     1     -17.755  -6.587  41.020  1.00  0.00    -0.550 OA
ENDBRANCH   2   3
ENDBRANCH   1   2
BRANCH   1   6
ATOM      6  C   UNL     1     -14.875  -5.971  37.275  1.00  0.00     0.000 C 
BRANCH   6   7
ATOM      7  C   UNL     1     -13.673  -6.826  36.848  1.00  0.00    -0.003 C 
ATOM      8  C   UNL     1     -12.878  -7.300  38.061  1.00  0.00     0.004 C 
ENDBRANCH   6   7
ENDBRANCH   1   6
TORSDOF 4
ENDMDL
MODEL 2
REMARK VINA RESULT:    -4.022      1.055      1.784
REMARK INTER + INTRA:          -5.076
REMARK INTER:                  -4.970
REMARK INTRA:                  -0.107
REMARK UNBOUND:                -0.113
REMARK SMILES CCCCCC(=O)[O-]
REMARK SMILES IDX 4 1 5 2 6 3 7 4 8 5 3 6 2 7 1 8
REMARK H PARENT
REMARK Flexibility Score: inf
ROOT
ATOM      1  C   UNL     1     -14.922  -6.206  37.195  1.00  0.00     0.006 C 
ENDROOT
BRANCH   1   2
ATOM      2  C   UNL     1     -15.286  -6.176  38.685  1.00  0.00     0.053 C 
BRANCH   2   3
ATOM      3  C   UNL     1     -16.773  -6.186  38.859  1.00  0.00     0.041 C 
ATOM      4  O   UNL     1     -17.378  -5.137  39.199  1.00  0.00    -0.550 OA
ATOM      5  O   UNL     1     -17.484  -7.368  38.692  1.00  0.00    -0.550 OA
ENDBRANCH   2   3
ENDBRANCH   1   2
BRANCH   1   6
ATOM      6  C   UNL     1     -13.564  -6.875  36.932  1.00  0.00     0.000 C 
BRANCH   6   7
ATOM      7  C   UNL     1     -12.838  -7.266  38.227  1.00  0.00    -0.003 C 
ATOM      8  C   UNL     1     -11.783  -8.337  37.963  1.00  0.00     0.004 C 
ENDBRANCH   6   7
ENDBRANCH   1   6
TORSDOF 4
ENDMDL
MODEL 3
REMARK VINA RESULT:    -3.891      1.158      1.611
REMARK INTER + INTRA:          -4.914
REMARK INTER:                  -4.832
REMARK INTRA:                  -0.082
REMARK UNBOUND:                -0.113
REMARK SMILES CCCCCC(=O)[O-]
REMARK SMILES IDX 4 1 5 2 6 3 7 4 8 5 3 6 2 7 1 8
REMARK H PARENT
REMARK Flexibility Score: inf
ROOT
ATOM      1  C   UNL     1     -14.074  -6.446  38.144  1.00  0.00     0.006 C 
ENDROOT
BRANCH   1   2
ATOM      2  C   UNL     1     -15.496  -6.056  37.720  1.00  0.00     0.053 C 
BRANCH   2   3
ATOM      3  C   UNL     1     -16.480  -6.441  38.780  1.00  0.00     0.041 C 
ATOM      4  O   UNL     1     -17.485  -7.139  38.488  1.00  0.00    -0.550 OA
ATOM      5  O   UNL     1     -16.311  -5.987  40.082  1.00  0.00    -0.550 OA
ENDBRANCH   2   3
ENDBRANCH   1   2
BRANCH   1   6
ATOM      6  C   UNL     1     -13.296  -7.152  37.022  1.00  0.00     0.000 C 
BRANCH   6   7
ATOM      7  C   UNL     1     -12.144  -8.016  37.557  1.00  0.00    -0.003 C 
ATOM      8  C   UNL     1     -11.929  -7.780  39.049  1.00  0.00     0.004 C 
ENDBRANCH   6   7
ENDBRANCH   1   6
TORSDOF 4
ENDMDL
MODEL 4
REMARK VINA RESULT:    -3.883      3.449      4.838
REMARK INTER + INTRA:          -4.904
REMARK INTER:                  -4.795
REMARK INTRA:                  -0.109
REMARK UNBOUND:                -0.113
REMARK SMILES CCCCCC(=O)[O-]
REMARK SMILES IDX 4 1 5 2 6 3 7 4 8 5 3 6 2 7 1 8
REMARK H PARENT
REMARK Flexibility Score: inf
ROOT
ATOM      1  C   UNL     1     -13.606  -6.891  36.966  1.00  0.00     0.006 C 
ENDROOT
BRANCH   1   2
ATOM      2  C   UNL     1     -12.934  -7.168  38.317  1.00  0.00     0.053 C 
BRANCH   2   3
ATOM      3  C   UNL     1     -11.804  -8.134  38.148  1.00  0.00     0.041 C 
ATOM      4  O   UNL     1     -11.348  -8.756  39.143  1.00  0.00    -0.550 OA
ATOM      5  O   UNL     1     -11.221  -8.310  36.899  1.00  0.00    -0.550 OA
ENDBRANCH   2   3
ENDBRANCH   1   2
BRANCH   1   6
ATOM      6  C   UNL     1     -14.831  -5.971  37.092  1.00  0.00     0.000 C 
BRANCH   6   7
ATOM      7  C   UNL     1     -15.403  -5.943  38.517  1.00  0.00    -0.003 C 
ATOM      8  C   UNL     1     -16.884  -6.311  38.522  1.00  0.00     0.004 C 
ENDBRANCH   6   7
ENDBRANCH   1   6
TORSDOF 4
ENDMDL
MODEL 5
REMARK VINA RESULT:    -3.849      1.863      2.592
REMARK INTER + INTRA:          -4.863
REMARK INTER:                  -4.736
REMARK INTRA:                  -0.127
REMARK UNBOUND:                -0.113
REMARK SMILES CCCCCC(=O)[O-]
REMARK SMILES IDX 4 1 5 2 6 3 7 4 8 5 3 6 2 7 1 8
REMARK H PARENT
REMARK Flexibility Score: inf
ROOT
ATOM      1  C   UNL     1     -17.281  -5.813  39.593  1.00  0.00     0.006 C 
ENDROOT
BRANCH   1   2
ATOM      2  C   UNL     1     -17.691  -6.847  40.650  1.00  0.00     0.053 C 
BRANCH   2   3
ATOM      3  C   UNL     1     -17.040  -6.538  41.961  1.00  0.00     0.041 C 
ATOM      4  O   UNL     1     -17.729  -6.480  43.012  1.00  0.00    -0.550 OA
ATOM      5  O   UNL     1     -15.679  -6.266  42.014  1.00  0.00    -0.550 OA
ENDBRANCH   2   3
ENDBRANCH   1   2
BRANCH   1   6
ATOM      6  C   UNL     1     -16.575  -6.450  38.385  1.00  0.00     0.000 C 
BRANCH   6   7
ATOM      7  C   UNL     1     -15.063  -6.183  38.378  1.00  0.00    -0.003 C 
ATOM      8  C   UNL     1     -14.519  -6.149  36.952  1.00  0.00     0.004 C 
ENDBRANCH   6   7
ENDBRANCH   1   6
TORSDOF 4
ENDMDL
MODEL 6
REMARK VINA RESULT:    -3.754      3.420      4.788
REMARK INTER + INTRA:          -4.745
REMARK INTER:                  -4.695
REMARK INTRA:                  -0.051
REMARK UNBOUND:                -0.113
REMARK SMILES CCCCCC(=O)[O-]
REMARK SMILES IDX 4 1 5 2 6 3 7 4 8 5 3 6 2 7 1 8
REMARK H PARENT
REMARK Flexibility Score: inf
ROOT
ATOM      1  C   UNL     1     -13.779  -6.523  38.217  1.00  0.00     0.006 C 
ENDROOT
BRANCH   1   2
ATOM      2  C   UNL     1     -13.091  -7.314  37.097  1.00  0.00     0.053 C 
BRANCH   2   3
ATOM      3  C   UNL     1     -11.877  -8.014  37.623  1.00  0.00     0.041 C 
ATOM      4  O   UNL     1     -10.942  -8.332  36.843  1.00  0.00    -0.550 OA
ATOM      5  O   UNL     1     -11.801  -8.357  38.967  1.00  0.00    -0.550 OA
ENDBRANCH   2   3
ENDBRANCH   1   2
BRANCH   1   6
ATOM      6  C   UNL     1     -15.056  -5.813  37.741  1.00  0.00     0.000 C 
BRANCH   6   7
ATOM      7  C   UNL     1     -16.334  -6.475  38.279  1.00  0.00    -0.003 C 
ATOM      8  C   UNL     1     -17.052  -5.559  39.266  1.00  0.00     0.004 C 
ENDBRANCH   6   7
ENDBRANCH   1   6
TORSDOF 4
ENDMDL
MODEL 7
REMARK VINA RESULT:    -3.702      2.213      3.348
REMARK INTER + INTRA:          -4.681
REMARK INTER:                  -4.599
REMARK INTRA:                  -0.082
REMARK UNBOUND:                -0.113
REMARK SMILES CCCCCC(=O)[O-]
REMARK SMILES IDX 4 1 5 2 6 3 7 4 8 5 3 6 2 7 1 8
REMARK H PARENT
REMARK Flexibility Score: inf
ROOT
ATOM      1  C   UNL     1     -12.864  -7.215  38.319  1.00  0.00     0.006 C 
ENDROOT
BRANCH   1   2
ATOM      2  C   UNL     1     -13.954  -6.235  38.773  1.00  0.00     0.053 C 
BRANCH   2   3
ATOM      3  C   UNL     1     -15.028  -6.133  37.737  1.00  0.00     0.041 C 
ATOM      4  O   UNL     1     -14.729  -5.933  36.532  1.00  0.00    -0.550 OA
ATOM      5  O   UNL     1     -16.364  -6.209  38.112  1.00  0.00    -0.550 OA
ENDBRANCH   2   3
ENDBRANCH   1   2
BRANCH   1   6
ATOM      6  C   UNL     1     -11.913  -7.612  39.459  1.00  0.00     0.000 C 
BRANCH   6   7
ATOM      7  C   UNL     1     -11.052  -8.835  39.109  1.00  0.00    -0.003 C 
ATOM      8  C   UNL     1     -11.245  -9.243  37.651  1.00  0.00     0.004 C 
ENDBRANCH   6   7
ENDBRANCH   1   6
TORSDOF 4
ENDMDL
MODEL 8
REMARK VINA RESULT:    -3.639      4.821      6.341
REMARK INTER + INTRA:          -4.603
REMARK INTER:                  -4.550
REMARK INTRA:                  -0.053
REMARK UNBOUND:                -0.113
REMARK SMILES CCCCCC(=O)[O-]
REMARK SMILES IDX 4 1 5 2 6 3 7 4 8 5 3 6 2 7 1 8
REMARK H PARENT
REMARK Flexibility Score: inf
ROOT
ATOM      1  C   UNL     1     -12.139  -8.406  37.052  1.00  0.00     0.006 C 
ENDROOT
BRANCH   1   2
ATOM      2  C   UNL     1     -11.123  -9.145  37.933  1.00  0.00     0.053 C 
BRANCH   2   3
ATOM      3  C   UNL     1      -9.937  -9.563  37.122  1.00  0.00     0.041 C 
ATOM      4  O   UNL     1      -9.885  -9.298  35.893  1.00  0.00    -0.550 OA
ATOM      5  O   UNL     1      -8.912 -10.290  37.715  1.00  0.00    -0.550 OA
ENDBRANCH   2   3
ENDBRANCH   1   2
BRANCH   1   6
ATOM      6  C   UNL     1     -12.899  -7.311  37.817  1.00  0.00     0.000 C 
BRANCH   6   7
ATOM      7  C   UNL     1     -13.972  -6.627  36.957  1.00  0.00    -0.003 C 
ATOM      8  C   UNL     1     -15.017  -5.937  37.830  1.00  0.00     0.004 C 
ENDBRANCH   6   7
ENDBRANCH   1   6
TORSDOF 4
ENDMDL
MODEL 9
REMARK VINA RESULT:    -3.479      7.950      9.159
REMARK INTER + INTRA:          -4.406
REMARK INTER:                  -4.192
REMARK INTRA:                  -0.214
REMARK UNBOUND:                -0.113
REMARK SMILES CCCCCC(=O)[O-]
REMARK SMILES IDX 4 1 5 2 6 3 7 4 8 5 3 6 2 7 1 8
REMARK H PARENT
REMARK Flexibility Score: inf
ROOT
ATOM      1  C   UNL     1     -14.918 -10.612  45.840  1.00  0.00     0.006 C 
ENDROOT
BRANCH   1   2
ATOM      2  C   UNL     1     -15.037 -11.505  47.082  1.00  0.00     0.053 C 
BRANCH   2   3
ATOM      3  C   UNL     1     -15.540 -10.711  48.247  1.00  0.00     0.041 C 
ATOM      4  O   UNL     1     -14.960 -10.786  49.361  1.00  0.00    -0.550 OA
ATOM      5  O   UNL     1     -16.678  -9.926  48.114  1.00  0.00    -0.550 OA
ENDBRANCH   2   3
ENDBRANCH   1   2
BRANCH   1   6
ATOM      6  C   UNL     1     -15.912 -11.001  44.734  1.00  0.00     0.000 C 
BRANCH   6   7
ATOM      7  C   UNL     1     -16.875  -9.858  44.379  1.00  0.00    -0.003 C 
ATOM      8  C   UNL     1     -16.246  -8.499  44.675  1.00  0.00     0.004 C 
ENDBRANCH   6   7
ENDBRANCH   1   6
TORSDOF 4
ENDMDL
