MODEL 1
REMARK VINA RESULT:    23.161      0.000      0.000
REMARK INTER + INTRA:          59.900
REMARK INTER:                  61.072
REMARK INTRA:                  -1.172
REMARK UNBOUND:                -1.172
REMARK SMILES CCCCCCCCCCCCCCCCCCCCCCCCCCCCCC(=O)[O-]
REMARK SMILES IDX 16 1 17 2 18 3 19 4 20 5 21 6 22 7 23 8 24 9 25 10 26 11
REMARK SMILES IDX 27 12 28 13 29 14 30 15 31 16 32 17 15 18 14 19 13 20 12 21
REMARK SMILES IDX 11 22 10 23 9 24 8 25 7 26 6 27 5 28 4 29 3 30 2 31 1 32
REMARK H PARENT
REMARK Flexibility Score: inf
ROOT
ATOM      1  C   UNL     1       7.377  17.065  27.130  1.00  0.00     0.000 C 
ENDROOT
BRANCH   1   2
ATOM      2  C   UNL     1       8.241  17.605  28.281  1.00  0.00     0.000 C 
BRANCH   2   3
ATOM      3  C   UNL     1       9.725  17.235  28.127  1.00  0.00     0.000 C 
BRANCH   3   4
ATOM      4  C   UNL     1       9.976  16.284  26.944  1.00  0.00     0.000 C 
BRANCH   4   5
ATOM      5  C   UNL     1      10.764  15.023  27.344  1.00  0.00     0.000 C 
BRANCH   5   6
ATOM      6  C   UNL     1      10.682  13.852  26.345  1.00  0.00     0.000 C 
BRANCH   6   7
ATOM      7  C   UNL     1      11.588  12.670  26.729  1.00  0.00     0.000 C 
BRANCH   7   8
ATOM      8  C   UNL     1      10.859  11.621  27.585  1.00  0.00     0.000 C 
BRANCH   8   9
ATOM      9  C   UNL     1       9.807  10.831  26.792  1.00  0.00     0.000 C 
BRANCH   9  10
ATOM     10  C   UNL     1       9.915   9.329  27.084  1.00  0.00     0.000 C 
BRANCH  10  11
ATOM     11  C   UNL     1       8.747   8.851  27.955  1.00  0.00     0.000 C 
BRANCH  11  12
ATOM     12  C   UNL     1       7.403   9.120  27.267  1.00  0.00     0.000 C 
BRANCH  12  13
ATOM     13  C   UNL     1       6.378   9.682  28.265  1.00  0.00     0.006 C 
BRANCH  13  14
ATOM     14  C   UNL     1       5.109  10.192  27.569  1.00  0.00     0.053 C 
BRANCH  14  15
ATOM     15  C   UNL     1       5.427  11.177  26.486  1.00  0.00     0.041 C 
ATOM     16  O   UNL     1       5.530  10.796  25.291  1.00  0.00    -0.550 OA
ATOM     17  O   UNL     1       5.642  12.512  26.804  1.00  0.00    -0.550 OA
ENDBRANCH  14  15
ENDBRANCH  13  14
ENDBRANCH  12  13
ENDBRANCH  11  12
ENDBRANCH  10  11
ENDBRANCH   9  10
ENDBRANCH   8   9
ENDBRANCH   7   8
ENDBRANCH   6   7
ENDBRANCH   5   6
ENDBRANCH   4   5
ENDBRANCH   3   4
ENDBRANCH   2   3
ENDBRANCH   1   2
BRANCH   1  18
ATOM     18  C   UNL     1       7.324  18.068  25.968  1.00  0.00     0.000 C 
BRANCH  18  19
ATOM     19  C   UNL     1       5.945  18.734  25.808  1.00  0.00     0.000 C 
BRANCH  19  20
ATOM     20  C   UNL     1       4.837  18.179  26.724  1.00  0.00     0.000 C 
BRANCH  20  21
ATOM     21  C   UNL     1       3.517  17.811  26.020  1.00  0.00     0.000 C 
BRANCH  21  22
ATOM     22  C   UNL     1       2.274  17.880  26.933  1.00  0.00     0.000 C 
BRANCH  22  23
ATOM     23  C   UNL     1       0.949  17.814  26.148  1.00  0.00     0.000 C 
BRANCH  23  24
ATOM     24  C   UNL     1       1.081  17.036  24.830  1.00  0.00    -0.000 C 
BRANCH  24  25
ATOM     25  C   UNL     1      -0.049  17.359  23.836  1.00  0.00    -0.000 C 
BRANCH  25  26
ATOM     26  C   UNL     1       0.074  18.769  23.234  1.00  0.00    -0.000 C 
BRANCH  26  27
ATOM     27  C   UNL     1       0.855  19.779  24.098  1.00  0.00    -0.000 C 
BRANCH  27  28
ATOM     28  C   UNL     1       1.422  20.977  23.306  1.00  0.00    -0.000 C 
BRANCH  28  29
ATOM     29  C   UNL     1       2.315  20.534  22.133  1.00  0.00    -0.000 C 
BRANCH  29  30
ATOM     30  C   UNL     1       3.812  20.559  22.483  1.00  0.00    -0.000 C 
BRANCH  30  31
ATOM     31  C   UNL     1       4.348  21.984  22.696  1.00  0.00    -0.003 C 
ATOM     32  C   UNL     1       5.344  22.367  21.604  1.00  0.00     0.004 C 
ENDBRANCH  30  31
ENDBRANCH  29  30
ENDBRANCH  28  29
ENDBRANCH  27  28
ENDBRANCH  26  27
ENDBRANCH  25  26
ENDBRANCH  24  25
ENDBRANCH  23  24
ENDBRANCH  22  23
ENDBRANCH  21  22
ENDBRANCH  20  21
ENDBRANCH  19  20
ENDBRANCH  18  19
ENDBRANCH   1  18
TORSDOF 28
ENDMDL
MODEL 2
REMARK VINA RESULT:    23.256      2.484     10.500
REMARK INTER + INTRA:          60.151
REMARK INTER:                  62.160
REMARK INTRA:                  -2.009
REMARK UNBOUND:                -1.172
REMARK SMILES CCCCCCCCCCCCCCCCCCCCCCCCCCCCCC(=O)[O-]
REMARK SMILES IDX 16 1 17 2 18 3 19 4 20 5 21 6 22 7 23 8 24 9 25 10 26 11
REMARK SMILES IDX 27 12 28 13 29 14 30 15 31 16 32 17 15 18 14 19 13 20 12 21
REMARK SMILES IDX 11 22 10 23 9 24 8 25 7 26 6 27 5 28 4 29 3 30 2 31 1 32
REMARK H PARENT
REMARK Flexibility Score: inf
ROOT
ATOM      1  C   UNL     1       8.714  17.862  27.841  1.00  0.00     0.000 C 
ENDROOT
BRANCH   1   2
ATOM      2  C   UNL     1       7.507  17.173  27.183  1.00  0.00     0.000 C 
BRANCH   2   3
ATOM      3  C   UNL     1       6.945  17.974  25.998  1.00  0.00     0.000 C 
BRANCH   3   4
ATOM      4  C   UNL     1       5.497  18.437  26.234  1.00  0.00     0.000 C 
BRANCH   4   5
ATOM      5  C   UNL     1       4.871  17.830  27.503  1.00  0.00     0.000 C 
BRANCH   5   6
ATOM      6  C   UNL     1       3.353  17.576  27.431  1.00  0.00     0.000 C 
BRANCH   6   7
ATOM      7  C   UNL     1       2.692  18.230  26.207  1.00  0.00     0.000 C 
BRANCH   7   8
ATOM      8  C   UNL     1       1.263  17.717  25.963  1.00  0.00     0.000 C 
BRANCH   8   9
ATOM      9  C   UNL     1       1.036  17.246  24.519  1.00  0.00     0.000 C 
BRANCH   9  10
ATOM     10  C   UNL     1       0.176  18.251  23.742  1.00  0.00     0.000 C 
BRANCH  10  11
ATOM     11  C   UNL     1      -0.114  19.497  24.588  1.00  0.00     0.000 C 
BRANCH  11  12
ATOM     12  C   UNL     1       0.662  20.710  24.064  1.00  0.00     0.000 C 
BRANCH  12  13
ATOM     13  C   UNL     1       1.646  20.298  22.960  1.00  0.00     0.006 C 
BRANCH  13  14
ATOM     14  C   UNL     1       2.651  21.410  22.630  1.00  0.00     0.053 C 
BRANCH  14  15
ATOM     15  C   UNL     1       4.038  20.873  22.457  1.00  0.00     0.041 C 
ATOM     16  O   UNL     1       4.407  19.850  23.090  1.00  0.00    -0.550 OA
ATOM     17  O   UNL     1       4.936  21.524  21.620  1.00  0.00    -0.550 OA
ENDBRANCH  14  15
ENDBRANCH  13  14
ENDBRANCH  12  13
ENDBRANCH  11  12
ENDBRANCH  10  11
ENDBRANCH   9  10
ENDBRANCH   8   9
ENDBRANCH   7   8
ENDBRANCH   6   7
ENDBRANCH   5   6
ENDBRANCH   4   5
ENDBRANCH   3   4
ENDBRANCH   2   3
ENDBRANCH   1   2
BRANCH   1  18
ATOM     18  C   UNL     1       9.956  16.960  27.787  1.00  0.00     0.000 C 
BRANCH  18  19
ATOM     19  C   UNL     1       9.677  15.588  27.145  1.00  0.00     0.000 C 
BRANCH  19  20
ATOM     20  C   UNL     1      10.843  14.995  26.331  1.00  0.00     0.000 C 
BRANCH  20  21
ATOM     21  C   UNL     1      10.887  13.456  26.258  1.00  0.00     0.000 C 
BRANCH  21  22
ATOM     22  C   UNL     1      11.857  12.803  27.265  1.00  0.00     0.000 C 
BRANCH  22  23
ATOM     23  C   UNL     1      11.280  11.530  27.913  1.00  0.00     0.000 C 
BRANCH  23  24
ATOM     24  C   UNL     1      10.116  10.932  27.110  1.00  0.00    -0.000 C 
BRANCH  24  25
ATOM     25  C   UNL     1      10.124   9.392  27.112  1.00  0.00    -0.000 C 
BRANCH  25  26
ATOM     26  C   UNL     1       9.088   8.794  28.078  1.00  0.00    -0.000 C 
BRANCH  26  27
ATOM     27  C   UNL     1       7.638   9.268  27.853  1.00  0.00    -0.000 C 
BRANCH  27  28
ATOM     28  C   UNL     1       7.249   9.417  26.366  1.00  0.00    -0.000 C 
BRANCH  28  29
ATOM     29  C   UNL     1       5.851  10.036  26.186  1.00  0.00    -0.000 C 
BRANCH  29  30
ATOM     30  C   UNL     1       5.126  10.264  27.522  1.00  0.00    -0.000 C 
BRANCH  30  31
ATOM     31  C   UNL     1       4.772  11.741  27.761  1.00  0.00    -0.003 C 
ATOM     32  C   UNL     1       5.341  12.630  26.658  1.00  0.00     0.004 C 
ENDBRANCH  30  31
ENDBRANCH  29  30
ENDBRANCH  28  29
ENDBRANCH  27  28
ENDBRANCH  26  27
ENDBRANCH  25  26
ENDBRANCH  24  25
ENDBRANCH  23  24
ENDBRANCH  22  23
ENDBRANCH  21  22
ENDBRANCH  20  21
ENDBRANCH  19  20
ENDBRANCH  18  19
ENDBRANCH   1  18
TORSDOF 28
ENDMDL
MODEL 3
REMARK VINA RESULT:    23.820      2.404     10.524
REMARK INTER + INTRA:          61.639
REMARK INTER:                  61.603
REMARK INTRA:                   0.036
REMARK UNBOUND:                -1.172
REMARK SMILES CCCCCCCCCCCCCCCCCCCCCCCCCCCCCC(=O)[O-]
REMARK SMILES IDX 16 1 17 2 18 3 19 4 20 5 21 6 22 7 23 8 24 9 25 10 26 11
REMARK SMILES IDX 27 12 28 13 29 14 30 15 31 16 32 17 15 18 14 19 13 20 12 21
REMARK SMILES IDX 11 22 10 23 9 24 8 25 7 26 6 27 5 28 4 29 3 30 2 31 1 32
REMARK H PARENT
REMARK Flexibility Score: inf
ROOT
ATOM      1  C   UNL     1       7.636  16.907  27.059  1.00  0.00     0.000 C 
ENDROOT
BRANCH   1   2
ATOM      2  C   UNL     1       7.191  17.843  25.924  1.00  0.00     0.000 C 
BRANCH   2   3
ATOM      3  C   UNL     1       5.758  18.363  26.116  1.00  0.00     0.000 C 
BRANCH   3   4
ATOM      4  C   UNL     1       5.241  18.151  27.550  1.00  0.00     0.000 C 
BRANCH   4   5
ATOM      5  C   UNL     1       3.746  17.785  27.602  1.00  0.00     0.000 C 
BRANCH   5   6
ATOM      6  C   UNL     1       3.010  17.835  26.249  1.00  0.00     0.000 C 
BRANCH   6   7
ATOM      7  C   UNL     1       1.566  17.312  26.331  1.00  0.00     0.000 C 
BRANCH   7   8
ATOM      8  C   UNL     1       0.658  17.915  25.247  1.00  0.00     0.000 C 
BRANCH   8   9
ATOM      9  C   UNL     1       0.276  16.902  24.157  1.00  0.00     0.000 C 
BRANCH   9  10
ATOM     10  C   UNL     1      -0.439  17.595  22.990  1.00  0.00     0.000 C 
BRANCH  10  11
ATOM     11  C   UNL     1       0.310  18.861  22.558  1.00  0.00     0.000 C 
BRANCH  11  12
ATOM     12  C   UNL     1       0.788  19.659  23.776  1.00  0.00     0.000 C 
BRANCH  12  13
ATOM     13  C   UNL     1       1.582  20.901  23.343  1.00  0.00     0.006 C 
BRANCH  13  14
ATOM     14  C   UNL     1       2.490  20.620  22.138  1.00  0.00     0.053 C 
BRANCH  14  15
ATOM     15  C   UNL     1       3.940  20.704  22.503  1.00  0.00     0.041 C 
ATOM     16  O   UNL     1       4.616  21.720  22.192  1.00  0.00    -0.550 OA
ATOM     17  O   UNL     1       4.553  19.644  23.159  1.00  0.00    -0.550 OA
ENDBRANCH  14  15
ENDBRANCH  13  14
ENDBRANCH  12  13
ENDBRANCH  11  12
ENDBRANCH  10  11
ENDBRANCH   9  10
ENDBRANCH   8   9
ENDBRANCH   7   8
ENDBRANCH   6   7
ENDBRANCH   5   6
ENDBRANCH   4   5
ENDBRANCH   3   4
ENDBRANCH   2   3
ENDBRANCH   1   2
BRANCH   1  18
ATOM     18  C   UNL     1       8.307  17.699  28.191  1.00  0.00     0.000 C 
BRANCH  18  19
ATOM     19  C   UNL     1       9.840  17.549  28.206  1.00  0.00     0.000 C 
BRANCH  19  20
ATOM     20  C   UNL     1      10.416  16.593  27.144  1.00  0.00     0.000 C 
BRANCH  20  21
ATOM     21  C   UNL     1      10.445  15.103  27.538  1.00  0.00     0.000 C 
BRANCH  21  22
ATOM     22  C   UNL     1      10.300  14.132  26.347  1.00  0.00     0.000 C 
BRANCH  22  23
ATOM     23  C   UNL     1      11.332  12.988  26.377  1.00  0.00     0.000 C 
BRANCH  23  24
ATOM     24  C   UNL     1      11.199  12.103  27.626  1.00  0.00    -0.000 C 
BRANCH  24  25
ATOM     25  C   UNL     1      10.928  10.628  27.280  1.00  0.00    -0.000 C 
BRANCH  25  26
ATOM     26  C   UNL     1       9.464  10.369  26.886  1.00  0.00    -0.000 C 
BRANCH  26  27
ATOM     27  C   UNL     1       8.780   9.216  27.645  1.00  0.00    -0.000 C 
BRANCH  27  28
ATOM     28  C   UNL     1       7.342   8.916  27.171  1.00  0.00    -0.000 C 
BRANCH  28  29
ATOM     29  C   UNL     1       6.285   9.304  28.223  1.00  0.00    -0.000 C 
BRANCH  29  30
ATOM     30  C   UNL     1       5.202  10.237  27.660  1.00  0.00    -0.000 C 
BRANCH  30  31
ATOM     31  C   UNL     1       5.623  10.910  26.344  1.00  0.00    -0.003 C 
ATOM     32  C   UNL     1       5.517  12.430  26.443  1.00  0.00     0.004 C 
ENDBRANCH  30  31
ENDBRANCH  29  30
ENDBRANCH  28  29
ENDBRANCH  27  28
ENDBRANCH  26  27
ENDBRANCH  25  26
ENDBRANCH  24  25
ENDBRANCH  23  24
ENDBRANCH  22  23
ENDBRANCH  21  22
ENDBRANCH  20  21
ENDBRANCH  19  20
ENDBRANCH  18  19
ENDBRANCH   1  18
TORSDOF 28
ENDMDL
MODEL 4
REMARK VINA RESULT:    23.904      2.004     10.333
REMARK INTER + INTRA:          61.859
REMARK INTER:                  63.814
REMARK INTRA:                  -1.956
REMARK UNBOUND:                -1.172
REMARK SMILES CCCCCCCCCCCCCCCCCCCCCCCCCCCCCC(=O)[O-]
REMARK SMILES IDX 16 1 17 2 18 3 19 4 20 5 21 6 22 7 23 8 24 9 25 10 26 11
REMARK SMILES IDX 27 12 28 13 29 14 30 15 31 16 32 17 15 18 14 19 13 20 12 21
REMARK SMILES IDX 11 22 10 23 9 24 8 25 7 26 6 27 5 28 4 29 3 30 2 31 1 32
REMARK H PARENT
REMARK Flexibility Score: inf
ROOT
ATOM      1  C   UNL     1       8.039  17.613  26.641  1.00  0.00     0.000 C 
ENDROOT
BRANCH   1   2
ATOM      2  C   UNL     1       6.639  17.174  27.102  1.00  0.00     0.000 C 
BRANCH   2   3
ATOM      3  C   UNL     1       5.549  18.190  26.727  1.00  0.00     0.000 C 
BRANCH   3   4
ATOM      4  C   UNL     1       5.880  18.959  25.436  1.00  0.00     0.000 C 
BRANCH   4   5
ATOM      5  C   UNL     1       4.627  19.340  24.626  1.00  0.00     0.000 C 
BRANCH   5   6
ATOM      6  C   UNL     1       4.804  19.327  23.096  1.00  0.00     0.000 C 
BRANCH   6   7
ATOM      7  C   UNL     1       4.683  20.724  22.464  1.00  0.00     0.000 C 
BRANCH   7   8
ATOM      8  C   UNL     1       3.278  21.326  22.630  1.00  0.00     0.000 C 
BRANCH   8   9
ATOM      9  C   UNL     1       2.201  20.552  21.856  1.00  0.00     0.000 C 
BRANCH   9  10
ATOM     10  C   UNL     1       1.192  19.908  22.816  1.00  0.00     0.000 C 
BRANCH  10  11
ATOM     11  C   UNL     1       0.989  18.424  22.489  1.00  0.00     0.000 C 
BRANCH  11  12
ATOM     12  C   UNL     1      -0.378  17.935  22.981  1.00  0.00     0.000 C 
BRANCH  12  13
ATOM     13  C   UNL     1      -0.226  17.030  24.213  1.00  0.00     0.006 C 
BRANCH  13  14
ATOM     14  C   UNL     1       1.216  16.995  24.736  1.00  0.00     0.053 C 
BRANCH  14  15
ATOM     15  C   UNL     1       1.417  17.948  25.874  1.00  0.00     0.041 C 
ATOM     16  O   UNL     1       2.314  17.734  26.731  1.00  0.00    -0.550 OA
ATOM     17  O   UNL     1       0.591  19.057  26.006  1.00  0.00    -0.550 OA
ENDBRANCH  14  15
ENDBRANCH  13  14
ENDBRANCH  12  13
ENDBRANCH  11  12
ENDBRANCH  10  11
ENDBRANCH   9  10
ENDBRANCH   8   9
ENDBRANCH   7   8
ENDBRANCH   6   7
ENDBRANCH   5   6
ENDBRANCH   4   5
ENDBRANCH   3   4
ENDBRANCH   2   3
ENDBRANCH   1   2
BRANCH   1  18
ATOM     18  C   UNL     1       8.947  17.901  27.846  1.00  0.00     0.000 C 
BRANCH  18  19
ATOM     19  C   UNL     1      10.082  16.872  28.006  1.00  0.00     0.000 C 
BRANCH  19  20
ATOM     20  C   UNL     1      10.299  15.942  26.797  1.00  0.00     0.000 C 
BRANCH  20  21
ATOM     21  C   UNL     1      10.196  14.433  27.095  1.00  0.00     0.000 C 
BRANCH  21  22
ATOM     22  C   UNL     1      11.216  13.566  26.326  1.00  0.00     0.000 C 
BRANCH  22  23
ATOM     23  C   UNL     1      11.907  12.519  27.221  1.00  0.00     0.000 C 
BRANCH  23  24
ATOM     24  C   UNL     1      10.918  11.510  27.824  1.00  0.00    -0.000 C 
BRANCH  24  25
ATOM     25  C   UNL     1      10.078  10.792  26.752  1.00  0.00    -0.000 C 
BRANCH  25  26
ATOM     26  C   UNL     1       9.688   9.362  27.161  1.00  0.00    -0.000 C 
BRANCH  26  27
ATOM     27  C   UNL     1       8.479   9.265  28.112  1.00  0.00    -0.000 C 
BRANCH  27  28
ATOM     28  C   UNL     1       7.229   8.619  27.476  1.00  0.00    -0.000 C 
BRANCH  28  29
ATOM     29  C   UNL     1       5.927   9.041  28.182  1.00  0.00    -0.000 C 
BRANCH  29  30
ATOM     30  C   UNL     1       5.572  10.517  27.938  1.00  0.00    -0.000 C 
BRANCH  30  31
ATOM     31  C   UNL     1       5.553  10.884  26.446  1.00  0.00    -0.003 C 
ATOM     32  C   UNL     1       5.454  12.395  26.252  1.00  0.00     0.004 C 
ENDBRANCH  30  31
ENDBRANCH  29  30
ENDBRANCH  28  29
ENDBRANCH  27  28
ENDBRANCH  26  27
ENDBRANCH  25  26
ENDBRANCH  24  25
ENDBRANCH  23  24
ENDBRANCH  22  23
ENDBRANCH  21  22
ENDBRANCH  20  21
ENDBRANCH  19  20
ENDBRANCH  18  19
ENDBRANCH   1  18
TORSDOF 28
ENDMDL
MODEL 5
REMARK VINA RESULT:    24.048      0.913      3.154
REMARK INTER + INTRA:          62.239
REMARK INTER:                  63.882
REMARK INTRA:                  -1.643
REMARK UNBOUND:                -1.172
REMARK SMILES CCCCCCCCCCCCCCCCCCCCCCCCCCCCCC(=O)[O-]
REMARK SMILES IDX 16 1 17 2 18 3 19 4 20 5 21 6 22 7 23 8 24 9 25 10 26 11
REMARK SMILES IDX 27 12 28 13 29 14 30 15 31 16 32 17 15 18 14 19 13 20 12 21
REMARK SMILES IDX 11 22 10 23 9 24 8 25 7 26 6 27 5 28 4 29 3 30 2 31 1 32
REMARK H PARENT
REMARK Flexibility Score: inf
ROOT
ATOM      1  C   UNL     1       7.797  17.354  28.306  1.00  0.00     0.000 C 
ENDROOT
BRANCH   1   2
ATOM      2  C   UNL     1       9.328  17.476  28.257  1.00  0.00     0.000 C 
BRANCH   2   3
ATOM      3  C   UNL     1       9.938  16.761  27.040  1.00  0.00     0.000 C 
BRANCH   3   4
ATOM      4  C   UNL     1      10.575  15.410  27.408  1.00  0.00     0.000 C 
BRANCH   4   5
ATOM      5  C   UNL     1      10.103  14.257  26.503  1.00  0.00     0.000 C 
BRANCH   5   6
ATOM      6  C   UNL     1      11.126  13.124  26.296  1.00  0.00     0.000 C 
BRANCH   6   7
ATOM      7  C   UNL     1      11.563  12.460  27.613  1.00  0.00     0.000 C 
BRANCH   7   8
ATOM      8  C   UNL     1      10.721  11.220  27.957  1.00  0.00     0.000 C 
BRANCH   8   9
ATOM      9  C   UNL     1      10.486  10.304  26.746  1.00  0.00     0.000 C 
BRANCH   9  10
ATOM     10  C   UNL     1       9.003   9.931  26.620  1.00  0.00     0.000 C 
BRANCH  10  11
ATOM     11  C   UNL     1       8.569   9.002  27.759  1.00  0.00     0.000 C 
BRANCH  11  12
ATOM     12  C   UNL     1       7.070   8.693  27.676  1.00  0.00     0.000 C 
BRANCH  12  13
ATOM     13  C   UNL     1       6.253   9.715  28.482  1.00  0.00     0.006 C 
BRANCH  13  14
ATOM     14  C   UNL     1       5.015  10.203  27.718  1.00  0.00     0.053 C 
BRANCH  14  15
ATOM     15  C   UNL     1       5.360  11.273  26.728  1.00  0.00     0.041 C 
ATOM     16  O   UNL     1       5.174  12.485  27.012  1.00  0.00    -0.550 OA
ATOM     17  O   UNL     1       5.856  10.928  25.477  1.00  0.00    -0.550 OA
ENDBRANCH  14  15
ENDBRANCH  13  14
ENDBRANCH  12  13
ENDBRANCH  11  12
ENDBRANCH  10  11
ENDBRANCH   9  10
ENDBRANCH   8   9
ENDBRANCH   7   8
ENDBRANCH   6   7
ENDBRANCH   5   6
ENDBRANCH   4   5
ENDBRANCH   3   4
ENDBRANCH   2   3
ENDBRANCH   1   2
BRANCH   1  18
ATOM     18  C   UNL     1       7.215  17.187  26.894  1.00  0.00     0.000 C 
BRANCH  18  19
ATOM     19  C   UNL     1       5.897  17.957  26.690  1.00  0.00     0.000 C 
BRANCH  19  20
ATOM     20  C   UNL     1       5.943  19.066  25.621  1.00  0.00     0.000 C 
BRANCH  20  21
ATOM     21  C   UNL     1       5.599  18.620  24.186  1.00  0.00     0.000 C 
BRANCH  21  22
ATOM     22  C   UNL     1       4.396  19.362  23.565  1.00  0.00     0.000 C 
BRANCH  22  23
ATOM     23  C   UNL     1       4.794  20.256  22.375  1.00  0.00     0.000 C 
BRANCH  23  24
ATOM     24  C   UNL     1       4.384  21.723  22.573  1.00  0.00    -0.000 C 
BRANCH  24  25
ATOM     25  C   UNL     1       2.863  21.896  22.736  1.00  0.00    -0.000 C 
BRANCH  25  26
ATOM     26  C   UNL     1       2.058  20.834  21.968  1.00  0.00    -0.000 C 
BRANCH  26  27
ATOM     27  C   UNL     1       1.404  19.751  22.849  1.00  0.00    -0.000 C 
BRANCH  27  28
ATOM     28  C   UNL     1       0.776  20.294  24.151  1.00  0.00    -0.000 C 
BRANCH  28  29
ATOM     29  C   UNL     1       0.228  19.170  25.050  1.00  0.00    -0.000 C 
BRANCH  29  30
ATOM     30  C   UNL     1       1.317  18.178  25.490  1.00  0.00    -0.000 C 
BRANCH  30  31
ATOM     31  C   UNL     1       1.025  16.738  25.038  1.00  0.00    -0.003 C 
ATOM     32  C   UNL     1      -0.078  16.703  23.984  1.00  0.00     0.004 C 
ENDBRANCH  30  31
ENDBRANCH  29  30
ENDBRANCH  28  29
ENDBRANCH  27  28
ENDBRANCH  26  27
ENDBRANCH  25  26
ENDBRANCH  24  25
ENDBRANCH  23  24
ENDBRANCH  22  23
ENDBRANCH  21  22
ENDBRANCH  20  21
ENDBRANCH  19  20
ENDBRANCH  18  19
ENDBRANCH   1  18
TORSDOF 28
ENDMDL
MODEL 6
REMARK VINA RESULT:    24.328      0.906      3.008
REMARK INTER + INTRA:          62.979
REMARK INTER:                  63.630
REMARK INTRA:                  -0.652
REMARK UNBOUND:                -1.172
REMARK SMILES CCCCCCCCCCCCCCCCCCCCCCCCCCCCCC(=O)[O-]
REMARK SMILES IDX 16 1 17 2 18 3 19 4 20 5 21 6 22 7 23 8 24 9 25 10 26 11
REMARK SMILES IDX 27 12 28 13 29 14 30 15 31 16 32 17 15 18 14 19 13 20 12 21
REMARK SMILES IDX 11 22 10 23 9 24 8 25 7 26 6 27 5 28 4 29 3 30 2 31 1 32
REMARK H PARENT
REMARK Flexibility Score: inf
ROOT
ATOM      1  C   UNL     1       7.217  17.093  26.879  1.00  0.00     0.000 C 
ENDROOT
BRANCH   1   2
ATOM      2  C   UNL     1       8.476  17.827  26.390  1.00  0.00     0.000 C 
BRANCH   2   3
ATOM      3  C   UNL     1       9.533  17.984  27.495  1.00  0.00     0.000 C 
BRANCH   3   4
ATOM      4  C   UNL     1       9.967  16.634  28.092  1.00  0.00     0.000 C 
BRANCH   4   5
ATOM      5  C   UNL     1      10.028  15.507  27.044  1.00  0.00     0.000 C 
BRANCH   5   6
ATOM      6  C   UNL     1      11.048  14.390  27.339  1.00  0.00     0.000 C 
BRANCH   6   7
ATOM      7  C   UNL     1      11.050  13.281  26.274  1.00  0.00     0.000 C 
BRANCH   7   8
ATOM      8  C   UNL     1      10.033  12.169  26.579  1.00  0.00     0.000 C 
BRANCH   8   9
ATOM      9  C   UNL     1      10.670  10.949  27.264  1.00  0.00     0.000 C 
BRANCH   9  10
ATOM     10  C   UNL     1      10.016   9.648  26.784  1.00  0.00     0.000 C 
BRANCH  10  11
ATOM     11  C   UNL     1       8.874   9.227  27.717  1.00  0.00     0.000 C 
BRANCH  11  12
ATOM     12  C   UNL     1       7.513   9.401  27.033  1.00  0.00     0.000 C 
BRANCH  12  13
ATOM     13  C   UNL     1       6.365   9.167  28.026  1.00  0.00     0.006 C 
BRANCH  13  14
ATOM     14  C   UNL     1       5.328  10.298  27.994  1.00  0.00     0.053 C 
BRANCH  14  15
ATOM     15  C   UNL     1       5.429  11.109  26.738  1.00  0.00     0.041 C 
ATOM     16  O   UNL     1       5.762  10.562  25.655  1.00  0.00    -0.550 OA
ATOM     17  O   UNL     1       5.186  12.476  26.773  1.00  0.00    -0.550 OA
ENDBRANCH  14  15
ENDBRANCH  13  14
ENDBRANCH  12  13
ENDBRANCH  11  12
ENDBRANCH  10  11
ENDBRANCH   9  10
ENDBRANCH   8   9
ENDBRANCH   7   8
ENDBRANCH   6   7
ENDBRANCH   5   6
ENDBRANCH   4   5
ENDBRANCH   3   4
ENDBRANCH   2   3
ENDBRANCH   1   2
BRANCH   1  18
ATOM     18  C   UNL     1       5.996  18.025  26.854  1.00  0.00     0.000 C 
BRANCH  18  19
ATOM     19  C   UNL     1       5.969  18.951  25.623  1.00  0.00     0.000 C 
BRANCH  19  20
ATOM     20  C   UNL     1       5.812  18.236  24.267  1.00  0.00     0.000 C 
BRANCH  20  21
ATOM     21  C   UNL     1       5.271  19.108  23.117  1.00  0.00     0.000 C 
BRANCH  21  22
ATOM     22  C   UNL     1       4.181  20.113  23.545  1.00  0.00     0.000 C 
BRANCH  22  23
ATOM     23  C   UNL     1       3.801  21.099  22.422  1.00  0.00     0.000 C 
BRANCH  23  24
ATOM     24  C   UNL     1       2.283  21.184  22.199  1.00  0.00    -0.000 C 
BRANCH  24  25
ATOM     25  C   UNL     1       1.752  20.049  21.303  1.00  0.00    -0.000 C 
BRANCH  25  26
ATOM     26  C   UNL     1       1.399  18.781  22.097  1.00  0.00    -0.000 C 
BRANCH  26  27
ATOM     27  C   UNL     1       0.190  18.921  23.043  1.00  0.00    -0.000 C 
BRANCH  27  28
ATOM     28  C   UNL     1      -0.343  17.577  23.585  1.00  0.00    -0.000 C 
BRANCH  28  29
ATOM     29  C   UNL     1       0.600  16.951  24.629  1.00  0.00    -0.000 C 
BRANCH  29  30
ATOM     30  C   UNL     1       1.122  17.976  25.648  1.00  0.00    -0.000 C 
BRANCH  30  31
ATOM     31  C   UNL     1       2.626  17.823  25.927  1.00  0.00    -0.003 C 
ATOM     32  C   UNL     1       2.910  17.809  27.427  1.00  0.00     0.004 C 
ENDBRANCH  30  31
ENDBRANCH  29  30
ENDBRANCH  28  29
ENDBRANCH  27  28
ENDBRANCH  26  27
ENDBRANCH  25  26
ENDBRANCH  24  25
ENDBRANCH  23  24
ENDBRANCH  22  23
ENDBRANCH  21  22
ENDBRANCH  20  21
ENDBRANCH  19  20
ENDBRANCH  18  19
ENDBRANCH   1  18
TORSDOF 28
ENDMDL
MODEL 7
REMARK VINA RESULT:    24.421      1.022      3.049
REMARK INTER + INTRA:          63.222
REMARK INTER:                  64.189
REMARK INTRA:                  -0.967
REMARK UNBOUND:                -1.172
REMARK SMILES CCCCCCCCCCCCCCCCCCCCCCCCCCCCCC(=O)[O-]
REMARK SMILES IDX 16 1 17 2 18 3 19 4 20 5 21 6 22 7 23 8 24 9 25 10 26 11
REMARK SMILES IDX 27 12 28 13 29 14 30 15 31 16 32 17 15 18 14 19 13 20 12 21
REMARK SMILES IDX 11 22 10 23 9 24 8 25 7 26 6 27 5 28 4 29 3 30 2 31 1 32
REMARK H PARENT
REMARK Flexibility Score: inf
ROOT
ATOM      1  C   UNL     1       7.499  17.418  26.394  1.00  0.00     0.000 C 
ENDROOT
BRANCH   1   2
ATOM      2  C   UNL     1       8.631  18.083  27.193  1.00  0.00     0.000 C 
BRANCH   2   3
ATOM      3  C   UNL     1       9.257  17.136  28.229  1.00  0.00     0.000 C 
BRANCH   3   4
ATOM      4  C   UNL     1      10.410  16.302  27.642  1.00  0.00     0.000 C 
BRANCH   4   5
ATOM      5  C   UNL     1       9.955  14.919  27.140  1.00  0.00     0.000 C 
BRANCH   5   6
ATOM      6  C   UNL     1      10.792  14.331  25.987  1.00  0.00     0.000 C 
BRANCH   6   7
ATOM      7  C   UNL     1      11.532  13.040  26.378  1.00  0.00     0.000 C 
BRANCH   7   8
ATOM      8  C   UNL     1      11.056  12.474  27.727  1.00  0.00     0.000 C 
BRANCH   8   9
ATOM      9  C   UNL     1      11.018  10.938  27.749  1.00  0.00     0.000 C 
BRANCH   9  10
ATOM     10  C   UNL     1      10.089  10.397  26.654  1.00  0.00     0.000 C 
BRANCH  10  11
ATOM     11  C   UNL     1       9.128   9.344  27.217  1.00  0.00     0.000 C 
BRANCH  11  12
ATOM     12  C   UNL     1       7.672   9.702  26.897  1.00  0.00     0.000 C 
BRANCH  12  13
ATOM     13  C   UNL     1       6.734   9.254  28.028  1.00  0.00     0.006 C 
BRANCH  13  14
ATOM     14  C   UNL     1       5.312   9.806  27.858  1.00  0.00     0.053 C 
BRANCH  14  15
ATOM     15  C   UNL     1       5.304  11.093  27.090  1.00  0.00     0.041 C 
ATOM     16  O   UNL     1       4.740  12.112  27.566  1.00  0.00    -0.550 OA
ATOM     17  O   UNL     1       5.891  11.155  25.833  1.00  0.00    -0.550 OA
ENDBRANCH  14  15
ENDBRANCH  13  14
ENDBRANCH  12  13
ENDBRANCH  11  12
ENDBRANCH  10  11
ENDBRANCH   9  10
ENDBRANCH   8   9
ENDBRANCH   7   8
ENDBRANCH   6   7
ENDBRANCH   5   6
ENDBRANCH   4   5
ENDBRANCH   3   4
ENDBRANCH   2   3
ENDBRANCH   1   2
BRANCH   1  18
ATOM     18  C   UNL     1       6.125  17.872  26.909  1.00  0.00     0.000 C 
BRANCH  18  19
ATOM     19  C   UNL     1       5.335  18.696  25.875  1.00  0.00     0.000 C 
BRANCH  19  20
ATOM     20  C   UNL     1       5.838  18.584  24.423  1.00  0.00     0.000 C 
BRANCH  20  21
ATOM     21  C   UNL     1       4.813  18.958  23.335  1.00  0.00     0.000 C 
BRANCH  21  22
ATOM     22  C   UNL     1       4.470  20.462  23.280  1.00  0.00     0.000 C 
BRANCH  22  23
ATOM     23  C   UNL     1       3.621  20.839  22.050  1.00  0.00     0.000 C 
BRANCH  23  24
ATOM     24  C   UNL     1       2.113  20.708  22.310  1.00  0.00    -0.000 C 
BRANCH  24  25
ATOM     25  C   UNL     1       1.722  21.106  23.745  1.00  0.00    -0.000 C 
BRANCH  25  26
ATOM     26  C   UNL     1       0.337  20.578  24.152  1.00  0.00    -0.000 C 
BRANCH  26  27
ATOM     27  C   UNL     1       0.347  19.527  25.281  1.00  0.00    -0.000 C 
BRANCH  27  28
ATOM     28  C   UNL     1       1.466  18.473  25.148  1.00  0.00    -0.000 C 
BRANCH  28  29
ATOM     29  C   UNL     1       0.911  17.054  24.924  1.00  0.00    -0.000 C 
BRANCH  29  30
ATOM     30  C   UNL     1      -0.130  16.996  23.794  1.00  0.00    -0.000 C 
BRANCH  30  31
ATOM     31  C   UNL     1       0.276  17.832  22.569  1.00  0.00    -0.003 C 
ATOM     32  C   UNL     1      -0.771  17.732  21.462  1.00  0.00     0.004 C 
ENDBRANCH  30  31
ENDBRANCH  29  30
ENDBRANCH  28  29
ENDBRANCH  27  28
ENDBRANCH  26  27
ENDBRANCH  25  26
ENDBRANCH  24  25
ENDBRANCH  23  24
ENDBRANCH  22  23
ENDBRANCH  21  22
ENDBRANCH  20  21
ENDBRANCH  19  20
ENDBRANCH  18  19
ENDBRANCH   1  18
TORSDOF 28
ENDMDL
MODEL 8
REMARK VINA RESULT:    24.566      1.677     10.269
REMARK INTER + INTRA:          63.606
REMARK INTER:                  63.839
REMARK INTRA:                  -0.233
REMARK UNBOUND:                -1.172
REMARK SMILES CCCCCCCCCCCCCCCCCCCCCCCCCCCCCC(=O)[O-]
REMARK SMILES IDX 16 1 17 2 18 3 19 4 20 5 21 6 22 7 23 8 24 9 25 10 26 11
REMARK SMILES IDX 27 12 28 13 29 14 30 15 31 16 32 17 15 18 14 19 13 20 12 21
REMARK SMILES IDX 11 22 10 23 9 24 8 25 7 26 6 27 5 28 4 29 3 30 2 31 1 32
REMARK H PARENT
REMARK Flexibility Score: inf
ROOT
ATOM      1  C   UNL     1       6.081  17.932  27.056  1.00  0.00     0.000 C 
ENDROOT
BRANCH   1   2
ATOM      2  C   UNL     1       6.113  18.995  25.946  1.00  0.00     0.000 C 
BRANCH   2   3
ATOM      3  C   UNL     1       6.580  18.424  24.597  1.00  0.00     0.000 C 
BRANCH   3   4
ATOM      4  C   UNL     1       5.480  18.475  23.523  1.00  0.00     0.000 C 
BRANCH   4   5
ATOM      5  C   UNL     1       4.481  19.627  23.741  1.00  0.00     0.000 C 
BRANCH   5   6
ATOM      6  C   UNL     1       4.545  20.758  22.697  1.00  0.00     0.000 C 
BRANCH   6   7
ATOM      7  C   UNL     1       3.161  21.324  22.337  1.00  0.00     0.000 C 
BRANCH   7   8
ATOM      8  C   UNL     1       2.022  20.340  22.654  1.00  0.00     0.000 C 
BRANCH   8   9
ATOM      9  C   UNL     1       1.169  20.780  23.853  1.00  0.00     0.000 C 
BRANCH   9  10
ATOM     10  C   UNL     1       0.433  19.585  24.471  1.00  0.00     0.000 C 
BRANCH  10  11
ATOM     11  C   UNL     1      -0.039  18.608  23.388  1.00  0.00     0.000 C 
BRANCH  11  12
ATOM     12  C   UNL     1       0.021  17.161  23.890  1.00  0.00     0.000 C 
BRANCH  12  13
ATOM     13  C   UNL     1       1.292  16.917  24.717  1.00  0.00     0.006 C 
BRANCH  13  14
ATOM     14  C   UNL     1       1.300  17.722  26.023  1.00  0.00     0.053 C 
BRANCH  14  15
ATOM     15  C   UNL     1       2.635  17.670  26.701  1.00  0.00     0.041 C 
ATOM     16  O   UNL     1       3.597  17.064  26.162  1.00  0.00    -0.550 OA
ATOM     17  O   UNL     1       2.805  18.263  27.945  1.00  0.00    -0.550 OA
ENDBRANCH  14  15
ENDBRANCH  13  14
ENDBRANCH  12  13
ENDBRANCH  11  12
ENDBRANCH  10  11
ENDBRANCH   9  10
ENDBRANCH   8   9
ENDBRANCH   7   8
ENDBRANCH   6   7
ENDBRANCH   5   6
ENDBRANCH   4   5
ENDBRANCH   3   4
ENDBRANCH   2   3
ENDBRANCH   1   2
BRANCH   1  18
ATOM     18  C   UNL     1       7.300  17.003  26.960  1.00  0.00     0.000 C 
BRANCH  18  19
ATOM     19  C   UNL     1       8.639  17.741  27.149  1.00  0.00     0.000 C 
BRANCH  19  20
ATOM     20  C   UNL     1       9.553  17.172  28.251  1.00  0.00     0.000 C 
BRANCH  20  21
ATOM     21  C   UNL     1      10.351  15.911  27.865  1.00  0.00     0.000 C 
BRANCH  21  22
ATOM     22  C   UNL     1       9.974  15.322  26.489  1.00  0.00     0.000 C 
BRANCH  22  23
ATOM     23  C   UNL     1      10.559  13.914  26.259  1.00  0.00     0.000 C 
BRANCH  23  24
ATOM     24  C   UNL     1      11.260  13.354  27.506  1.00  0.00    -0.000 C 
BRANCH  24  25
ATOM     25  C   UNL     1      11.245  11.816  27.553  1.00  0.00    -0.000 C 
BRANCH  25  26
ATOM     26  C   UNL     1       9.953  11.216  26.973  1.00  0.00    -0.000 C 
BRANCH  26  27
ATOM     27  C   UNL     1       9.932   9.678  26.884  1.00  0.00    -0.000 C 
BRANCH  27  28
ATOM     28  C   UNL     1       8.788   9.017  27.682  1.00  0.00    -0.000 C 
BRANCH  28  29
ATOM     29  C   UNL     1       7.431   9.131  26.964  1.00  0.00    -0.000 C 
BRANCH  29  30
ATOM     30  C   UNL     1       6.280   9.478  27.922  1.00  0.00    -0.000 C 
BRANCH  30  31
ATOM     31  C   UNL     1       5.557  10.779  27.535  1.00  0.00    -0.003 C 
ATOM     32  C   UNL     1       5.657  11.040  26.034  1.00  0.00     0.004 C 
ENDBRANCH  30  31
ENDBRANCH  29  30
ENDBRANCH  28  29
ENDBRANCH  27  28
ENDBRANCH  26  27
ENDBRANCH  25  26
ENDBRANCH  24  25
ENDBRANCH  23  24
ENDBRANCH  22  23
ENDBRANCH  21  22
ENDBRANCH  20  21
ENDBRANCH  19  20
ENDBRANCH  18  19
ENDBRANCH   1  18
TORSDOF 28
ENDMDL
MODEL 9
REMARK VINA RESULT:    24.697      0.799      1.341
REMARK INTER + INTRA:          63.951
REMARK INTER:                  64.181
REMARK INTRA:                  -0.230
REMARK UNBOUND:                -1.172
REMARK SMILES CCCCCCCCCCCCCCCCCCCCCCCCCCCCCC(=O)[O-]
REMARK SMILES IDX 16 1 17 2 18 3 19 4 20 5 21 6 22 7 23 8 24 9 25 10 26 11
REMARK SMILES IDX 27 12 28 13 29 14 30 15 31 16 32 17 15 18 14 19 13 20 12 21
REMARK SMILES IDX 11 22 10 23 9 24 8 25 7 26 6 27 5 28 4 29 3 30 2 31 1 32
REMARK H PARENT
REMARK Flexibility Score: inf
ROOT
ATOM      1  C   UNL     1       7.608  17.142  27.844  1.00  0.00     0.000 C 
ENDROOT
BRANCH   1   2
ATOM      2  C   UNL     1       8.795  17.493  28.755  1.00  0.00     0.000 C 
BRANCH   2   3
ATOM      3  C   UNL     1      10.128  16.938  28.226  1.00  0.00     0.000 C 
BRANCH   3   4
ATOM      4  C   UNL     1      10.214  16.974  26.691  1.00  0.00     0.000 C 
BRANCH   4   5
ATOM      5  C   UNL     1      10.653  15.629  26.082  1.00  0.00     0.000 C 
BRANCH   5   6
ATOM      6  C   UNL     1      10.369  14.390  26.953  1.00  0.00     0.000 C 
BRANCH   6   7
ATOM      7  C   UNL     1      10.967  13.098  26.371  1.00  0.00     0.000 C 
BRANCH   7   8
ATOM      8  C   UNL     1      11.618  12.213  27.447  1.00  0.00     0.000 C 
BRANCH   8   9
ATOM      9  C   UNL     1      10.665  11.138  27.993  1.00  0.00     0.000 C 
BRANCH   9  10
ATOM     10  C   UNL     1      10.031  10.336  26.850  1.00  0.00     0.000 C 
BRANCH  10  11
ATOM     11  C   UNL     1       9.049   9.289  27.389  1.00  0.00     0.000 C 
BRANCH  11  12
ATOM     12  C   UNL     1       7.633   9.538  26.857  1.00  0.00     0.000 C 
BRANCH  12  13
ATOM     13  C   UNL     1       6.589   9.370  27.972  1.00  0.00     0.006 C 
BRANCH  13  14
ATOM     14  C   UNL     1       5.284  10.116  27.664  1.00  0.00     0.053 C 
BRANCH  14  15
ATOM     15  C   UNL     1       5.483  11.181  26.629  1.00  0.00     0.041 C 
ATOM     16  O   UNL     1       5.546  12.391  26.968  1.00  0.00    -0.550 OA
ATOM     17  O   UNL     1       5.565  10.837  25.286  1.00  0.00    -0.550 OA
ENDBRANCH  14  15
ENDBRANCH  13  14
ENDBRANCH  12  13
ENDBRANCH  11  12
ENDBRANCH  10  11
ENDBRANCH   9  10
ENDBRANCH   8   9
ENDBRANCH   7   8
ENDBRANCH   6   7
ENDBRANCH   5   6
ENDBRANCH   4   5
ENDBRANCH   3   4
ENDBRANCH   2   3
ENDBRANCH   1   2
BRANCH   1  18
ATOM     18  C   UNL     1       7.747  17.825  26.475  1.00  0.00     0.000 C 
BRANCH  18  19
ATOM     19  C   UNL     1       6.513  18.662  26.091  1.00  0.00     0.000 C 
BRANCH  19  20
ATOM     20  C   UNL     1       5.174  17.900  26.101  1.00  0.00     0.000 C 
BRANCH  20  21
ATOM     21  C   UNL     1       4.451  17.847  27.462  1.00  0.00     0.000 C 
BRANCH  21  22
ATOM     22  C   UNL     1       2.913  17.780  27.357  1.00  0.00     0.000 C 
BRANCH  22  23
ATOM     23  C   UNL     1       2.387  18.208  25.973  1.00  0.00     0.000 C 
BRANCH  23  24
ATOM     24  C   UNL     1       0.897  17.884  25.780  1.00  0.00    -0.000 C 
BRANCH  24  25
ATOM     25  C   UNL     1       0.667  16.718  24.801  1.00  0.00    -0.000 C 
BRANCH  25  26
ATOM     26  C   UNL     1      -0.111  17.141  23.545  1.00  0.00    -0.000 C 
BRANCH  26  27
ATOM     27  C   UNL     1      -0.129  18.658  23.270  1.00  0.00    -0.000 C 
BRANCH  27  28
ATOM     28  C   UNL     1       1.189  19.205  22.681  1.00  0.00    -0.000 C 
BRANCH  28  29
ATOM     29  C   UNL     1       1.669  20.478  23.403  1.00  0.00    -0.000 C 
BRANCH  29  30
ATOM     30  C   UNL     1       2.454  21.424  22.480  1.00  0.00    -0.000 C 
BRANCH  30  31
ATOM     31  C   UNL     1       3.871  20.914  22.172  1.00  0.00    -0.003 C 
ATOM     32  C   UNL     1       4.333  19.904  23.220  1.00  0.00     0.004 C 
ENDBRANCH  30  31
ENDBRANCH  29  30
ENDBRANCH  28  29
ENDBRANCH  27  28
ENDBRANCH  26  27
ENDBRANCH  25  26
ENDBRANCH  24  25
ENDBRANCH  23  24
ENDBRANCH  22  23
ENDBRANCH  21  22
ENDBRANCH  20  21
ENDBRANCH  19  20
ENDBRANCH  18  19
ENDBRANCH   1  18
TORSDOF 28
ENDMDL
