MODEL 1
REMARK VINA RESULT:    -2.410      0.000      0.000
REMARK INTER + INTRA:          -2.656
REMARK INTER:                  -2.621
REMARK INTRA:                  -0.035
REMARK UNBOUND:                -0.035
REMARK SMILES O=C([O-])c1ccc(O)cc1
REMARK SMILES IDX 4 1 5 2 10 3 6 4 9 5 7 6 2 7 1 8 3 9 8 10
REMARK H PARENT 8 11
REMARK Flexibility Score: inf
ROOT
ATOM      1  C   UNL     1     134.906 129.866  96.289  1.00  0.00    -0.003 A 
ATOM      2  C   UNL     1     135.655 130.265  95.167  1.00  0.00     0.014 A 
ATOM      3  C   UNL     1     134.450 128.537  96.366  1.00  0.00     0.014 A 
ATOM      4  C   UNL     1     135.939 129.355  94.145  1.00  0.00     0.047 A 
ATOM      5  C   UNL     1     134.738 127.629  95.343  1.00  0.00     0.047 A 
ATOM      6  C   UNL     1     135.483 128.036  94.229  1.00  0.00     0.115 A 
ENDROOT
BRANCH   1   7
ATOM      7  C   UNL     1     134.606 130.831  97.369  1.00  0.00     0.071 C 
ATOM      8  O   UNL     1     134.208 130.430  98.495  1.00  0.00    -0.545 OA
ATOM      9  O   UNL     1     134.759 132.196  97.157  1.00  0.00    -0.545 OA
ENDBRANCH   1   7
BRANCH   6  10
ATOM     10  O   UNL     1     135.775 127.141  93.203  1.00  0.00    -0.508 OA
ATOM     11  H   UNL     1     135.285 126.257  93.116  1.00  0.00     0.293 HD
ENDBRANCH   6  10
TORSDOF 2
ENDMDL
MODEL 2
REMARK VINA RESULT:    -2.394      0.182      1.541
REMARK INTER + INTRA:          -2.640
REMARK INTER:                  -2.604
REMARK INTRA:                  -0.036
REMARK UNBOUND:                -0.035
REMARK SMILES O=C([O-])c1ccc(O)cc1
REMARK SMILES IDX 4 1 5 2 10 3 6 4 9 5 7 6 2 7 1 8 3 9 8 10
REMARK H PARENT 8 11
REMARK Flexibility Score: inf
ROOT
ATOM      1  C   UNL     1     135.002 129.872  96.158  1.00  0.00    -0.003 A 
ATOM      2  C   UNL     1     134.562 128.545  96.316  1.00  0.00     0.014 A 
ATOM      3  C   UNL     1     135.697 130.225  94.986  1.00  0.00     0.014 A 
ATOM      4  C   UNL     1     134.813 127.594  95.323  1.00  0.00     0.047 A 
ATOM      5  C   UNL     1     135.945 129.271  93.996  1.00  0.00     0.047 A 
ATOM      6  C   UNL     1     135.504 127.951  94.162  1.00  0.00     0.115 A 
ENDROOT
BRANCH   1   7
ATOM      7  C   UNL     1     134.736 130.878  97.210  1.00  0.00     0.071 C 
ATOM      8  O   UNL     1     134.253 130.530  98.322  1.00  0.00    -0.545 OA
ATOM      9  O   UNL     1     135.014 132.221  96.987  1.00  0.00    -0.545 OA
ENDBRANCH   1   7
BRANCH   6  10
ATOM     10  O   UNL     1     135.746 126.992  93.182  1.00  0.00    -0.508 OA
ATOM     11  H   UNL     1     136.361 127.179  92.398  1.00  0.00     0.293 HD
ENDBRANCH   6  10
TORSDOF 2
ENDMDL
MODEL 3
REMARK VINA RESULT:    -2.333     12.314     13.723
REMARK INTER + INTRA:          -2.573
REMARK INTER:                  -2.545
REMARK INTRA:                  -0.028
REMARK UNBOUND:                -0.035
REMARK SMILES O=C([O-])c1ccc(O)cc1
REMARK SMILES IDX 4 1 5 2 10 3 6 4 9 5 7 6 2 7 1 8 3 9 8 10
REMARK H PARENT 8 11
REMARK Flexibility Score: inf
ROOT
ATOM      1  C   UNL     1     134.530 124.467 108.800  1.00  0.00    -0.003 A 
ATOM      2  C   UNL     1     133.147 124.302 108.603  1.00  0.00     0.014 A 
ATOM      3  C   UNL     1     135.253 125.285 107.911  1.00  0.00     0.014 A 
ATOM      4  C   UNL     1     132.503 124.939 107.539  1.00  0.00     0.047 A 
ATOM      5  C   UNL     1     134.604 125.922 106.850  1.00  0.00     0.047 A 
ATOM      6  C   UNL     1     133.227 125.750 106.660  1.00  0.00     0.115 A 
ENDROOT
BRANCH   1   7
ATOM      7  C   UNL     1     135.210 123.791 109.927  1.00  0.00     0.071 C 
ATOM      8  O   UNL     1     134.968 124.129 111.118  1.00  0.00    -0.545 OA
ATOM      9  O   UNL     1     136.125 122.773 109.689  1.00  0.00    -0.545 OA
ENDBRANCH   1   7
BRANCH   6  10
ATOM     10  O   UNL     1     132.570 126.378 105.605  1.00  0.00    -0.508 OA
ATOM     11  H   UNL     1     131.779 125.947 105.142  1.00  0.00     0.293 HD
ENDBRANCH   6  10
TORSDOF 2
ENDMDL
MODEL 4
REMARK VINA RESULT:    -2.294     11.958     13.452
REMARK INTER + INTRA:          -2.530
REMARK INTER:                  -2.499
REMARK INTRA:                  -0.031
REMARK UNBOUND:                -0.035
REMARK SMILES O=C([O-])c1ccc(O)cc1
REMARK SMILES IDX 4 1 5 2 10 3 6 4 9 5 7 6 2 7 1 8 3 9 8 10
REMARK H PARENT 8 11
REMARK Flexibility Score: inf
ROOT
ATOM      1  C   UNL     1     134.465 125.407 107.523  1.00  0.00    -0.003 A 
ATOM      2  C   UNL     1     133.086 125.232 107.310  1.00  0.00     0.014 A 
ATOM      3  C   UNL     1     135.056 124.838 108.667  1.00  0.00     0.014 A 
ATOM      4  C   UNL     1     132.315 124.505 108.222  1.00  0.00     0.047 A 
ATOM      5  C   UNL     1     134.282 124.111 109.576  1.00  0.00     0.047 A 
ATOM      6  C   UNL     1     132.909 123.943 109.356  1.00  0.00     0.115 A 
ENDROOT
BRANCH   1   7
ATOM      7  C   UNL     1     135.279 126.177 106.557  1.00  0.00     0.071 C 
ATOM      8  O   UNL     1     136.125 127.020 106.960  1.00  0.00    -0.545 OA
ATOM      9  O   UNL     1     135.121 125.981 105.190  1.00  0.00    -0.545 OA
ENDBRANCH   1   7
BRANCH   6  10
ATOM     10  O   UNL     1     132.128 123.221 110.255  1.00  0.00    -0.508 OA
ATOM     11  H   UNL     1     131.575 123.685 110.967  1.00  0.00     0.293 HD
ENDBRANCH   6  10
TORSDOF 2
ENDMDL
MODEL 5
REMARK VINA RESULT:    -2.234     12.188     13.542
REMARK INTER + INTRA:          -2.465
REMARK INTER:                  -2.435
REMARK INTRA:                  -0.031
REMARK UNBOUND:                -0.035
REMARK SMILES O=C([O-])c1ccc(O)cc1
REMARK SMILES IDX 4 1 5 2 10 3 6 4 9 5 7 6 2 7 1 8 3 9 8 10
REMARK H PARENT 8 11
REMARK Flexibility Score: inf
ROOT
ATOM      1  C   UNL     1     133.440 124.474 108.647  1.00  0.00    -0.003 A 
ATOM      2  C   UNL     1     134.819 124.749 108.672  1.00  0.00     0.014 A 
ATOM      3  C   UNL     1     132.668 124.954 107.572  1.00  0.00     0.014 A 
ATOM      4  C   UNL     1     135.412 125.488 107.645  1.00  0.00     0.047 A 
ATOM      5  C   UNL     1     133.265 125.691 106.546  1.00  0.00     0.047 A 
ATOM      6  C   UNL     1     134.640 125.961 106.580  1.00  0.00     0.115 A 
ENDROOT
BRANCH   1   7
ATOM      7  C   UNL     1     132.814 123.692 109.737  1.00  0.00     0.071 C 
ATOM      8  O   UNL     1     132.049 122.726 109.473  1.00  0.00    -0.545 OA
ATOM      9  O   UNL     1     133.063 124.011 111.066  1.00  0.00    -0.545 OA
ENDBRANCH   1   7
BRANCH   6  10
ATOM     10  O   UNL     1     135.245 126.696 105.564  1.00  0.00    -0.508 OA
ATOM     11  H   UNL     1     135.041 127.680 105.429  1.00  0.00     0.293 HD
ENDBRANCH   6  10
TORSDOF 2
ENDMDL
MODEL 6
REMARK VINA RESULT:    -2.227      1.750      4.313
REMARK INTER + INTRA:          -2.457
REMARK INTER:                  -2.427
REMARK INTRA:                  -0.030
REMARK UNBOUND:                -0.035
REMARK SMILES O=C([O-])c1ccc(O)cc1
REMARK SMILES IDX 4 1 5 2 10 3 6 4 9 5 7 6 2 7 1 8 3 9 8 10
REMARK H PARENT 8 11
REMARK Flexibility Score: inf
ROOT
ATOM      1  C   UNL     1     135.235 130.325  96.055  1.00  0.00    -0.003 A 
ATOM      2  C   UNL     1     135.955 131.410  96.588  1.00  0.00     0.014 A 
ATOM      3  C   UNL     1     134.230 129.724  96.835  1.00  0.00     0.014 A 
ATOM      4  C   UNL     1     135.674 131.882  97.873  1.00  0.00     0.047 A 
ATOM      5  C   UNL     1     133.952 130.200  98.119  1.00  0.00     0.047 A 
ATOM      6  C   UNL     1     134.674 131.281  98.642  1.00  0.00     0.115 A 
ENDROOT
BRANCH   1   7
ATOM      7  C   UNL     1     135.534 129.827  94.694  1.00  0.00     0.071 C 
ATOM      8  O   UNL     1     135.786 128.607  94.499  1.00  0.00    -0.545 OA
ATOM      9  O   UNL     1     135.541 130.697  93.611  1.00  0.00    -0.545 OA
ENDBRANCH   1   7
BRANCH   6  10
ATOM     10  O   UNL     1     134.406 131.762  99.921  1.00  0.00    -0.508 OA
ATOM     11  H   UNL     1     133.695 131.340 100.508  1.00  0.00     0.293 HD
ENDBRANCH   6  10
TORSDOF 2
ENDMDL
MODEL 7
REMARK VINA RESULT:    -2.221     20.442     21.428
REMARK INTER + INTRA:          -2.451
REMARK INTER:                  -2.422
REMARK INTRA:                  -0.030
REMARK UNBOUND:                -0.035
REMARK SMILES O=C([O-])c1ccc(O)cc1
REMARK SMILES IDX 4 1 5 2 10 3 6 4 9 5 7 6 2 7 1 8 3 9 8 10
REMARK H PARENT 8 11
REMARK Flexibility Score: inf
ROOT
ATOM      1  C   UNL     1     118.127 127.083 108.731  1.00  0.00    -0.003 A 
ATOM      2  C   UNL     1     118.943 126.621 107.683  1.00  0.00     0.014 A 
ATOM      3  C   UNL     1     116.750 126.793 108.702  1.00  0.00     0.014 A 
ATOM      4  C   UNL     1     118.394 125.886 106.629  1.00  0.00     0.047 A 
ATOM      5  C   UNL     1     116.205 126.056 107.647  1.00  0.00     0.047 A 
ATOM      6  C   UNL     1     117.026 125.601 106.607  1.00  0.00     0.115 A 
ENDROOT
BRANCH   1   7
ATOM      7  C   UNL     1     118.711 127.862 109.846  1.00  0.00     0.071 C 
ATOM      8  O   UNL     1     118.555 127.488 111.040  1.00  0.00    -0.545 OA
ATOM      9  O   UNL     1     119.441 129.016 109.592  1.00  0.00    -0.545 OA
ENDBRANCH   1   7
BRANCH   6  10
ATOM     10  O   UNL     1     116.493 124.867 105.550  1.00  0.00    -0.508 OA
ATOM     11  H   UNL     1     116.365 123.863 105.614  1.00  0.00     0.293 HD
ENDBRANCH   6  10
TORSDOF 2
ENDMDL
MODEL 8
REMARK VINA RESULT:    -2.217      1.740      4.535
REMARK INTER + INTRA:          -2.447
REMARK INTER:                  -2.417
REMARK INTRA:                  -0.030
REMARK UNBOUND:                -0.035
REMARK SMILES O=C([O-])c1ccc(O)cc1
REMARK SMILES IDX 4 1 5 2 10 3 6 4 9 5 7 6 2 7 1 8 3 9 8 10
REMARK H PARENT 8 11
REMARK Flexibility Score: inf
ROOT
ATOM      1  C   UNL     1     135.237 130.337  96.008  1.00  0.00    -0.003 A 
ATOM      2  C   UNL     1     134.246 129.701  96.777  1.00  0.00     0.014 A 
ATOM      3  C   UNL     1     135.932 131.430  96.559  1.00  0.00     0.014 A 
ATOM      4  C   UNL     1     133.956 130.150  98.069  1.00  0.00     0.047 A 
ATOM      5  C   UNL     1     135.640 131.875  97.851  1.00  0.00     0.047 A 
ATOM      6  C   UNL     1     134.650 131.236  98.610  1.00  0.00     0.115 A 
ENDROOT
BRANCH   1   7
ATOM      7  C   UNL     1     135.542 129.860  94.641  1.00  0.00     0.071 C 
ATOM      8  O   UNL     1     135.822 128.648  94.432  1.00  0.00    -0.545 OA
ATOM      9  O   UNL     1     135.524 130.741  93.567  1.00  0.00    -0.545 OA
ENDBRANCH   1   7
BRANCH   6  10
ATOM     10  O   UNL     1     134.350 131.672  99.898  1.00  0.00    -0.508 OA
ATOM     11  H   UNL     1     134.535 132.625 100.190  1.00  0.00     0.293 HD
ENDBRANCH   6  10
TORSDOF 2
ENDMDL
MODEL 9
REMARK VINA RESULT:    -2.138      0.937      4.254
REMARK INTER + INTRA:          -2.361
REMARK INTER:                  -2.331
REMARK INTRA:                  -0.031
REMARK UNBOUND:                -0.035
REMARK SMILES O=C([O-])c1ccc(O)cc1
REMARK SMILES IDX 4 1 5 2 10 3 6 4 9 5 7 6 2 7 1 8 3 9 8 10
REMARK H PARENT 8 11
REMARK Flexibility Score: inf
ROOT
ATOM      1  C   UNL     1     135.155 128.329  95.044  1.00  0.00    -0.003 A 
ATOM      2  C   UNL     1     135.750 129.560  94.715  1.00  0.00     0.014 A 
ATOM      3  C   UNL     1     134.349 128.247  96.195  1.00  0.00     0.014 A 
ATOM      4  C   UNL     1     135.544 130.683  95.520  1.00  0.00     0.047 A 
ATOM      5  C   UNL     1     134.144 129.373  96.997  1.00  0.00     0.047 A 
ATOM      6  C   UNL     1     134.742 130.595  96.662  1.00  0.00     0.115 A 
ENDROOT
BRANCH   1   7
ATOM      7  C   UNL     1     135.375 127.141  94.190  1.00  0.00     0.071 C 
ATOM      8  O   UNL     1     135.225 127.213  92.940  1.00  0.00    -0.545 OA
ATOM      9  O   UNL     1     135.750 125.927  94.753  1.00  0.00    -0.545 OA
ENDBRANCH   1   7
BRANCH   6  10
ATOM     10  O   UNL     1     134.546 131.723  97.455  1.00  0.00    -0.508 OA
ATOM     11  H   UNL     1     133.738 131.810  98.061  1.00  0.00     0.293 HD
ENDBRANCH   6  10
TORSDOF 2
ENDMDL
