MODEL 1
REMARK VINA RESULT:    -5.684      0.000      0.000
REMARK INTER + INTRA:          -6.962
REMARK INTER:                  -6.681
REMARK INTRA:                  -0.281
REMARK UNBOUND:                -0.281
REMARK SMILES O=c1c(O)c(-c2ccc(O)cc2)oc2cc(O)cc(O)c12
REMARK SMILES IDX 5 1 3 2 2 3 1 4 21 5 19 6 18 7 16 8 15 9 14 10 13 11 6 12
REMARK SMILES IDX 7 13 8 14 9 15 12 16 11 17 10 18 4 20 20 22 17 24
REMARK H PARENT 10 19 4 21 20 23 17 25
REMARK Flexibility Score: inf
ROOT
ATOM      1  C   UNL     1      16.765 -11.996   3.319  1.00  0.00     0.180 A 
ATOM      2  C   UNL     1      17.945 -11.452   2.782  1.00  0.00     0.208 A 
ATOM      3  C   UNL     1      18.394 -11.901   1.529  1.00  0.00     0.238 A 
ATOM      4  O   UNL     1      19.480 -11.451   1.079  1.00  0.00    -0.285 OA
ATOM      5  C   UNL     1      17.648 -12.873   0.822  1.00  0.00     0.111 A 
ATOM      6  C   UNL     1      17.987 -13.370  -0.473  1.00  0.00     0.134 A 
ATOM      7  C   UNL     1      17.249 -14.426  -1.022  1.00  0.00     0.093 A 
ATOM      8  C   UNL     1      16.145 -14.959  -0.352  1.00  0.00     0.123 A 
ATOM      9  C   UNL     1      15.771 -14.441   0.885  1.00  0.00     0.094 A 
ATOM     10  C   UNL     1      16.509 -13.412   1.475  1.00  0.00     0.146 A 
ATOM     11  O   UNL     1      16.124 -12.954   2.660  1.00  0.00    -0.452 OA
ENDROOT
BRANCH   1  12
ATOM     12  C   UNL     1      16.217 -11.556   4.622  1.00  0.00     0.021 A 
ATOM     13  C   UNL     1      16.672 -12.162   5.805  1.00  0.00     0.016 A 
ATOM     14  C   UNL     1      16.150 -11.778   7.044  1.00  0.00     0.047 A 
ATOM     15  C   UNL     1      15.159 -10.795   7.116  1.00  0.00     0.115 A 
ATOM     16  C   UNL     1      15.204 -10.582   4.700  1.00  0.00     0.016 A 
ATOM     17  C   UNL     1      14.685 -10.199   5.940  1.00  0.00     0.047 A 
BRANCH  15  18
ATOM     18  O   UNL     1      14.650 -10.422   8.357  1.00  0.00    -0.508 OA
ATOM     19  H   UNL     1      14.086 -11.056   8.912  1.00  0.00     0.293 HD
ENDBRANCH  15  18
ENDBRANCH   1  12
BRANCH   2  20
ATOM     20  O   UNL     1      18.679 -10.509   3.507  1.00  0.00    -0.502 OA
ATOM     21  H   UNL     1      19.347 -10.771   4.221  1.00  0.00     0.293 HD
ENDBRANCH   2  20
BRANCH   6  22
ATOM     22  O   UNL     1      19.012 -12.847  -1.266  1.00  0.00    -0.507 OA
ATOM     23  H   UNL     1      18.919 -12.043  -1.867  1.00  0.00     0.293 HD
ENDBRANCH   6  22
BRANCH   8  24
ATOM     24  O   UNL     1      15.407 -16.000  -0.912  1.00  0.00    -0.508 OA
ATOM     25  H   UNL     1      14.728 -15.833  -1.646  1.00  0.00     0.293 HD
ENDBRANCH   8  24
TORSDOF 5
ENDMDL
MODEL 2
REMARK VINA RESULT:    -5.677      1.371      3.193
REMARK INTER + INTRA:          -6.953
REMARK INTER:                  -6.654
REMARK INTRA:                  -0.300
REMARK UNBOUND:                -0.281
REMARK SMILES O=c1c(O)c(-c2ccc(O)cc2)oc2cc(O)cc(O)c12
REMARK SMILES IDX 5 1 3 2 2 3 1 4 21 5 19 6 18 7 16 8 15 9 14 10 13 11 6 12
REMARK SMILES IDX 7 13 8 14 9 15 12 16 11 17 10 18 4 20 20 22 17 24
REMARK H PARENT 10 19 4 21 20 23 17 25
REMARK Flexibility Score: inf
ROOT
ATOM      1  C   UNL     1      16.716 -12.588   3.209  1.00  0.00     0.180 A 
ATOM      2  C   UNL     1      16.068 -13.646   2.549  1.00  0.00     0.208 A 
ATOM      3  C   UNL     1      16.408 -13.927   1.216  1.00  0.00     0.238 A 
ATOM      4  O   UNL     1      15.785 -14.841   0.613  1.00  0.00    -0.285 OA
ATOM      5  C   UNL     1      17.404 -13.160   0.567  1.00  0.00     0.111 A 
ATOM      6  C   UNL     1      17.857 -13.384  -0.769  1.00  0.00     0.134 A 
ATOM      7  C   UNL     1      18.754 -12.481  -1.354  1.00  0.00     0.093 A 
ATOM      8  C   UNL     1      19.263 -11.400  -0.630  1.00  0.00     0.123 A 
ATOM      9  C   UNL     1      18.873 -11.207   0.692  1.00  0.00     0.094 A 
ATOM     10  C   UNL     1      17.951 -12.070   1.292  1.00  0.00     0.146 A 
ATOM     11  O   UNL     1      17.598 -11.845   2.552  1.00  0.00    -0.452 OA
ENDROOT
BRANCH   1  12
ATOM     12  C   UNL     1      16.428 -12.246   4.621  1.00  0.00     0.021 A 
ATOM     13  C   UNL     1      15.491 -11.241   4.913  1.00  0.00     0.016 A 
ATOM     14  C   UNL     1      15.222 -10.887   6.239  1.00  0.00     0.047 A 
ATOM     15  C   UNL     1      15.895 -11.521   7.287  1.00  0.00     0.115 A 
ATOM     16  C   UNL     1      17.117 -12.866   5.680  1.00  0.00     0.016 A 
ATOM     17  C   UNL     1      16.846 -12.511   7.004  1.00  0.00     0.047 A 
BRANCH  15  18
ATOM     18  O   UNL     1      15.615 -11.158   8.602  1.00  0.00    -0.508 OA
ATOM     19  H   UNL     1      14.740 -11.410   9.047  1.00  0.00     0.293 HD
ENDBRANCH  15  18
ENDBRANCH   1  12
BRANCH   2  20
ATOM     20  O   UNL     1      15.071 -14.377   3.201  1.00  0.00    -0.502 OA
ATOM     21  H   UNL     1      14.317 -14.834   2.703  1.00  0.00     0.293 HD
ENDBRANCH   2  20
BRANCH   6  22
ATOM     22  O   UNL     1      17.482 -14.482  -1.546  1.00  0.00    -0.507 OA
ATOM     23  H   UNL     1      17.546 -15.444  -1.250  1.00  0.00     0.293 HD
ENDBRANCH   6  22
BRANCH   8  24
ATOM     24  O   UNL     1      20.166 -10.515  -1.215  1.00  0.00    -0.508 OA
ATOM     25  H   UNL     1      20.474 -10.628  -2.174  1.00  0.00     0.293 HD
ENDBRANCH   8  24
TORSDOF 5
ENDMDL
MODEL 3
REMARK VINA RESULT:    -5.541      2.287      6.791
REMARK INTER + INTRA:          -6.794
REMARK INTER:                  -6.556
REMARK INTRA:                  -0.238
REMARK UNBOUND:                -0.281
REMARK SMILES O=c1c(O)c(-c2ccc(O)cc2)oc2cc(O)cc(O)c12
REMARK SMILES IDX 5 1 3 2 2 3 1 4 21 5 19 6 18 7 16 8 15 9 14 10 13 11 6 12
REMARK SMILES IDX 7 13 8 14 9 15 12 16 11 17 10 18 4 20 20 22 17 24
REMARK H PARENT 10 19 4 21 20 23 17 25
REMARK Flexibility Score: inf
ROOT
ATOM      1  C   UNL     1      16.524 -13.457   3.328  1.00  0.00     0.180 A 
ATOM      2  C   UNL     1      16.050 -12.219   3.794  1.00  0.00     0.208 A 
ATOM      3  C   UNL     1      16.006 -11.984   5.178  1.00  0.00     0.238 A 
ATOM      4  O   UNL     1      15.529 -10.894   5.591  1.00  0.00    -0.285 OA
ATOM      5  C   UNL     1      16.455 -12.981   6.076  1.00  0.00     0.111 A 
ATOM      6  C   UNL     1      16.494 -12.834   7.496  1.00  0.00     0.134 A 
ATOM      7  C   UNL     1      16.833 -13.934   8.294  1.00  0.00     0.093 A 
ATOM      8  C   UNL     1      17.197 -15.155   7.722  1.00  0.00     0.123 A 
ATOM      9  C   UNL     1      17.220 -15.290   6.336  1.00  0.00     0.094 A 
ATOM     10  C   UNL     1      16.851 -14.222   5.514  1.00  0.00     0.146 A 
ATOM     11  O   UNL     1      16.876 -14.396   4.198  1.00  0.00    -0.452 OA
ENDROOT
BRANCH   1  12
ATOM     12  C   UNL     1      16.623 -13.770   1.884  1.00  0.00     0.021 A 
ATOM     13  C   UNL     1      15.735 -14.698   1.315  1.00  0.00     0.016 A 
ATOM     14  C   UNL     1      15.825 -15.025  -0.042  1.00  0.00     0.047 A 
ATOM     15  C   UNL     1      16.811 -14.442  -0.842  1.00  0.00     0.115 A 
ATOM     16  C   UNL     1      17.626 -13.201   1.077  1.00  0.00     0.016 A 
ATOM     17  C   UNL     1      17.714 -13.530  -0.279  1.00  0.00     0.047 A 
BRANCH  15  18
ATOM     18  O   UNL     1      16.888 -14.777  -2.192  1.00  0.00    -0.508 OA
ATOM     19  H   UNL     1      17.598 -14.379  -2.797  1.00  0.00     0.293 HD
ENDBRANCH  15  18
ENDBRANCH   1  12
BRANCH   2  20
ATOM     20  O   UNL     1      15.591 -11.256   2.891  1.00  0.00    -0.502 OA
ATOM     21  H   UNL     1      16.173 -10.881   2.152  1.00  0.00     0.293 HD
ENDBRANCH   2  20
BRANCH   6  22
ATOM     22  O   UNL     1      16.238 -11.634   8.164  1.00  0.00    -0.507 OA
ATOM     23  H   UNL     1      15.424 -11.057   8.016  1.00  0.00     0.293 HD
ENDBRANCH   6  22
BRANCH   8  24
ATOM     24  O   UNL     1      17.548 -16.240   8.522  1.00  0.00    -0.508 OA
ATOM     25  H   UNL     1      17.952 -16.110   9.443  1.00  0.00     0.293 HD
ENDBRANCH   8  24
TORSDOF 5
ENDMDL
MODEL 4
REMARK VINA RESULT:    -5.445      2.827      6.196
REMARK INTER + INTRA:          -6.682
REMARK INTER:                  -6.428
REMARK INTRA:                  -0.254
REMARK UNBOUND:                -0.281
REMARK SMILES O=c1c(O)c(-c2ccc(O)cc2)oc2cc(O)cc(O)c12
REMARK SMILES IDX 5 1 3 2 2 3 1 4 21 5 19 6 18 7 16 8 15 9 14 10 13 11 6 12
REMARK SMILES IDX 7 13 8 14 9 15 12 16 11 17 10 18 4 20 20 22 17 24
REMARK H PARENT 10 19 4 21 20 23 17 25
REMARK Flexibility Score: inf
ROOT
ATOM      1  C   UNL     1      18.888 -11.257   0.419  1.00  0.00     0.180 A 
ATOM      2  C   UNL     1      18.687 -12.330  -0.468  1.00  0.00     0.208 A 
ATOM      3  C   UNL     1      17.757 -13.327  -0.130  1.00  0.00     0.238 A 
ATOM      4  O   UNL     1      17.621 -14.313  -0.902  1.00  0.00    -0.285 OA
ATOM      5  C   UNL     1      17.028 -13.230   1.079  1.00  0.00     0.111 A 
ATOM      6  C   UNL     1      16.032 -14.161   1.501  1.00  0.00     0.134 A 
ATOM      7  C   UNL     1      15.467 -14.037   2.776  1.00  0.00     0.093 A 
ATOM      8  C   UNL     1      15.816 -12.978   3.619  1.00  0.00     0.123 A 
ATOM      9  C   UNL     1      16.743 -12.031   3.192  1.00  0.00     0.094 A 
ATOM     10  C   UNL     1      17.350 -12.148   1.939  1.00  0.00     0.146 A 
ATOM     11  O   UNL     1      18.237 -11.230   1.575  1.00  0.00    -0.452 OA
ENDROOT
BRANCH   1  12
ATOM     12  C   UNL     1      19.832 -10.156   0.122  1.00  0.00     0.021 A 
ATOM     13  C   UNL     1      19.464  -9.156  -0.793  1.00  0.00     0.016 A 
ATOM     14  C   UNL     1      20.349  -8.120  -1.104  1.00  0.00     0.047 A 
ATOM     15  C   UNL     1      21.618  -8.078  -0.519  1.00  0.00     0.115 A 
ATOM     16  C   UNL     1      21.118 -10.120   0.693  1.00  0.00     0.016 A 
ATOM     17  C   UNL     1      22.001  -9.083   0.379  1.00  0.00     0.047 A 
BRANCH  15  18
ATOM     18  O   UNL     1      22.489  -7.039  -0.838  1.00  0.00    -0.508 OA
ATOM     19  H   UNL     1      22.801  -6.375  -0.138  1.00  0.00     0.293 HD
ENDBRANCH  15  18
ENDBRANCH   1  12
BRANCH   2  20
ATOM     20  O   UNL     1      19.433 -12.419  -1.646  1.00  0.00    -0.502 OA
ATOM     21  H   UNL     1      19.235 -11.850  -2.460  1.00  0.00     0.293 HD
ENDBRANCH   2  20
BRANCH   6  22
ATOM     22  O   UNL     1      15.546 -15.199   0.703  1.00  0.00    -0.507 OA
ATOM     23  H   UNL     1      15.132 -15.078  -0.209  1.00  0.00     0.293 HD
ENDBRANCH   6  22
BRANCH   8  24
ATOM     24  O   UNL     1      15.238 -12.853   4.880  1.00  0.00    -0.508 OA
ATOM     25  H   UNL     1      14.274 -12.562   4.996  1.00  0.00     0.293 HD
ENDBRANCH   8  24
TORSDOF 5
ENDMDL
MODEL 5
REMARK VINA RESULT:    -5.436      1.762      3.242
REMARK INTER + INTRA:          -6.671
REMARK INTER:                  -6.410
REMARK INTRA:                  -0.261
REMARK UNBOUND:                -0.281
REMARK SMILES O=c1c(O)c(-c2ccc(O)cc2)oc2cc(O)cc(O)c12
REMARK SMILES IDX 5 1 3 2 2 3 1 4 21 5 19 6 18 7 16 8 15 9 14 10 13 11 6 12
REMARK SMILES IDX 7 13 8 14 9 15 12 16 11 17 10 18 4 20 20 22 17 24
REMARK H PARENT 10 19 4 21 20 23 17 25
REMARK Flexibility Score: inf
ROOT
ATOM      1  C   UNL     1      15.416 -12.100   3.776  1.00  0.00     0.180 A 
ATOM      2  C   UNL     1      15.413 -13.496   3.610  1.00  0.00     0.208 A 
ATOM      3  C   UNL     1      16.134 -14.056   2.543  1.00  0.00     0.238 A 
ATOM      4  O   UNL     1      16.083 -15.302   2.368  1.00  0.00    -0.285 OA
ATOM      5  C   UNL     1      16.863 -13.216   1.668  1.00  0.00     0.111 A 
ATOM      6  C   UNL     1      17.661 -13.679   0.578  1.00  0.00     0.134 A 
ATOM      7  C   UNL     1      18.232 -12.752  -0.301  1.00  0.00     0.093 A 
ATOM      8  C   UNL     1      18.088 -11.378  -0.094  1.00  0.00     0.123 A 
ATOM      9  C   UNL     1      17.361 -10.916   1.000  1.00  0.00     0.094 A 
ATOM     10  C   UNL     1      16.748 -11.817   1.875  1.00  0.00     0.146 A 
ATOM     11  O   UNL     1      16.055 -11.335   2.899  1.00  0.00    -0.452 OA
ENDROOT
BRANCH   1  12
ATOM     12  C   UNL     1      14.701 -11.437   4.890  1.00  0.00     0.021 A 
ATOM     13  C   UNL     1      13.320 -11.200   4.783  1.00  0.00     0.016 A 
ATOM     14  C   UNL     1      12.630 -10.555   5.814  1.00  0.00     0.047 A 
ATOM     15  C   UNL     1      13.310 -10.127   6.957  1.00  0.00     0.115 A 
ATOM     16  C   UNL     1      15.384 -10.986   6.035  1.00  0.00     0.016 A 
ATOM     17  C   UNL     1      14.691 -10.342   7.064  1.00  0.00     0.047 A 
BRANCH  15  18
ATOM     18  O   UNL     1      12.609  -9.487   7.976  1.00  0.00    -0.508 OA
ATOM     19  H   UNL     1      11.976  -8.720   7.783  1.00  0.00     0.293 HD
ENDBRANCH  15  18
ENDBRANCH   1  12
BRANCH   2  20
ATOM     20  O   UNL     1      14.669 -14.305   4.473  1.00  0.00    -0.502 OA
ATOM     21  H   UNL     1      14.589 -14.115   5.464  1.00  0.00     0.293 HD
ENDBRANCH   2  20
BRANCH   6  22
ATOM     22  O   UNL     1      17.944 -15.026   0.335  1.00  0.00    -0.507 OA
ATOM     23  H   UNL     1      17.351 -15.652  -0.187  1.00  0.00     0.293 HD
ENDBRANCH   6  22
BRANCH   8  24
ATOM     24  O   UNL     1      18.672 -10.462  -0.966  1.00  0.00    -0.508 OA
ATOM     25  H   UNL     1      18.265  -9.547  -1.125  1.00  0.00     0.293 HD
ENDBRANCH   8  24
TORSDOF 5
ENDMDL
MODEL 6
REMARK VINA RESULT:    -5.210      1.687      6.540
REMARK INTER + INTRA:          -6.405
REMARK INTER:                  -6.234
REMARK INTRA:                  -0.171
REMARK UNBOUND:                -0.281
REMARK SMILES O=c1c(O)c(-c2ccc(O)cc2)oc2cc(O)cc(O)c12
REMARK SMILES IDX 5 1 3 2 2 3 1 4 21 5 19 6 18 7 16 8 15 9 14 10 13 11 6 12
REMARK SMILES IDX 7 13 8 14 9 15 12 16 11 17 10 18 4 20 20 22 17 24
REMARK H PARENT 10 19 4 21 20 23 17 25
REMARK Flexibility Score: inf
ROOT
ATOM      1  C   UNL     1      16.640 -12.028   3.152  1.00  0.00     0.180 A 
ATOM      2  C   UNL     1      17.450 -11.518   4.181  1.00  0.00     0.208 A 
ATOM      3  C   UNL     1      16.840 -11.023   5.346  1.00  0.00     0.238 A 
ATOM      4  O   UNL     1      17.567 -10.518   6.241  1.00  0.00    -0.285 OA
ATOM      5  C   UNL     1      15.431 -11.062   5.473  1.00  0.00     0.111 A 
ATOM      6  C   UNL     1      14.710 -10.626   6.625  1.00  0.00     0.134 A 
ATOM      7  C   UNL     1      13.310 -10.588   6.590  1.00  0.00     0.093 A 
ATOM      8  C   UNL     1      12.605 -11.032   5.468  1.00  0.00     0.123 A 
ATOM      9  C   UNL     1      13.299 -11.515   4.362  1.00  0.00     0.094 A 
ATOM     10  C   UNL     1      14.696 -11.531   4.353  1.00  0.00     0.146 A 
ATOM     11  O   UNL     1      15.319 -11.989   3.274  1.00  0.00    -0.452 OA
ENDROOT
BRANCH   1  12
ATOM     12  C   UNL     1      17.211 -12.588   1.905  1.00  0.00     0.021 A 
ATOM     13  C   UNL     1      17.163 -13.975   1.685  1.00  0.00     0.016 A 
ATOM     14  C   UNL     1      17.716 -14.527   0.525  1.00  0.00     0.047 A 
ATOM     15  C   UNL     1      18.335 -13.705  -0.420  1.00  0.00     0.115 A 
ATOM     16  C   UNL     1      17.853 -11.768   0.959  1.00  0.00     0.016 A 
ATOM     17  C   UNL     1      18.404 -12.323  -0.199  1.00  0.00     0.047 A 
BRANCH  15  18
ATOM     18  O   UNL     1      18.880 -14.269  -1.571  1.00  0.00    -0.508 OA
ATOM     19  H   UNL     1      19.842 -14.587  -1.601  1.00  0.00     0.293 HD
ENDBRANCH  15  18
ENDBRANCH   1  12
BRANCH   2  20
ATOM     20  O   UNL     1      18.838 -11.468   4.026  1.00  0.00    -0.502 OA
ATOM     21  H   UNL     1      19.288 -11.544   3.122  1.00  0.00     0.293 HD
ENDBRANCH   2  20
BRANCH   6  22
ATOM     22  O   UNL     1      15.313 -10.249   7.828  1.00  0.00    -0.507 OA
ATOM     23  H   UNL     1      16.292 -10.367   8.041  1.00  0.00     0.293 HD
ENDBRANCH   6  22
BRANCH   8  24
ATOM     24  O   UNL     1      11.213 -11.006   5.447  1.00  0.00    -0.508 OA
ATOM     25  H   UNL     1      10.697 -10.140   5.559  1.00  0.00     0.293 HD
ENDBRANCH   8  24
TORSDOF 5
ENDMDL
MODEL 7
REMARK VINA RESULT:    -5.208      7.217      8.711
REMARK INTER + INTRA:          -6.403
REMARK INTER:                  -6.281
REMARK INTRA:                  -0.122
REMARK UNBOUND:                -0.281
REMARK SMILES O=c1c(O)c(-c2ccc(O)cc2)oc2cc(O)cc(O)c12
REMARK SMILES IDX 5 1 3 2 2 3 1 4 21 5 19 6 18 7 16 8 15 9 14 10 13 11 6 12
REMARK SMILES IDX 7 13 8 14 9 15 12 16 11 17 10 18 4 20 20 22 17 24
REMARK H PARENT 10 19 4 21 20 23 17 25
REMARK Flexibility Score: inf
ROOT
ATOM      1  C   UNL     1      19.968 -15.658   7.978  1.00  0.00     0.180 A 
ATOM      2  C   UNL     1      20.513 -15.279   9.217  1.00  0.00     0.208 A 
ATOM      3  C   UNL     1      21.588 -16.015   9.742  1.00  0.00     0.238 A 
ATOM      4  O   UNL     1      22.035 -15.705  10.878  1.00  0.00    -0.285 OA
ATOM      5  C   UNL     1      22.116 -17.107   9.013  1.00  0.00     0.111 A 
ATOM      6  C   UNL     1      23.229 -17.896   9.431  1.00  0.00     0.134 A 
ATOM      7  C   UNL     1      23.583 -19.034   8.695  1.00  0.00     0.093 A 
ATOM      8  C   UNL     1      22.905 -19.373   7.521  1.00  0.00     0.123 A 
ATOM      9  C   UNL     1      21.855 -18.575   7.074  1.00  0.00     0.094 A 
ATOM     10  C   UNL     1      21.455 -17.455   7.807  1.00  0.00     0.146 A 
ATOM     11  O   UNL     1      20.443 -16.727   7.351  1.00  0.00    -0.452 OA
ENDROOT
BRANCH   1  12
ATOM     12  C   UNL     1      18.851 -14.917   7.349  1.00  0.00     0.021 A 
ATOM     13  C   UNL     1      17.660 -15.594   7.037  1.00  0.00     0.016 A 
ATOM     14  C   UNL     1      16.601 -14.919   6.422  1.00  0.00     0.047 A 
ATOM     15  C   UNL     1      16.723 -13.565   6.098  1.00  0.00     0.115 A 
ATOM     16  C   UNL     1      18.975 -13.559   7.002  1.00  0.00     0.016 A 
ATOM     17  C   UNL     1      17.915 -12.886   6.387  1.00  0.00     0.047 A 
BRANCH  15  18
ATOM     18  O   UNL     1      15.660 -12.906   5.486  1.00  0.00    -0.508 OA
ATOM     19  H   UNL     1      15.025 -13.389   4.861  1.00  0.00     0.293 HD
ENDBRANCH  15  18
ENDBRANCH   1  12
BRANCH   2  20
ATOM     20  O   UNL     1      19.962 -14.211   9.931  1.00  0.00    -0.502 OA
ATOM     21  H   UNL     1      20.079 -13.247   9.644  1.00  0.00     0.293 HD
ENDBRANCH   2  20
BRANCH   6  22
ATOM     22  O   UNL     1      24.031 -17.594  10.535  1.00  0.00    -0.507 OA
ATOM     23  H   UNL     1      24.875 -17.043  10.498  1.00  0.00     0.293 HD
ENDBRANCH   6  22
BRANCH   8  24
ATOM     24  O   UNL     1      23.274 -20.498   6.787  1.00  0.00    -0.508 OA
ATOM     25  H   UNL     1      23.935 -20.438   6.021  1.00  0.00     0.293 HD
ENDBRANCH   8  24
TORSDOF 5
ENDMDL
MODEL 8
REMARK VINA RESULT:    -5.202      3.183      4.779
REMARK INTER + INTRA:          -6.396
REMARK INTER:                  -6.406
REMARK INTRA:                   0.010
REMARK UNBOUND:                -0.281
REMARK SMILES O=c1c(O)c(-c2ccc(O)cc2)oc2cc(O)cc(O)c12
REMARK SMILES IDX 5 1 3 2 2 3 1 4 21 5 19 6 18 7 16 8 15 9 14 10 13 11 6 12
REMARK SMILES IDX 7 13 8 14 9 15 12 16 11 17 10 18 4 20 20 22 17 24
REMARK H PARENT 10 19 4 21 20 23 17 25
REMARK Flexibility Score: inf
ROOT
ATOM      1  C   UNL     1      17.286 -11.730   1.372  1.00  0.00     0.180 A 
ATOM      2  C   UNL     1      18.345 -12.098   0.524  1.00  0.00     0.208 A 
ATOM      3  C   UNL     1      18.860 -11.149  -0.374  1.00  0.00     0.238 A 
ATOM      4  O   UNL     1      19.771 -11.501  -1.169  1.00  0.00    -0.285 OA
ATOM      5  C   UNL     1      18.323  -9.840  -0.400  1.00  0.00     0.111 A 
ATOM      6  C   UNL     1      18.796  -8.787  -1.241  1.00  0.00     0.134 A 
ATOM      7  C   UNL     1      18.104  -7.570  -1.277  1.00  0.00     0.093 A 
ATOM      8  C   UNL     1      16.996  -7.346  -0.455  1.00  0.00     0.123 A 
ATOM      9  C   UNL     1      16.564  -8.346   0.411  1.00  0.00     0.094 A 
ATOM     10  C   UNL     1      17.211  -9.584   0.443  1.00  0.00     0.146 A 
ATOM     11  O   UNL     1      16.761 -10.514   1.277  1.00  0.00    -0.452 OA
ENDROOT
BRANCH   1  12
ATOM     12  C   UNL     1      16.706 -12.666   2.361  1.00  0.00     0.021 A 
ATOM     13  C   UNL     1      16.658 -12.299   3.716  1.00  0.00     0.016 A 
ATOM     14  C   UNL     1      16.135 -13.178   4.670  1.00  0.00     0.047 A 
ATOM     15  C   UNL     1      15.668 -14.438   4.285  1.00  0.00     0.115 A 
ATOM     16  C   UNL     1      16.253 -13.944   1.983  1.00  0.00     0.016 A 
ATOM     17  C   UNL     1      15.731 -14.820   2.938  1.00  0.00     0.047 A 
BRANCH  15  18
ATOM     18  O   UNL     1      15.149 -15.302   5.246  1.00  0.00    -0.508 OA
ATOM     19  H   UNL     1      14.517 -14.975   5.968  1.00  0.00     0.293 HD
ENDBRANCH  15  18
ENDBRANCH   1  12
BRANCH   2  20
ATOM     20  O   UNL     1      18.846 -13.403   0.550  1.00  0.00    -0.502 OA
ATOM     21  H   UNL     1      18.316 -14.182   0.920  1.00  0.00     0.293 HD
ENDBRANCH   2  20
BRANCH   6  22
ATOM     22  O   UNL     1      19.944  -8.875  -2.031  1.00  0.00    -0.507 OA
ATOM     23  H   UNL     1      20.383  -8.095  -2.496  1.00  0.00     0.293 HD
ENDBRANCH   6  22
BRANCH   8  24
ATOM     24  O   UNL     1      16.323  -6.127  -0.486  1.00  0.00    -0.508 OA
ATOM     25  H   UNL     1      16.801  -5.252  -0.298  1.00  0.00     0.293 HD
ENDBRANCH   8  24
TORSDOF 5
ENDMDL
MODEL 9
REMARK VINA RESULT:    -5.105      7.656      9.002
REMARK INTER + INTRA:          -6.281
REMARK INTER:                  -5.988
REMARK INTRA:                  -0.294
REMARK UNBOUND:                -0.281
REMARK SMILES O=c1c(O)c(-c2ccc(O)cc2)oc2cc(O)cc(O)c12
REMARK SMILES IDX 5 1 3 2 2 3 1 4 21 5 19 6 18 7 16 8 15 9 14 10 13 11 6 12
REMARK SMILES IDX 7 13 8 14 9 15 12 16 11 17 10 18 4 20 20 22 17 24
REMARK H PARENT 10 19 4 21 20 23 17 25
REMARK Flexibility Score: inf
ROOT
ATOM      1  C   UNL     1      20.883 -15.988   7.791  1.00  0.00     0.180 A 
ATOM      2  C   UNL     1      20.363 -17.197   7.297  1.00  0.00     0.208 A 
ATOM      3  C   UNL     1      21.238 -18.270   7.063  1.00  0.00     0.238 A 
ATOM      4  O   UNL     1      20.775 -19.332   6.569  1.00  0.00    -0.285 OA
ATOM      5  C   UNL     1      22.618 -18.127   7.343  1.00  0.00     0.111 A 
ATOM      6  C   UNL     1      23.589 -19.161   7.182  1.00  0.00     0.134 A 
ATOM      7  C   UNL     1      24.946 -18.868   7.365  1.00  0.00     0.093 A 
ATOM      8  C   UNL     1      25.361 -17.595   7.766  1.00  0.00     0.123 A 
ATOM      9  C   UNL     1      24.416 -16.596   7.982  1.00  0.00     0.094 A 
ATOM     10  C   UNL     1      23.058 -16.848   7.773  1.00  0.00     0.146 A 
ATOM     11  O   UNL     1      22.191 -15.864   7.981  1.00  0.00    -0.452 OA
ENDROOT
BRANCH   1  12
ATOM     12  C   UNL     1      20.020 -14.821   8.085  1.00  0.00     0.021 A 
ATOM     13  C   UNL     1      19.783 -13.866   7.083  1.00  0.00     0.016 A 
ATOM     14  C   UNL     1      18.990 -12.745   7.347  1.00  0.00     0.047 A 
ATOM     15  C   UNL     1      18.437 -12.556   8.616  1.00  0.00     0.115 A 
ATOM     16  C   UNL     1      19.477 -14.616   9.367  1.00  0.00     0.016 A 
ATOM     17  C   UNL     1      18.685 -13.495   9.628  1.00  0.00     0.047 A 
BRANCH  15  18
ATOM     18  O   UNL     1      17.648 -11.436   8.864  1.00  0.00    -0.508 OA
ATOM     19  H   UNL     1      17.759 -10.581   8.331  1.00  0.00     0.293 HD
ENDBRANCH  15  18
ENDBRANCH   1  12
BRANCH   2  20
ATOM     20  O   UNL     1      19.000 -17.311   7.006  1.00  0.00    -0.502 OA
ATOM     21  H   UNL     1      18.606 -18.127   6.555  1.00  0.00     0.293 HD
ENDBRANCH   2  20
BRANCH   6  22
ATOM     22  O   UNL     1      23.273 -20.487   6.875  1.00  0.00    -0.507 OA
ATOM     23  H   UNL     1      23.909 -21.146   6.452  1.00  0.00     0.293 HD
ENDBRANCH   6  22
BRANCH   8  24
ATOM     24  O   UNL     1      26.712 -17.316   7.960  1.00  0.00    -0.508 OA
ATOM     25  H   UNL     1      27.026 -16.709   8.709  1.00  0.00     0.293 HD
ENDBRANCH   8  24
TORSDOF 5
ENDMDL
