MODEL 1
REMARK VINA RESULT:    -3.384      0.000      0.000
REMARK INTER + INTRA:          -5.477
REMARK INTER:                  -4.868
REMARK INTRA:                  -0.609
REMARK UNBOUND:                -0.609
REMARK SMILES CCCCCCCCCO
REMARK SMILES IDX 6 1 5 2 4 3 3 4 2 5 1 6 7 7 8 8 9 9 10 10
REMARK H PARENT 10 11
REMARK Flexibility Score: inf
ROOT
ATOM      1  C   UNL     1     163.963 179.281 167.841  1.00  0.00     0.000 C 
ENDROOT
BRANCH   1   2
ATOM      2  C   UNL     1     164.837 178.045 168.137  1.00  0.00     0.000 C 
BRANCH   2   3
ATOM      3  C   UNL     1     165.122 177.140 166.925  1.00  0.00    -0.000 C 
BRANCH   3   4
ATOM      4  C   UNL     1     164.789 177.816 165.584  1.00  0.00    -0.000 C 
BRANCH   4   5
ATOM      5  C   UNL     1     163.823 176.982 164.728  1.00  0.00    -0.003 C 
ATOM      6  C   UNL     1     162.522 176.648 165.459  1.00  0.00     0.004 C 
ENDBRANCH   4   5
ENDBRANCH   3   4
ENDBRANCH   2   3
ENDBRANCH   1   2
BRANCH   1   7
ATOM      7  C   UNL     1     162.498 179.178 168.307  1.00  0.00     0.002 C 
BRANCH   7   8
ATOM      8  C   UNL     1     162.232 178.122 169.396  1.00  0.00     0.028 C 
BRANCH   8   9
ATOM      9  C   UNL     1     160.742 177.862 169.648  1.00  0.00     0.156 C 
BRANCH   9  10
ATOM     10  O   UNL     1     160.352 178.408 170.878  1.00  0.00    -0.396 OA
ATOM     11  H   UNL     1     159.368 178.293 170.931  1.00  0.00     0.210 HD
ENDBRANCH   9  10
ENDBRANCH   8   9
ENDBRANCH   7   8
ENDBRANCH   1   7
TORSDOF 8
ENDMDL
MODEL 2
REMARK VINA RESULT:    -3.359      0.824      1.043
REMARK INTER + INTRA:          -5.441
REMARK INTER:                  -4.918
REMARK INTRA:                  -0.523
REMARK UNBOUND:                -0.609
REMARK SMILES CCCCCCCCCO
REMARK SMILES IDX 6 1 5 2 4 3 3 4 2 5 1 6 7 7 8 8 9 9 10 10
REMARK H PARENT 10 11
REMARK Flexibility Score: inf
ROOT
ATOM      1  C   UNL     1     163.863 179.583 167.853  1.00  0.00     0.000 C 
ENDROOT
BRANCH   1   2
ATOM      2  C   UNL     1     164.934 178.509 168.130  1.00  0.00     0.000 C 
BRANCH   2   3
ATOM      3  C   UNL     1     165.567 177.877 166.878  1.00  0.00    -0.000 C 
BRANCH   3   4
ATOM      4  C   UNL     1     164.750 176.696 166.327  1.00  0.00    -0.000 C 
BRANCH   4   5
ATOM      5  C   UNL     1     164.363 176.885 164.852  1.00  0.00    -0.003 C 
ATOM      6  C   UNL     1     164.428 178.345 164.404  1.00  0.00     0.004 C 
ENDBRANCH   4   5
ENDBRANCH   3   4
ENDBRANCH   2   3
ENDBRANCH   1   2
BRANCH   1   7
ATOM      7  C   UNL     1     162.415 179.168 168.180  1.00  0.00     0.002 C 
BRANCH   7   8
ATOM      8  C   UNL     1     162.271 178.150 169.327  1.00  0.00     0.028 C 
BRANCH   8   9
ATOM      9  C   UNL     1     160.815 177.801 169.657  1.00  0.00     0.156 C 
BRANCH   9  10
ATOM     10  O   UNL     1     160.442 178.368 170.883  1.00  0.00    -0.396 OA
ATOM     11  H   UNL     1     161.227 178.269 171.482  1.00  0.00     0.210 HD
ENDBRANCH   9  10
ENDBRANCH   8   9
ENDBRANCH   7   8
ENDBRANCH   1   7
TORSDOF 8
ENDMDL
MODEL 3
REMARK VINA RESULT:    -3.350      2.166      4.304
REMARK INTER + INTRA:          -5.428
REMARK INTER:                  -5.006
REMARK INTRA:                  -0.423
REMARK UNBOUND:                -0.609
REMARK SMILES CCCCCCCCCO
REMARK SMILES IDX 6 1 5 2 4 3 3 4 2 5 1 6 7 7 8 8 9 9 10 10
REMARK H PARENT 10 11
REMARK Flexibility Score: inf
ROOT
ATOM      1  C   UNL     1     163.975 179.143 167.509  1.00  0.00     0.000 C 
ENDROOT
BRANCH   1   2
ATOM      2  C   UNL     1     162.614 179.135 168.234  1.00  0.00     0.000 C 
BRANCH   2   3
ATOM      3  C   UNL     1     162.500 178.138 169.401  1.00  0.00    -0.000 C 
BRANCH   3   4
ATOM      4  C   UNL     1     161.043 177.767 169.729  1.00  0.00    -0.000 C 
BRANCH   4   5
ATOM      5  C   UNL     1     160.126 177.840 168.499  1.00  0.00    -0.003 C 
ATOM      6  C   UNL     1     159.558 176.478 168.101  1.00  0.00     0.004 C 
ENDBRANCH   4   5
ENDBRANCH   3   4
ENDBRANCH   2   3
ENDBRANCH   1   2
BRANCH   1   7
ATOM      7  C   UNL     1     164.978 178.073 167.981  1.00  0.00     0.002 C 
BRANCH   7   8
ATOM      8  C   UNL     1     165.141 176.868 167.035  1.00  0.00     0.028 C 
BRANCH   8   9
ATOM      9  C   UNL     1     164.272 176.955 165.775  1.00  0.00     0.156 C 
BRANCH   9  10
ATOM     10  O   UNL     1     163.157 176.114 165.892  1.00  0.00    -0.396 OA
ATOM     11  H   UNL     1     163.432 175.238 165.514  1.00  0.00     0.210 HD
ENDBRANCH   9  10
ENDBRANCH   8   9
ENDBRANCH   7   8
ENDBRANCH   1   7
TORSDOF 8
ENDMDL
MODEL 4
REMARK VINA RESULT:    -3.198      1.713      2.665
REMARK INTER + INTRA:          -5.209
REMARK INTER:                  -4.810
REMARK INTRA:                  -0.399
REMARK UNBOUND:                -0.609
REMARK SMILES CCCCCCCCCO
REMARK SMILES IDX 6 1 5 2 4 3 3 4 2 5 1 6 7 7 8 8 9 9 10 10
REMARK H PARENT 10 11
REMARK Flexibility Score: inf
ROOT
ATOM      1  C   UNL     1     162.560 178.154 169.384  1.00  0.00     0.000 C 
ENDROOT
BRANCH   1   2
ATOM      2  C   UNL     1     162.710 179.181 168.243  1.00  0.00     0.000 C 
BRANCH   2   3
ATOM      3  C   UNL     1     164.010 179.068 167.427  1.00  0.00    -0.000 C 
BRANCH   3   4
ATOM      4  C   UNL     1     164.975 178.007 167.984  1.00  0.00    -0.000 C 
BRANCH   4   5
ATOM      5  C   UNL     1     165.141 176.807 167.038  1.00  0.00    -0.003 C 
ATOM      6  C   UNL     1     164.463 177.021 165.685  1.00  0.00     0.004 C 
ENDBRANCH   4   5
ENDBRANCH   3   4
ENDBRANCH   2   3
ENDBRANCH   1   2
BRANCH   1   7
ATOM      7  C   UNL     1     161.113 177.731 169.702  1.00  0.00     0.002 C 
BRANCH   7   8
ATOM      8  C   UNL     1     160.139 177.786 168.510  1.00  0.00     0.028 C 
BRANCH   8   9
ATOM      9  C   UNL     1     159.409 176.463 168.252  1.00  0.00     0.156 C 
BRANCH   9  10
ATOM     10  O   UNL     1     160.031 175.756 167.215  1.00  0.00    -0.396 OA
ATOM     11  H   UNL     1     160.728 176.360 166.849  1.00  0.00     0.210 HD
ENDBRANCH   9  10
ENDBRANCH   8   9
ENDBRANCH   7   8
ENDBRANCH   1   7
TORSDOF 8
ENDMDL
MODEL 5
REMARK VINA RESULT:    -3.158      2.199      4.217
REMARK INTER + INTRA:          -5.151
REMARK INTER:                  -4.514
REMARK INTRA:                  -0.637
REMARK UNBOUND:                -0.609
REMARK SMILES CCCCCCCCCO
REMARK SMILES IDX 6 1 5 2 4 3 3 4 2 5 1 6 7 7 8 8 9 9 10 10
REMARK H PARENT 10 11
REMARK Flexibility Score: inf
ROOT
ATOM      1  C   UNL     1     165.042 179.401 166.617  1.00  0.00     0.000 C 
ENDROOT
BRANCH   1   2
ATOM      2  C   UNL     1     163.888 180.157 167.305  1.00  0.00     0.000 C 
BRANCH   2   3
ATOM      3  C   UNL     1     162.495 179.921 166.695  1.00  0.00    -0.000 C 
BRANCH   3   4
ATOM      4  C   UNL     1     161.472 179.409 167.723  1.00  0.00    -0.000 C 
BRANCH   4   5
ATOM      5  C   UNL     1     162.123 178.567 168.832  1.00  0.00    -0.003 C 
ATOM      6  C   UNL     1     161.107 177.752 169.631  1.00  0.00     0.004 C 
ENDBRANCH   4   5
ENDBRANCH   3   4
ENDBRANCH   2   3
ENDBRANCH   1   2
BRANCH   1   7
ATOM      7  C   UNL     1     165.650 178.244 167.434  1.00  0.00     0.002 C 
BRANCH   7   8
ATOM      8  C   UNL     1     165.157 176.838 167.043  1.00  0.00     0.028 C 
BRANCH   8   9
ATOM      9  C   UNL     1     164.342 176.814 165.744  1.00  0.00     0.156 C 
BRANCH   9  10
ATOM     10  O   UNL     1     163.110 176.179 165.953  1.00  0.00    -0.396 OA
ATOM     11  H   UNL     1     162.481 176.889 166.247  1.00  0.00     0.210 HD
ENDBRANCH   9  10
ENDBRANCH   8   9
ENDBRANCH   7   8
ENDBRANCH   1   7
TORSDOF 8
ENDMDL
MODEL 6
REMARK VINA RESULT:    -3.155      1.437      2.691
REMARK INTER + INTRA:          -5.147
REMARK INTER:                  -4.367
REMARK INTRA:                  -0.780
REMARK UNBOUND:                -0.609
REMARK SMILES CCCCCCCCCO
REMARK SMILES IDX 6 1 5 2 4 3 3 4 2 5 1 6 7 7 8 8 9 9 10 10
REMARK H PARENT 10 11
REMARK Flexibility Score: inf
ROOT
ATOM      1  C   UNL     1     162.338 178.266 165.335  1.00  0.00     0.000 C 
ENDROOT
BRANCH   1   2
ATOM      2  C   UNL     1     163.048 176.921 165.587  1.00  0.00     0.000 C 
BRANCH   2   3
ATOM      3  C   UNL     1     164.584 176.993 165.651  1.00  0.00    -0.000 C 
BRANCH   3   4
ATOM      4  C   UNL     1     165.120 177.054 167.092  1.00  0.00    -0.000 C 
BRANCH   4   5
ATOM      5  C   UNL     1     165.604 178.460 167.481  1.00  0.00    -0.003 C 
ATOM      6  C   UNL     1     165.723 179.399 166.281  1.00  0.00     0.004 C 
ENDBRANCH   4   5
ENDBRANCH   3   4
ENDBRANCH   2   3
ENDBRANCH   1   2
BRANCH   1   7
ATOM      7  C   UNL     1     161.862 179.006 166.600  1.00  0.00     0.002 C 
BRANCH   7   8
ATOM      8  C   UNL     1     161.485 178.098 167.785  1.00  0.00     0.028 C 
BRANCH   8   9
ATOM      9  C   UNL     1     162.233 178.435 169.080  1.00  0.00     0.156 C 
BRANCH   9  10
ATOM     10  O   UNL     1     162.274 177.319 169.926  1.00  0.00    -0.396 OA
ATOM     11  H   UNL     1     163.205 176.979 169.888  1.00  0.00     0.210 HD
ENDBRANCH   9  10
ENDBRANCH   8   9
ENDBRANCH   7   8
ENDBRANCH   1   7
TORSDOF 8
ENDMDL
MODEL 7
REMARK VINA RESULT:    -3.048     11.411     13.142
REMARK INTER + INTRA:          -4.993
REMARK INTER:                  -4.805
REMARK INTRA:                  -0.187
REMARK UNBOUND:                -0.609
REMARK SMILES CCCCCCCCCO
REMARK SMILES IDX 6 1 5 2 4 3 3 4 2 5 1 6 7 7 8 8 9 9 10 10
REMARK H PARENT 10 11
REMARK Flexibility Score: inf
ROOT
ATOM      1  C   UNL     1     169.741 167.999 163.706  1.00  0.00     0.000 C 
ENDROOT
BRANCH   1   2
ATOM      2  C   UNL     1     169.947 169.527 163.688  1.00  0.00     0.000 C 
BRANCH   2   3
ATOM      3  C   UNL     1     168.877 170.342 164.437  1.00  0.00    -0.000 C 
BRANCH   3   4
ATOM      4  C   UNL     1     167.903 171.062 163.489  1.00  0.00    -0.000 C 
BRANCH   4   5
ATOM      5  C   UNL     1     166.433 170.745 163.804  1.00  0.00    -0.003 C 
ATOM      6  C   UNL     1     165.561 170.671 162.550  1.00  0.00     0.004 C 
ENDBRANCH   4   5
ENDBRANCH   3   4
ENDBRANCH   2   3
ENDBRANCH   1   2
BRANCH   1   7
ATOM      7  C   UNL     1     170.658 167.201 162.759  1.00  0.00     0.002 C 
BRANCH   7   8
ATOM      8  C   UNL     1     169.943 166.526 161.573  1.00  0.00     0.028 C 
BRANCH   8   9
ATOM      9  C   UNL     1     170.472 165.123 161.255  1.00  0.00     0.156 C 
BRANCH   9  10
ATOM     10  O   UNL     1     169.415 164.267 160.919  1.00  0.00    -0.396 OA
ATOM     11  H   UNL     1     169.833 163.429 160.591  1.00  0.00     0.210 HD
ENDBRANCH   9  10
ENDBRANCH   8   9
ENDBRANCH   7   8
ENDBRANCH   1   7
TORSDOF 8
ENDMDL
MODEL 8
REMARK VINA RESULT:    -3.041     11.303     13.055
REMARK INTER + INTRA:          -4.983
REMARK INTER:                  -4.687
REMARK INTRA:                  -0.296
REMARK UNBOUND:                -0.609
REMARK SMILES CCCCCCCCCO
REMARK SMILES IDX 6 1 5 2 4 3 3 4 2 5 1 6 7 7 8 8 9 9 10 10
REMARK H PARENT 10 11
REMARK Flexibility Score: inf
ROOT
ATOM      1  C   UNL     1     169.723 168.064 163.754  1.00  0.00     0.000 C 
ENDROOT
BRANCH   1   2
ATOM      2  C   UNL     1     169.975 169.576 163.593  1.00  0.00     0.000 C 
BRANCH   2   3
ATOM      3  C   UNL     1     169.064 170.485 164.439  1.00  0.00    -0.000 C 
BRANCH   3   4
ATOM      4  C   UNL     1     168.534 171.696 163.653  1.00  0.00    -0.000 C 
BRANCH   4   5
ATOM      5  C   UNL     1     167.209 171.397 162.933  1.00  0.00    -0.003 C 
ATOM      6  C   UNL     1     166.234 170.596 163.795  1.00  0.00     0.004 C 
ENDBRANCH   4   5
ENDBRANCH   3   4
ENDBRANCH   2   3
ENDBRANCH   1   2
BRANCH   1   7
ATOM      7  C   UNL     1     170.293 167.179 162.627  1.00  0.00     0.002 C 
BRANCH   7   8
ATOM      8  C   UNL     1     171.550 167.736 161.932  1.00  0.00     0.028 C 
BRANCH   8   9
ATOM      9  C   UNL     1     172.714 166.739 161.880  1.00  0.00     0.156 C 
BRANCH   9  10
ATOM     10  O   UNL     1     173.815 167.238 162.589  1.00  0.00    -0.396 OA
ATOM     11  H   UNL     1     174.505 167.455 161.910  1.00  0.00     0.210 HD
ENDBRANCH   9  10
ENDBRANCH   8   9
ENDBRANCH   7   8
ENDBRANCH   1   7
TORSDOF 8
ENDMDL
MODEL 9
REMARK VINA RESULT:    -2.977      2.428      3.245
REMARK INTER + INTRA:          -4.891
REMARK INTER:                  -4.175
REMARK INTRA:                  -0.716
REMARK UNBOUND:                -0.609
REMARK SMILES CCCCCCCCCO
REMARK SMILES IDX 6 1 5 2 4 3 3 4 2 5 1 6 7 7 8 8 9 9 10 10
REMARK H PARENT 10 11
REMARK Flexibility Score: inf
ROOT
ATOM      1  C   UNL     1     162.985 179.262 168.259  1.00  0.00     0.000 C 
ENDROOT
BRANCH   1   2
ATOM      2  C   UNL     1     163.897 178.045 168.515  1.00  0.00     0.000 C 
BRANCH   2   3
ATOM      3  C   UNL     1     165.085 177.901 167.547  1.00  0.00    -0.000 C 
BRANCH   3   4
ATOM      4  C   UNL     1     165.993 179.143 167.527  1.00  0.00    -0.000 C 
BRANCH   4   5
ATOM      5  C   UNL     1     165.922 179.903 166.194  1.00  0.00    -0.003 C 
ATOM      6  C   UNL     1     165.214 179.110 165.096  1.00  0.00     0.004 C 
ENDBRANCH   4   5
ENDBRANCH   3   4
ENDBRANCH   2   3
ENDBRANCH   1   2
BRANCH   1   7
ATOM      7  C   UNL     1     162.081 179.155 167.016  1.00  0.00     0.002 C 
BRANCH   7   8
ATOM      8  C   UNL     1     161.481 177.759 166.762  1.00  0.00     0.028 C 
BRANCH   8   9
ATOM      9  C   UNL     1     161.986 177.099 165.474  1.00  0.00     0.156 C 
BRANCH   9  10
ATOM     10  O   UNL     1     162.530 175.838 165.752  1.00  0.00    -0.396 OA
ATOM     11  H   UNL     1     161.798 175.307 166.160  1.00  0.00     0.210 HD
ENDBRANCH   9  10
ENDBRANCH   8   9
ENDBRANCH   7   8
ENDBRANCH   1   7
TORSDOF 8
ENDMDL
