MODEL 1
REMARK VINA RESULT:    -5.073      0.000      0.000
REMARK INTER + INTRA:          -6.518
REMARK INTER:                  -6.259
REMARK INTRA:                  -0.259
REMARK UNBOUND:                -0.259
REMARK SMILES C=CC[C@H](C)C(=O)CC
REMARK SMILES IDX 4 1 5 2 6 3 7 4 8 5 9 6 3 7 2 8 1 9
REMARK H PARENT
REMARK Flexibility Score: inf
ROOT
ATOM      1  C   UNL     1      70.541  60.969  28.469  1.00  0.00     0.057 C 
ATOM      2  C   UNL     1      69.817  61.381  29.760  1.00  0.00     0.016 C 
ENDROOT
BRANCH   1   3
ATOM      3  C   UNL     1      71.271  62.145  27.852  1.00  0.00     0.135 C 
ATOM      4  O   UNL     1      70.718  63.232  27.770  1.00  0.00    -0.299 OA
BRANCH   3   5
ATOM      5  C   UNL     1      72.681  62.004  27.338  1.00  0.00     0.072 C 
ATOM      6  C   UNL     1      73.532  61.202  28.316  1.00  0.00     0.012 C 
ENDBRANCH   3   5
ENDBRANCH   1   3
BRANCH   1   7
ATOM      7  C   UNL     1      69.593  60.292  27.457  1.00  0.00     0.038 C 
BRANCH   7   8
ATOM      8  C   UNL     1      68.177  60.806  27.525  1.00  0.00    -0.034 C 
ATOM      9  C   UNL     1      67.235  60.391  26.672  1.00  0.00     0.004 C 
ENDBRANCH   7   8
ENDBRANCH   1   7
TORSDOF 4
ENDMDL
MODEL 2
REMARK VINA RESULT:    -4.980      1.330      1.660
REMARK INTER + INTRA:          -6.403
REMARK INTER:                  -6.034
REMARK INTRA:                  -0.369
REMARK UNBOUND:                -0.259
REMARK SMILES C=CC[C@H](C)C(=O)CC
REMARK SMILES IDX 4 1 5 2 6 3 7 4 8 5 9 6 3 7 2 8 1 9
REMARK H PARENT
REMARK Flexibility Score: inf
ROOT
ATOM      1  C   UNL     1      70.622  60.457  28.121  1.00  0.00     0.057 C 
ATOM      2  C   UNL     1      69.833  61.033  29.307  1.00  0.00     0.016 C 
ENDROOT
BRANCH   1   3
ATOM      3  C   UNL     1      71.843  61.302  27.814  1.00  0.00     0.135 C 
ATOM      4  O   UNL     1      72.834  61.223  28.526  1.00  0.00    -0.299 OA
BRANCH   3   5
ATOM      5  C   UNL     1      71.865  62.239  26.634  1.00  0.00     0.072 C 
ATOM      6  C   UNL     1      71.415  63.636  27.047  1.00  0.00     0.012 C 
ENDBRANCH   3   5
ENDBRANCH   1   3
BRANCH   1   7
ATOM      7  C   UNL     1      69.738  60.259  26.871  1.00  0.00     0.038 C 
BRANCH   7   8
ATOM      8  C   UNL     1      68.383  60.911  26.985  1.00  0.00    -0.034 C 
ATOM      9  C   UNL     1      67.271  60.305  26.557  1.00  0.00     0.004 C 
ENDBRANCH   7   8
ENDBRANCH   1   7
TORSDOF 4
ENDMDL
MODEL 3
REMARK VINA RESULT:    -4.954      1.863      2.722
REMARK INTER + INTRA:          -6.371
REMARK INTER:                  -5.931
REMARK INTRA:                  -0.440
REMARK UNBOUND:                -0.259
REMARK SMILES C=CC[C@H](C)C(=O)CC
REMARK SMILES IDX 4 1 5 2 6 3 7 4 8 5 9 6 3 7 2 8 1 9
REMARK H PARENT
REMARK Flexibility Score: inf
ROOT
ATOM      1  C   UNL     1      70.179  60.744  26.161  1.00  0.00     0.057 C 
ATOM      2  C   UNL     1      70.257  59.573  25.170  1.00  0.00     0.016 C 
ENDROOT
BRANCH   1   3
ATOM      3  C   UNL     1      71.183  61.824  25.812  1.00  0.00     0.135 C 
ATOM      4  O   UNL     1      71.388  62.111  24.641  1.00  0.00    -0.299 OA
BRANCH   3   5
ATOM      5  C   UNL     1      71.937  62.564  26.886  1.00  0.00     0.072 C 
ATOM      6  C   UNL     1      71.237  63.874  27.230  1.00  0.00     0.012 C 
ENDBRANCH   3   5
ENDBRANCH   1   3
BRANCH   1   7
ATOM      7  C   UNL     1      70.326  60.282  27.626  1.00  0.00     0.038 C 
BRANCH   7   8
ATOM      8  C   UNL     1      69.179  60.708  28.508  1.00  0.00    -0.034 C 
ATOM      9  C   UNL     1      68.136  61.390  28.026  1.00  0.00     0.004 C 
ENDBRANCH   7   8
ENDBRANCH   1   7
TORSDOF 4
ENDMDL
MODEL 4
REMARK VINA RESULT:    -4.903      1.334      1.975
REMARK INTER + INTRA:          -6.308
REMARK INTER:                  -6.042
REMARK INTRA:                  -0.266
REMARK UNBOUND:                -0.259
REMARK SMILES C=CC[C@H](C)C(=O)CC
REMARK SMILES IDX 4 1 5 2 6 3 7 4 8 5 9 6 3 7 2 8 1 9
REMARK H PARENT
REMARK Flexibility Score: inf
ROOT
ATOM      1  C   UNL     1      70.507  61.563  26.500  1.00  0.00     0.057 C 
ATOM      2  C   UNL     1      71.277  61.836  25.199  1.00  0.00     0.016 C 
ENDROOT
BRANCH   1   3
ATOM      3  C   UNL     1      71.410  61.703  27.710  1.00  0.00     0.135 C 
ATOM      4  O   UNL     1      70.944  61.591  28.835  1.00  0.00    -0.299 OA
BRANCH   3   5
ATOM      5  C   UNL     1      72.885  61.970  27.554  1.00  0.00     0.072 C 
ATOM      6  C   UNL     1      73.698  61.032  28.440  1.00  0.00     0.012 C 
ENDBRANCH   3   5
ENDBRANCH   1   3
BRANCH   1   7
ATOM      7  C   UNL     1      69.788  60.198  26.480  1.00  0.00     0.038 C 
BRANCH   7   8
ATOM      8  C   UNL     1      68.285  60.311  26.514  1.00  0.00    -0.034 C 
ATOM      9  C   UNL     1      67.646  60.904  27.528  1.00  0.00     0.004 C 
ENDBRANCH   7   8
ENDBRANCH   1   7
TORSDOF 4
ENDMDL
MODEL 5
REMARK VINA RESULT:    -4.902      1.864      3.994
REMARK INTER + INTRA:          -6.307
REMARK INTER:                  -5.827
REMARK INTRA:                  -0.480
REMARK UNBOUND:                -0.259
REMARK SMILES C=CC[C@H](C)C(=O)CC
REMARK SMILES IDX 4 1 5 2 6 3 7 4 8 5 9 6 3 7 2 8 1 9
REMARK H PARENT
REMARK Flexibility Score: inf
ROOT
ATOM      1  C   UNL     1      70.350  60.651  26.413  1.00  0.00     0.057 C 
ATOM      2  C   UNL     1      70.285  59.598  25.296  1.00  0.00     0.016 C 
ENDROOT
BRANCH   1   3
ATOM      3  C   UNL     1      68.969  60.958  26.957  1.00  0.00     0.135 C 
ATOM      4  O   UNL     1      67.978  60.687  26.294  1.00  0.00    -0.299 OA
BRANCH   3   5
ATOM      5  C   UNL     1      68.788  61.588  28.314  1.00  0.00     0.072 C 
ATOM      6  C   UNL     1      69.596  60.838  29.368  1.00  0.00     0.012 C 
ENDBRANCH   3   5
ENDBRANCH   1   3
BRANCH   1   7
ATOM      7  C   UNL     1      71.085  61.933  25.968  1.00  0.00     0.038 C 
BRANCH   7   8
ATOM      8  C   UNL     1      72.144  62.386  26.941  1.00  0.00    -0.034 C 
ATOM      9  C   UNL     1      72.817  61.519  27.705  1.00  0.00     0.004 C 
ENDBRANCH   7   8
ENDBRANCH   1   7
TORSDOF 4
ENDMDL
MODEL 6
REMARK VINA RESULT:    -4.897      1.431      2.658
REMARK INTER + INTRA:          -6.300
REMARK INTER:                  -5.856
REMARK INTRA:                  -0.444
REMARK UNBOUND:                -0.259
REMARK SMILES C=CC[C@H](C)C(=O)CC
REMARK SMILES IDX 4 1 5 2 6 3 7 4 8 5 9 6 3 7 2 8 1 9
REMARK H PARENT
REMARK Flexibility Score: inf
ROOT
ATOM      1  C   UNL     1      71.706  61.260  27.876  1.00  0.00     0.057 C 
ATOM      2  C   UNL     1      73.209  61.279  28.189  1.00  0.00     0.016 C 
ENDROOT
BRANCH   1   3
ATOM      3  C   UNL     1      71.398  62.050  26.620  1.00  0.00     0.135 C 
ATOM      4  O   UNL     1      71.500  63.268  26.625  1.00  0.00    -0.299 OA
BRANCH   3   5
ATOM      5  C   UNL     1      70.973  61.359  25.350  1.00  0.00     0.072 C 
ATOM      6  C   UNL     1      70.169  60.102  25.663  1.00  0.00     0.012 C 
ENDBRANCH   3   5
ENDBRANCH   1   3
BRANCH   1   7
ATOM      7  C   UNL     1      70.853  61.735  29.071  1.00  0.00     0.038 C 
BRANCH   7   8
ATOM      8  C   UNL     1      69.551  60.988  29.214  1.00  0.00    -0.034 C 
ATOM      9  C   UNL     1      68.418  61.435  28.662  1.00  0.00     0.004 C 
ENDBRANCH   7   8
ENDBRANCH   1   7
TORSDOF 4
ENDMDL
MODEL 7
REMARK VINA RESULT:    -4.890      1.497      2.282
REMARK INTER + INTRA:          -6.292
REMARK INTER:                  -5.828
REMARK INTRA:                  -0.463
REMARK UNBOUND:                -0.259
REMARK SMILES C=CC[C@H](C)C(=O)CC
REMARK SMILES IDX 4 1 5 2 6 3 7 4 8 5 9 6 3 7 2 8 1 9
REMARK H PARENT
REMARK Flexibility Score: inf
ROOT
ATOM      1  C   UNL     1      69.400  60.741  28.341  1.00  0.00     0.057 C 
ATOM      2  C   UNL     1      68.096  61.298  27.749  1.00  0.00     0.016 C 
ENDROOT
BRANCH   1   3
ATOM      3  C   UNL     1      70.357  61.859  28.704  1.00  0.00     0.135 C 
ATOM      4  O   UNL     1      70.877  61.882  29.811  1.00  0.00    -0.299 OA
BRANCH   3   5
ATOM      5  C   UNL     1      70.693  62.948  27.718  1.00  0.00     0.072 C 
ATOM      6  C   UNL     1      72.070  62.715  27.106  1.00  0.00     0.012 C 
ENDBRANCH   3   5
ENDBRANCH   1   3
BRANCH   1   7
ATOM      7  C   UNL     1      70.065  59.699  27.417  1.00  0.00     0.038 C 
BRANCH   7   8
ATOM      8  C   UNL     1      69.645  59.824  25.973  1.00  0.00    -0.034 C 
ATOM      9  C   UNL     1      70.536  60.006  24.994  1.00  0.00     0.004 C 
ENDBRANCH   7   8
ENDBRANCH   1   7
TORSDOF 4
ENDMDL
MODEL 8
REMARK VINA RESULT:    -4.857      1.748      3.805
REMARK INTER + INTRA:          -6.251
REMARK INTER:                  -5.832
REMARK INTRA:                  -0.419
REMARK UNBOUND:                -0.259
REMARK SMILES C=CC[C@H](C)C(=O)CC
REMARK SMILES IDX 4 1 5 2 6 3 7 4 8 5 9 6 3 7 2 8 1 9
REMARK H PARENT
REMARK Flexibility Score: inf
ROOT
ATOM      1  C   UNL     1      71.102  61.760  28.435  1.00  0.00     0.057 C 
ATOM      2  C   UNL     1      72.513  61.154  28.483  1.00  0.00     0.016 C 
ENDROOT
BRANCH   1   3
ATOM      3  C   UNL     1      70.053  60.688  28.214  1.00  0.00     0.135 C 
ATOM      4  O   UNL     1      70.395  59.529  28.031  1.00  0.00    -0.299 OA
BRANCH   3   5
ATOM      5  C   UNL     1      68.584  61.023  28.223  1.00  0.00     0.072 C 
ATOM      6  C   UNL     1      67.943  60.673  26.885  1.00  0.00     0.012 C 
ENDBRANCH   3   5
ENDBRANCH   1   3
BRANCH   1   7
ATOM      7  C   UNL     1      70.987  62.893  27.393  1.00  0.00     0.038 C 
BRANCH   7   8
ATOM      8  C   UNL     1      71.859  62.684  26.180  1.00  0.00    -0.034 C 
ATOM      9  C   UNL     1      71.363  62.221  25.028  1.00  0.00     0.004 C 
ENDBRANCH   7   8
ENDBRANCH   1   7
TORSDOF 4
ENDMDL
MODEL 9
REMARK VINA RESULT:    -4.794      1.388      4.200
REMARK INTER + INTRA:          -6.173
REMARK INTER:                  -5.910
REMARK INTRA:                  -0.263
REMARK UNBOUND:                -0.259
REMARK SMILES C=CC[C@H](C)C(=O)CC
REMARK SMILES IDX 4 1 5 2 6 3 7 4 8 5 9 6 3 7 2 8 1 9
REMARK H PARENT
REMARK Flexibility Score: inf
ROOT
ATOM      1  C   UNL     1      70.509  61.714  27.513  1.00  0.00     0.057 C 
ATOM      2  C   UNL     1      70.989  63.173  27.478  1.00  0.00     0.016 C 
ENDROOT
BRANCH   1   3
ATOM      3  C   UNL     1      69.369  61.536  28.495  1.00  0.00     0.135 C 
ATOM      4  O   UNL     1      69.586  61.581  29.698  1.00  0.00    -0.299 OA
BRANCH   3   5
ATOM      5  C   UNL     1      67.957  61.313  28.018  1.00  0.00     0.072 C 
ATOM      6  C   UNL     1      67.950  60.589  26.676  1.00  0.00     0.012 C 
ENDBRANCH   3   5
ENDBRANCH   1   3
BRANCH   1   7
ATOM      7  C   UNL     1      71.661  60.725  27.792  1.00  0.00     0.038 C 
BRANCH   7   8
ATOM      8  C   UNL     1      72.933  61.398  28.243  1.00  0.00    -0.034 C 
ATOM      9  C   UNL     1      74.047  60.703  28.493  1.00  0.00     0.004 C 
ENDBRANCH   7   8
ENDBRANCH   1   7
TORSDOF 4
ENDMDL
