MODEL 1
REMARK VINA RESULT:    -4.464      0.000      0.000
REMARK INTER + INTRA:          -5.033
REMARK INTER:                  -4.724
REMARK INTRA:                  -0.309
REMARK UNBOUND:                -0.309
REMARK SMILES CC1=CC[C@@]23[C@@H]([C@H](C(C)C)CC[C@@H]2C)[C@H]13
REMARK SMILES IDX 14 1 13 2 12 3 11 4 7 5 6 6 5 7 15 8 2 9 3 10 4 11 1 12 8 13
REMARK SMILES IDX 9 14 10 15
REMARK H PARENT
REMARK Flexibility Score: inf
ROOT
ATOM      1  C   UNL     1     139.814 136.032 124.767  1.00  0.00     0.008 C 
ATOM      2  C   UNL     1     138.353 135.551 124.744  1.00  0.00    -0.007 C 
ATOM      3  C   UNL     1     137.567 136.039 125.977  1.00  0.00     0.004 C 
ATOM      4  C   UNL     1     136.962 137.427 125.774  1.00  0.00     0.004 C 
ATOM      5  C   UNL     1     135.910 137.395 124.645  1.00  0.00    -0.004 C 
ATOM      6  C   UNL     1     136.428 136.786 123.316  1.00  0.00     0.007 C 
ATOM      7  C   UNL     1     137.644 135.846 123.391  1.00  0.00    -0.013 C 
ATOM      8  C   UNL     1     137.790 137.261 122.815  1.00  0.00     0.025 C 
ATOM      9  C   UNL     1     138.060 137.041 121.366  1.00  0.00    -0.073 C 
ATOM     10  C   UNL     1     138.110 135.756 121.043  1.00  0.00    -0.027 C 
ATOM     11  C   UNL     1     137.857 134.875 122.217  1.00  0.00     0.035 C 
ATOM     12  C   UNL     1     138.250 138.151 120.380  1.00  0.00     0.039 C 
ENDROOT
BRANCH   5  13
ATOM     13  C   UNL     1     135.209 138.774 124.457  1.00  0.00    -0.014 C 
ATOM     14  C   UNL     1     134.875 139.039 122.981  1.00  0.00     0.007 C 
ATOM     15  C   UNL     1     136.000 139.959 125.034  1.00  0.00     0.007 C 
ENDBRANCH   5  13
TORSDOF 1
ENDMDL
MODEL 2
REMARK VINA RESULT:    -3.465      1.212      4.281
REMARK INTER + INTRA:          -3.976
REMARK INTER:                  -3.724
REMARK INTRA:                  -0.252
REMARK UNBOUND:                -0.309
REMARK SMILES CC1=CC[C@@]23[C@@H]([C@H](C(C)C)CC[C@@H]2C)[C@H]13
REMARK SMILES IDX 14 1 13 2 12 3 11 4 7 5 6 6 5 7 15 8 2 9 3 10 4 11 1 12 8 13
REMARK SMILES IDX 9 14 10 15
REMARK H PARENT
REMARK Flexibility Score: inf
ROOT
ATOM      1  C   UNL     1     138.101 137.061 120.739  1.00  0.00     0.008 C 
ATOM      2  C   UNL     1     137.884 135.888 121.711  1.00  0.00    -0.007 C 
ATOM      3  C   UNL     1     139.198 135.142 122.013  1.00  0.00     0.004 C 
ATOM      4  C   UNL     1     139.976 135.767 123.170  1.00  0.00     0.004 C 
ATOM      5  C   UNL     1     139.169 135.657 124.481  1.00  0.00    -0.004 C 
ATOM      6  C   UNL     1     137.724 136.212 124.384  1.00  0.00     0.007 C 
ATOM      7  C   UNL     1     137.090 136.301 122.984  1.00  0.00    -0.013 C 
ATOM      8  C   UNL     1     137.544 137.572 123.714  1.00  0.00     0.025 C 
ATOM      9  C   UNL     1     136.274 138.286 124.030  1.00  0.00    -0.073 C 
ATOM     10  C   UNL     1     135.201 137.645 123.585  1.00  0.00    -0.027 C 
ATOM     11  C   UNL     1     135.555 136.366 122.909  1.00  0.00     0.035 C 
ATOM     12  C   UNL     1     136.215 139.585 124.772  1.00  0.00     0.039 C 
ENDROOT
BRANCH   5  13
ATOM     13  C   UNL     1     139.959 136.213 125.704  1.00  0.00    -0.014 C 
ATOM     14  C   UNL     1     141.184 137.028 125.259  1.00  0.00     0.007 C 
ATOM     15  C   UNL     1     140.389 135.134 126.711  1.00  0.00     0.007 C 
ENDBRANCH   5  13
TORSDOF 1
ENDMDL
MODEL 3
REMARK VINA RESULT:    -2.821     14.097     16.289
REMARK INTER + INTRA:          -3.295
REMARK INTER:                  -3.077
REMARK INTRA:                  -0.218
REMARK UNBOUND:                -0.309
REMARK SMILES CC1=CC[C@@]23[C@@H]([C@H](C(C)C)CC[C@@H]2C)[C@H]13
REMARK SMILES IDX 14 1 13 2 12 3 11 4 7 5 6 6 5 7 15 8 2 9 3 10 4 11 1 12 8 13
REMARK SMILES IDX 9 14 10 15
REMARK H PARENT
REMARK Flexibility Score: inf
ROOT
ATOM      1  C   UNL     1     154.091 140.080 124.146  1.00  0.00     0.008 C 
ATOM      2  C   UNL     1     154.779 138.705 124.085  1.00  0.00    -0.007 C 
ATOM      3  C   UNL     1     154.612 137.920 125.400  1.00  0.00     0.004 C 
ATOM      4  C   UNL     1     153.318 137.109 125.439  1.00  0.00     0.004 C 
ATOM      5  C   UNL     1     153.335 136.018 124.347  1.00  0.00    -0.004 C 
ATOM      6  C   UNL     1     153.645 136.551 122.925  1.00  0.00     0.007 C 
ATOM      7  C   UNL     1     154.389 137.894 122.816  1.00  0.00    -0.013 C 
ATOM      8  C   UNL     1     152.897 137.802 122.471  1.00  0.00     0.025 C 
ATOM      9  C   UNL     1     152.847 138.028 120.999  1.00  0.00    -0.073 C 
ATOM     10  C   UNL     1     154.044 138.250 120.472  1.00  0.00    -0.027 C 
ATOM     11  C   UNL     1     155.123 138.187 121.496  1.00  0.00     0.035 C 
ATOM     12  C   UNL     1     151.582 138.005 120.199  1.00  0.00     0.039 C 
ENDROOT
BRANCH   5  13
ATOM     13  C   UNL     1     152.066 135.114 124.402  1.00  0.00    -0.014 C 
ATOM     14  C   UNL     1     151.485 134.875 123.000  1.00  0.00     0.007 C 
ATOM     15  C   UNL     1     150.967 135.640 125.339  1.00  0.00     0.007 C 
ENDBRANCH   5  13
TORSDOF 1
ENDMDL
MODEL 4
REMARK VINA RESULT:    -2.655     13.644     16.261
REMARK INTER + INTRA:          -3.118
REMARK INTER:                  -3.033
REMARK INTRA:                  -0.085
REMARK UNBOUND:                -0.309
REMARK SMILES CC1=CC[C@@]23[C@@H]([C@H](C(C)C)CC[C@@H]2C)[C@H]13
REMARK SMILES IDX 14 1 13 2 12 3 11 4 7 5 6 6 5 7 15 8 2 9 3 10 4 11 1 12 8 13
REMARK SMILES IDX 9 14 10 15
REMARK H PARENT
REMARK Flexibility Score: inf
ROOT
ATOM      1  C   UNL     1     136.005 150.393 124.223  1.00  0.00     0.008 C 
ATOM      2  C   UNL     1     135.450 151.823 124.339  1.00  0.00    -0.007 C 
ATOM      3  C   UNL     1     135.836 152.483 125.677  1.00  0.00     0.004 C 
ATOM      4  C   UNL     1     137.198 153.171 125.621  1.00  0.00     0.004 C 
ATOM      5  C   UNL     1     137.167 154.343 124.617  1.00  0.00    -0.004 C 
ATOM      6  C   UNL     1     136.652 153.955 123.207  1.00  0.00     0.007 C 
ATOM      7  C   UNL     1     135.775 152.697 123.092  1.00  0.00    -0.013 C 
ATOM      8  C   UNL     1     137.222 152.684 122.582  1.00  0.00     0.025 C 
ATOM      9  C   UNL     1     137.088 152.573 121.102  1.00  0.00    -0.073 C 
ATOM     10  C   UNL     1     135.825 152.501 120.705  1.00  0.00    -0.027 C 
ATOM     11  C   UNL     1     134.875 152.576 121.850  1.00  0.00     0.035 C 
ATOM     12  C   UNL     1     138.254 152.549 120.164  1.00  0.00     0.039 C 
ENDROOT
BRANCH   5  13
ATOM     13  C   UNL     1     138.515 155.125 124.586  1.00  0.00    -0.014 C 
ATOM     14  C   UNL     1     139.134 155.123 123.180  1.00  0.00     0.007 C 
ATOM     15  C   UNL     1     139.547 154.626 125.610  1.00  0.00     0.007 C 
ENDBRANCH   5  13
TORSDOF 1
ENDMDL
MODEL 5
REMARK VINA RESULT:    -2.597     14.472     17.059
REMARK INTER + INTRA:          -3.057
REMARK INTER:                  -2.681
REMARK INTRA:                  -0.376
REMARK UNBOUND:                -0.309
REMARK SMILES CC1=CC[C@@]23[C@@H]([C@H](C(C)C)CC[C@@H]2C)[C@H]13
REMARK SMILES IDX 14 1 13 2 12 3 11 4 7 5 6 6 5 7 15 8 2 9 3 10 4 11 1 12 8 13
REMARK SMILES IDX 9 14 10 15
REMARK H PARENT
REMARK Flexibility Score: inf
ROOT
ATOM      1  C   UNL     1     152.984 137.872 120.745  1.00  0.00     0.008 C 
ATOM      2  C   UNL     1     154.333 137.715 121.469  1.00  0.00    -0.007 C 
ATOM      3  C   UNL     1     155.121 139.039 121.509  1.00  0.00     0.004 C 
ATOM      4  C   UNL     1     154.745 139.911 122.705  1.00  0.00     0.004 C 
ATOM      5  C   UNL     1     155.125 139.205 124.024  1.00  0.00    -0.004 C 
ATOM      6  C   UNL     1     154.566 137.765 124.155  1.00  0.00     0.007 C 
ATOM      7  C   UNL     1     154.193 137.027 122.858  1.00  0.00    -0.013 C 
ATOM      8  C   UNL     1     153.097 137.551 123.796  1.00  0.00     0.025 C 
ATOM      9  C   UNL     1     152.467 136.319 124.349  1.00  0.00    -0.073 C 
ATOM     10  C   UNL     1     153.006 135.206 123.867  1.00  0.00    -0.027 C 
ATOM     11  C   UNL     1     154.118 135.491 122.917  1.00  0.00     0.035 C 
ATOM     12  C   UNL     1     151.350 136.334 125.344  1.00  0.00     0.039 C 
ENDROOT
BRANCH   5  13
ATOM     13  C   UNL     1     154.830 140.094 125.270  1.00  0.00    -0.014 C 
ATOM     14  C   UNL     1     154.808 139.263 126.562  1.00  0.00     0.007 C 
ATOM     15  C   UNL     1     153.537 140.916 125.157  1.00  0.00     0.007 C 
ENDBRANCH   5  13
TORSDOF 1
ENDMDL
MODEL 6
REMARK VINA RESULT:    -2.148     12.585     15.683
REMARK INTER + INTRA:          -2.582
REMARK INTER:                  -2.330
REMARK INTRA:                  -0.252
REMARK UNBOUND:                -0.309
REMARK SMILES CC1=CC[C@@]23[C@@H]([C@H](C(C)C)CC[C@@H]2C)[C@H]13
REMARK SMILES IDX 14 1 13 2 12 3 11 4 7 5 6 6 5 7 15 8 2 9 3 10 4 11 1 12 8 13
REMARK SMILES IDX 9 14 10 15
REMARK H PARENT
REMARK Flexibility Score: inf
ROOT
ATOM      1  C   UNL     1     136.615 152.151 120.801  1.00  0.00     0.008 C 
ATOM      2  C   UNL     1     135.555 152.340 121.900  1.00  0.00    -0.007 C 
ATOM      3  C   UNL     1     134.903 151.004 122.306  1.00  0.00     0.004 C 
ATOM      4  C   UNL     1     135.690 150.273 123.392  1.00  0.00     0.004 C 
ATOM      5  C   UNL     1     135.700 151.100 124.696  1.00  0.00    -0.004 C 
ATOM      6  C   UNL     1     136.180 152.563 124.513  1.00  0.00     0.007 C 
ATOM      7  C   UNL     1     136.080 153.173 123.104  1.00  0.00    -0.013 C 
ATOM      8  C   UNL     1     137.445 152.784 123.687  1.00  0.00     0.025 C 
ATOM      9  C   UNL     1     138.138 154.086 123.899  1.00  0.00    -0.073 C 
ATOM     10  C   UNL     1     137.406 155.125 123.517  1.00  0.00    -0.027 C 
ATOM     11  C   UNL     1     136.073 154.708 123.000  1.00  0.00     0.035 C 
ATOM     12  C   UNL     1     139.510 154.210 124.483  1.00  0.00     0.039 C 
ENDROOT
BRANCH   5  13
ATOM     13  C   UNL     1     136.426 150.355 125.857  1.00  0.00    -0.014 C 
ATOM     14  C   UNL     1     137.235 149.157 125.337  1.00  0.00     0.007 C 
ATOM     15  C   UNL     1     135.489 149.900 126.987  1.00  0.00     0.007 C 
ENDBRANCH   5  13
TORSDOF 1
ENDMDL
MODEL 7
REMARK VINA RESULT:    -1.936     14.438     16.900
REMARK INTER + INTRA:          -2.357
REMARK INTER:                  -2.079
REMARK INTRA:                  -0.279
REMARK UNBOUND:                -0.309
REMARK SMILES CC1=CC[C@@]23[C@@H]([C@H](C(C)C)CC[C@@H]2C)[C@H]13
REMARK SMILES IDX 14 1 13 2 12 3 11 4 7 5 6 6 5 7 15 8 2 9 3 10 4 11 1 12 8 13
REMARK SMILES IDX 9 14 10 15
REMARK H PARENT
REMARK Flexibility Score: inf
ROOT
ATOM      1  C   UNL     1     138.994 154.464 125.623  1.00  0.00     0.008 C 
ATOM      2  C   UNL     1     138.065 155.036 124.538  1.00  0.00    -0.007 C 
ATOM      3  C   UNL     1     138.766 155.125 123.169  1.00  0.00     0.004 C 
ATOM      4  C   UNL     1     138.662 153.827 122.370  1.00  0.00     0.004 C 
ATOM      5  C   UNL     1     137.188 153.529 122.021  1.00  0.00    -0.004 C 
ATOM      6  C   UNL     1     136.234 153.539 123.243  1.00  0.00     0.007 C 
ATOM      7  C   UNL     1     136.685 154.318 124.491  1.00  0.00    -0.013 C 
ATOM      8  C   UNL     1     136.689 152.784 124.490  1.00  0.00     0.025 C 
ATOM      9  C   UNL     1     135.614 152.414 125.453  1.00  0.00    -0.073 C 
ATOM     10  C   UNL     1     135.029 153.471 126.001  1.00  0.00    -0.027 C 
ATOM     11  C   UNL     1     135.593 154.750 125.485  1.00  0.00     0.035 C 
ATOM     12  C   UNL     1     135.230 151.001 125.765  1.00  0.00     0.039 C 
ENDROOT
BRANCH   5  13
ATOM     13  C   UNL     1     137.042 152.253 121.137  1.00  0.00    -0.014 C 
ATOM     14  C   UNL     1     137.501 152.513 119.694  1.00  0.00     0.007 C 
ATOM     15  C   UNL     1     135.626 151.656 121.135  1.00  0.00     0.007 C 
ENDBRANCH   5  13
TORSDOF 1
ENDMDL
MODEL 8
REMARK VINA RESULT:    -1.751      1.044      4.262
REMARK INTER + INTRA:          -2.162
REMARK INTER:                  -2.156
REMARK INTRA:                  -0.007
REMARK UNBOUND:                -0.309
REMARK SMILES CC1=CC[C@@]23[C@@H]([C@H](C(C)C)CC[C@@H]2C)[C@H]13
REMARK SMILES IDX 14 1 13 2 12 3 11 4 7 5 6 6 5 7 15 8 2 9 3 10 4 11 1 12 8 13
REMARK SMILES IDX 9 14 10 15
REMARK H PARENT
REMARK Flexibility Score: inf
ROOT
ATOM      1  C   UNL     1     136.363 139.081 125.321  1.00  0.00     0.008 C 
ATOM      2  C   UNL     1     135.686 137.996 124.466  1.00  0.00    -0.007 C 
ATOM      3  C   UNL     1     135.394 138.490 123.036  1.00  0.00     0.004 C 
ATOM      4  C   UNL     1     136.579 138.291 122.092  1.00  0.00     0.004 C 
ATOM      5  C   UNL     1     136.879 136.787 121.918  1.00  0.00    -0.004 C 
ATOM      6  C   UNL     1     137.062 136.019 123.253  1.00  0.00     0.007 C 
ATOM      7  C   UNL     1     136.438 136.634 124.518  1.00  0.00    -0.013 C 
ATOM      8  C   UNL     1     137.958 136.662 124.309  1.00  0.00     0.025 C 
ATOM      9  C   UNL     1     138.488 135.743 125.356  1.00  0.00    -0.073 C 
ATOM     10  C   UNL     1     137.533 135.228 126.119  1.00  0.00    -0.027 C 
ATOM     11  C   UNL     1     136.179 135.692 125.706  1.00  0.00     0.035 C 
ATOM     12  C   UNL     1     139.942 135.430 125.526  1.00  0.00     0.039 C 
ENDROOT
BRANCH   5  13
ATOM     13  C   UNL     1     138.032 136.533 120.900  1.00  0.00    -0.014 C 
ATOM     14  C   UNL     1     139.288 135.988 121.597  1.00  0.00     0.007 C 
ATOM     15  C   UNL     1     138.397 137.763 120.054  1.00  0.00     0.007 C 
ENDBRANCH   5  13
TORSDOF 1
ENDMDL
MODEL 9
REMARK VINA RESULT:    -1.564     14.487     16.929
REMARK INTER + INTRA:          -1.964
REMARK INTER:                  -1.886
REMARK INTRA:                  -0.079
REMARK UNBOUND:                -0.309
REMARK SMILES CC1=CC[C@@]23[C@@H]([C@H](C(C)C)CC[C@@H]2C)[C@H]13
REMARK SMILES IDX 14 1 13 2 12 3 11 4 7 5 6 6 5 7 15 8 2 9 3 10 4 11 1 12 8 13
REMARK SMILES IDX 9 14 10 15
REMARK H PARENT
REMARK Flexibility Score: inf
ROOT
ATOM      1  C   UNL     1     151.396 136.328 125.254  1.00  0.00     0.008 C 
ATOM      2  C   UNL     1     152.568 135.659 124.515  1.00  0.00    -0.007 C 
ATOM      3  C   UNL     1     152.187 135.256 123.077  1.00  0.00     0.004 C 
ATOM      4  C   UNL     1     152.391 136.390 122.075  1.00  0.00     0.004 C 
ATOM      5  C   UNL     1     153.886 136.759 121.979  1.00  0.00    -0.004 C 
ATOM      6  C   UNL     1     154.552 137.064 123.346  1.00  0.00     0.007 C 
ATOM      7  C   UNL     1     153.885 136.485 124.606  1.00  0.00    -0.013 C 
ATOM      8  C   UNL     1     153.796 137.986 124.299  1.00  0.00     0.025 C 
ATOM      9  C   UNL     1     154.616 138.627 125.367  1.00  0.00    -0.073 C 
ATOM     10  C   UNL     1     155.124 137.748 126.221  1.00  0.00    -0.027 C 
ATOM     11  C   UNL     1     154.757 136.349 125.866  1.00  0.00     0.035 C 
ATOM     12  C   UNL     1     154.844 140.103 125.463  1.00  0.00     0.039 C 
ENDROOT
BRANCH   5  13
ATOM     13  C   UNL     1     154.151 137.860 120.908  1.00  0.00    -0.014 C 
ATOM     14  C   UNL     1     154.790 139.110 121.532  1.00  0.00     0.007 C 
ATOM     15  C   UNL     1     152.903 138.259 120.103  1.00  0.00     0.007 C 
ENDBRANCH   5  13
TORSDOF 1
ENDMDL
