MODEL 1
REMARK VINA RESULT:    -3.531      0.000      0.000
REMARK INTER + INTRA:          -6.022
REMARK INTER:                  -5.388
REMARK INTRA:                  -0.634
REMARK UNBOUND:                -0.634
REMARK SMILES O=C([O-])CCCCCCCCC(=O)[O-]
REMARK SMILES IDX 7 1 6 2 5 3 4 4 2 5 1 6 3 7 8 8 9 9 10 10 11 11 12 12 13 13
REMARK SMILES IDX 14 14
REMARK H PARENT
REMARK Flexibility Score: inf
ROOT
ATOM      1  C   UNL     1     -15.716 -16.639   6.180  1.00  0.00     0.000 C 
ENDROOT
BRANCH   1   2
ATOM      2  C   UNL     1     -15.034 -17.928   6.668  1.00  0.00     0.000 C 
BRANCH   2   3
ATOM      3  C   UNL     1     -14.559 -18.833   5.517  1.00  0.00     0.006 C 
BRANCH   3   4
ATOM      4  C   UNL     1     -13.128 -19.371   5.696  1.00  0.00     0.053 C 
BRANCH   4   5
ATOM      5  C   UNL     1     -12.128 -18.652   4.843  1.00  0.00     0.041 C 
ATOM      6  O   UNL     1     -12.450 -18.235   3.700  1.00  0.00    -0.550 OA
ATOM      7  O   UNL     1     -10.847 -18.413   5.324  1.00  0.00    -0.550 OA
ENDBRANCH   4   5
ENDBRANCH   3   4
ENDBRANCH   2   3
ENDBRANCH   1   2
BRANCH   1   8
ATOM      8  C   UNL     1     -15.342 -16.283   4.732  1.00  0.00     0.000 C 
BRANCH   8   9
ATOM      9  C   UNL     1     -14.255 -15.201   4.654  1.00  0.00     0.000 C 
BRANCH   9  10
ATOM     10  C   UNL     1     -14.717 -13.908   5.341  1.00  0.00     0.006 C 
BRANCH  10  11
ATOM     11  C   UNL     1     -13.542 -12.987   5.697  1.00  0.00     0.053 C 
BRANCH  11  12
ATOM     12  C   UNL     1     -13.438 -11.827   4.757  1.00  0.00     0.041 C 
ATOM     13  O   UNL     1     -12.418 -11.688   4.031  1.00  0.00    -0.550 OA
ATOM     14  O   UNL     1     -14.454 -10.879   4.704  1.00  0.00    -0.550 OA
ENDBRANCH  11  12
ENDBRANCH  10  11
ENDBRANCH   9  10
ENDBRANCH   8   9
ENDBRANCH   1   8
TORSDOF 9
ENDMDL
MODEL 2
REMARK VINA RESULT:    -3.492      0.259      5.839
REMARK INTER + INTRA:          -5.963
REMARK INTER:                  -5.384
REMARK INTRA:                  -0.579
REMARK UNBOUND:                -0.634
REMARK SMILES O=C([O-])CCCCCCCCC(=O)[O-]
REMARK SMILES IDX 7 1 6 2 5 3 4 4 2 5 1 6 3 7 8 8 9 9 10 10 11 11 12 12 13 13
REMARK SMILES IDX 14 14
REMARK H PARENT
REMARK Flexibility Score: inf
ROOT
ATOM      1  C   UNL     1     -15.333 -16.174   4.759  1.00  0.00     0.000 C 
ENDROOT
BRANCH   1   2
ATOM      2  C   UNL     1     -14.178 -15.159   4.741  1.00  0.00     0.000 C 
BRANCH   2   3
ATOM      3  C   UNL     1     -14.567 -13.791   5.330  1.00  0.00     0.006 C 
BRANCH   3   4
ATOM      4  C   UNL     1     -13.364 -12.885   5.653  1.00  0.00     0.053 C 
BRANCH   4   5
ATOM      5  C   UNL     1     -13.189 -11.780   4.657  1.00  0.00     0.041 C 
ATOM      6  O   UNL     1     -12.403 -11.920   3.684  1.00  0.00    -0.550 OA
ATOM      7  O   UNL     1     -13.917 -10.604   4.788  1.00  0.00    -0.550 OA
ENDBRANCH   4   5
ENDBRANCH   3   4
ENDBRANCH   2   3
ENDBRANCH   1   2
BRANCH   1   8
ATOM      8  C   UNL     1     -15.707 -16.618   6.182  1.00  0.00     0.000 C 
BRANCH   8   9
ATOM      9  C   UNL     1     -14.925 -17.858   6.638  1.00  0.00     0.000 C 
BRANCH   9  10
ATOM     10  C   UNL     1     -14.524 -18.726   5.436  1.00  0.00     0.006 C 
BRANCH  10  11
ATOM     11  C   UNL     1     -13.126 -19.339   5.602  1.00  0.00     0.053 C 
BRANCH  11  12
ATOM     12  C   UNL     1     -12.121 -18.685   4.706  1.00  0.00     0.041 C 
ATOM     13  O   UNL     1     -10.965 -18.425   5.133  1.00  0.00    -0.550 OA
ATOM     14  O   UNL     1     -12.471 -18.332   3.408  1.00  0.00    -0.550 OA
ENDBRANCH  11  12
ENDBRANCH  10  11
ENDBRANCH   9  10
ENDBRANCH   8   9
ENDBRANCH   1   8
TORSDOF 9
ENDMDL
MODEL 3
REMARK VINA RESULT:    -3.361      2.215      3.158
REMARK INTER + INTRA:          -5.764
REMARK INTER:                  -5.360
REMARK INTRA:                  -0.404
REMARK UNBOUND:                -0.634
REMARK SMILES O=C([O-])CCCCCCCCC(=O)[O-]
REMARK SMILES IDX 7 1 6 2 5 3 4 4 2 5 1 6 3 7 8 8 9 9 10 10 11 11 12 12 13 13
REMARK SMILES IDX 14 14
REMARK H PARENT
REMARK Flexibility Score: inf
ROOT
ATOM      1  C   UNL     1     -13.642 -15.028   2.137  1.00  0.00     0.000 C 
ENDROOT
BRANCH   1   2
ATOM      2  C   UNL     1     -13.399 -16.547   2.123  1.00  0.00     0.000 C 
BRANCH   2   3
ATOM      3  C   UNL     1     -13.291 -17.153   3.534  1.00  0.00     0.006 C 
BRANCH   3   4
ATOM      4  C   UNL     1     -12.390 -18.400   3.609  1.00  0.00     0.053 C 
BRANCH   4   5
ATOM      5  C   UNL     1     -11.903 -18.680   4.998  1.00  0.00     0.041 C 
ATOM      6  O   UNL     1     -10.701 -18.470   5.305  1.00  0.00    -0.550 OA
ATOM      7  O   UNL     1     -12.787 -19.145   5.964  1.00  0.00    -0.550 OA
ENDBRANCH   4   5
ENDBRANCH   3   4
ENDBRANCH   2   3
ENDBRANCH   1   2
BRANCH   1   8
ATOM      8  C   UNL     1     -12.729 -14.274   1.158  1.00  0.00     0.000 C 
BRANCH   8   9
ATOM      9  C   UNL     1     -12.206 -12.952   1.738  1.00  0.00     0.000 C 
BRANCH   9  10
ATOM     10  C   UNL     1     -13.234 -12.327   2.692  1.00  0.00     0.006 C 
BRANCH  10  11
ATOM     11  C   UNL     1     -12.582 -11.768   3.965  1.00  0.00     0.053 C 
BRANCH  11  12
ATOM     12  C   UNL     1     -13.290 -12.229   5.201  1.00  0.00     0.041 C 
ATOM     13  O   UNL     1     -12.639 -12.735   6.153  1.00  0.00    -0.550 OA
ATOM     14  O   UNL     1     -14.673 -12.131   5.290  1.00  0.00    -0.550 OA
ENDBRANCH  11  12
ENDBRANCH  10  11
ENDBRANCH   9  10
ENDBRANCH   8   9
ENDBRANCH   1   8
TORSDOF 9
ENDMDL
MODEL 4
REMARK VINA RESULT:    -3.260      1.919      2.605
REMARK INTER + INTRA:          -5.609
REMARK INTER:                  -4.965
REMARK INTRA:                  -0.644
REMARK UNBOUND:                -0.634
REMARK SMILES O=C([O-])CCCCCCCCC(=O)[O-]
REMARK SMILES IDX 7 1 6 2 5 3 4 4 2 5 1 6 3 7 8 8 9 9 10 10 11 11 12 12 13 13
REMARK SMILES IDX 14 14
REMARK H PARENT
REMARK Flexibility Score: inf
ROOT
ATOM      1  C   UNL     1     -13.169 -16.848   2.289  1.00  0.00     0.000 C 
ENDROOT
BRANCH   1   2
ATOM      2  C   UNL     1     -13.454 -18.162   3.035  1.00  0.00     0.000 C 
BRANCH   2   3
ATOM      3  C   UNL     1     -12.184 -18.820   3.604  1.00  0.00     0.006 C 
BRANCH   3   4
ATOM      4  C   UNL     1     -12.120 -18.827   5.143  1.00  0.00     0.053 C 
BRANCH   4   5
ATOM      5  C   UNL     1     -13.352 -19.404   5.771  1.00  0.00     0.041 C 
ATOM      6  O   UNL     1     -13.649 -20.614   5.593  1.00  0.00    -0.550 OA
ATOM      7  O   UNL     1     -14.157 -18.611   6.579  1.00  0.00    -0.550 OA
ENDBRANCH   4   5
ENDBRANCH   3   4
ENDBRANCH   2   3
ENDBRANCH   1   2
BRANCH   1   8
ATOM      8  C   UNL     1     -13.903 -15.646   2.905  1.00  0.00     0.000 C 
BRANCH   8   9
ATOM      9  C   UNL     1     -14.186 -15.834   4.403  1.00  0.00     0.000 C 
BRANCH   9  10
ATOM     10  C   UNL     1     -14.585 -14.502   5.056  1.00  0.00     0.006 C 
BRANCH  10  11
ATOM     11  C   UNL     1     -14.122 -13.290   4.237  1.00  0.00     0.053 C 
BRANCH  11  12
ATOM     12  C   UNL     1     -13.430 -12.272   5.089  1.00  0.00     0.041 C 
ATOM     13  O   UNL     1     -13.526 -11.046   4.816  1.00  0.00    -0.550 OA
ATOM     14  O   UNL     1     -12.652 -12.679   6.166  1.00  0.00    -0.550 OA
ENDBRANCH  11  12
ENDBRANCH  10  11
ENDBRANCH   9  10
ENDBRANCH   8   9
ENDBRANCH   1   8
TORSDOF 9
ENDMDL
MODEL 5
REMARK VINA RESULT:    -3.248      1.814      2.434
REMARK INTER + INTRA:          -5.591
REMARK INTER:                  -5.171
REMARK INTRA:                  -0.420
REMARK UNBOUND:                -0.634
REMARK SMILES O=C([O-])CCCCCCCCC(=O)[O-]
REMARK SMILES IDX 7 1 6 2 5 3 4 4 2 5 1 6 3 7 8 8 9 9 10 10 11 11 12 12 13 13
REMARK SMILES IDX 14 14
REMARK H PARENT
REMARK Flexibility Score: inf
ROOT
ATOM      1  C   UNL     1     -14.195 -15.742   4.192  1.00  0.00     0.000 C 
ENDROOT
BRANCH   1   2
ATOM      2  C   UNL     1     -13.451 -16.468   3.058  1.00  0.00     0.000 C 
BRANCH   2   3
ATOM      3  C   UNL     1     -13.549 -18.001   3.158  1.00  0.00     0.006 C 
BRANCH   3   4
ATOM      4  C   UNL     1     -12.202 -18.696   3.430  1.00  0.00     0.053 C 
BRANCH   4   5
ATOM      5  C   UNL     1     -11.831 -18.691   4.881  1.00  0.00     0.041 C 
ATOM      6  O   UNL     1     -10.654 -18.419   5.236  1.00  0.00    -0.550 OA
ATOM      7  O   UNL     1     -12.794 -18.958   5.846  1.00  0.00    -0.550 OA
ENDBRANCH   4   5
ENDBRANCH   3   4
ENDBRANCH   2   3
ENDBRANCH   1   2
BRANCH   1   8
ATOM      8  C   UNL     1     -14.122 -14.212   4.062  1.00  0.00     0.000 C 
BRANCH   8   9
ATOM      9  C   UNL     1     -14.081 -13.506   5.425  1.00  0.00     0.000 C 
BRANCH   9  10
ATOM     10  C   UNL     1     -13.090 -12.333   5.406  1.00  0.00     0.006 C 
BRANCH  10  11
ATOM     11  C   UNL     1     -12.754 -11.879   3.979  1.00  0.00     0.053 C 
BRANCH  11  12
ATOM     12  C   UNL     1     -13.472 -10.618   3.611  1.00  0.00     0.041 C 
ATOM     13  O   UNL     1     -13.721  -9.751   4.491  1.00  0.00    -0.550 OA
ATOM     14  O   UNL     1     -13.896 -10.413   2.304  1.00  0.00    -0.550 OA
ENDBRANCH  11  12
ENDBRANCH  10  11
ENDBRANCH   9  10
ENDBRANCH   8   9
ENDBRANCH   1   8
TORSDOF 9
ENDMDL
MODEL 6
REMARK VINA RESULT:    -3.205      1.727      6.055
REMARK INTER + INTRA:          -5.525
REMARK INTER:                  -4.882
REMARK INTRA:                  -0.643
REMARK UNBOUND:                -0.634
REMARK SMILES O=C([O-])CCCCCCCCC(=O)[O-]
REMARK SMILES IDX 7 1 6 2 5 3 4 4 2 5 1 6 3 7 8 8 9 9 10 10 11 11 12 12 13 13
REMARK SMILES IDX 14 14
REMARK H PARENT
REMARK Flexibility Score: inf
ROOT
ATOM      1  C   UNL     1     -14.443 -15.194   4.996  1.00  0.00     0.000 C 
ENDROOT
BRANCH   1   2
ATOM      2  C   UNL     1     -14.672 -13.703   5.297  1.00  0.00     0.000 C 
BRANCH   2   3
ATOM      3  C   UNL     1     -13.362 -12.921   5.500  1.00  0.00     0.006 C 
BRANCH   3   4
ATOM      4  C   UNL     1     -13.227 -11.683   4.594  1.00  0.00     0.053 C 
BRANCH   4   5
ATOM      5  C   UNL     1     -13.296 -12.023   3.137  1.00  0.00     0.041 C 
ATOM      6  O   UNL     1     -12.360 -12.660   2.587  1.00  0.00    -0.550 OA
ATOM      7  O   UNL     1     -14.411 -11.661   2.391  1.00  0.00    -0.550 OA
ENDBRANCH   4   5
ENDBRANCH   3   4
ENDBRANCH   2   3
ENDBRANCH   1   2
BRANCH   1   8
ATOM      8  C   UNL     1     -14.594 -15.526   3.503  1.00  0.00     0.000 C 
BRANCH   8   9
ATOM      9  C   UNL     1     -13.423 -16.360   2.963  1.00  0.00     0.000 C 
BRANCH   9  10
ATOM     10  C   UNL     1     -13.612 -17.848   3.291  1.00  0.00     0.006 C 
BRANCH  10  11
ATOM     11  C   UNL     1     -12.274 -18.581   3.461  1.00  0.00     0.053 C 
BRANCH  11  12
ATOM     12  C   UNL     1     -11.868 -18.672   4.900  1.00  0.00     0.041 C 
ATOM     13  O   UNL     1     -12.727 -18.921   5.786  1.00  0.00    -0.550 OA
ATOM     14  O   UNL     1     -10.546 -18.448   5.265  1.00  0.00    -0.550 OA
ENDBRANCH  11  12
ENDBRANCH  10  11
ENDBRANCH   9  10
ENDBRANCH   8   9
ENDBRANCH   1   8
TORSDOF 9
ENDMDL
MODEL 7
REMARK VINA RESULT:    -3.197      2.107      6.377
REMARK INTER + INTRA:          -5.513
REMARK INTER:                  -4.969
REMARK INTRA:                  -0.544
REMARK UNBOUND:                -0.634
REMARK SMILES O=C([O-])CCCCCCCCC(=O)[O-]
REMARK SMILES IDX 7 1 6 2 5 3 4 4 2 5 1 6 3 7 8 8 9 9 10 10 11 11 12 12 13 13
REMARK SMILES IDX 14 14
REMARK H PARENT
REMARK Flexibility Score: inf
ROOT
ATOM      1  C   UNL     1     -12.737 -14.523   1.366  1.00  0.00     0.000 C 
ENDROOT
BRANCH   1   2
ATOM      2  C   UNL     1     -12.212 -13.128   1.746  1.00  0.00     0.000 C 
BRANCH   2   3
ATOM      3  C   UNL     1     -13.196 -12.332   2.625  1.00  0.00     0.006 C 
BRANCH   3   4
ATOM      4  C   UNL     1     -12.587 -11.837   3.950  1.00  0.00     0.053 C 
BRANCH   4   5
ATOM      5  C   UNL     1     -13.257 -12.429   5.152  1.00  0.00     0.041 C 
ATOM      6  O   UNL     1     -12.591 -12.689   6.188  1.00  0.00    -0.550 OA
ATOM      7  O   UNL     1     -14.626 -12.665   5.139  1.00  0.00    -0.550 OA
ENDBRANCH   4   5
ENDBRANCH   3   4
ENDBRANCH   2   3
ENDBRANCH   1   2
BRANCH   1   8
ATOM      8  C   UNL     1     -13.789 -15.049   2.356  1.00  0.00     0.000 C 
BRANCH   8   9
ATOM      9  C   UNL     1     -13.525 -16.501   2.780  1.00  0.00     0.000 C 
BRANCH   9  10
ATOM     10  C   UNL     1     -13.499 -16.629   4.310  1.00  0.00     0.006 C 
BRANCH  10  11
ATOM     11  C   UNL     1     -13.719 -18.075   4.777  1.00  0.00     0.053 C 
BRANCH  11  12
ATOM     12  C   UNL     1     -12.468 -18.892   4.667  1.00  0.00     0.041 C 
ATOM     13  O   UNL     1     -11.357 -18.395   4.989  1.00  0.00    -0.550 OA
ATOM     14  O   UNL     1     -12.525 -20.191   4.178  1.00  0.00    -0.550 OA
ENDBRANCH  11  12
ENDBRANCH  10  11
ENDBRANCH   9  10
ENDBRANCH   8   9
ENDBRANCH   1   8
TORSDOF 9
ENDMDL
MODEL 8
REMARK VINA RESULT:    -3.125      1.249      1.813
REMARK INTER + INTRA:          -5.404
REMARK INTER:                  -4.938
REMARK INTRA:                  -0.466
REMARK UNBOUND:                -0.634
REMARK SMILES O=C([O-])CCCCCCCCC(=O)[O-]
REMARK SMILES IDX 7 1 6 2 5 3 4 4 2 5 1 6 3 7 8 8 9 9 10 10 11 11 12 12 13 13
REMARK SMILES IDX 14 14
REMARK H PARENT
REMARK Flexibility Score: inf
ROOT
ATOM      1  C   UNL     1     -14.182 -16.703   4.472  1.00  0.00     0.000 C 
ENDROOT
BRANCH   1   2
ATOM      2  C   UNL     1     -14.915 -17.282   5.694  1.00  0.00     0.000 C 
BRANCH   2   3
ATOM      3  C   UNL     1     -14.532 -18.743   5.992  1.00  0.00     0.006 C 
BRANCH   3   4
ATOM      4  C   UNL     1     -13.079 -19.094   5.623  1.00  0.00     0.053 C 
BRANCH   4   5
ATOM      5  C   UNL     1     -12.989 -20.137   4.551  1.00  0.00     0.041 C 
ATOM      6  O   UNL     1     -13.413 -21.304   4.762  1.00  0.00    -0.550 OA
ATOM      7  O   UNL     1     -12.465 -19.813   3.307  1.00  0.00    -0.550 OA
ENDBRANCH   4   5
ENDBRANCH   3   4
ENDBRANCH   2   3
ENDBRANCH   1   2
BRANCH   1   8
ATOM      8  C   UNL     1     -14.243 -15.169   4.418  1.00  0.00     0.000 C 
BRANCH   8   9
ATOM      9  C   UNL     1     -15.281 -14.585   5.388  1.00  0.00     0.000 C 
BRANCH   9  10
ATOM     10  C   UNL     1     -14.972 -13.114   5.702  1.00  0.00     0.006 C 
BRANCH  10  11
ATOM     11  C   UNL     1     -13.477 -12.792   5.573  1.00  0.00     0.053 C 
BRANCH  11  12
ATOM     12  C   UNL     1     -13.227 -11.690   4.591  1.00  0.00     0.041 C 
ATOM     13  O   UNL     1     -13.810 -10.581   4.721  1.00  0.00    -0.550 OA
ATOM     14  O   UNL     1     -12.374 -11.897   3.514  1.00  0.00    -0.550 OA
ENDBRANCH  11  12
ENDBRANCH  10  11
ENDBRANCH   9  10
ENDBRANCH   8   9
ENDBRANCH   1   8
TORSDOF 9
ENDMDL
MODEL 9
REMARK VINA RESULT:    -3.087      1.729      2.599
REMARK INTER + INTRA:          -5.345
REMARK INTER:                  -4.685
REMARK INTRA:                  -0.660
REMARK UNBOUND:                -0.634
REMARK SMILES O=C([O-])CCCCCCCCC(=O)[O-]
REMARK SMILES IDX 7 1 6 2 5 3 4 4 2 5 1 6 3 7 8 8 9 9 10 10 11 11 12 12 13 13
REMARK SMILES IDX 14 14
REMARK H PARENT
REMARK Flexibility Score: inf
ROOT
ATOM      1  C   UNL     1     -14.625 -18.878   5.610  1.00  0.00     0.000 C 
ENDROOT
BRANCH   1   2
ATOM      2  C   UNL     1     -13.176 -19.357   5.801  1.00  0.00     0.000 C 
BRANCH   2   3
ATOM      3  C   UNL     1     -12.172 -18.614   4.901  1.00  0.00     0.006 C 
BRANCH   3   4
ATOM      4  C   UNL     1     -12.671 -18.389   3.462  1.00  0.00     0.053 C 
BRANCH   4   5
ATOM      5  C   UNL     1     -12.313 -19.516   2.543  1.00  0.00     0.041 C 
ATOM      6  O   UNL     1     -13.064 -20.522   2.448  1.00  0.00    -0.550 OA
ATOM      7  O   UNL     1     -11.165 -19.442   1.766  1.00  0.00    -0.550 OA
ENDBRANCH   4   5
ENDBRANCH   3   4
ENDBRANCH   2   3
ENDBRANCH   1   2
BRANCH   1   8
ATOM      8  C   UNL     1     -15.134 -18.047   6.798  1.00  0.00     0.000 C 
BRANCH   8   9
ATOM      9  C   UNL     1     -15.819 -16.745   6.356  1.00  0.00     0.000 C 
BRANCH   9  10
ATOM     10  C   UNL     1     -14.984 -16.020   5.291  1.00  0.00     0.006 C 
BRANCH  10  11
ATOM     11  C   UNL     1     -15.374 -14.541   5.154  1.00  0.00     0.053 C 
BRANCH  11  12
ATOM     12  C   UNL     1     -14.194 -13.684   4.813  1.00  0.00     0.041 C 
ATOM     13  O   UNL     1     -13.836 -13.547   3.614  1.00  0.00    -0.550 OA
ATOM     14  O   UNL     1     -13.470 -13.062   5.823  1.00  0.00    -0.550 OA
ENDBRANCH  11  12
ENDBRANCH  10  11
ENDBRANCH   9  10
ENDBRANCH   8   9
ENDBRANCH   1   8
TORSDOF 9
ENDMDL
