MODEL 1
REMARK VINA RESULT:    -4.064      0.000      0.000
REMARK INTER + INTRA:          -4.320
REMARK INTER:                  -4.302
REMARK INTRA:                  -0.018
REMARK UNBOUND:                -0.018
REMARK SMILES O=C([O-])c1cccnc1
REMARK SMILES IDX 4 1 5 2 9 3 6 4 8 5 7 6 2 7 1 8 3 9
REMARK H PARENT
REMARK Flexibility Score: inf
ROOT
ATOM      1  C   UNL     1       6.096 -11.673  18.352  1.00  0.00     0.016 A 
ATOM      2  C   UNL     1       6.875 -10.651  17.785  1.00  0.00     0.013 A 
ATOM      3  C   UNL     1       6.191 -12.966  17.808  1.00  0.00     0.120 A 
ATOM      4  C   UNL     1       7.719 -10.927  16.708  1.00  0.00     0.021 A 
ATOM      5  N   UNL     1       7.021 -13.208  16.758  1.00  0.00    -0.264 NA
ATOM      6  C   UNL     1       7.779 -12.227  16.203  1.00  0.00     0.111 A 
ENDROOT
BRANCH   1   7
ATOM      7  C   UNL     1       5.198 -11.391  19.493  1.00  0.00     0.073 C 
ATOM      8  O   UNL     1       5.660 -10.940  20.575  1.00  0.00    -0.545 OA
ATOM      9  O   UNL     1       3.831 -11.618  19.386  1.00  0.00    -0.545 OA
ENDBRANCH   1   7
TORSDOF 1
ENDMDL
MODEL 2
REMARK VINA RESULT:    -4.044      2.583      3.537
REMARK INTER + INTRA:          -4.299
REMARK INTER:                  -4.275
REMARK INTRA:                  -0.024
REMARK UNBOUND:                -0.018
REMARK SMILES O=C([O-])c1cccnc1
REMARK SMILES IDX 4 1 5 2 9 3 6 4 8 5 7 6 2 7 1 8 3 9
REMARK H PARENT
REMARK Flexibility Score: inf
ROOT
ATOM      1  C   UNL     1       6.619 -11.877  17.694  1.00  0.00     0.016 A 
ATOM      2  C   UNL     1       6.191 -11.208  18.853  1.00  0.00     0.013 A 
ATOM      3  C   UNL     1       6.235 -13.218  17.516  1.00  0.00     0.120 A 
ATOM      4  C   UNL     1       5.405 -11.872  19.796  1.00  0.00     0.021 A 
ATOM      5  N   UNL     1       5.468 -13.842  18.451  1.00  0.00    -0.264 NA
ATOM      6  C   UNL     1       5.049 -13.203  19.575  1.00  0.00     0.111 A 
ENDROOT
BRANCH   1   7
ATOM      7  C   UNL     1       7.453 -11.184  16.688  1.00  0.00     0.073 C 
ATOM      8  O   UNL     1       7.742 -11.747  15.598  1.00  0.00    -0.545 OA
ATOM      9  O   UNL     1       7.928  -9.901  16.931  1.00  0.00    -0.545 OA
ENDBRANCH   1   7
TORSDOF 1
ENDMDL
MODEL 3
REMARK VINA RESULT:    -3.972     12.058     12.520
REMARK INTER + INTRA:          -4.222
REMARK INTER:                  -4.204
REMARK INTRA:                  -0.018
REMARK UNBOUND:                -0.018
REMARK SMILES O=C([O-])c1cccnc1
REMARK SMILES IDX 4 1 5 2 9 3 6 4 8 5 7 6 2 7 1 8 3 9
REMARK H PARENT
REMARK Flexibility Score: inf
ROOT
ATOM      1  C   UNL     1      14.136  -8.726   9.221  1.00  0.00     0.016 A 
ATOM      2  C   UNL     1      14.276 -10.099   9.484  1.00  0.00     0.013 A 
ATOM      3  C   UNL     1      13.550  -8.336   8.003  1.00  0.00     0.120 A 
ATOM      4  C   UNL     1      13.839 -11.040   8.550  1.00  0.00     0.021 A 
ATOM      5  N   UNL     1      13.133  -9.273   7.110  1.00  0.00    -0.264 NA
ATOM      6  C   UNL     1      13.264 -10.603   7.357  1.00  0.00     0.111 A 
ENDROOT
BRANCH   1   7
ATOM      7  C   UNL     1      14.596  -7.719  10.202  1.00  0.00     0.073 C 
ATOM      8  O   UNL     1      15.796  -7.701  10.586  1.00  0.00    -0.545 OA
ATOM      9  O   UNL     1      13.710  -6.779  10.713  1.00  0.00    -0.545 OA
ENDBRANCH   1   7
TORSDOF 1
ENDMDL
MODEL 4
REMARK VINA RESULT:    -3.957      2.812      3.747
REMARK INTER + INTRA:          -4.207
REMARK INTER:                  -4.183
REMARK INTRA:                  -0.024
REMARK UNBOUND:                -0.018
REMARK SMILES O=C([O-])c1cccnc1
REMARK SMILES IDX 4 1 5 2 9 3 6 4 8 5 7 6 2 7 1 8 3 9
REMARK H PARENT
REMARK Flexibility Score: inf
ROOT
ATOM      1  C   UNL     1       6.650 -12.030  17.642  1.00  0.00     0.016 A 
ATOM      2  C   UNL     1       6.183 -13.332  17.398  1.00  0.00     0.013 A 
ATOM      3  C   UNL     1       6.297 -11.410  18.854  1.00  0.00     0.120 A 
ATOM      4  C   UNL     1       5.389 -13.981  18.344  1.00  0.00     0.021 A 
ATOM      5  N   UNL     1       5.521 -12.064  19.759  1.00  0.00    -0.264 NA
ATOM      6  C   UNL     1       5.065 -13.324  19.532  1.00  0.00     0.111 A 
ENDROOT
BRANCH   1   7
ATOM      7  C   UNL     1       7.492 -11.332  16.647  1.00  0.00     0.073 C 
ATOM      8  O   UNL     1       7.904 -10.161  16.865  1.00  0.00    -0.545 OA
ATOM      9  O   UNL     1       7.841 -11.959  15.457  1.00  0.00    -0.545 OA
ENDBRANCH   1   7
TORSDOF 1
ENDMDL
MODEL 5
REMARK VINA RESULT:    -3.907     11.276     11.946
REMARK INTER + INTRA:          -4.153
REMARK INTER:                  -4.137
REMARK INTRA:                  -0.016
REMARK UNBOUND:                -0.018
REMARK SMILES O=C([O-])c1cccnc1
REMARK SMILES IDX 4 1 5 2 9 3 6 4 8 5 7 6 2 7 1 8 3 9
REMARK H PARENT
REMARK Flexibility Score: inf
ROOT
ATOM      1  C   UNL     1      13.963  -7.668  10.363  1.00  0.00     0.016 A 
ATOM      2  C   UNL     1      13.375  -8.856   9.901  1.00  0.00     0.013 A 
ATOM      3  C   UNL     1      15.367  -7.579  10.378  1.00  0.00     0.120 A 
ATOM      4  C   UNL     1      14.177  -9.914   9.469  1.00  0.00     0.021 A 
ATOM      5  N   UNL     1      16.125  -8.625   9.952  1.00  0.00    -0.264 NA
ATOM      6  C   UNL     1      15.565  -9.778   9.502  1.00  0.00     0.111 A 
ENDROOT
BRANCH   1   7
ATOM      7  C   UNL     1      13.124  -6.541  10.823  1.00  0.00     0.073 C 
ATOM      8  O   UNL     1      12.737  -5.657  10.012  1.00  0.00    -0.545 OA
ATOM      9  O   UNL     1      12.748  -6.442  12.158  1.00  0.00    -0.545 OA
ENDBRANCH   1   7
TORSDOF 1
ENDMDL
MODEL 6
REMARK VINA RESULT:    -3.868      1.747      2.181
REMARK INTER + INTRA:          -4.113
REMARK INTER:                  -4.092
REMARK INTRA:                  -0.021
REMARK UNBOUND:                -0.018
REMARK SMILES O=C([O-])c1cccnc1
REMARK SMILES IDX 4 1 5 2 9 3 6 4 8 5 7 6 2 7 1 8 3 9
REMARK H PARENT
REMARK Flexibility Score: inf
ROOT
ATOM      1  C   UNL     1       6.290 -12.718  17.844  1.00  0.00     0.016 A 
ATOM      2  C   UNL     1       6.237 -11.420  18.377  1.00  0.00     0.013 A 
ATOM      3  C   UNL     1       7.114 -12.949  16.728  1.00  0.00     0.120 A 
ATOM      4  C   UNL     1       6.989 -10.394  17.802  1.00  0.00     0.021 A 
ATOM      5  N   UNL     1       7.836 -11.932  16.186  1.00  0.00    -0.264 NA
ATOM      6  C   UNL     1       7.792 -10.673  16.695  1.00  0.00     0.111 A 
ENDROOT
BRANCH   1   7
ATOM      7  C   UNL     1       5.497 -13.812  18.445  1.00  0.00     0.073 C 
ATOM      8  O   UNL     1       5.351 -13.886  19.694  1.00  0.00    -0.545 OA
ATOM      9  O   UNL     1       4.900 -14.774  17.638  1.00  0.00    -0.545 OA
ENDBRANCH   1   7
TORSDOF 1
ENDMDL
MODEL 7
REMARK VINA RESULT:    -3.864      2.609      3.665
REMARK INTER + INTRA:          -4.108
REMARK INTER:                  -4.089
REMARK INTRA:                  -0.019
REMARK UNBOUND:                -0.018
REMARK SMILES O=C([O-])c1cccnc1
REMARK SMILES IDX 4 1 5 2 9 3 6 4 8 5 7 6 2 7 1 8 3 9
REMARK H PARENT
REMARK Flexibility Score: inf
ROOT
ATOM      1  C   UNL     1       6.147 -11.556  18.066  1.00  0.00     0.016 A 
ATOM      2  C   UNL     1       6.012 -11.024  19.358  1.00  0.00     0.013 A 
ATOM      3  C   UNL     1       5.039 -12.205  17.492  1.00  0.00     0.120 A 
ATOM      4  C   UNL     1       4.802 -11.143  20.044  1.00  0.00     0.021 A 
ATOM      5  N   UNL     1       3.871 -12.308  18.182  1.00  0.00    -0.264 NA
ATOM      6  C   UNL     1       3.731 -11.795  19.432  1.00  0.00     0.111 A 
ENDROOT
BRANCH   1   7
ATOM      7  C   UNL     1       7.424 -11.436  17.330  1.00  0.00     0.073 C 
ATOM      8  O   UNL     1       7.958 -12.450  16.805  1.00  0.00    -0.545 OA
ATOM      9  O   UNL     1       8.052 -10.203  17.206  1.00  0.00    -0.545 OA
ENDBRANCH   1   7
TORSDOF 1
ENDMDL
MODEL 8
REMARK VINA RESULT:    -3.727      1.605      1.912
REMARK INTER + INTRA:          -3.963
REMARK INTER:                  -3.940
REMARK INTRA:                  -0.023
REMARK UNBOUND:                -0.018
REMARK SMILES O=C([O-])c1cccnc1
REMARK SMILES IDX 4 1 5 2 9 3 6 4 8 5 7 6 2 7 1 8 3 9
REMARK H PARENT
REMARK Flexibility Score: inf
ROOT
ATOM      1  C   UNL     1       5.671 -11.629  19.666  1.00  0.00     0.016 A 
ATOM      2  C   UNL     1       6.356 -11.054  18.582  1.00  0.00     0.013 A 
ATOM      3  C   UNL     1       5.312 -12.986  19.585  1.00  0.00     0.120 A 
ATOM      4  C   UNL     1       6.666 -11.824  17.460  1.00  0.00     0.021 A 
ATOM      5  N   UNL     1       5.626 -13.714  18.480  1.00  0.00    -0.264 NA
ATOM      6  C   UNL     1       6.289 -13.168  17.427  1.00  0.00     0.111 A 
ENDROOT
BRANCH   1   7
ATOM      7  C   UNL     1       5.336 -10.822  20.859  1.00  0.00     0.073 C 
ATOM      8  O   UNL     1       5.037 -11.383  21.947  1.00  0.00    -0.545 OA
ATOM      9  O   UNL     1       5.348  -9.434  20.797  1.00  0.00    -0.545 OA
ENDBRANCH   1   7
TORSDOF 1
ENDMDL
MODEL 9
REMARK VINA RESULT:    -3.683      2.624      4.067
REMARK INTER + INTRA:          -3.916
REMARK INTER:                  -3.900
REMARK INTRA:                  -0.016
REMARK UNBOUND:                -0.018
REMARK SMILES O=C([O-])c1cccnc1
REMARK SMILES IDX 4 1 5 2 9 3 6 4 8 5 7 6 2 7 1 8 3 9
REMARK H PARENT
REMARK Flexibility Score: inf
ROOT
ATOM      1  C   UNL     1       5.611 -11.857  19.466  1.00  0.00     0.016 A 
ATOM      2  C   UNL     1       5.533 -10.700  20.258  1.00  0.00     0.013 A 
ATOM      3  C   UNL     1       5.125 -13.064  19.998  1.00  0.00     0.120 A 
ATOM      4  C   UNL     1       4.984 -10.762  21.540  1.00  0.00     0.021 A 
ATOM      5  N   UNL     1       4.595 -13.098  21.250  1.00  0.00    -0.264 NA
ATOM      6  C   UNL     1       4.514 -11.984  22.024  1.00  0.00     0.111 A 
ENDROOT
BRANCH   1   7
ATOM      7  C   UNL     1       6.192 -11.802  18.107  1.00  0.00     0.073 C 
ATOM      8  O   UNL     1       5.445 -11.717  17.095  1.00  0.00    -0.545 OA
ATOM      9  O   UNL     1       7.569 -11.843  17.928  1.00  0.00    -0.545 OA
ENDBRANCH   1   7
TORSDOF 1
ENDMDL
