MODEL 1
REMARK VINA RESULT:    -3.026      0.000      0.000
REMARK INTER + INTRA:          -3.680
REMARK INTER:                  -3.557
REMARK INTRA:                  -0.124
REMARK UNBOUND:                -0.124
REMARK SMILES O=C([O-])CCC(=O)[O-]
REMARK SMILES IDX 4 1 2 2 1 3 3 4 5 5 6 6 7 7 8 8
REMARK H PARENT
REMARK Flexibility Score: inf
ROOT
ATOM      1  C   UNL     1      18.340 -41.295  24.494  1.00  0.00     0.059 C 
ENDROOT
BRANCH   1   2
ATOM      2  C   UNL     1      18.497 -39.985  25.202  1.00  0.00     0.042 C 
ATOM      3  O   UNL     1      18.521 -39.942  26.460  1.00  0.00    -0.550 OA
ATOM      4  O   UNL     1      18.656 -38.814  24.470  1.00  0.00    -0.550 OA
ENDBRANCH   1   2
BRANCH   1   5
ATOM      5  C   UNL     1      18.925 -42.451  25.311  1.00  0.00     0.059 C 
BRANCH   5   6
ATOM      6  C   UNL     1      17.860 -43.406  25.758  1.00  0.00     0.042 C 
ATOM      7  O   UNL     1      16.933 -43.013  26.514  1.00  0.00    -0.550 OA
ATOM      8  O   UNL     1      17.917 -44.741  25.375  1.00  0.00    -0.550 OA
ENDBRANCH   5   6
ENDBRANCH   1   5
TORSDOF 3
ENDMDL
MODEL 2
REMARK VINA RESULT:    -3.018      0.046      3.984
REMARK INTER + INTRA:          -3.671
REMARK INTER:                  -3.548
REMARK INTRA:                  -0.123
REMARK UNBOUND:                -0.124
REMARK SMILES O=C([O-])CCC(=O)[O-]
REMARK SMILES IDX 4 1 2 2 1 3 3 4 5 5 6 6 7 7 8 8
REMARK H PARENT
REMARK Flexibility Score: inf
ROOT
ATOM      1  C   UNL     1      18.915 -42.450  25.288  1.00  0.00     0.059 C 
ENDROOT
BRANCH   1   2
ATOM      2  C   UNL     1      17.867 -43.410  25.762  1.00  0.00     0.042 C 
ATOM      3  O   UNL     1      16.914 -43.006  26.480  1.00  0.00    -0.550 OA
ATOM      4  O   UNL     1      17.922 -44.744  25.376  1.00  0.00    -0.550 OA
ENDBRANCH   1   2
BRANCH   1   5
ATOM      5  C   UNL     1      18.298 -41.269  24.532  1.00  0.00     0.059 C 
BRANCH   5   6
ATOM      6  C   UNL     1      18.537 -39.972  25.242  1.00  0.00     0.042 C 
ATOM      7  O   UNL     1      18.576 -39.936  26.500  1.00  0.00    -0.550 OA
ATOM      8  O   UNL     1      18.676 -38.796  24.515  1.00  0.00    -0.550 OA
ENDBRANCH   5   6
ENDBRANCH   1   5
TORSDOF 3
ENDMDL
MODEL 3
REMARK VINA RESULT:    -2.894      6.148      7.689
REMARK INTER + INTRA:          -3.525
REMARK INTER:                  -3.414
REMARK INTRA:                  -0.111
REMARK UNBOUND:                -0.124
REMARK SMILES O=C([O-])CCC(=O)[O-]
REMARK SMILES IDX 4 1 2 2 1 3 3 4 5 5 6 6 7 7 8 8
REMARK H PARENT
REMARK Flexibility Score: inf
ROOT
ATOM      1  C   UNL     1      16.047 -44.314  30.401  1.00  0.00     0.059 C 
ENDROOT
BRANCH   1   2
ATOM      2  C   UNL     1      17.328 -45.080  30.270  1.00  0.00     0.042 C 
ATOM      3  O   UNL     1      17.576 -45.726  29.218  1.00  0.00    -0.550 OA
ATOM      4  O   UNL     1      18.264 -45.049  31.296  1.00  0.00    -0.550 OA
ENDBRANCH   1   2
BRANCH   1   5
ATOM      5  C   UNL     1      14.960 -45.146  31.089  1.00  0.00     0.059 C 
BRANCH   5   6
ATOM      6  C   UNL     1      15.058 -45.059  32.581  1.00  0.00     0.042 C 
ATOM      7  O   UNL     1      15.350 -46.080  33.257  1.00  0.00    -0.550 OA
ATOM      8  O   UNL     1      14.787 -43.859  33.228  1.00  0.00    -0.550 OA
ENDBRANCH   5   6
ENDBRANCH   1   5
TORSDOF 3
ENDMDL
MODEL 4
REMARK VINA RESULT:    -2.888      6.165      7.757
REMARK INTER + INTRA:          -3.518
REMARK INTER:                  -3.402
REMARK INTRA:                  -0.116
REMARK UNBOUND:                -0.124
REMARK SMILES O=C([O-])CCC(=O)[O-]
REMARK SMILES IDX 4 1 2 2 1 3 3 4 5 5 6 6 7 7 8 8
REMARK H PARENT
REMARK Flexibility Score: inf
ROOT
ATOM      1  C   UNL     1      15.023 -45.132  31.171  1.00  0.00     0.059 C 
ENDROOT
BRANCH   1   2
ATOM      2  C   UNL     1      15.127 -45.086  32.664  1.00  0.00     0.042 C 
ATOM      3  O   UNL     1      15.264 -46.150  33.324  1.00  0.00    -0.550 OA
ATOM      4  O   UNL     1      15.112 -43.864  33.324  1.00  0.00    -0.550 OA
ENDBRANCH   1   2
BRANCH   1   5
ATOM      5  C   UNL     1      16.086 -44.254  30.504  1.00  0.00     0.059 C 
BRANCH   5   6
ATOM      6  C   UNL     1      17.385 -44.985  30.343  1.00  0.00     0.042 C 
ATOM      7  O   UNL     1      18.290 -44.867  31.210  1.00  0.00    -0.550 OA
ATOM      8  O   UNL     1      17.610 -45.762  29.213  1.00  0.00    -0.550 OA
ENDBRANCH   5   6
ENDBRANCH   1   5
TORSDOF 3
ENDMDL
MODEL 5
REMARK VINA RESULT:    -2.860      2.403      4.810
REMARK INTER + INTRA:          -3.485
REMARK INTER:                  -3.386
REMARK INTRA:                  -0.099
REMARK UNBOUND:                -0.124
REMARK SMILES O=C([O-])CCC(=O)[O-]
REMARK SMILES IDX 4 1 2 2 1 3 3 4 5 5 6 6 7 7 8 8
REMARK H PARENT
REMARK Flexibility Score: inf
ROOT
ATOM      1  C   UNL     1      17.378 -45.075  26.608  1.00  0.00     0.059 C 
ENDROOT
BRANCH   1   2
ATOM      2  C   UNL     1      16.845 -45.189  28.004  1.00  0.00     0.042 C 
ATOM      3  O   UNL     1      15.613 -45.053  28.226  1.00  0.00    -0.550 OA
ATOM      4  O   UNL     1      17.706 -45.483  29.054  1.00  0.00    -0.550 OA
ENDBRANCH   1   2
BRANCH   1   5
ATOM      5  C   UNL     1      17.092 -43.696  26.006  1.00  0.00     0.059 C 
BRANCH   5   6
ATOM      6  C   UNL     1      18.271 -42.780  26.138  1.00  0.00     0.042 C 
ATOM      7  O   UNL     1      19.069 -42.633  25.175  1.00  0.00    -0.550 OA
ATOM      8  O   UNL     1      18.510 -42.122  27.338  1.00  0.00    -0.550 OA
ENDBRANCH   5   6
ENDBRANCH   1   5
TORSDOF 3
ENDMDL
MODEL 6
REMARK VINA RESULT:    -2.822      2.447      3.428
REMARK INTER + INTRA:          -3.441
REMARK INTER:                  -3.318
REMARK INTRA:                  -0.123
REMARK UNBOUND:                -0.124
REMARK SMILES O=C([O-])CCC(=O)[O-]
REMARK SMILES IDX 4 1 2 2 1 3 3 4 5 5 6 6 7 7 8 8
REMARK H PARENT
REMARK Flexibility Score: inf
ROOT
ATOM      1  C   UNL     1      17.009 -43.695  26.131  1.00  0.00     0.059 C 
ENDROOT
BRANCH   1   2
ATOM      2  C   UNL     1      18.213 -42.807  26.203  1.00  0.00     0.042 C 
ATOM      3  O   UNL     1      18.953 -42.657  25.195  1.00  0.00    -0.550 OA
ATOM      4  O   UNL     1      18.496 -42.115  27.374  1.00  0.00    -0.550 OA
ENDBRANCH   1   2
BRANCH   1   5
ATOM      5  C   UNL     1      17.311 -45.099  26.664  1.00  0.00     0.059 C 
BRANCH   5   6
ATOM      6  C   UNL     1      16.891 -45.250  28.094  1.00  0.00     0.042 C 
ATOM      7  O   UNL     1      15.676 -45.416  28.383  1.00  0.00    -0.550 OA
ATOM      8  O   UNL     1      17.835 -45.165  29.110  1.00  0.00    -0.550 OA
ENDBRANCH   5   6
ENDBRANCH   1   5
TORSDOF 3
ENDMDL
MODEL 7
REMARK VINA RESULT:    -2.802      3.407      5.468
REMARK INTER + INTRA:          -3.417
REMARK INTER:                  -3.326
REMARK INTRA:                  -0.091
REMARK UNBOUND:                -0.124
REMARK SMILES O=C([O-])CCC(=O)[O-]
REMARK SMILES IDX 4 1 2 2 1 3 3 4 5 5 6 6 7 7 8 8
REMARK H PARENT
REMARK Flexibility Score: inf
ROOT
ATOM      1  C   UNL     1      16.017 -45.158  28.598  1.00  0.00     0.059 C 
ENDROOT
BRANCH   1   2
ATOM      2  C   UNL     1      16.523 -45.115  30.008  1.00  0.00     0.042 C 
ATOM      3  O   UNL     1      15.713 -45.083  30.971  1.00  0.00    -0.550 OA
ATOM      4  O   UNL     1      17.889 -45.150  30.257  1.00  0.00    -0.550 OA
ENDBRANCH   1   2
BRANCH   1   5
ATOM      5  C   UNL     1      17.138 -45.487  27.607  1.00  0.00     0.059 C 
BRANCH   5   6
ATOM      6  C   UNL     1      17.325 -44.393  26.600  1.00  0.00     0.042 C 
ATOM      7  O   UNL     1      16.932 -43.224  26.855  1.00  0.00    -0.550 OA
ATOM      8  O   UNL     1      17.893 -44.675  25.364  1.00  0.00    -0.550 OA
ENDBRANCH   5   6
ENDBRANCH   1   5
TORSDOF 3
ENDMDL
MODEL 8
REMARK VINA RESULT:    -2.781      5.999      7.551
REMARK INTER + INTRA:          -3.392
REMARK INTER:                  -3.277
REMARK INTRA:                  -0.115
REMARK UNBOUND:                -0.124
REMARK SMILES O=C([O-])CCC(=O)[O-]
REMARK SMILES IDX 4 1 2 2 1 3 3 4 5 5 6 6 7 7 8 8
REMARK H PARENT
REMARK Flexibility Score: inf
ROOT
ATOM      1  C   UNL     1      17.072 -44.510  32.048  1.00  0.00     0.059 C 
ENDROOT
BRANCH   1   2
ATOM      2  C   UNL     1      15.814 -44.662  32.847  1.00  0.00     0.042 C 
ATOM      3  O   UNL     1      15.216 -43.646  33.288  1.00  0.00    -0.550 OA
ATOM      4  O   UNL     1      15.281 -45.926  33.070  1.00  0.00    -0.550 OA
ENDBRANCH   1   2
BRANCH   1   5
ATOM      5  C   UNL     1      16.784 -43.991  30.636  1.00  0.00     0.059 C 
BRANCH   5   6
ATOM      6  C   UNL     1      16.586 -45.115  29.664  1.00  0.00     0.042 C 
ATOM      7  O   UNL     1      17.581 -45.727  29.192  1.00  0.00    -0.550 OA
ATOM      8  O   UNL     1      15.306 -45.457  29.247  1.00  0.00    -0.550 OA
ENDBRANCH   5   6
ENDBRANCH   1   5
TORSDOF 3
ENDMDL
MODEL 9
REMARK VINA RESULT:    -2.755      3.464      5.104
REMARK INTER + INTRA:          -3.361
REMARK INTER:                  -3.272
REMARK INTRA:                  -0.090
REMARK UNBOUND:                -0.124
REMARK SMILES O=C([O-])CCC(=O)[O-]
REMARK SMILES IDX 4 1 2 2 1 3 3 4 5 5 6 6 7 7 8 8
REMARK H PARENT
REMARK Flexibility Score: inf
ROOT
ATOM      1  C   UNL     1      17.131 -45.505  27.636  1.00  0.00     0.059 C 
ENDROOT
BRANCH   1   2
ATOM      2  C   UNL     1      17.173 -44.460  26.564  1.00  0.00     0.042 C 
ATOM      3  O   UNL     1      16.588 -43.358  26.728  1.00  0.00    -0.550 OA
ATOM      4  O   UNL     1      17.893 -44.691  25.398  1.00  0.00    -0.550 OA
ENDBRANCH   1   2
BRANCH   1   5
ATOM      5  C   UNL     1      16.145 -45.133  28.748  1.00  0.00     0.059 C 
BRANCH   5   6
ATOM      6  C   UNL     1      16.843 -44.906  30.053  1.00  0.00     0.042 C 
ATOM      7  O   UNL     1      18.086 -45.086  30.146  1.00  0.00    -0.550 OA
ATOM      8  O   UNL     1      16.115 -44.538  31.178  1.00  0.00    -0.550 OA
ENDBRANCH   5   6
ENDBRANCH   1   5
TORSDOF 3
ENDMDL
