MODEL 1
REMARK VINA RESULT:    -5.838      0.000      0.000
REMARK INTER + INTRA:          -7.337
REMARK INTER:                  -6.862
REMARK INTRA:                  -0.475
REMARK UNBOUND:                -0.475
REMARK SMILES C=C(C)[C@@H]1CC[C@@]2(C(=O)[O-])CC[C@@]3(C)[C@H](CC[C@H]4[C@]5(C)C[C@H](O)[C@@H](O)C(C)(C)[C@@H]5CC[C@]43C)[C@@H]12
REMARK SMILES IDX 7 1 6 2 34 3 11 4 5 5 15 6 4 7 12 8 16 9 13 10 17 11 32 12
REMARK SMILES IDX 14 13 18 14 31 15 33 16 19 17 30 18 29 19 21 20 20 21 26 22
REMARK SMILES IDX 22 23 24 24 27 25 28 26 8 27 9 28 10 29 2 30 3 31 1 32 23 33
REMARK SMILES IDX 25 35
REMARK H PARENT 23 34 25 36
REMARK Flexibility Score: inf
ROOT
ATOM      1  C   UNL     1      -6.439  64.306   5.100  1.00  0.00     0.014 C 
ATOM      2  C   UNL     1      -7.007  65.105   3.890  1.00  0.00     0.014 C 
ATOM      3  C   UNL     1      -7.255  64.800   6.335  1.00  0.00     0.012 C 
ATOM      4  C   UNL     1      -4.919  64.589   5.249  1.00  0.00     0.014 C 
ATOM      5  C   UNL     1      -8.314  65.721   4.357  1.00  0.00     0.009 C 
ATOM      6  C   UNL     1      -6.435  65.058   7.657  1.00  0.00     0.000 C 
ATOM      7  C   UNL     1      -8.078  66.003   5.831  1.00  0.00     0.018 C 
ATOM      8  C   UNL     1      -4.631  65.895   6.005  1.00  0.00     0.008 C 
ATOM      9  C   UNL     1      -6.249  63.735   8.382  1.00  0.00     0.005 C 
ATOM     10  C   UNL     1      -5.076  65.874   7.512  1.00  0.00    -0.024 C 
ATOM     11  C   UNL     1      -5.612  63.908   9.755  1.00  0.00     0.005 C 
ATOM     12  C   UNL     1      -3.854  65.380   8.500  1.00  0.00    -0.024 C 
ATOM     13  C   UNL     1      -5.452  67.356   7.892  1.00  0.00     0.012 C 
ATOM     14  C   UNL     1      -4.427  64.938   9.914  1.00  0.00     0.002 C 
ATOM     15  C   UNL     1      -3.028  64.165   7.976  1.00  0.00     0.008 C 
ATOM     16  C   UNL     1      -2.848  66.586   8.606  1.00  0.00     0.012 C 
ATOM     17  C   UNL     1      -3.378  64.385  11.009  1.00  0.00    -0.023 C 
ATOM     18  C   UNL     1      -1.962  63.640   8.959  1.00  0.00     0.005 C 
ATOM     19  C   UNL     1      -2.486  63.238  10.374  1.00  0.00     0.004 C 
ATOM     20  C   UNL     1      -2.462  65.509  11.596  1.00  0.00     0.042 C 
ATOM     21  C   UNL     1      -4.231  63.859  12.224  1.00  0.00     0.012 C 
ATOM     22  C   UNL     1      -1.298  62.730  11.313  1.00  0.00    -0.003 C 
ATOM     23  C   UNL     1      -1.348  65.014  12.547  1.00  0.00     0.144 C 
ATOM     24  C   UNL     1      -0.475  63.936  11.873  1.00  0.00     0.149 C 
ATOM     25  C   UNL     1      -0.319  61.814  10.520  1.00  0.00     0.014 C 
ATOM     26  C   UNL     1      -1.835  61.836  12.469  1.00  0.00     0.014 C 
ENDROOT
BRANCH   1  27
ATOM     27  C   UNL     1      -6.691  62.815   4.877  1.00  0.00     0.048 C 
ATOM     28  O   UNL     1      -5.902  61.962   5.368  1.00  0.00    -0.550 OA
ATOM     29  O   UNL     1      -7.731  62.368   4.068  1.00  0.00    -0.550 OA
ENDBRANCH   1  27
BRANCH   7  30
ATOM     30  C   UNL     1      -9.369  66.243   6.607  1.00  0.00    -0.077 C 
ATOM     31  C   UNL     1      -9.366  66.530   8.089  1.00  0.00     0.039 C 
ATOM     32  C   UNL     1     -10.550  66.209   5.970  1.00  0.00     0.008 C 
ENDBRANCH   7  30
BRANCH  23  33
ATOM     33  O   UNL     1      -0.530  66.103  12.891  1.00  0.00    -0.390 OA
ATOM     34  H   UNL     1       0.050  65.806  13.640  1.00  0.00     0.211 HD
ENDBRANCH  23  33
BRANCH  24  35
ATOM     35  O   UNL     1       0.484  63.468  12.791  1.00  0.00    -0.390 OA
ATOM     36  H   UNL     1       0.453  64.070  13.581  1.00  0.00     0.211 HD
ENDBRANCH  24  35
TORSDOF 4
ENDMDL
MODEL 2
REMARK VINA RESULT:    -5.679      2.389      8.238
REMARK INTER + INTRA:          -7.150
REMARK INTER:                  -6.433
REMARK INTRA:                  -0.717
REMARK UNBOUND:                -0.475
REMARK SMILES C=C(C)[C@@H]1CC[C@@]2(C(=O)[O-])CC[C@@]3(C)[C@H](CC[C@H]4[C@]5(C)C[C@H](O)[C@@H](O)C(C)(C)[C@@H]5CC[C@]43C)[C@@H]12
REMARK SMILES IDX 7 1 6 2 34 3 11 4 5 5 15 6 4 7 12 8 16 9 13 10 17 11 32 12
REMARK SMILES IDX 14 13 18 14 31 15 33 16 19 17 30 18 29 19 21 20 20 21 26 22
REMARK SMILES IDX 22 23 24 24 27 25 28 26 8 27 9 28 10 29 2 30 3 31 1 32 23 33
REMARK SMILES IDX 25 35
REMARK H PARENT 23 34 25 36
REMARK Flexibility Score: inf
ROOT
ATOM      1  C   UNL     1      -4.663  64.478  11.224  1.00  0.00     0.014 C 
ATOM      2  C   UNL     1      -3.575  64.942  12.237  1.00  0.00     0.014 C 
ATOM      3  C   UNL     1      -3.880  63.745  10.091  1.00  0.00     0.012 C 
ATOM      4  C   UNL     1      -5.447  65.709  10.694  1.00  0.00     0.014 C 
ATOM      5  C   UNL     1      -2.309  64.182  11.886  1.00  0.00     0.009 C 
ATOM      6  C   UNL     1      -4.342  64.045   8.613  1.00  0.00     0.000 C 
ATOM      7  C   UNL     1      -2.389  64.016  10.378  1.00  0.00     0.018 C 
ATOM      8  C   UNL     1      -4.718  66.427   9.547  1.00  0.00     0.008 C 
ATOM      9  C   UNL     1      -5.532  63.160   8.284  1.00  0.00     0.005 C 
ATOM     10  C   UNL     1      -4.589  65.572   8.234  1.00  0.00    -0.024 C 
ATOM     11  C   UNL     1      -5.944  63.260   6.821  1.00  0.00     0.005 C 
ATOM     12  C   UNL     1      -5.848  65.843   7.208  1.00  0.00    -0.024 C 
ATOM     13  C   UNL     1      -3.261  66.032   7.523  1.00  0.00     0.012 C 
ATOM     14  C   UNL     1      -5.948  64.679   6.131  1.00  0.00     0.002 C 
ATOM     15  C   UNL     1      -7.251  65.918   7.884  1.00  0.00     0.008 C 
ATOM     16  C   UNL     1      -5.597  67.252   6.552  1.00  0.00     0.012 C 
ATOM     17  C   UNL     1      -7.149  64.751   5.056  1.00  0.00    -0.023 C 
ATOM     18  C   UNL     1      -8.432  66.059   6.902  1.00  0.00     0.005 C 
ATOM     19  C   UNL     1      -8.533  64.954   5.803  1.00  0.00     0.004 C 
ATOM     20  C   UNL     1      -6.947  65.882   3.993  1.00  0.00     0.042 C 
ATOM     21  C   UNL     1      -7.112  63.401   4.246  1.00  0.00     0.012 C 
ATOM     22  C   UNL     1      -9.776  65.208   4.833  1.00  0.00    -0.003 C 
ATOM     23  C   UNL     1      -8.133  66.085   3.023  1.00  0.00     0.144 C 
ATOM     24  C   UNL     1      -9.449  66.327   3.790  1.00  0.00     0.149 C 
ATOM     25  C   UNL     1     -11.026  65.663   5.643  1.00  0.00     0.014 C 
ATOM     26  C   UNL     1     -10.215  63.894   4.122  1.00  0.00     0.014 C 
ENDROOT
BRANCH   1  27
ATOM     27  C   UNL     1      -5.607  63.496  11.918  1.00  0.00     0.048 C 
ATOM     28  O   UNL     1      -5.445  62.254  11.770  1.00  0.00    -0.550 OA
ATOM     29  O   UNL     1      -6.705  63.939  12.648  1.00  0.00    -0.550 OA
ENDBRANCH   1  27
BRANCH   7  30
ATOM     30  C   UNL     1      -1.447  62.942   9.844  1.00  0.00    -0.077 C 
ATOM     31  C   UNL     1      -0.575  63.176   8.634  1.00  0.00     0.039 C 
ATOM     32  C   UNL     1      -1.372  61.751  10.459  1.00  0.00     0.008 C 
ENDBRANCH   7  30
BRANCH  23  33
ATOM     33  O   UNL     1      -7.872  67.207   2.217  1.00  0.00    -0.390 OA
ATOM     34  H   UNL     1      -8.642  67.823   2.319  1.00  0.00     0.211 HD
ENDBRANCH  23  33
BRANCH  24  35
ATOM     35  O   UNL     1     -10.512  66.444   2.874  1.00  0.00    -0.390 OA
ATOM     36  H   UNL     1     -11.161  65.723   3.082  1.00  0.00     0.211 HD
ENDBRANCH  24  35
TORSDOF 4
ENDMDL
MODEL 3
REMARK VINA RESULT:    -5.259      9.929     14.315
REMARK INTER + INTRA:          -6.656
REMARK INTER:                  -6.340
REMARK INTRA:                  -0.316
REMARK UNBOUND:                -0.475
REMARK SMILES C=C(C)[C@@H]1CC[C@@]2(C(=O)[O-])CC[C@@]3(C)[C@H](CC[C@H]4[C@]5(C)C[C@H](O)[C@@H](O)C(C)(C)[C@@H]5CC[C@]43C)[C@@H]12
REMARK SMILES IDX 7 1 6 2 34 3 11 4 5 5 15 6 4 7 12 8 16 9 13 10 17 11 32 12
REMARK SMILES IDX 14 13 18 14 31 15 33 16 19 17 30 18 29 19 21 20 20 21 26 22
REMARK SMILES IDX 22 23 24 24 27 25 28 26 8 27 9 28 10 29 2 30 3 31 1 32 23 33
REMARK SMILES IDX 25 35
REMARK H PARENT 23 34 25 36
REMARK Flexibility Score: inf
ROOT
ATOM      1  C   UNL     1       4.742  51.409   8.458  1.00  0.00     0.014 C 
ATOM      2  C   UNL     1       6.286  51.399   8.253  1.00  0.00     0.014 C 
ATOM      3  C   UNL     1       4.191  52.383   7.371  1.00  0.00     0.012 C 
ATOM      4  C   UNL     1       4.407  51.885   9.897  1.00  0.00     0.014 C 
ATOM      5  C   UNL     1       6.542  52.027   6.894  1.00  0.00     0.009 C 
ATOM      6  C   UNL     1       3.053  53.373   7.830  1.00  0.00     0.000 C 
ATOM      7  C   UNL     1       5.433  53.055   6.752  1.00  0.00     0.018 C 
ATOM      8  C   UNL     1       4.410  53.416  10.031  1.00  0.00     0.008 C 
ATOM      9  C   UNL     1       1.720  52.646   7.772  1.00  0.00     0.005 C 
ATOM     10  C   UNL     1       3.277  54.133   9.211  1.00  0.00    -0.024 C 
ATOM     11  C   UNL     1       0.540  53.572   8.039  1.00  0.00     0.005 C 
ATOM     12  C   UNL     1       1.920  54.355  10.116  1.00  0.00    -0.024 C 
ATOM     13  C   UNL     1       3.839  55.548   8.806  1.00  0.00     0.012 C 
ATOM     14  C   UNL     1       0.671  54.652   9.182  1.00  0.00     0.002 C 
ATOM     15  C   UNL     1       1.509  53.139  11.002  1.00  0.00     0.008 C 
ATOM     16  C   UNL     1       2.229  55.539  11.107  1.00  0.00     0.012 C 
ATOM     17  C   UNL     1      -0.764  54.861   9.890  1.00  0.00    -0.023 C 
ATOM     18  C   UNL     1       0.175  53.315  11.759  1.00  0.00     0.005 C 
ATOM     19  C   UNL     1      -1.065  53.653  10.872  1.00  0.00     0.004 C 
ATOM     20  C   UNL     1      -0.869  56.216  10.666  1.00  0.00     0.042 C 
ATOM     21  C   UNL     1      -1.829  54.956   8.733  1.00  0.00     0.012 C 
ATOM     22  C   UNL     1      -2.382  53.833  11.757  1.00  0.00    -0.003 C 
ATOM     23  C   UNL     1      -2.171  56.406  11.477  1.00  0.00     0.144 C 
ATOM     24  C   UNL     1      -2.399  55.233  12.452  1.00  0.00     0.149 C 
ATOM     25  C   UNL     1      -2.453  52.748  12.871  1.00  0.00     0.014 C 
ATOM     26  C   UNL     1      -3.668  53.618  10.905  1.00  0.00     0.014 C 
ENDROOT
BRANCH   1  27
ATOM     27  C   UNL     1       4.197  50.001   8.215  1.00  0.00     0.048 C 
ATOM     28  O   UNL     1       3.036  49.698   8.606  1.00  0.00    -0.550 OA
ATOM     29  O   UNL     1       4.984  49.007   7.644  1.00  0.00    -0.550 OA
ENDBRANCH   1  27
BRANCH   7  30
ATOM     30  C   UNL     1       5.235  53.526   5.315  1.00  0.00    -0.077 C 
ATOM     31  C   UNL     1       3.881  53.938   4.790  1.00  0.00     0.039 C 
ATOM     32  C   UNL     1       6.285  53.589   4.480  1.00  0.00     0.008 C 
ENDBRANCH   7  30
BRANCH  23  33
ATOM     33  O   UNL     1      -2.072  57.595  12.220  1.00  0.00    -0.390 OA
ATOM     34  H   UNL     1      -1.106  57.776  12.351  1.00  0.00     0.211 HD
ENDBRANCH  23  33
BRANCH  24  35
ATOM     35  O   UNL     1      -3.624  55.414  13.124  1.00  0.00    -0.390 OA
ATOM     36  H   UNL     1      -3.476  55.170  14.075  1.00  0.00     0.211 HD
ENDBRANCH  24  35
TORSDOF 4
ENDMDL
MODEL 4
REMARK VINA RESULT:    -5.227      7.405     11.489
REMARK INTER + INTRA:          -6.618
REMARK INTER:                  -6.006
REMARK INTRA:                  -0.612
REMARK UNBOUND:                -0.475
REMARK SMILES C=C(C)[C@@H]1CC[C@@]2(C(=O)[O-])CC[C@@]3(C)[C@H](CC[C@H]4[C@]5(C)C[C@H](O)[C@@H](O)C(C)(C)[C@@H]5CC[C@]43C)[C@@H]12
REMARK SMILES IDX 7 1 6 2 34 3 11 4 5 5 15 6 4 7 12 8 16 9 13 10 17 11 32 12
REMARK SMILES IDX 14 13 18 14 31 15 33 16 19 17 30 18 29 19 21 20 20 21 26 22
REMARK SMILES IDX 22 23 24 24 27 25 28 26 8 27 9 28 10 29 2 30 3 31 1 32 23 33
REMARK SMILES IDX 25 35
REMARK H PARENT 23 34 25 36
REMARK Flexibility Score: inf
ROOT
ATOM      1  C   UNL     1      -0.579  59.233  12.010  1.00  0.00     0.014 C 
ATOM      2  C   UNL     1      -1.390  59.958  13.125  1.00  0.00     0.014 C 
ATOM      3  C   UNL     1      -1.652  58.631  11.051  1.00  0.00     0.012 C 
ATOM      4  C   UNL     1       0.323  58.139  12.644  1.00  0.00     0.014 C 
ATOM      5  C   UNL     1      -2.813  60.080  12.610  1.00  0.00     0.009 C 
ATOM      6  C   UNL     1      -1.382  57.167  10.530  1.00  0.00     0.000 C 
ATOM      7  C   UNL     1      -3.003  58.832  11.765  1.00  0.00     0.018 C 
ATOM      8  C   UNL     1      -0.435  56.829  12.913  1.00  0.00     0.008 C 
ATOM      9  C   UNL     1      -0.440  57.238   9.339  1.00  0.00     0.005 C 
ATOM     10  C   UNL     1      -0.923  56.093  11.612  1.00  0.00    -0.024 C 
ATOM     11  C   UNL     1      -0.253  55.885   8.665  1.00  0.00     0.005 C 
ATOM     12  C   UNL     1       0.186  54.996  11.084  1.00  0.00    -0.024 C 
ATOM     13  C   UNL     1      -2.240  55.320  11.998  1.00  0.00     0.012 C 
ATOM     14  C   UNL     1      -0.099  54.602   9.571  1.00  0.00     0.002 C 
ATOM     15  C   UNL     1       1.669  55.480  11.125  1.00  0.00     0.008 C 
ATOM     16  C   UNL     1       0.097  53.762  12.057  1.00  0.00     0.012 C 
ATOM     17  C   UNL     1       0.910  53.562   8.863  1.00  0.00    -0.023 C 
ATOM     18  C   UNL     1       2.686  54.489  10.522  1.00  0.00     0.005 C 
ATOM     19  C   UNL     1       2.408  54.047   9.051  1.00  0.00     0.004 C 
ATOM     20  C   UNL     1       0.753  52.100   9.400  1.00  0.00     0.042 C 
ATOM     21  C   UNL     1       0.500  53.497   7.344  1.00  0.00     0.012 C 
ATOM     22  C   UNL     1       3.508  53.009   8.536  1.00  0.00    -0.003 C 
ATOM     23  C   UNL     1       1.788  51.089   8.856  1.00  0.00     0.144 C 
ATOM     24  C   UNL     1       3.231  51.578   9.102  1.00  0.00     0.149 C 
ATOM     25  C   UNL     1       4.932  53.436   9.001  1.00  0.00     0.014 C 
ATOM     26  C   UNL     1       3.582  52.989   6.981  1.00  0.00     0.014 C 
ENDROOT
BRANCH   1  27
ATOM     27  C   UNL     1       0.267  60.261  11.259  1.00  0.00     0.048 C 
ATOM     28  O   UNL     1       1.525  60.168  11.264  1.00  0.00    -0.550 OA
ATOM     29  O   UNL     1      -0.313  61.359  10.632  1.00  0.00    -0.550 OA
ENDBRANCH   1  27
BRANCH   7  30
ATOM     30  C   UNL     1      -4.198  58.926  10.821  1.00  0.00    -0.077 C 
ATOM     31  C   UNL     1      -5.557  58.388  11.199  1.00  0.00     0.039 C 
ATOM     32  C   UNL     1      -4.058  59.507   9.619  1.00  0.00     0.008 C 
ENDBRANCH   7  30
BRANCH  23  33
ATOM     33  O   UNL     1       1.612  49.861   9.516  1.00  0.00    -0.390 OA
ATOM     34  H   UNL     1       2.510  49.556   9.807  1.00  0.00     0.211 HD
ENDBRANCH  23  33
BRANCH  24  35
ATOM     35  O   UNL     1       4.138  50.661   8.537  1.00  0.00    -0.390 OA
ATOM     36  H   UNL     1       4.665  51.152   7.853  1.00  0.00     0.211 HD
ENDBRANCH  24  35
TORSDOF 4
ENDMDL
MODEL 5
REMARK VINA RESULT:    -4.839     10.561     14.568
REMARK INTER + INTRA:          -6.162
REMARK INTER:                  -5.815
REMARK INTRA:                  -0.347
REMARK UNBOUND:                -0.475
REMARK SMILES C=C(C)[C@@H]1CC[C@@]2(C(=O)[O-])CC[C@@]3(C)[C@H](CC[C@H]4[C@]5(C)C[C@H](O)[C@@H](O)C(C)(C)[C@@H]5CC[C@]43C)[C@@H]12
REMARK SMILES IDX 7 1 6 2 34 3 11 4 5 5 15 6 4 7 12 8 16 9 13 10 17 11 32 12
REMARK SMILES IDX 14 13 18 14 31 15 33 16 19 17 30 18 29 19 21 20 20 21 26 22
REMARK SMILES IDX 22 23 24 24 27 25 28 26 8 27 9 28 10 29 2 30 3 31 1 32 23 33
REMARK SMILES IDX 25 35
REMARK H PARENT 23 34 25 36
REMARK Flexibility Score: inf
ROOT
ATOM      1  C   UNL     1       2.753  57.276  10.876  1.00  0.00     0.014 C 
ATOM      2  C   UNL     1       3.792  58.208  10.186  1.00  0.00     0.014 C 
ATOM      3  C   UNL     1       3.601  56.253  11.694  1.00  0.00     0.012 C 
ATOM      4  C   UNL     1       1.873  56.582   9.801  1.00  0.00     0.014 C 
ATOM      5  C   UNL     1       5.119  57.961  10.881  1.00  0.00     0.009 C 
ATOM      6  C   UNL     1       3.125  54.750  11.644  1.00  0.00     0.000 C 
ATOM      7  C   UNL     1       5.062  56.491  11.263  1.00  0.00     0.018 C 
ATOM      8  C   UNL     1       2.548  55.342   9.193  1.00  0.00     0.008 C 
ATOM      9  C   UNL     1       2.014  54.555  12.662  1.00  0.00     0.005 C 
ATOM     10  C   UNL     1       2.755  54.162  10.211  1.00  0.00    -0.024 C 
ATOM     11  C   UNL     1       1.604  53.095  12.803  1.00  0.00     0.005 C 
ATOM     12  C   UNL     1       1.485  53.114  10.192  1.00  0.00    -0.024 C 
ATOM     13  C   UNL     1       4.045  53.386   9.747  1.00  0.00     0.012 C 
ATOM     14  C   UNL     1       1.488  52.213  11.499  1.00  0.00     0.002 C 
ATOM     15  C   UNL     1       0.076  53.781  10.138  1.00  0.00     0.008 C 
ATOM     16  C   UNL     1       1.623  52.266   8.873  1.00  0.00     0.012 C 
ATOM     17  C   UNL     1       0.292  51.145  11.678  1.00  0.00    -0.023 C 
ATOM     18  C   UNL     1      -1.107  52.795  10.235  1.00  0.00     0.005 C 
ATOM     19  C   UNL     1      -1.109  51.863  11.488  1.00  0.00     0.004 C 
ATOM     20  C   UNL     1       0.406  49.932  10.696  1.00  0.00     0.042 C 
ATOM     21  C   UNL     1       0.446  50.532  13.121  1.00  0.00     0.012 C 
ATOM     22  C   UNL     1      -2.362  50.873  11.476  1.00  0.00    -0.003 C 
ATOM     23  C   UNL     1      -0.786  48.949  10.729  1.00  0.00     0.144 C 
ATOM     24  C   UNL     1      -2.123  49.682  10.492  1.00  0.00     0.149 C 
ATOM     25  C   UNL     1      -3.651  51.618  11.017  1.00  0.00     0.014 C 
ATOM     26  C   UNL     1      -2.687  50.356  12.909  1.00  0.00     0.014 C 
ENDROOT
BRANCH   1  27
ATOM     27  C   UNL     1       1.889  58.106  11.826  1.00  0.00     0.048 C 
ATOM     28  O   UNL     1       2.105  58.073  13.068  1.00  0.00    -0.550 OA
ATOM     29  O   UNL     1       0.802  58.841  11.362  1.00  0.00    -0.550 OA
ENDBRANCH   1  27
BRANCH   7  30
ATOM     30  C   UNL     1       6.093  56.109  12.320  1.00  0.00    -0.077 C 
ATOM     31  C   UNL     1       7.375  56.886  12.502  1.00  0.00     0.039 C 
ATOM     32  C   UNL     1       5.869  55.058  13.125  1.00  0.00     0.008 C 
ENDBRANCH   7  30
BRANCH  23  33
ATOM     33  O   UNL     1      -0.613  47.993   9.714  1.00  0.00    -0.390 OA
ATOM     34  H   UNL     1       0.324  48.071   9.398  1.00  0.00     0.211 HD
ENDBRANCH  23  33
BRANCH  24  35
ATOM     35  O   UNL     1      -3.185  48.764  10.592  1.00  0.00    -0.390 OA
ATOM     36  H   UNL     1      -2.969  47.998   9.999  1.00  0.00     0.211 HD
ENDBRANCH  24  35
TORSDOF 4
ENDMDL
MODEL 6
REMARK VINA RESULT:    -4.781      9.814     13.287
REMARK INTER + INTRA:          -6.094
REMARK INTER:                  -5.940
REMARK INTRA:                  -0.154
REMARK UNBOUND:                -0.475
REMARK SMILES C=C(C)[C@@H]1CC[C@@]2(C(=O)[O-])CC[C@@]3(C)[C@H](CC[C@H]4[C@]5(C)C[C@H](O)[C@@H](O)C(C)(C)[C@@H]5CC[C@]43C)[C@@H]12
REMARK SMILES IDX 7 1 6 2 34 3 11 4 5 5 15 6 4 7 12 8 16 9 13 10 17 11 32 12
REMARK SMILES IDX 14 13 18 14 31 15 33 16 19 17 30 18 29 19 21 20 20 21 26 22
REMARK SMILES IDX 22 23 24 24 27 25 28 26 8 27 9 28 10 29 2 30 3 31 1 32 23 33
REMARK SMILES IDX 25 35
REMARK H PARENT 23 34 25 36
REMARK Flexibility Score: inf
ROOT
ATOM      1  C   UNL     1      -2.950  53.487  11.539  1.00  0.00     0.014 C 
ATOM      2  C   UNL     1      -4.369  54.122  11.449  1.00  0.00     0.014 C 
ATOM      3  C   UNL     1      -1.999  54.665  11.918  1.00  0.00     0.012 C 
ATOM      4  C   UNL     1      -2.574  52.844  10.177  1.00  0.00     0.014 C 
ATOM      5  C   UNL     1      -4.273  55.485  12.112  1.00  0.00     0.009 C 
ATOM      6  C   UNL     1      -0.616  54.719  11.162  1.00  0.00     0.000 C 
ATOM      7  C   UNL     1      -2.857  55.941  11.803  1.00  0.00     0.018 C 
ATOM      8  C   UNL     1      -2.027  53.868   9.169  1.00  0.00     0.008 C 
ATOM      9  C   UNL     1       0.359  53.784  11.859  1.00  0.00     0.005 C 
ATOM     10  C   UNL     1      -0.651  54.504   9.585  1.00  0.00    -0.024 C 
ATOM     11  C   UNL     1       1.771  53.895  11.299  1.00  0.00     0.005 C 
ATOM     12  C   UNL     1       0.619  53.659   8.965  1.00  0.00    -0.024 C 
ATOM     13  C   UNL     1      -0.623  55.957   8.978  1.00  0.00     0.012 C 
ATOM     14  C   UNL     1       1.959  54.023   9.738  1.00  0.00     0.002 C 
ATOM     15  C   UNL     1       0.488  52.107   9.049  1.00  0.00     0.008 C 
ATOM     16  C   UNL     1       0.691  54.015   7.433  1.00  0.00     0.012 C 
ATOM     17  C   UNL     1       3.312  53.264   9.295  1.00  0.00    -0.023 C 
ATOM     18  C   UNL     1       1.731  51.330   8.570  1.00  0.00     0.005 C 
ATOM     19  C   UNL     1       3.073  51.696   9.279  1.00  0.00     0.004 C 
ATOM     20  C   UNL     1       3.845  53.734   7.901  1.00  0.00     0.042 C 
ATOM     21  C   UNL     1       4.422  53.678  10.332  1.00  0.00     0.012 C 
ATOM     22  C   UNL     1       4.293  50.848   8.694  1.00  0.00    -0.003 C 
ATOM     23  C   UNL     1       5.061  52.943   7.365  1.00  0.00     0.144 C 
ATOM     24  C   UNL     1       4.768  51.429   7.322  1.00  0.00     0.149 C 
ATOM     25  C   UNL     1       3.876  49.366   8.463  1.00  0.00     0.014 C 
ATOM     26  C   UNL     1       5.472  50.779   9.709  1.00  0.00     0.014 C 
ENDROOT
BRANCH   1  27
ATOM     27  C   UNL     1      -2.940  52.438  12.651  1.00  0.00     0.048 C 
ATOM     28  O   UNL     1      -1.844  52.008  13.104  1.00  0.00    -0.550 OA
ATOM     29  O   UNL     1      -4.120  51.873  13.125  1.00  0.00    -0.550 OA
ENDBRANCH   1  27
BRANCH   7  30
ATOM     30  C   UNL     1      -2.391  57.087  12.697  1.00  0.00    -0.077 C 
ATOM     31  C   UNL     1      -0.949  57.235  13.116  1.00  0.00     0.039 C 
ATOM     32  C   UNL     1      -3.274  58.003  13.125  1.00  0.00     0.008 C 
ENDBRANCH   7  30
BRANCH  23  33
ATOM     33  O   UNL     1       5.348  53.382   6.062  1.00  0.00    -0.390 OA
ATOM     34  H   UNL     1       4.479  53.513   5.601  1.00  0.00     0.211 HD
ENDBRANCH  23  33
BRANCH  24  35
ATOM     35  O   UNL     1       5.918  50.742   6.890  1.00  0.00    -0.390 OA
ATOM     36  H   UNL     1       6.702  51.306   7.121  1.00  0.00     0.211 HD
ENDBRANCH  24  35
TORSDOF 4
ENDMDL
MODEL 7
REMARK VINA RESULT:    -4.769     10.133     15.039
REMARK INTER + INTRA:          -6.080
REMARK INTER:                  -5.683
REMARK INTRA:                  -0.397
REMARK UNBOUND:                -0.475
REMARK SMILES C=C(C)[C@@H]1CC[C@@]2(C(=O)[O-])CC[C@@]3(C)[C@H](CC[C@H]4[C@]5(C)C[C@H](O)[C@@H](O)C(C)(C)[C@@H]5CC[C@]43C)[C@@H]12
REMARK SMILES IDX 7 1 6 2 34 3 11 4 5 5 15 6 4 7 12 8 16 9 13 10 17 11 32 12
REMARK SMILES IDX 14 13 18 14 31 15 33 16 19 17 30 18 29 19 21 20 20 21 26 22
REMARK SMILES IDX 22 23 24 24 27 25 28 26 8 27 9 28 10 29 2 30 3 31 1 32 23 33
REMARK SMILES IDX 25 35
REMARK H PARENT 23 34 25 36
REMARK Flexibility Score: inf
ROOT
ATOM      1  C   UNL     1       3.739  50.746   8.612  1.00  0.00     0.014 C 
ATOM      2  C   UNL     1       4.088  49.273   8.247  1.00  0.00     0.014 C 
ATOM      3  C   UNL     1       3.969  50.852  10.151  1.00  0.00     0.012 C 
ATOM      4  C   UNL     1       2.269  51.051   8.216  1.00  0.00     0.014 C 
ATOM      5  C   UNL     1       4.833  48.701   9.439  1.00  0.00     0.009 C 
ATOM      6  C   UNL     1       2.886  51.656  10.968  1.00  0.00     0.000 C 
ATOM      7  C   UNL     1       4.211  49.406  10.632  1.00  0.00     0.018 C 
ATOM      8  C   UNL     1       1.259  50.575   9.272  1.00  0.00     0.008 C 
ATOM      9  C   UNL     1       3.206  53.138  10.877  1.00  0.00     0.005 C 
ATOM     10  C   UNL     1       1.360  51.336  10.644  1.00  0.00    -0.024 C 
ATOM     11  C   UNL     1       2.309  53.983  11.773  1.00  0.00     0.005 C 
ATOM     12  C   UNL     1       0.348  52.634  10.693  1.00  0.00    -0.024 C 
ATOM     13  C   UNL     1       0.914  50.318  11.760  1.00  0.00     0.012 C 
ATOM     14  C   UNL     1       0.774  53.628  11.856  1.00  0.00     0.002 C 
ATOM     15  C   UNL     1       0.309  53.494   9.392  1.00  0.00     0.008 C 
ATOM     16  C   UNL     1      -1.106  52.063  10.888  1.00  0.00     0.012 C 
ATOM     17  C   UNL     1      -0.082  54.984  12.037  1.00  0.00    -0.023 C 
ATOM     18  C   UNL     1      -0.554  54.769   9.489  1.00  0.00     0.005 C 
ATOM     19  C   UNL     1      -0.189  55.746  10.651  1.00  0.00     0.004 C 
ATOM     20  C   UNL     1      -1.513  54.728  12.616  1.00  0.00     0.042 C 
ATOM     21  C   UNL     1       0.663  55.846  13.125  1.00  0.00     0.012 C 
ATOM     22  C   UNL     1      -1.155  57.018  10.669  1.00  0.00    -0.003 C 
ATOM     23  C   UNL     1      -2.425  55.975  12.681  1.00  0.00     0.144 C 
ATOM     24  C   UNL     1      -2.539  56.657  11.302  1.00  0.00     0.149 C 
ATOM     25  C   UNL     1      -1.414  57.537   9.224  1.00  0.00     0.014 C 
ATOM     26  C   UNL     1      -0.497  58.217  11.414  1.00  0.00     0.014 C 
ENDROOT
BRANCH   1  27
ATOM     27  C   UNL     1       4.699  51.684   7.881  1.00  0.00     0.048 C 
ATOM     28  O   UNL     1       4.390  52.894   7.706  1.00  0.00    -0.550 OA
ATOM     29  O   UNL     1       5.884  51.216   7.319  1.00  0.00    -0.550 OA
ENDBRANCH   1  27
BRANCH   7  30
ATOM     30  C   UNL     1       5.059  49.304  11.896  1.00  0.00    -0.077 C 
ATOM     31  C   UNL     1       5.451  50.525  12.693  1.00  0.00     0.039 C 
ATOM     32  C   UNL     1       5.471  48.103  12.330  1.00  0.00     0.008 C 
ENDBRANCH   7  30
BRANCH  23  33
ATOM     33  O   UNL     1      -3.708  55.576  13.092  1.00  0.00    -0.390 OA
ATOM     34  H   UNL     1      -3.880  54.687  12.687  1.00  0.00     0.211 HD
ENDBRANCH  23  33
BRANCH  24  35
ATOM     35  O   UNL     1      -3.324  57.820  11.418  1.00  0.00    -0.390 OA
ATOM     36  H   UNL     1      -4.270  57.551  11.280  1.00  0.00     0.211 HD
ENDBRANCH  24  35
TORSDOF 4
ENDMDL
MODEL 8
REMARK VINA RESULT:    -4.746      8.296     13.021
REMARK INTER + INTRA:          -6.054
REMARK INTER:                  -5.797
REMARK INTRA:                  -0.257
REMARK UNBOUND:                -0.475
REMARK SMILES C=C(C)[C@@H]1CC[C@@]2(C(=O)[O-])CC[C@@]3(C)[C@H](CC[C@H]4[C@]5(C)C[C@H](O)[C@@H](O)C(C)(C)[C@@H]5CC[C@]43C)[C@@H]12
REMARK SMILES IDX 7 1 6 2 34 3 11 4 5 5 15 6 4 7 12 8 16 9 13 10 17 11 32 12
REMARK SMILES IDX 14 13 18 14 31 15 33 16 19 17 30 18 29 19 21 20 20 21 26 22
REMARK SMILES IDX 22 23 24 24 27 25 28 26 8 27 9 28 10 29 2 30 3 31 1 32 23 33
REMARK SMILES IDX 25 35
REMARK H PARENT 23 34 25 36
REMARK Flexibility Score: inf
ROOT
ATOM      1  C   UNL     1       2.945  53.378   7.501  1.00  0.00     0.014 C 
ATOM      2  C   UNL     1       3.349  52.068   6.764  1.00  0.00     0.014 C 
ATOM      3  C   UNL     1       3.138  53.071   9.018  1.00  0.00     0.012 C 
ATOM      4  C   UNL     1       1.475  53.742   7.158  1.00  0.00     0.014 C 
ATOM      5  C   UNL     1       4.086  51.214   7.780  1.00  0.00     0.009 C 
ATOM      6  C   UNL     1       2.011  53.597   9.988  1.00  0.00     0.000 C 
ATOM      7  C   UNL     1       3.415  51.556   9.099  1.00  0.00     0.018 C 
ATOM      8  C   UNL     1       0.458  52.973   8.017  1.00  0.00     0.008 C 
ATOM      9  C   UNL     1       2.286  55.057  10.309  1.00  0.00     0.005 C 
ATOM     10  C   UNL     1       0.504  53.339   9.544  1.00  0.00    -0.024 C 
ATOM     11  C   UNL     1       1.342  55.606  11.371  1.00  0.00     0.005 C 
ATOM     12  C   UNL     1      -0.550  54.550   9.910  1.00  0.00    -0.024 C 
ATOM     13  C   UNL     1       0.066  52.047  10.332  1.00  0.00     0.012 C 
ATOM     14  C   UNL     1      -0.182  55.203  11.310  1.00  0.00     0.002 C 
ATOM     15  C   UNL     1      -0.588  55.728   8.888  1.00  0.00     0.008 C 
ATOM     16  C   UNL     1      -1.989  53.911   9.902  1.00  0.00     0.012 C 
ATOM     17  C   UNL     1      -1.085  56.439  11.824  1.00  0.00    -0.023 C 
ATOM     18  C   UNL     1      -1.494  56.907   9.298  1.00  0.00     0.005 C 
ATOM     19  C   UNL     1      -1.186  57.544  10.691  1.00  0.00     0.004 C 
ATOM     20  C   UNL     1      -2.520  56.000  12.269  1.00  0.00     0.042 C 
ATOM     21  C   UNL     1      -0.393  56.994  13.125  1.00  0.00     0.012 C 
ATOM     22  C   UNL     1      -2.193  58.739  11.022  1.00  0.00    -0.003 C 
ATOM     23  C   UNL     1      -3.472  57.160  12.639  1.00  0.00     0.144 C 
ATOM     24  C   UNL     1      -3.578  58.186  11.492  1.00  0.00     0.149 C 
ATOM     25  C   UNL     1      -2.436  59.621   9.762  1.00  0.00     0.014 C 
ATOM     26  C   UNL     1      -1.590  59.708  12.081  1.00  0.00     0.014 C 
ENDROOT
BRANCH   1  27
ATOM     27  C   UNL     1       3.891  54.503   7.078  1.00  0.00     0.048 C 
ATOM     28  O   UNL     1       4.283  55.350   7.925  1.00  0.00    -0.550 OA
ATOM     29  O   UNL     1       4.270  54.670   5.749  1.00  0.00    -0.550 OA
ENDBRANCH   1  27
BRANCH   7  30
ATOM     30  C   UNL     1       4.238  51.138  10.314  1.00  0.00    -0.077 C 
ATOM     31  C   UNL     1       4.639  52.125  11.383  1.00  0.00     0.039 C 
ATOM     32  C   UNL     1       4.619  49.859  10.457  1.00  0.00     0.008 C 
ENDBRANCH   7  30
BRANCH  23  33
ATOM     33  O   UNL     1      -4.751  56.634  12.890  1.00  0.00    -0.390 OA
ATOM     34  H   UNL     1      -5.315  56.856  12.105  1.00  0.00     0.211 HD
ENDBRANCH  23  33
BRANCH  24  35
ATOM     35  O   UNL     1      -4.402  59.254  11.893  1.00  0.00    -0.390 OA
ATOM     36  H   UNL     1      -5.092  58.881  12.502  1.00  0.00     0.211 HD
ENDBRANCH  24  35
TORSDOF 4
ENDMDL
MODEL 9
REMARK VINA RESULT:    -4.500      9.474     14.462
REMARK INTER + INTRA:          -5.764
REMARK INTER:                  -5.377
REMARK INTRA:                  -0.386
REMARK UNBOUND:                -0.475
REMARK SMILES C=C(C)[C@@H]1CC[C@@]2(C(=O)[O-])CC[C@@]3(C)[C@H](CC[C@H]4[C@]5(C)C[C@H](O)[C@@H](O)C(C)(C)[C@@H]5CC[C@]43C)[C@@H]12
REMARK SMILES IDX 7 1 6 2 34 3 11 4 5 5 15 6 4 7 12 8 16 9 13 10 17 11 32 12
REMARK SMILES IDX 14 13 18 14 31 15 33 16 19 17 30 18 29 19 21 20 20 21 26 22
REMARK SMILES IDX 22 23 24 24 27 25 28 26 8 27 9 28 10 29 2 30 3 31 1 32 23 33
REMARK SMILES IDX 25 35
REMARK H PARENT 23 34 25 36
REMARK Flexibility Score: inf
ROOT
ATOM      1  C   UNL     1       2.502  50.127  11.629  1.00  0.00     0.014 C 
ATOM      2  C   UNL     1       3.688  49.165  11.930  1.00  0.00     0.014 C 
ATOM      3  C   UNL     1       2.825  50.751  10.236  1.00  0.00     0.012 C 
ATOM      4  C   UNL     1       2.401  51.203  12.745  1.00  0.00     0.014 C 
ATOM      5  C   UNL     1       4.429  48.973  10.619  1.00  0.00     0.009 C 
ATOM      6  C   UNL     1       2.550  52.296  10.080  1.00  0.00     0.000 C 
ATOM      7  C   UNL     1       4.265  50.307   9.910  1.00  0.00     0.018 C 
ATOM      8  C   UNL     1       3.375  52.372  12.529  1.00  0.00     0.008 C 
ATOM      9  C   UNL     1       1.077  52.501   9.765  1.00  0.00     0.005 C 
ATOM     10  C   UNL     1       3.063  53.239  11.256  1.00  0.00    -0.024 C 
ATOM     11  C   UNL     1       0.750  53.951   9.433  1.00  0.00     0.005 C 
ATOM     12  C   UNL     1       2.080  54.511  11.612  1.00  0.00    -0.024 C 
ATOM     13  C   UNL     1       4.442  53.805  10.746  1.00  0.00     0.012 C 
ATOM     14  C   UNL     1       1.423  55.093  10.289  1.00  0.00     0.002 C 
ATOM     15  C   UNL     1       0.893  54.183  12.569  1.00  0.00     0.008 C 
ATOM     16  C   UNL     1       2.971  55.571  12.361  1.00  0.00     0.012 C 
ATOM     17  C   UNL     1       0.394  56.327  10.441  1.00  0.00    -0.023 C 
ATOM     18  C   UNL     1      -0.085  55.353  12.805  1.00  0.00     0.005 C 
ATOM     19  C   UNL     1      -0.715  55.978  11.520  1.00  0.00     0.004 C 
ATOM     20  C   UNL     1       1.104  57.668  10.823  1.00  0.00     0.042 C 
ATOM     21  C   UNL     1      -0.231  56.573   9.016  1.00  0.00     0.012 C 
ATOM     22  C   UNL     1      -1.692  57.189  11.879  1.00  0.00    -0.003 C 
ATOM     23  C   UNL     1       0.153  58.851  11.117  1.00  0.00     0.144 C 
ATOM     24  C   UNL     1      -0.878  58.484  12.205  1.00  0.00     0.149 C 
ATOM     25  C   UNL     1      -2.561  56.848  13.125  1.00  0.00     0.014 C 
ATOM     26  C   UNL     1      -2.716  57.447  10.734  1.00  0.00     0.014 C 
ENDROOT
BRANCH   1  27
ATOM     27  C   UNL     1       1.208  49.316  11.544  1.00  0.00     0.048 C 
ATOM     28  O   UNL     1       0.535  49.312  10.478  1.00  0.00    -0.550 OA
ATOM     29  O   UNL     1       0.701  48.642  12.651  1.00  0.00    -0.550 OA
ENDBRANCH   1  27
BRANCH   7  30
ATOM     30  C   UNL     1       4.569  50.230   8.417  1.00  0.00    -0.077 C 
ATOM     31  C   UNL     1       4.285  51.383   7.485  1.00  0.00     0.039 C 
ATOM     32  C   UNL     1       5.112  49.116   7.900  1.00  0.00     0.008 C 
ENDBRANCH   7  30
BRANCH  23  33
ATOM     33  O   UNL     1       0.913  59.942  11.569  1.00  0.00    -0.390 OA
ATOM     34  H   UNL     1       0.638  60.730  11.034  1.00  0.00     0.211 HD
ENDBRANCH  23  33
BRANCH  24  35
ATOM     35  O   UNL     1      -1.761  59.563  12.396  1.00  0.00    -0.390 OA
ATOM     36  H   UNL     1      -1.277  60.390  12.134  1.00  0.00     0.211 HD
ENDBRANCH  24  35
TORSDOF 4
ENDMDL
