MODEL 1
REMARK VINA RESULT:    -5.529      0.000      0.000
REMARK INTER + INTRA:          -6.629
REMARK INTER:                  -6.499
REMARK INTRA:                  -0.131
REMARK UNBOUND:                -0.131
REMARK SMILES O=C([O-])C=Cc1ccc(O)c(O)c1
REMARK SMILES IDX 6 1 13 2 7 3 11 4 8 5 9 6 5 7 4 8 2 9 1 10 3 11 12 12 10 14
REMARK H PARENT 12 13 10 15
REMARK Flexibility Score: inf
ROOT
ATOM      1  C   UNL     1      20.158  -7.685  24.338  1.00  0.00    -0.022 A 
ATOM      2  C   UNL     1      20.373  -6.452  23.698  1.00  0.00     0.058 A 
ATOM      3  C   UNL     1      19.723  -8.782  23.569  1.00  0.00     0.012 A 
ATOM      4  C   UNL     1      20.185  -6.318  22.315  1.00  0.00     0.157 A 
ATOM      5  C   UNL     1      19.534  -8.649  22.190  1.00  0.00     0.051 A 
ATOM      6  C   UNL     1      19.766  -7.425  21.558  1.00  0.00     0.157 A 
ENDROOT
BRANCH   1   7
ATOM      7  C   UNL     1      20.362  -7.770  25.805  1.00  0.00     0.010 C 
ATOM      8  C   UNL     1      19.382  -8.030  26.681  1.00  0.00     0.025 C 
BRANCH   8   9
ATOM      9  C   UNL     1      19.633  -8.115  28.128  1.00  0.00     0.064 C 
ATOM     10  O   UNL     1      18.662  -8.101  28.929  1.00  0.00    -0.545 OA
ATOM     11  O   UNL     1      20.927  -8.209  28.626  1.00  0.00    -0.545 OA
ENDBRANCH   8   9
ENDBRANCH   1   7
BRANCH   4  12
ATOM     12  O   UNL     1      20.413  -5.093  21.692  1.00  0.00    -0.504 OA
ATOM     13  H   UNL     1      20.571  -4.247  22.227  1.00  0.00     0.293 HD
ENDBRANCH   4  12
BRANCH   6  14
ATOM     14  O   UNL     1      19.570  -7.325  20.181  1.00  0.00    -0.504 OA
ATOM     15  H   UNL     1      20.172  -6.762  19.592  1.00  0.00     0.293 HD
ENDBRANCH   6  14
TORSDOF 4
ENDMDL
MODEL 2
REMARK VINA RESULT:    -5.528      0.775      1.892
REMARK INTER + INTRA:          -6.628
REMARK INTER:                  -6.501
REMARK INTRA:                  -0.127
REMARK UNBOUND:                -0.131
REMARK SMILES O=C([O-])C=Cc1ccc(O)c(O)c1
REMARK SMILES IDX 6 1 13 2 7 3 11 4 8 5 9 6 5 7 4 8 2 9 1 10 3 11 12 12 10 14
REMARK H PARENT 12 13 10 15
REMARK Flexibility Score: inf
ROOT
ATOM      1  C   UNL     1      20.108  -7.632  24.253  1.00  0.00    -0.022 A 
ATOM      2  C   UNL     1      19.664  -8.712  23.471  1.00  0.00     0.058 A 
ATOM      3  C   UNL     1      20.338  -6.390  23.629  1.00  0.00     0.012 A 
ATOM      4  C   UNL     1      19.428  -8.554  22.097  1.00  0.00     0.157 A 
ATOM      5  C   UNL     1      20.104  -6.233  22.260  1.00  0.00     0.051 A 
ATOM      6  C   UNL     1      19.647  -7.306  21.491  1.00  0.00     0.157 A 
ENDROOT
BRANCH   1   7
ATOM      7  C   UNL     1      20.351  -7.856  25.700  1.00  0.00     0.010 C 
ATOM      8  C   UNL     1      19.385  -7.849  26.628  1.00  0.00     0.025 C 
BRANCH   8   9
ATOM      9  C   UNL     1      19.672  -8.087  28.052  1.00  0.00     0.064 C 
ATOM     10  O   UNL     1      18.730  -8.064  28.887  1.00  0.00    -0.545 OA
ATOM     11  O   UNL     1      20.967  -8.336  28.490  1.00  0.00    -0.545 OA
ENDBRANCH   8   9
ENDBRANCH   1   7
BRANCH   4  12
ATOM     12  O   UNL     1      18.979  -9.631  21.335  1.00  0.00    -0.504 OA
ATOM     13  H   UNL     1      19.199 -10.588  21.586  1.00  0.00     0.293 HD
ENDBRANCH   4  12
BRANCH   6  14
ATOM     14  O   UNL     1      19.421  -7.117  20.128  1.00  0.00    -0.504 OA
ATOM     15  H   UNL     1      19.958  -7.604  19.421  1.00  0.00     0.293 HD
ENDBRANCH   6  14
TORSDOF 4
ENDMDL
MODEL 3
REMARK VINA RESULT:    -5.509     10.283     13.775
REMARK INTER + INTRA:          -6.605
REMARK INTER:                  -6.479
REMARK INTRA:                  -0.127
REMARK UNBOUND:                -0.131
REMARK SMILES O=C([O-])C=Cc1ccc(O)c(O)c1
REMARK SMILES IDX 6 1 13 2 7 3 11 4 8 5 9 6 5 7 4 8 2 9 1 10 3 11 12 12 10 14
REMARK H PARENT 12 13 10 15
REMARK Flexibility Score: inf
ROOT
ATOM      1  C   UNL     1      19.896 -13.370  13.838  1.00  0.00    -0.022 A 
ATOM      2  C   UNL     1      20.299 -14.656  14.236  1.00  0.00     0.058 A 
ATOM      3  C   UNL     1      19.344 -12.502  14.801  1.00  0.00     0.012 A 
ATOM      4  C   UNL     1      20.181 -15.063  15.573  1.00  0.00     0.157 A 
ATOM      5  C   UNL     1      19.225 -12.908  16.133  1.00  0.00     0.051 A 
ATOM      6  C   UNL     1      19.643 -14.182  16.525  1.00  0.00     0.157 A 
ENDROOT
BRANCH   1   7
ATOM      7  C   UNL     1      20.034 -12.992  12.409  1.00  0.00     0.010 C 
ATOM      8  C   UNL     1      19.186 -13.384  11.449  1.00  0.00     0.025 C 
BRANCH   8   9
ATOM      9  C   UNL     1      19.356 -12.977  10.046  1.00  0.00     0.064 C 
ATOM     10  O   UNL     1      18.346 -12.672   9.361  1.00  0.00    -0.545 OA
ATOM     11  O   UNL     1      20.617 -12.924   9.463  1.00  0.00    -0.545 OA
ENDBRANCH   8   9
ENDBRANCH   1   7
BRANCH   4  12
ATOM     12  O   UNL     1      20.594 -16.338  15.956  1.00  0.00    -0.504 OA
ATOM     13  H   UNL     1      19.934 -17.034  16.284  1.00  0.00     0.293 HD
ENDBRANCH   4  12
BRANCH   6  14
ATOM     14  O   UNL     1      19.513 -14.557  17.862  1.00  0.00    -0.504 OA
ATOM     15  H   UNL     1      20.237 -15.068  18.351  1.00  0.00     0.293 HD
ENDBRANCH   6  14
TORSDOF 4
ENDMDL
MODEL 4
REMARK VINA RESULT:    -5.379     10.061     13.586
REMARK INTER + INTRA:          -6.453
REMARK INTER:                  -6.324
REMARK INTRA:                  -0.129
REMARK UNBOUND:                -0.131
REMARK SMILES O=C([O-])C=Cc1ccc(O)c(O)c1
REMARK SMILES IDX 6 1 13 2 7 3 11 4 8 5 9 6 5 7 4 8 2 9 1 10 3 11 12 12 10 14
REMARK H PARENT 12 13 10 15
REMARK Flexibility Score: inf
ROOT
ATOM      1  C   UNL     1      19.913 -13.372  13.632  1.00  0.00    -0.022 A 
ATOM      2  C   UNL     1      19.499 -12.384  14.542  1.00  0.00     0.058 A 
ATOM      3  C   UNL     1      20.221 -14.657  14.119  1.00  0.00     0.012 A 
ATOM      4  C   UNL     1      19.369 -12.676  15.908  1.00  0.00     0.157 A 
ATOM      5  C   UNL     1      20.093 -14.948  15.479  1.00  0.00     0.051 A 
ATOM      6  C   UNL     1      19.665 -13.966  16.376  1.00  0.00     0.157 A 
ENDROOT
BRANCH   1   7
ATOM      7  C   UNL     1      20.043 -13.007  12.199  1.00  0.00     0.010 C 
ATOM      8  C   UNL     1      19.179 -13.392  11.251  1.00  0.00     0.025 C 
BRANCH   8   9
ATOM      9  C   UNL     1      19.342 -12.998   9.843  1.00  0.00     0.064 C 
ATOM     10  O   UNL     1      18.331 -12.674   9.167  1.00  0.00    -0.545 OA
ATOM     11  O   UNL     1      20.596 -12.978   9.245  1.00  0.00    -0.545 OA
ENDBRANCH   8   9
ENDBRANCH   1   7
BRANCH   4  12
ATOM     12  O   UNL     1      18.947 -11.690  16.798  1.00  0.00    -0.504 OA
ATOM     13  H   UNL     1      18.426 -11.919  17.637  1.00  0.00     0.293 HD
ENDBRANCH   4  12
BRANCH   6  14
ATOM     14  O   UNL     1      19.545 -14.288  17.728  1.00  0.00    -0.504 OA
ATOM     15  H   UNL     1      20.353 -14.389  18.331  1.00  0.00     0.293 HD
ENDBRANCH   6  14
TORSDOF 4
ENDMDL
MODEL 5
REMARK VINA RESULT:    -5.248      2.579      3.829
REMARK INTER + INTRA:          -6.298
REMARK INTER:                  -6.164
REMARK INTRA:                  -0.135
REMARK UNBOUND:                -0.131
REMARK SMILES O=C([O-])C=Cc1ccc(O)c(O)c1
REMARK SMILES IDX 6 1 13 2 7 3 11 4 8 5 9 6 5 7 4 8 2 9 1 10 3 11 12 12 10 14
REMARK H PARENT 12 13 10 15
REMARK Flexibility Score: inf
ROOT
ATOM      1  C   UNL     1      19.057  -6.887  21.004  1.00  0.00    -0.022 A 
ATOM      2  C   UNL     1      19.951  -6.834  19.921  1.00  0.00     0.058 A 
ATOM      3  C   UNL     1      17.702  -7.181  20.753  1.00  0.00     0.012 A 
ATOM      4  C   UNL     1      19.512  -7.094  18.614  1.00  0.00     0.157 A 
ATOM      5  C   UNL     1      17.264  -7.439  19.451  1.00  0.00     0.051 A 
ATOM      6  C   UNL     1      18.161  -7.401  18.381  1.00  0.00     0.157 A 
ENDROOT
BRANCH   1   7
ATOM      7  C   UNL     1      19.571  -6.593  22.365  1.00  0.00     0.010 C 
ATOM      8  C   UNL     1      19.372  -7.389  23.424  1.00  0.00     0.025 C 
BRANCH   8   9
ATOM      9  C   UNL     1      19.911  -7.063  24.754  1.00  0.00     0.064 C 
ATOM     10  O   UNL     1      20.930  -6.330  24.849  1.00  0.00    -0.545 OA
ATOM     11  O   UNL     1      19.313  -7.552  25.909  1.00  0.00    -0.545 OA
ENDBRANCH   8   9
ENDBRANCH   1   7
BRANCH   4  12
ATOM     12  O   UNL     1      20.411  -7.049  17.551  1.00  0.00    -0.504 OA
ATOM     13  H   UNL     1      21.371  -7.358  17.654  1.00  0.00     0.293 HD
ENDBRANCH   4  12
BRANCH   6  14
ATOM     14  O   UNL     1      17.694  -7.665  17.094  1.00  0.00    -0.504 OA
ATOM     15  H   UNL     1      17.165  -6.984  16.563  1.00  0.00     0.293 HD
ENDBRANCH   6  14
TORSDOF 4
ENDMDL
MODEL 6
REMARK VINA RESULT:    -5.207      8.705     12.046
REMARK INTER + INTRA:          -6.251
REMARK INTER:                  -6.111
REMARK INTRA:                  -0.139
REMARK UNBOUND:                -0.131
REMARK SMILES O=C([O-])C=Cc1ccc(O)c(O)c1
REMARK SMILES IDX 6 1 13 2 7 3 11 4 8 5 9 6 5 7 4 8 2 9 1 10 3 11 12 12 10 14
REMARK H PARENT 12 13 10 15
REMARK Flexibility Score: inf
ROOT
ATOM      1  C   UNL     1      19.270 -14.049  16.196  1.00  0.00    -0.022 A 
ATOM      2  C   UNL     1      20.095 -14.255  17.315  1.00  0.00     0.058 A 
ATOM      3  C   UNL     1      17.940 -13.632  16.399  1.00  0.00     0.012 A 
ATOM      4  C   UNL     1      19.614 -14.026  18.613  1.00  0.00     0.157 A 
ATOM      5  C   UNL     1      17.460 -13.405  17.692  1.00  0.00     0.051 A 
ATOM      6  C   UNL     1      18.290 -13.597  18.799  1.00  0.00     0.157 A 
ENDROOT
BRANCH   1   7
ATOM      7  C   UNL     1      19.826 -14.314  14.845  1.00  0.00     0.010 C 
ATOM      8  C   UNL     1      19.370 -13.739  13.725  1.00  0.00     0.025 C 
BRANCH   8   9
ATOM      9  C   UNL     1      19.959 -14.024  12.407  1.00  0.00     0.064 C 
ATOM     10  O   UNL     1      21.009 -14.715  12.333  1.00  0.00    -0.545 OA
ATOM     11  O   UNL     1      19.377 -13.542  11.242  1.00  0.00    -0.545 OA
ENDBRANCH   8   9
ENDBRANCH   1   7
BRANCH   4  12
ATOM     12  O   UNL     1      20.445 -14.225  19.713  1.00  0.00    -0.504 OA
ATOM     13  H   UNL     1      20.337 -15.028  20.322  1.00  0.00     0.293 HD
ENDBRANCH   4  12
BRANCH   6  14
ATOM     14  O   UNL     1      17.782 -13.360  20.077  1.00  0.00    -0.504 OA
ATOM     15  H   UNL     1      17.823 -12.447  20.512  1.00  0.00     0.293 HD
ENDBRANCH   6  14
TORSDOF 4
ENDMDL
MODEL 7
REMARK VINA RESULT:    -5.138      2.650      3.866
REMARK INTER + INTRA:          -6.169
REMARK INTER:                  -6.040
REMARK INTRA:                  -0.129
REMARK UNBOUND:                -0.131
REMARK SMILES O=C([O-])C=Cc1ccc(O)c(O)c1
REMARK SMILES IDX 6 1 13 2 7 3 11 4 8 5 9 6 5 7 4 8 2 9 1 10 3 11 12 12 10 14
REMARK H PARENT 12 13 10 15
REMARK Flexibility Score: inf
ROOT
ATOM      1  C   UNL     1      19.216  -6.867  21.018  1.00  0.00    -0.022 A 
ATOM      2  C   UNL     1      17.832  -6.969  20.795  1.00  0.00     0.058 A 
ATOM      3  C   UNL     1      20.094  -7.044  19.932  1.00  0.00     0.012 A 
ATOM      4  C   UNL     1      17.329  -7.218  19.509  1.00  0.00     0.157 A 
ATOM      5  C   UNL     1      19.594  -7.294  18.651  1.00  0.00     0.051 A 
ATOM      6  C   UNL     1      18.216  -7.378  18.433  1.00  0.00     0.157 A 
ENDROOT
BRANCH   1   7
ATOM      7  C   UNL     1      19.695  -6.612  22.400  1.00  0.00     0.010 C 
ATOM      8  C   UNL     1      19.321  -7.334  23.464  1.00  0.00     0.025 C 
BRANCH   8   9
ATOM      9  C   UNL     1      19.831  -7.051  24.815  1.00  0.00     0.064 C 
ATOM     10  O   UNL     1      19.245  -7.542  25.815  1.00  0.00    -0.545 OA
ATOM     11  O   UNL     1      20.949  -6.249  25.005  1.00  0.00    -0.545 OA
ENDBRANCH   8   9
ENDBRANCH   1   7
BRANCH   4  12
ATOM     12  O   UNL     1      15.954  -7.307  19.300  1.00  0.00    -0.504 OA
ATOM     13  H   UNL     1      15.456  -8.183  19.410  1.00  0.00     0.293 HD
ENDBRANCH   4  12
BRANCH   6  14
ATOM     14  O   UNL     1      17.748  -7.626  17.143  1.00  0.00    -0.504 OA
ATOM     15  H   UNL     1      18.374  -7.815  16.369  1.00  0.00     0.293 HD
ENDBRANCH   6  14
TORSDOF 4
ENDMDL
MODEL 8
REMARK VINA RESULT:    -5.109      8.070     11.549
REMARK INTER + INTRA:          -6.136
REMARK INTER:                  -6.001
REMARK INTRA:                  -0.135
REMARK UNBOUND:                -0.131
REMARK SMILES O=C([O-])C=Cc1ccc(O)c(O)c1
REMARK SMILES IDX 6 1 13 2 7 3 11 4 8 5 9 6 5 7 4 8 2 9 1 10 3 11 12 12 10 14
REMARK H PARENT 12 13 10 15
REMARK Flexibility Score: inf
ROOT
ATOM      1  C   UNL     1      19.210 -11.795  15.290  1.00  0.00    -0.022 A 
ATOM      2  C   UNL     1      19.048 -10.404  15.407  1.00  0.00     0.058 A 
ATOM      3  C   UNL     1      18.758 -12.622  16.337  1.00  0.00     0.012 A 
ATOM      4  C   UNL     1      18.425  -9.846  16.533  1.00  0.00     0.157 A 
ATOM      5  C   UNL     1      18.138 -12.067  17.459  1.00  0.00     0.051 A 
ATOM      6  C   UNL     1      17.966 -10.684  17.562  1.00  0.00     0.157 A 
ENDROOT
BRANCH   1   7
ATOM      7  C   UNL     1      19.886 -12.332  14.082  1.00  0.00     0.010 C 
ATOM      8  C   UNL     1      19.586 -13.512  13.524  1.00  0.00     0.025 C 
BRANCH   8   9
ATOM      9  C   UNL     1      20.274 -14.001  12.319  1.00  0.00     0.064 C 
ATOM     10  O   UNL     1      21.143 -14.905  12.424  1.00  0.00    -0.545 OA
ATOM     11  O   UNL     1      19.982 -13.479  11.065  1.00  0.00    -0.545 OA
ENDBRANCH   8   9
ENDBRANCH   1   7
BRANCH   4  12
ATOM     12  O   UNL     1      18.261  -8.466  16.631  1.00  0.00    -0.504 OA
ATOM     13  H   UNL     1      17.433  -8.058  17.049  1.00  0.00     0.293 HD
ENDBRANCH   4  12
BRANCH   6  14
ATOM     14  O   UNL     1      17.341 -10.161  18.694  1.00  0.00    -0.504 OA
ATOM     15  H   UNL     1      17.865  -9.739  19.451  1.00  0.00     0.293 HD
ENDBRANCH   6  14
TORSDOF 4
ENDMDL
MODEL 9
REMARK VINA RESULT:    -5.021      2.788      4.175
REMARK INTER + INTRA:          -6.032
REMARK INTER:                  -5.898
REMARK INTRA:                  -0.134
REMARK UNBOUND:                -0.131
REMARK SMILES O=C([O-])C=Cc1ccc(O)c(O)c1
REMARK SMILES IDX 6 1 13 2 7 3 11 4 8 5 9 6 5 7 4 8 2 9 1 10 3 11 12 12 10 14
REMARK H PARENT 12 13 10 15
REMARK Flexibility Score: inf
ROOT
ATOM      1  C   UNL     1      19.226  -8.936  21.878  1.00  0.00    -0.022 A 
ATOM      2  C   UNL     1      19.082 -10.332  21.798  1.00  0.00     0.058 A 
ATOM      3  C   UNL     1      18.734  -8.140  20.825  1.00  0.00     0.012 A 
ATOM      4  C   UNL     1      18.436 -10.925  20.703  1.00  0.00     0.157 A 
ATOM      5  C   UNL     1      18.093  -8.731  19.733  1.00  0.00     0.051 A 
ATOM      6  C   UNL     1      17.937 -10.118  19.667  1.00  0.00     0.157 A 
ENDROOT
BRANCH   1   7
ATOM      7  C   UNL     1      19.926  -8.360  23.054  1.00  0.00     0.010 C 
ATOM      8  C   UNL     1      19.402  -7.411  23.841  1.00  0.00     0.025 C 
BRANCH   8   9
ATOM      9  C   UNL     1      20.129  -6.877  25.004  1.00  0.00     0.064 C 
ATOM     10  O   UNL     1      21.168  -6.191  24.826  1.00  0.00    -0.545 OA
ATOM     11  O   UNL     1      19.686  -7.120  26.299  1.00  0.00    -0.545 OA
ENDBRANCH   8   9
ENDBRANCH   1   7
BRANCH   4  12
ATOM     12  O   UNL     1      18.290 -12.309  20.641  1.00  0.00    -0.504 OA
ATOM     13  H   UNL     1      17.706 -12.751  19.940  1.00  0.00     0.293 HD
ENDBRANCH   4  12
BRANCH   6  14
ATOM     14  O   UNL     1      17.290 -10.677  18.565  1.00  0.00    -0.504 OA
ATOM     15  H   UNL     1      16.455 -11.241  18.661  1.00  0.00     0.293 HD
ENDBRANCH   6  14
TORSDOF 4
ENDMDL
