MODEL 1
REMARK VINA RESULT:    -5.643      0.000      0.000
REMARK INTER + INTRA:          -6.704
REMARK INTER:                  -6.798
REMARK INTRA:                   0.093
REMARK UNBOUND:                 0.093
REMARK SMILES O=c1c(O)c(-c2ccc(O)c(O)c2)oc2cc(O)cc(O)c12
REMARK SMILES IDX 5 1 3 2 2 3 1 4 22 5 20 6 19 7 17 8 16 9 15 10 14 11 6 12
REMARK SMILES IDX 7 13 8 14 9 15 13 16 11 17 10 18 12 20 4 22 21 24 18 26
REMARK H PARENT 10 19 12 21 4 23 21 25 18 27
REMARK Flexibility Score: inf
ROOT
ATOM      1  C   UNL     1     -22.676  56.882   1.041  1.00  0.00     0.180 A 
ATOM      2  C   UNL     1     -22.904  55.762   1.859  1.00  0.00     0.208 A 
ATOM      3  C   UNL     1     -24.217  55.462   2.254  1.00  0.00     0.238 A 
ATOM      4  O   UNL     1     -24.420  54.427   2.941  1.00  0.00    -0.285 OA
ATOM      5  C   UNL     1     -25.284  56.294   1.840  1.00  0.00     0.111 A 
ATOM      6  C   UNL     1     -26.650  56.108   2.214  1.00  0.00     0.134 A 
ATOM      7  C   UNL     1     -27.640  56.915   1.638  1.00  0.00     0.093 A 
ATOM      8  C   UNL     1     -27.308  57.943   0.757  1.00  0.00     0.123 A 
ATOM      9  C   UNL     1     -25.971  58.172   0.431  1.00  0.00     0.094 A 
ATOM     10  C   UNL     1     -24.965  57.360   0.959  1.00  0.00     0.146 A 
ATOM     11  O   UNL     1     -23.706  57.605   0.615  1.00  0.00    -0.452 OA
ENDROOT
BRANCH   1  12
ATOM     12  C   UNL     1     -21.317  57.277   0.605  1.00  0.00     0.025 A 
ATOM     13  C   UNL     1     -21.124  57.763  -0.697  1.00  0.00     0.016 A 
ATOM     14  C   UNL     1     -19.854  58.161  -1.123  1.00  0.00     0.051 A 
ATOM     15  C   UNL     1     -18.762  58.094  -0.251  1.00  0.00     0.157 A 
ATOM     16  C   UNL     1     -20.222  57.231   1.487  1.00  0.00     0.062 A 
ATOM     17  C   UNL     1     -18.947  57.631   1.063  1.00  0.00     0.158 A 
BRANCH  15  18
ATOM     18  O   UNL     1     -17.506  58.495  -0.705  1.00  0.00    -0.504 OA
ATOM     19  H   UNL     1     -16.909  59.108  -0.163  1.00  0.00     0.293 HD
ENDBRANCH  15  18
BRANCH  17  20
ATOM     20  O   UNL     1     -17.866  57.575   1.941  1.00  0.00    -0.504 OA
ATOM     21  H   UNL     1     -17.254  56.769   1.978  1.00  0.00     0.293 HD
ENDBRANCH  17  20
ENDBRANCH   1  12
BRANCH   2  22
ATOM     22  O   UNL     1     -21.837  54.942   2.239  1.00  0.00    -0.502 OA
ATOM     23  H   UNL     1     -21.809  53.952   2.023  1.00  0.00     0.293 HD
ENDBRANCH   2  22
BRANCH   6  24
ATOM     24  O   UNL     1     -27.079  55.170   3.156  1.00  0.00    -0.507 OA
ATOM     25  H   UNL     1     -27.233  55.366   4.133  1.00  0.00     0.293 HD
ENDBRANCH   6  24
BRANCH   8  26
ATOM     26  O   UNL     1     -28.317  58.736   0.216  1.00  0.00    -0.508 OA
ATOM     27  H   UNL     1     -28.344  59.738   0.368  1.00  0.00     0.293 HD
ENDBRANCH   8  26
TORSDOF 6
ENDMDL
MODEL 2
REMARK VINA RESULT:    -5.567      1.460      2.077
REMARK INTER + INTRA:          -6.613
REMARK INTER:                  -6.453
REMARK INTRA:                  -0.160
REMARK UNBOUND:                 0.093
REMARK SMILES O=c1c(O)c(-c2ccc(O)c(O)c2)oc2cc(O)cc(O)c12
REMARK SMILES IDX 5 1 3 2 2 3 1 4 22 5 20 6 19 7 17 8 16 9 15 10 14 11 6 12
REMARK SMILES IDX 7 13 8 14 9 15 13 16 11 17 10 18 12 20 4 22 21 24 18 26
REMARK H PARENT 10 19 12 21 4 23 21 25 18 27
REMARK Flexibility Score: inf
ROOT
ATOM      1  C   UNL     1     -22.058  56.548   1.540  1.00  0.00     0.180 A 
ATOM      2  C   UNL     1     -21.821  55.508   2.454  1.00  0.00     0.208 A 
ATOM      3  C   UNL     1     -22.910  54.928   3.125  1.00  0.00     0.238 A 
ATOM      4  O   UNL     1     -22.696  53.960   3.900  1.00  0.00    -0.285 OA
ATOM      5  C   UNL     1     -24.220  55.406   2.884  1.00  0.00     0.111 A 
ATOM      6  C   UNL     1     -25.393  54.920   3.537  1.00  0.00     0.134 A 
ATOM      7  C   UNL     1     -26.652  55.376   3.125  1.00  0.00     0.093 A 
ATOM      8  C   UNL     1     -26.777  56.348   2.133  1.00  0.00     0.123 A 
ATOM      9  C   UNL     1     -25.633  56.873   1.530  1.00  0.00     0.094 A 
ATOM     10  C   UNL     1     -24.366  56.411   1.893  1.00  0.00     0.146 A 
ATOM     11  O   UNL     1     -23.304  56.930   1.287  1.00  0.00    -0.452 OA
ENDROOT
BRANCH   1  12
ATOM     12  C   UNL     1     -20.959  57.226   0.814  1.00  0.00     0.025 A 
ATOM     13  C   UNL     1     -20.000  57.952   1.537  1.00  0.00     0.016 A 
ATOM     14  C   UNL     1     -18.942  58.582   0.875  1.00  0.00     0.051 A 
ATOM     15  C   UNL     1     -18.818  58.484  -0.514  1.00  0.00     0.157 A 
ATOM     16  C   UNL     1     -20.820  57.110  -0.580  1.00  0.00     0.062 A 
ATOM     17  C   UNL     1     -19.759  57.740  -1.247  1.00  0.00     0.158 A 
BRANCH  15  18
ATOM     18  O   UNL     1     -17.754  59.125  -1.148  1.00  0.00    -0.504 OA
ATOM     19  H   UNL     1     -17.780  59.364  -2.132  1.00  0.00     0.293 HD
ENDBRANCH  15  18
BRANCH  17  20
ATOM     20  O   UNL     1     -19.634  57.625  -2.630  1.00  0.00    -0.504 OA
ATOM     21  H   UNL     1     -20.030  56.842  -3.136  1.00  0.00     0.293 HD
ENDBRANCH  17  20
ENDBRANCH   1  12
BRANCH   2  22
ATOM     22  O   UNL     1     -20.521  55.036   2.660  1.00  0.00    -0.502 OA
ATOM     23  H   UNL     1     -19.782  55.163   1.978  1.00  0.00     0.293 HD
ENDBRANCH   2  22
BRANCH   6  24
ATOM     24  O   UNL     1     -25.374  54.017   4.603  1.00  0.00    -0.507 OA
ATOM     25  H   UNL     1     -25.853  54.153   5.480  1.00  0.00     0.293 HD
ENDBRANCH   6  24
BRANCH   8  26
ATOM     26  O   UNL     1     -28.043  56.790   1.760  1.00  0.00    -0.508 OA
ATOM     27  H   UNL     1     -28.633  56.249   1.139  1.00  0.00     0.293 HD
ENDBRANCH   8  26
TORSDOF 6
ENDMDL
MODEL 3
REMARK VINA RESULT:    -5.287      2.127      4.277
REMARK INTER + INTRA:          -6.275
REMARK INTER:                  -6.586
REMARK INTRA:                   0.310
REMARK UNBOUND:                 0.093
REMARK SMILES O=c1c(O)c(-c2ccc(O)c(O)c2)oc2cc(O)cc(O)c12
REMARK SMILES IDX 5 1 3 2 2 3 1 4 22 5 20 6 19 7 17 8 16 9 15 10 14 11 6 12
REMARK SMILES IDX 7 13 8 14 9 15 13 16 11 17 10 18 12 20 4 22 21 24 18 26
REMARK H PARENT 10 19 12 21 4 23 21 25 18 27
REMARK Flexibility Score: inf
ROOT
ATOM      1  C   UNL     1     -21.960  56.562   1.440  1.00  0.00     0.180 A 
ATOM      2  C   UNL     1     -23.353  56.738   1.370  1.00  0.00     0.208 A 
ATOM      3  C   UNL     1     -24.175  56.034   2.266  1.00  0.00     0.238 A 
ATOM      4  O   UNL     1     -25.416  56.238   2.234  1.00  0.00    -0.285 OA
ATOM      5  C   UNL     1     -23.595  55.152   3.208  1.00  0.00     0.111 A 
ATOM      6  C   UNL     1     -24.334  54.358   4.136  1.00  0.00     0.134 A 
ATOM      7  C   UNL     1     -23.651  53.619   5.111  1.00  0.00     0.093 A 
ATOM      8  C   UNL     1     -22.257  53.593   5.149  1.00  0.00     0.123 A 
ATOM      9  C   UNL     1     -21.525  54.318   4.209  1.00  0.00     0.094 A 
ATOM     10  C   UNL     1     -22.178  55.094   3.248  1.00  0.00     0.146 A 
ATOM     11  O   UNL     1     -21.443  55.778   2.379  1.00  0.00    -0.452 OA
ENDROOT
BRANCH   1  12
ATOM     12  C   UNL     1     -21.032  57.250   0.514  1.00  0.00     0.025 A 
ATOM     13  C   UNL     1     -19.690  57.426   0.886  1.00  0.00     0.016 A 
ATOM     14  C   UNL     1     -18.791  58.053   0.020  1.00  0.00     0.051 A 
ATOM     15  C   UNL     1     -19.215  58.500  -1.236  1.00  0.00     0.157 A 
ATOM     16  C   UNL     1     -21.450  57.680  -0.758  1.00  0.00     0.062 A 
ATOM     17  C   UNL     1     -20.550  58.309  -1.630  1.00  0.00     0.158 A 
BRANCH  15  18
ATOM     18  O   UNL     1     -18.296  59.125  -2.079  1.00  0.00    -0.504 OA
ATOM     19  H   UNL     1     -18.565  59.873  -2.707  1.00  0.00     0.293 HD
ENDBRANCH  15  18
BRANCH  17  20
ATOM     20  O   UNL     1     -20.975  58.738  -2.887  1.00  0.00    -0.504 OA
ATOM     21  H   UNL     1     -21.821  59.283  -3.002  1.00  0.00     0.293 HD
ENDBRANCH  17  20
ENDBRANCH   1  12
BRANCH   2  22
ATOM     22  O   UNL     1     -23.902  57.632   0.446  1.00  0.00    -0.502 OA
ATOM     23  H   UNL     1     -23.519  58.557   0.290  1.00  0.00     0.293 HD
ENDBRANCH   2  22
BRANCH   6  24
ATOM     24  O   UNL     1     -25.727  54.240   4.126  1.00  0.00    -0.507 OA
ATOM     25  H   UNL     1     -26.233  53.393   4.333  1.00  0.00     0.293 HD
ENDBRANCH   6  24
BRANCH   8  26
ATOM     26  O   UNL     1     -21.611  52.834   6.122  1.00  0.00    -0.508 OA
ATOM     27  H   UNL     1     -21.579  53.130   7.091  1.00  0.00     0.293 HD
ENDBRANCH   8  26
TORSDOF 6
ENDMDL
MODEL 4
REMARK VINA RESULT:    -4.880      1.536      7.240
REMARK INTER + INTRA:          -5.785
REMARK INTER:                  -5.614
REMARK INTRA:                  -0.171
REMARK UNBOUND:                 0.093
REMARK SMILES O=c1c(O)c(-c2ccc(O)c(O)c2)oc2cc(O)cc(O)c12
REMARK SMILES IDX 5 1 3 2 2 3 1 4 22 5 20 6 19 7 17 8 16 9 15 10 14 11 6 12
REMARK SMILES IDX 7 13 8 14 9 15 13 16 11 17 10 18 12 20 4 22 21 24 18 26
REMARK H PARENT 10 19 12 21 4 23 21 25 18 27
REMARK Flexibility Score: inf
ROOT
ATOM      1  C   UNL     1     -23.371  57.931   0.670  1.00  0.00     0.180 A 
ATOM      2  C   UNL     1     -23.301  58.339  -0.673  1.00  0.00     0.208 A 
ATOM      3  C   UNL     1     -22.041  58.537  -1.260  1.00  0.00     0.238 A 
ATOM      4  O   UNL     1     -21.984  58.849  -2.478  1.00  0.00    -0.285 OA
ATOM      5  C   UNL     1     -20.868  58.341  -0.493  1.00  0.00     0.111 A 
ATOM      6  C   UNL     1     -19.540  58.552  -0.973  1.00  0.00     0.134 A 
ATOM      7  C   UNL     1     -18.450  58.200  -0.167  1.00  0.00     0.093 A 
ATOM      8  C   UNL     1     -18.638  57.709   1.124  1.00  0.00     0.123 A 
ATOM      9  C   UNL     1     -19.931  57.555   1.625  1.00  0.00     0.094 A 
ATOM     10  C   UNL     1     -21.039  57.862   0.832  1.00  0.00     0.146 A 
ATOM     11  O   UNL     1     -22.252  57.691   1.343  1.00  0.00    -0.452 OA
ENDROOT
BRANCH   1  12
ATOM     12  C   UNL     1     -24.663  57.726   1.365  1.00  0.00     0.025 A 
ATOM     13  C   UNL     1     -25.515  58.821   1.574  1.00  0.00     0.016 A 
ATOM     14  C   UNL     1     -26.748  58.647   2.209  1.00  0.00     0.051 A 
ATOM     15  C   UNL     1     -27.154  57.377   2.630  1.00  0.00     0.157 A 
ATOM     16  C   UNL     1     -25.083  56.446   1.769  1.00  0.00     0.062 A 
ATOM     17  C   UNL     1     -26.320  56.268   2.405  1.00  0.00     0.158 A 
BRANCH  15  18
ATOM     18  O   UNL     1     -28.388  57.234   3.263  1.00  0.00    -0.504 OA
ATOM     19  H   UNL     1     -28.669  56.367   3.705  1.00  0.00     0.293 HD
ENDBRANCH  15  18
BRANCH  17  20
ATOM     20  O   UNL     1     -26.725  54.997   2.809  1.00  0.00    -0.504 OA
ATOM     21  H   UNL     1     -26.095  54.204   2.775  1.00  0.00     0.293 HD
ENDBRANCH  17  20
ENDBRANCH   1  12
BRANCH   2  22
ATOM     22  O   UNL     1     -24.472  58.505  -1.419  1.00  0.00    -0.502 OA
ATOM     23  H   UNL     1     -24.474  58.519  -2.432  1.00  0.00     0.293 HD
ENDBRANCH   2  22
BRANCH   6  24
ATOM     24  O   UNL     1     -19.241  59.123  -2.213  1.00  0.00    -0.507 OA
ATOM     25  H   UNL     1     -18.776  60.009  -2.341  1.00  0.00     0.293 HD
ENDBRANCH   6  24
BRANCH   8  26
ATOM     26  O   UNL     1     -17.530  57.384   1.904  1.00  0.00    -0.508 OA
ATOM     27  H   UNL     1     -17.614  57.211   2.899  1.00  0.00     0.293 HD
ENDBRANCH   8  26
TORSDOF 6
ENDMDL
MODEL 5
REMARK VINA RESULT:    -4.804      2.856      6.113
REMARK INTER + INTRA:          -5.693
REMARK INTER:                  -5.700
REMARK INTRA:                   0.007
REMARK UNBOUND:                 0.093
REMARK SMILES O=c1c(O)c(-c2ccc(O)c(O)c2)oc2cc(O)cc(O)c12
REMARK SMILES IDX 5 1 3 2 2 3 1 4 22 5 20 6 19 7 17 8 16 9 15 10 14 11 6 12
REMARK SMILES IDX 7 13 8 14 9 15 13 16 11 17 10 18 12 20 4 22 21 24 18 26
REMARK H PARENT 10 19 12 21 4 23 21 25 18 27
REMARK Flexibility Score: inf
ROOT
ATOM      1  C   UNL     1     -23.887  54.951   2.823  1.00  0.00     0.180 A 
ATOM      2  C   UNL     1     -25.212  55.384   2.643  1.00  0.00     0.208 A 
ATOM      3  C   UNL     1     -25.456  56.524   1.859  1.00  0.00     0.238 A 
ATOM      4  O   UNL     1     -26.648  56.874   1.657  1.00  0.00    -0.285 OA
ATOM      5  C   UNL     1     -24.372  57.225   1.280  1.00  0.00     0.111 A 
ATOM      6  C   UNL     1     -24.500  58.415   0.502  1.00  0.00     0.134 A 
ATOM      7  C   UNL     1     -23.371  58.950  -0.132  1.00  0.00     0.093 A 
ATOM      8  C   UNL     1     -22.111  58.379   0.038  1.00  0.00     0.123 A 
ATOM      9  C   UNL     1     -21.965  57.251   0.846  1.00  0.00     0.094 A 
ATOM     10  C   UNL     1     -23.078  56.672   1.461  1.00  0.00     0.146 A 
ATOM     11  O   UNL     1     -22.897  55.592   2.212  1.00  0.00    -0.452 OA
ENDROOT
BRANCH   1  12
ATOM     12  C   UNL     1     -23.549  53.774   3.655  1.00  0.00     0.025 A 
ATOM     13  C   UNL     1     -22.613  53.908   4.693  1.00  0.00     0.016 A 
ATOM     14  C   UNL     1     -22.294  52.816   5.504  1.00  0.00     0.051 A 
ATOM     15  C   UNL     1     -22.915  51.579   5.301  1.00  0.00     0.157 A 
ATOM     16  C   UNL     1     -24.188  52.535   3.467  1.00  0.00     0.062 A 
ATOM     17  C   UNL     1     -23.870  51.438   4.281  1.00  0.00     0.158 A 
BRANCH  15  18
ATOM     18  O   UNL     1     -22.575  50.507   6.125  1.00  0.00    -0.504 OA
ATOM     19  H   UNL     1     -22.171  49.653   5.757  1.00  0.00     0.293 HD
ENDBRANCH  15  18
BRANCH  17  20
ATOM     20  O   UNL     1     -24.504  50.212   4.083  1.00  0.00    -0.504 OA
ATOM     21  H   UNL     1     -25.107  50.050   3.285  1.00  0.00     0.293 HD
ENDBRANCH  17  20
ENDBRANCH   1  12
BRANCH   2  22
ATOM     22  O   UNL     1     -26.269  54.663   3.206  1.00  0.00    -0.502 OA
ATOM     23  H   UNL     1     -27.127  55.106   3.513  1.00  0.00     0.293 HD
ENDBRANCH   2  22
BRANCH   6  24
ATOM     24  O   UNL     1     -25.697  59.118   0.342  1.00  0.00    -0.507 OA
ATOM     25  H   UNL     1     -25.876  59.791  -0.387  1.00  0.00     0.293 HD
ENDBRANCH   6  24
BRANCH   8  26
ATOM     26  O   UNL     1     -21.007  58.948  -0.594  1.00  0.00    -0.508 OA
ATOM     27  H   UNL     1     -20.973  59.063  -1.600  1.00  0.00     0.293 HD
ENDBRANCH   8  26
TORSDOF 6
ENDMDL
MODEL 6
REMARK VINA RESULT:    -4.702      1.556      3.234
REMARK INTER + INTRA:          -5.571
REMARK INTER:                  -5.363
REMARK INTRA:                  -0.207
REMARK UNBOUND:                 0.093
REMARK SMILES O=c1c(O)c(-c2ccc(O)c(O)c2)oc2cc(O)cc(O)c12
REMARK SMILES IDX 5 1 3 2 2 3 1 4 22 5 20 6 19 7 17 8 16 9 15 10 14 11 6 12
REMARK SMILES IDX 7 13 8 14 9 15 13 16 11 17 10 18 12 20 4 22 21 24 18 26
REMARK H PARENT 10 19 12 21 4 23 21 25 18 27
REMARK Flexibility Score: inf
ROOT
ATOM      1  C   UNL     1     -23.243  57.755   0.723  1.00  0.00     0.180 A 
ATOM      2  C   UNL     1     -24.357  58.243   0.018  1.00  0.00     0.208 A 
ATOM      3  C   UNL     1     -25.645  57.866   0.432  1.00  0.00     0.238 A 
ATOM      4  O   UNL     1     -26.639  58.350  -0.169  1.00  0.00    -0.285 OA
ATOM      5  C   UNL     1     -25.802  56.996   1.537  1.00  0.00     0.111 A 
ATOM      6  C   UNL     1     -27.058  56.517   2.019  1.00  0.00     0.134 A 
ATOM      7  C   UNL     1     -27.103  55.764   3.200  1.00  0.00     0.093 A 
ATOM      8  C   UNL     1     -25.935  55.417   3.877  1.00  0.00     0.123 A 
ATOM      9  C   UNL     1     -24.698  55.830   3.382  1.00  0.00     0.094 A 
ATOM     10  C   UNL     1     -24.623  56.613   2.227  1.00  0.00     0.146 A 
ATOM     11  O   UNL     1     -23.426  56.993   1.795  1.00  0.00    -0.452 OA
ENDROOT
BRANCH   1  12
ATOM     12  C   UNL     1     -21.854  58.087   0.331  1.00  0.00     0.025 A 
ATOM     13  C   UNL     1     -21.044  58.818   1.212  1.00  0.00     0.016 A 
ATOM     14  C   UNL     1     -19.724  59.125   0.871  1.00  0.00     0.051 A 
ATOM     15  C   UNL     1     -19.190  58.693  -0.347  1.00  0.00     0.157 A 
ATOM     16  C   UNL     1     -21.309  57.635  -0.884  1.00  0.00     0.062 A 
ATOM     17  C   UNL     1     -19.984  57.940  -1.228  1.00  0.00     0.158 A 
BRANCH  15  18
ATOM     18  O   UNL     1     -17.870  59.016  -0.661  1.00  0.00    -0.504 OA
ATOM     19  H   UNL     1     -17.529  59.970  -0.635  1.00  0.00     0.293 HD
ENDBRANCH  15  18
BRANCH  17  20
ATOM     20  O   UNL     1     -19.453  57.494  -2.438  1.00  0.00    -0.504 OA
ATOM     21  H   UNL     1     -18.586  56.972  -2.476  1.00  0.00     0.293 HD
ENDBRANCH  17  20
ENDBRANCH   1  12
BRANCH   2  22
ATOM     22  O   UNL     1     -24.179  59.120  -1.056  1.00  0.00    -0.502 OA
ATOM     23  H   UNL     1     -24.878  59.243  -1.780  1.00  0.00     0.293 HD
ENDBRANCH   2  22
BRANCH   6  24
ATOM     24  O   UNL     1     -28.276  56.729   1.367  1.00  0.00    -0.507 OA
ATOM     25  H   UNL     1     -28.419  56.636   0.373  1.00  0.00     0.293 HD
ENDBRANCH   6  24
BRANCH   8  26
ATOM     26  O   UNL     1     -26.016  54.654   5.040  1.00  0.00    -0.508 OA
ATOM     27  H   UNL     1     -26.282  53.676   5.015  1.00  0.00     0.293 HD
ENDBRANCH   8  26
TORSDOF 6
ENDMDL
MODEL 7
REMARK VINA RESULT:    -4.632      2.543      6.014
REMARK INTER + INTRA:          -5.487
REMARK INTER:                  -5.222
REMARK INTRA:                  -0.265
REMARK UNBOUND:                 0.093
REMARK SMILES O=c1c(O)c(-c2ccc(O)c(O)c2)oc2cc(O)cc(O)c12
REMARK SMILES IDX 5 1 3 2 2 3 1 4 22 5 20 6 19 7 17 8 16 9 15 10 14 11 6 12
REMARK SMILES IDX 7 13 8 14 9 15 13 16 11 17 10 18 12 20 4 22 21 24 18 26
REMARK H PARENT 10 19 12 21 4 23 21 25 18 27
REMARK Flexibility Score: inf
ROOT
ATOM      1  C   UNL     1     -24.115  57.203   1.485  1.00  0.00     0.180 A 
ATOM      2  C   UNL     1     -22.757  57.553   1.395  1.00  0.00     0.208 A 
ATOM      3  C   UNL     1     -22.277  58.123   0.204  1.00  0.00     0.238 A 
ATOM      4  O   UNL     1     -21.073  58.484   0.150  1.00  0.00    -0.285 OA
ATOM      5  C   UNL     1     -23.157  58.320  -0.886  1.00  0.00     0.111 A 
ATOM      6  C   UNL     1     -22.771  58.851  -2.154  1.00  0.00     0.134 A 
ATOM      7  C   UNL     1     -23.751  59.125  -3.116  1.00  0.00     0.093 A 
ATOM      8  C   UNL     1     -25.093  58.825  -2.883  1.00  0.00     0.123 A 
ATOM      9  C   UNL     1     -25.473  58.250  -1.670  1.00  0.00     0.094 A 
ATOM     10  C   UNL     1     -24.523  58.000  -0.676  1.00  0.00     0.146 A 
ATOM     11  O   UNL     1     -24.929  57.462   0.468  1.00  0.00    -0.452 OA
ENDROOT
BRANCH   1  12
ATOM     12  C   UNL     1     -24.689  56.576   2.697  1.00  0.00     0.025 A 
ATOM     13  C   UNL     1     -25.572  57.311   3.503  1.00  0.00     0.016 A 
ATOM     14  C   UNL     1     -26.141  56.732   4.640  1.00  0.00     0.051 A 
ATOM     15  C   UNL     1     -25.849  55.407   4.981  1.00  0.00     0.157 A 
ATOM     16  C   UNL     1     -24.414  55.237   3.029  1.00  0.00     0.062 A 
ATOM     17  C   UNL     1     -24.985  54.653   4.169  1.00  0.00     0.158 A 
BRANCH  15  18
ATOM     18  O   UNL     1     -26.430  54.857   6.123  1.00  0.00    -0.504 OA
ATOM     19  H   UNL     1     -26.702  55.427   6.916  1.00  0.00     0.293 HD
ENDBRANCH  15  18
BRANCH  17  20
ATOM     20  O   UNL     1     -24.701  53.328   4.495  1.00  0.00    -0.504 OA
ATOM     21  H   UNL     1     -24.794  52.583   3.814  1.00  0.00     0.293 HD
ENDBRANCH  17  20
ENDBRANCH   1  12
BRANCH   2  22
ATOM     22  O   UNL     1     -21.910  57.370   2.492  1.00  0.00    -0.502 OA
ATOM     23  H   UNL     1     -22.027  57.880   3.361  1.00  0.00     0.293 HD
ENDBRANCH   2  22
BRANCH   6  24
ATOM     24  O   UNL     1     -21.446  59.101  -2.524  1.00  0.00    -0.507 OA
ATOM     25  H   UNL     1     -20.831  59.749  -2.056  1.00  0.00     0.293 HD
ENDBRANCH   6  24
BRANCH   8  26
ATOM     26  O   UNL     1     -26.039  59.095  -3.869  1.00  0.00    -0.508 OA
ATOM     27  H   UNL     1     -26.597  58.359  -4.285  1.00  0.00     0.293 HD
ENDBRANCH   8  26
TORSDOF 6
ENDMDL
MODEL 8
REMARK VINA RESULT:    -4.587      1.965      6.585
REMARK INTER + INTRA:          -5.432
REMARK INTER:                  -5.245
REMARK INTRA:                  -0.187
REMARK UNBOUND:                 0.093
REMARK SMILES O=c1c(O)c(-c2ccc(O)c(O)c2)oc2cc(O)cc(O)c12
REMARK SMILES IDX 5 1 3 2 2 3 1 4 22 5 20 6 19 7 17 8 16 9 15 10 14 11 6 12
REMARK SMILES IDX 7 13 8 14 9 15 13 16 11 17 10 18 12 20 4 22 21 24 18 26
REMARK H PARENT 10 19 12 21 4 23 21 25 18 27
REMARK Flexibility Score: inf
ROOT
ATOM      1  C   UNL     1     -23.113  57.269   1.950  1.00  0.00     0.180 A 
ATOM      2  C   UNL     1     -21.825  56.986   2.435  1.00  0.00     0.208 A 
ATOM      3  C   UNL     1     -20.724  57.141   1.577  1.00  0.00     0.238 A 
ATOM      4  O   UNL     1     -19.569  56.939   2.033  1.00  0.00    -0.285 OA
ATOM      5  C   UNL     1     -20.927  57.561   0.241  1.00  0.00     0.111 A 
ATOM      6  C   UNL     1     -19.889  57.712  -0.728  1.00  0.00     0.134 A 
ATOM      7  C   UNL     1     -20.189  58.260  -1.982  1.00  0.00     0.093 A 
ATOM      8  C   UNL     1     -21.498  58.598  -2.326  1.00  0.00     0.123 A 
ATOM      9  C   UNL     1     -22.529  58.398  -1.407  1.00  0.00     0.094 A 
ATOM     10  C   UNL     1     -22.255  57.889  -0.136  1.00  0.00     0.146 A 
ATOM     11  O   UNL     1     -23.264  57.724   0.712  1.00  0.00    -0.452 OA
ENDROOT
BRANCH   1  12
ATOM     12  C   UNL     1     -24.324  57.105   2.787  1.00  0.00     0.025 A 
ATOM     13  C   UNL     1     -24.542  57.979   3.863  1.00  0.00     0.016 A 
ATOM     14  C   UNL     1     -25.688  57.856   4.654  1.00  0.00     0.051 A 
ATOM     15  C   UNL     1     -26.639  56.870   4.373  1.00  0.00     0.157 A 
ATOM     16  C   UNL     1     -25.291  56.128   2.493  1.00  0.00     0.062 A 
ATOM     17  C   UNL     1     -26.443  56.003   3.284  1.00  0.00     0.158 A 
BRANCH  15  18
ATOM     18  O   UNL     1     -27.771  56.769   5.180  1.00  0.00    -0.504 OA
ATOM     19  H   UNL     1     -28.424  57.536   5.289  1.00  0.00     0.293 HD
ENDBRANCH  15  18
BRANCH  17  20
ATOM     20  O   UNL     1     -27.394  55.027   2.989  1.00  0.00    -0.504 OA
ATOM     21  H   UNL     1     -27.125  54.079   2.756  1.00  0.00     0.293 HD
ENDBRANCH  17  20
ENDBRANCH   1  12
BRANCH   2  22
ATOM     22  O   UNL     1     -21.645  56.594   3.765  1.00  0.00    -0.502 OA
ATOM     23  H   UNL     1     -22.123  55.795   4.166  1.00  0.00     0.293 HD
ENDBRANCH   2  22
BRANCH   6  24
ATOM     24  O   UNL     1     -18.564  57.320  -0.519  1.00  0.00    -0.507 OA
ATOM     25  H   UNL     1     -17.758  57.805  -0.880  1.00  0.00     0.293 HD
ENDBRANCH   6  24
BRANCH   8  26
ATOM     26  O   UNL     1     -21.762  59.125  -3.588  1.00  0.00    -0.508 OA
ATOM     27  H   UNL     1     -21.238  59.911  -3.955  1.00  0.00     0.293 HD
ENDBRANCH   8  26
TORSDOF 6
ENDMDL
MODEL 9
REMARK VINA RESULT:    -4.557      3.518      6.715
REMARK INTER + INTRA:          -5.396
REMARK INTER:                  -5.123
REMARK INTRA:                  -0.274
REMARK UNBOUND:                 0.093
REMARK SMILES O=c1c(O)c(-c2ccc(O)c(O)c2)oc2cc(O)cc(O)c12
REMARK SMILES IDX 5 1 3 2 2 3 1 4 22 5 20 6 19 7 17 8 16 9 15 10 14 11 6 12
REMARK SMILES IDX 7 13 8 14 9 15 13 16 11 17 10 18 12 20 4 22 21 24 18 26
REMARK H PARENT 10 19 12 21 4 23 21 25 18 27
REMARK Flexibility Score: inf
ROOT
ATOM      1  C   UNL     1     -24.808  56.361   3.053  1.00  0.00     0.180 A 
ATOM      2  C   UNL     1     -23.672  57.024   3.547  1.00  0.00     0.208 A 
ATOM      3  C   UNL     1     -22.741  56.304   4.314  1.00  0.00     0.238 A 
ATOM      4  O   UNL     1     -21.699  56.890   4.707  1.00  0.00    -0.285 OA
ATOM      5  C   UNL     1     -22.966  54.935   4.589  1.00  0.00     0.111 A 
ATOM      6  C   UNL     1     -22.111  54.117   5.388  1.00  0.00     0.134 A 
ATOM      7  C   UNL     1     -22.362  52.742   5.485  1.00  0.00     0.093 A 
ATOM      8  C   UNL     1     -23.473  52.168   4.869  1.00  0.00     0.123 A 
ATOM      9  C   UNL     1     -24.349  52.969   4.135  1.00  0.00     0.094 A 
ATOM     10  C   UNL     1     -24.104  54.336   3.989  1.00  0.00     0.146 A 
ATOM     11  O   UNL     1     -24.957  55.060   3.273  1.00  0.00    -0.452 OA
ENDROOT
BRANCH   1  12
ATOM     12  C   UNL     1     -25.845  57.059   2.260  1.00  0.00     0.025 A 
ATOM     13  C   UNL     1     -27.035  57.463   2.883  1.00  0.00     0.016 A 
ATOM     14  C   UNL     1     -28.020  58.142   2.159  1.00  0.00     0.051 A 
ATOM     15  C   UNL     1     -27.823  58.440   0.807  1.00  0.00     0.157 A 
ATOM     16  C   UNL     1     -25.640  57.379   0.905  1.00  0.00     0.062 A 
ATOM     17  C   UNL     1     -26.626  58.062   0.177  1.00  0.00     0.158 A 
BRANCH  15  18
ATOM     18  O   UNL     1     -28.824  59.116   0.110  1.00  0.00    -0.504 OA
ATOM     19  H   UNL     1     -29.807  58.982   0.316  1.00  0.00     0.293 HD
ENDBRANCH  15  18
BRANCH  17  20
ATOM     20  O   UNL     1     -26.417  58.369  -1.167  1.00  0.00    -0.504 OA
ATOM     21  H   UNL     1     -26.408  59.327  -1.496  1.00  0.00     0.293 HD
ENDBRANCH  17  20
ENDBRANCH   1  12
BRANCH   2  22
ATOM     22  O   UNL     1     -23.458  58.373   3.244  1.00  0.00    -0.502 OA
ATOM     23  H   UNL     1     -22.536  58.792   3.252  1.00  0.00     0.293 HD
ENDBRANCH   2  22
BRANCH   6  24
ATOM     24  O   UNL     1     -21.026  54.606   6.120  1.00  0.00    -0.507 OA
ATOM     25  H   UNL     1     -20.610  54.140   6.912  1.00  0.00     0.293 HD
ENDBRANCH   6  24
BRANCH   8  26
ATOM     26  O   UNL     1     -23.702  50.800   5.001  1.00  0.00    -0.508 OA
ATOM     27  H   UNL     1     -24.589  50.383   4.743  1.00  0.00     0.293 HD
ENDBRANCH   8  26
TORSDOF 6
ENDMDL
