MODEL 1
REMARK VINA RESULT:     3.380      0.000      0.000
REMARK INTER + INTRA:           3.947
REMARK INTER:                   3.972
REMARK INTRA:                  -0.026
REMARK UNBOUND:                -0.026
REMARK SMILES O=C([O-])C=Cc1ccc(O)c(O)c1
REMARK SMILES IDX 6 1 13 2 7 3 11 4 8 5 9 6 5 7 4 8 2 9 1 10 3 11 12 12 10 14
REMARK H PARENT 12 13 10 15
REMARK Flexibility Score: inf
ROOT
ATOM      1  C   UNL     1       8.220  23.790  35.357  1.00  0.00    -0.022 A 
ATOM      2  C   UNL     1       8.946  22.589  35.411  1.00  0.00     0.058 A 
ATOM      3  C   UNL     1       8.219  24.540  34.173  1.00  0.00     0.012 A 
ATOM      4  C   UNL     1       9.708  22.169  34.310  1.00  0.00     0.157 A 
ATOM      5  C   UNL     1       8.977  24.124  33.075  1.00  0.00     0.051 A 
ATOM      6  C   UNL     1       9.725  22.944  33.138  1.00  0.00     0.157 A 
ENDROOT
BRANCH   1   7
ATOM      7  C   UNL     1       7.369  24.222  36.486  1.00  0.00     0.010 C 
ATOM      8  C   UNL     1       7.805  24.844  37.592  1.00  0.00     0.025 C 
BRANCH   8   9
ATOM      9  C   UNL     1       9.166  25.374  37.796  1.00  0.00     0.064 C 
ATOM     10  O   UNL     1       9.321  26.602  38.021  1.00  0.00    -0.545 OA
ATOM     11  O   UNL     1      10.288  24.562  37.675  1.00  0.00    -0.545 OA
ENDBRANCH   8   9
ENDBRANCH   1   7
BRANCH   4  12
ATOM     12  O   UNL     1      10.441  20.985  34.376  1.00  0.00    -0.504 OA
ATOM     13  H   UNL     1      10.470  20.335  33.598  1.00  0.00     0.293 HD
ENDBRANCH   4  12
BRANCH   6  14
ATOM     14  O   UNL     1      10.476  22.556  32.028  1.00  0.00    -0.504 OA
ATOM     15  H   UNL     1      10.185  21.801  31.419  1.00  0.00     0.293 HD
ENDBRANCH   6  14
TORSDOF 4
ENDMDL
MODEL 2
REMARK VINA RESULT:     3.870      1.818      4.681
REMARK INTER + INTRA:           4.523
REMARK INTER:                   4.488
REMARK INTRA:                   0.035
REMARK UNBOUND:                -0.026
REMARK SMILES O=C([O-])C=Cc1ccc(O)c(O)c1
REMARK SMILES IDX 6 1 13 2 7 3 11 4 8 5 9 6 5 7 4 8 2 9 1 10 3 11 12 12 10 14
REMARK H PARENT 12 13 10 15
REMARK Flexibility Score: inf
ROOT
ATOM      1  C   UNL     1       9.247  23.003  35.037  1.00  0.00    -0.022 A 
ATOM      2  C   UNL     1      10.092  23.279  36.124  1.00  0.00     0.058 A 
ATOM      3  C   UNL     1       8.046  23.714  34.902  1.00  0.00     0.012 A 
ATOM      4  C   UNL     1       9.716  24.217  37.097  1.00  0.00     0.157 A 
ATOM      5  C   UNL     1       7.670  24.649  35.870  1.00  0.00     0.051 A 
ATOM      6  C   UNL     1       8.496  24.902  36.969  1.00  0.00     0.157 A 
ENDROOT
BRANCH   1   7
ATOM      7  C   UNL     1       9.649  22.057  33.975  1.00  0.00     0.010 C 
ATOM      8  C   UNL     1      10.132  20.822  34.178  1.00  0.00     0.025 C 
BRANCH   8   9
ATOM      9  C   UNL     1      10.169  20.120  35.474  1.00  0.00     0.064 C 
ATOM     10  O   UNL     1       9.106  19.642  35.946  1.00  0.00    -0.545 OA
ATOM     11  O   UNL     1      11.339  20.035  36.221  1.00  0.00    -0.545 OA
ENDBRANCH   8   9
ENDBRANCH   1   7
BRANCH   4  12
ATOM     12  O   UNL     1      10.552  24.474  38.183  1.00  0.00    -0.504 OA
ATOM     13  H   UNL     1      10.332  25.193  38.863  1.00  0.00     0.293 HD
ENDBRANCH   4  12
BRANCH   6  14
ATOM     14  O   UNL     1       8.092  25.838  37.921  1.00  0.00    -0.504 OA
ATOM     15  H   UNL     1       7.183  25.798  38.364  1.00  0.00     0.293 HD
ENDBRANCH   6  14
TORSDOF 4
ENDMDL
MODEL 3
REMARK VINA RESULT:     4.049      9.947     11.539
REMARK INTER + INTRA:           4.734
REMARK INTER:                   4.688
REMARK INTRA:                   0.046
REMARK UNBOUND:                -0.026
REMARK SMILES O=C([O-])C=Cc1ccc(O)c(O)c1
REMARK SMILES IDX 6 1 13 2 7 3 11 4 8 5 9 6 5 7 4 8 2 9 1 10 3 11 12 12 10 14
REMARK H PARENT 12 13 10 15
REMARK Flexibility Score: inf
ROOT
ATOM      1  C   UNL     1      18.040  23.986  27.352  1.00  0.00    -0.022 A 
ATOM      2  C   UNL     1      18.961  23.721  28.381  1.00  0.00     0.058 A 
ATOM      3  C   UNL     1      17.309  22.927  26.796  1.00  0.00     0.012 A 
ATOM      4  C   UNL     1      19.187  22.406  28.810  1.00  0.00     0.157 A 
ATOM      5  C   UNL     1      17.533  21.616  27.223  1.00  0.00     0.051 A 
ATOM      6  C   UNL     1      18.471  21.348  28.224  1.00  0.00     0.157 A 
ENDROOT
BRANCH   1   7
ATOM      7  C   UNL     1      17.749  25.370  26.923  1.00  0.00     0.010 C 
ATOM      8  C   UNL     1      16.826  26.175  27.470  1.00  0.00     0.025 C 
BRANCH   8   9
ATOM      9  C   UNL     1      16.073  25.896  28.707  1.00  0.00     0.064 C 
ATOM     10  O   UNL     1      16.700  25.572  29.749  1.00  0.00    -0.545 OA
ATOM     11  O   UNL     1      14.684  25.915  28.732  1.00  0.00    -0.545 OA
ENDBRANCH   8   9
ENDBRANCH   1   7
BRANCH   4  12
ATOM     12  O   UNL     1      20.115  22.148  29.820  1.00  0.00    -0.504 OA
ATOM     13  H   UNL     1      19.826  22.001  30.780  1.00  0.00     0.293 HD
ENDBRANCH   4  12
BRANCH   6  14
ATOM     14  O   UNL     1      18.677  20.028  28.627  1.00  0.00    -0.504 OA
ATOM     15  H   UNL     1      18.327  19.242  28.095  1.00  0.00     0.293 HD
ENDBRANCH   6  14
TORSDOF 4
ENDMDL
MODEL 4
REMARK VINA RESULT:     4.151     11.933     12.845
REMARK INTER + INTRA:           4.853
REMARK INTER:                   4.800
REMARK INTRA:                   0.052
REMARK UNBOUND:                -0.026
REMARK SMILES O=C([O-])C=Cc1ccc(O)c(O)c1
REMARK SMILES IDX 6 1 13 2 7 3 11 4 8 5 9 6 5 7 4 8 2 9 1 10 3 11 12 12 10 14
REMARK H PARENT 12 13 10 15
REMARK Flexibility Score: inf
ROOT
ATOM      1  C   UNL     1      17.993  23.526  28.009  1.00  0.00    -0.022 A 
ATOM      2  C   UNL     1      17.563  22.388  27.305  1.00  0.00     0.058 A 
ATOM      3  C   UNL     1      19.159  23.453  28.784  1.00  0.00     0.012 A 
ATOM      4  C   UNL     1      18.261  21.177  27.418  1.00  0.00     0.157 A 
ATOM      5  C   UNL     1      19.856  22.248  28.898  1.00  0.00     0.051 A 
ATOM      6  C   UNL     1      19.411  21.107  28.223  1.00  0.00     0.157 A 
ENDROOT
BRANCH   1   7
ATOM      7  C   UNL     1      17.302  24.824  27.862  1.00  0.00     0.010 C 
ATOM      8  C   UNL     1      17.736  25.854  27.120  1.00  0.00     0.025 C 
BRANCH   8   9
ATOM      9  C   UNL     1      18.869  25.812  26.177  1.00  0.00     0.064 C 
ATOM     10  O   UNL     1      20.034  25.638  26.621  1.00  0.00    -0.545 OA
ATOM     11  O   UNL     1      18.690  26.030  24.816  1.00  0.00    -0.545 OA
ENDBRANCH   8   9
ENDBRANCH   1   7
BRANCH   4  12
ATOM     12  O   UNL     1      17.820  20.047  26.730  1.00  0.00    -0.504 OA
ATOM     13  H   UNL     1      18.068  19.885  25.761  1.00  0.00     0.293 HD
ENDBRANCH   4  12
BRANCH   6  14
ATOM     14  O   UNL     1      20.125  19.916  28.358  1.00  0.00    -0.504 OA
ATOM     15  H   UNL     1      21.076  19.895  28.702  1.00  0.00     0.293 HD
ENDBRANCH   6  14
TORSDOF 4
ENDMDL
MODEL 5
REMARK VINA RESULT:     4.237      9.833     11.661
REMARK INTER + INTRA:           4.954
REMARK INTER:                   4.849
REMARK INTRA:                   0.105
REMARK UNBOUND:                -0.026
REMARK SMILES O=C([O-])C=Cc1ccc(O)c(O)c1
REMARK SMILES IDX 6 1 13 2 7 3 11 4 8 5 9 6 5 7 4 8 2 9 1 10 3 11 12 12 10 14
REMARK H PARENT 12 13 10 15
REMARK Flexibility Score: inf
ROOT
ATOM      1  C   UNL     1      18.253  24.020  27.571  1.00  0.00    -0.022 A 
ATOM      2  C   UNL     1      17.642  22.762  27.435  1.00  0.00     0.058 A 
ATOM      3  C   UNL     1      19.506  24.111  28.193  1.00  0.00     0.012 A 
ATOM      4  C   UNL     1      18.252  21.615  27.962  1.00  0.00     0.157 A 
ATOM      5  C   UNL     1      20.116  22.969  28.720  1.00  0.00     0.051 A 
ATOM      6  C   UNL     1      19.494  21.721  28.612  1.00  0.00     0.157 A 
ENDROOT
BRANCH   1   7
ATOM      7  C   UNL     1      17.652  25.232  26.976  1.00  0.00     0.010 C 
ATOM      8  C   UNL     1      16.693  25.980  27.542  1.00  0.00     0.025 C 
BRANCH   8   9
ATOM      9  C   UNL     1      16.205  25.842  28.926  1.00  0.00     0.064 C 
ATOM     10  O   UNL     1      17.023  25.571  29.843  1.00  0.00    -0.545 OA
ATOM     11  O   UNL     1      14.852  25.936  29.232  1.00  0.00    -0.545 OA
ENDBRANCH   8   9
ENDBRANCH   1   7
BRANCH   4  12
ATOM     12  O   UNL     1      17.633  20.371  27.839  1.00  0.00    -0.504 OA
ATOM     13  H   UNL     1      16.682  20.219  28.154  1.00  0.00     0.293 HD
ENDBRANCH   4  12
BRANCH   6  14
ATOM     14  O   UNL     1      20.125  20.600  29.150  1.00  0.00    -0.504 OA
ATOM     15  H   UNL     1      19.615  19.760  29.392  1.00  0.00     0.293 HD
ENDBRANCH   6  14
TORSDOF 4
ENDMDL
MODEL 6
REMARK VINA RESULT:     4.274      1.070      2.091
REMARK INTER + INTRA:           4.998
REMARK INTER:                   4.618
REMARK INTRA:                   0.380
REMARK UNBOUND:                -0.026
REMARK SMILES O=C([O-])C=Cc1ccc(O)c(O)c1
REMARK SMILES IDX 6 1 13 2 7 3 11 4 8 5 9 6 5 7 4 8 2 9 1 10 3 11 12 12 10 14
REMARK H PARENT 12 13 10 15
REMARK Flexibility Score: inf
ROOT
ATOM      1  C   UNL     1       8.477  23.687  34.631  1.00  0.00    -0.022 A 
ATOM      2  C   UNL     1       9.238  23.685  33.449  1.00  0.00     0.058 A 
ATOM      3  C   UNL     1       8.534  22.577  35.485  1.00  0.00     0.012 A 
ATOM      4  C   UNL     1      10.004  22.564  33.099  1.00  0.00     0.157 A 
ATOM      5  C   UNL     1       9.296  21.459  35.138  1.00  0.00     0.051 A 
ATOM      6  C   UNL     1      10.028  21.443  33.947  1.00  0.00     0.157 A 
ENDROOT
BRANCH   1   7
ATOM      7  C   UNL     1       7.706  24.879  35.043  1.00  0.00     0.010 C 
ATOM      8  C   UNL     1       7.609  25.344  36.297  1.00  0.00     0.025 C 
BRANCH   8   9
ATOM      9  C   UNL     1       8.397  24.869  37.450  1.00  0.00     0.064 C 
ATOM     10  O   UNL     1       7.799  24.493  38.491  1.00  0.00    -0.545 OA
ATOM     11  O   UNL     1       9.787  24.894  37.439  1.00  0.00    -0.545 OA
ENDBRANCH   8   9
ENDBRANCH   1   7
BRANCH   4  12
ATOM     12  O   UNL     1      10.743  22.561  31.916  1.00  0.00    -0.504 OA
ATOM     13  H   UNL     1      11.600  22.028  31.827  1.00  0.00     0.293 HD
ENDBRANCH   4  12
BRANCH   6  14
ATOM     14  O   UNL     1      10.777  20.312  33.625  1.00  0.00    -0.504 OA
ATOM     15  H   UNL     1      10.832  19.509  34.239  1.00  0.00     0.293 HD
ENDBRANCH   6  14
TORSDOF 4
ENDMDL
MODEL 7
REMARK VINA RESULT:     4.317      0.883      2.130
REMARK INTER + INTRA:           5.048
REMARK INTER:                   4.995
REMARK INTRA:                   0.053
REMARK UNBOUND:                -0.026
REMARK SMILES O=C([O-])C=Cc1ccc(O)c(O)c1
REMARK SMILES IDX 6 1 13 2 7 3 11 4 8 5 9 6 5 7 4 8 2 9 1 10 3 11 12 12 10 14
REMARK H PARENT 12 13 10 15
REMARK Flexibility Score: inf
ROOT
ATOM      1  C   UNL     1       8.152  23.727  35.532  1.00  0.00    -0.022 A 
ATOM      2  C   UNL     1       7.998  24.492  34.363  1.00  0.00     0.058 A 
ATOM      3  C   UNL     1       9.109  22.704  35.563  1.00  0.00     0.012 A 
ATOM      4  C   UNL     1       8.756  24.201  33.220  1.00  0.00     0.157 A 
ATOM      5  C   UNL     1       9.865  22.413  34.425  1.00  0.00     0.051 A 
ATOM      6  C   UNL     1       9.692  23.152  33.251  1.00  0.00     0.157 A 
ENDROOT
BRANCH   1   7
ATOM      7  C   UNL     1       7.401  24.052  36.764  1.00  0.00     0.010 C 
ATOM      8  C   UNL     1       7.881  24.749  37.804  1.00  0.00     0.025 C 
BRANCH   8   9
ATOM      9  C   UNL     1       9.166  25.472  37.830  1.00  0.00     0.064 C 
ATOM     10  O   UNL     1      10.237  24.828  37.686  1.00  0.00    -0.545 OA
ATOM     11  O   UNL     1       9.226  26.838  38.081  1.00  0.00    -0.545 OA
ENDBRANCH   8   9
ENDBRANCH   1   7
BRANCH   4  12
ATOM     12  O   UNL     1       8.587  24.952  32.057  1.00  0.00    -0.504 OA
ATOM     13  H   UNL     1       8.237  25.903  32.086  1.00  0.00     0.293 HD
ENDBRANCH   4  12
BRANCH   6  14
ATOM     14  O   UNL     1      10.458  22.836  32.129  1.00  0.00    -0.504 OA
ATOM     15  H   UNL     1      11.353  23.272  31.949  1.00  0.00     0.293 HD
ENDBRANCH   6  14
TORSDOF 4
ENDMDL
MODEL 8
REMARK VINA RESULT:     4.355      1.944      4.883
REMARK INTER + INTRA:           5.093
REMARK INTER:                   4.750
REMARK INTRA:                   0.343
REMARK UNBOUND:                -0.026
REMARK SMILES O=C([O-])C=Cc1ccc(O)c(O)c1
REMARK SMILES IDX 6 1 13 2 7 3 11 4 8 5 9 6 5 7 4 8 2 9 1 10 3 11 12 12 10 14
REMARK H PARENT 12 13 10 15
REMARK Flexibility Score: inf
ROOT
ATOM      1  C   UNL     1       9.384  22.995  34.857  1.00  0.00    -0.022 A 
ATOM      2  C   UNL     1       8.302  23.846  34.577  1.00  0.00     0.058 A 
ATOM      3  C   UNL     1       9.996  23.055  36.117  1.00  0.00     0.012 A 
ATOM      4  C   UNL     1       7.870  24.783  35.526  1.00  0.00     0.157 A 
ATOM      5  C   UNL     1       9.567  23.988  37.065  1.00  0.00     0.051 A 
ATOM      6  C   UNL     1       8.510  24.856  36.775  1.00  0.00     0.157 A 
ENDROOT
BRANCH   1   7
ATOM      7  C   UNL     1       9.820  21.966  33.890  1.00  0.00     0.010 C 
ATOM      8  C   UNL     1      10.224  20.726  34.206  1.00  0.00     0.025 C 
BRANCH   8   9
ATOM      9  C   UNL     1      10.129  20.109  35.542  1.00  0.00     0.064 C 
ATOM     10  O   UNL     1      11.165  20.011  36.250  1.00  0.00    -0.545 OA
ATOM     11  O   UNL     1       8.936  19.571  36.010  1.00  0.00    -0.545 OA
ENDBRANCH   8   9
ENDBRANCH   1   7
BRANCH   4  12
ATOM     12  O   UNL     1       6.805  25.636  35.235  1.00  0.00    -0.504 OA
ATOM     13  H   UNL     1       6.407  26.246  35.940  1.00  0.00     0.293 HD
ENDBRANCH   4  12
BRANCH   6  14
ATOM     14  O   UNL     1       8.106  25.780  37.739  1.00  0.00    -0.504 OA
ATOM     15  H   UNL     1       8.392  25.707  38.707  1.00  0.00     0.293 HD
ENDBRANCH   6  14
TORSDOF 4
ENDMDL
MODEL 9
REMARK VINA RESULT:     4.542     11.755     12.652
REMARK INTER + INTRA:           5.312
REMARK INTER:                   5.449
REMARK INTRA:                  -0.136
REMARK UNBOUND:                -0.026
REMARK SMILES O=C([O-])C=Cc1ccc(O)c(O)c1
REMARK SMILES IDX 6 1 13 2 7 3 11 4 8 5 9 6 5 7 4 8 2 9 1 10 3 11 12 12 10 14
REMARK H PARENT 12 13 10 15
REMARK Flexibility Score: inf
ROOT
ATOM      1  C   UNL     1      17.648  23.712  27.713  1.00  0.00    -0.022 A 
ATOM      2  C   UNL     1      18.610  23.474  28.709  1.00  0.00     0.058 A 
ATOM      3  C   UNL     1      17.195  22.643  26.927  1.00  0.00     0.012 A 
ATOM      4  C   UNL     1      19.153  22.193  28.881  1.00  0.00     0.157 A 
ATOM      5  C   UNL     1      17.735  21.366  27.097  1.00  0.00     0.051 A 
ATOM      6  C   UNL     1      18.715  21.134  28.067  1.00  0.00     0.157 A 
ENDROOT
BRANCH   1   7
ATOM      7  C   UNL     1      17.026  25.043  27.551  1.00  0.00     0.010 C 
ATOM      8  C   UNL     1      17.576  26.083  26.906  1.00  0.00     0.025 C 
BRANCH   8   9
ATOM      9  C   UNL     1      18.802  26.032  26.088  1.00  0.00     0.064 C 
ATOM     10  O   UNL     1      18.717  26.192  24.843  1.00  0.00    -0.545 OA
ATOM     11  O   UNL     1      20.039  25.742  26.651  1.00  0.00    -0.545 OA
ENDBRANCH   8   9
ENDBRANCH   1   7
BRANCH   4  12
ATOM     12  O   UNL     1      20.120  21.967  29.861  1.00  0.00    -0.504 OA
ATOM     13  H   UNL     1      20.894  22.607  30.000  1.00  0.00     0.293 HD
ENDBRANCH   4  12
BRANCH   6  14
ATOM     14  O   UNL     1      19.238  19.849  28.211  1.00  0.00    -0.504 OA
ATOM     15  H   UNL     1      19.858  19.440  27.524  1.00  0.00     0.293 HD
ENDBRANCH   6  14
TORSDOF 4
ENDMDL
