MODEL 1
REMARK VINA RESULT:    -3.761      0.000      0.000
REMARK INTER + INTRA:         -10.029
REMARK INTER:                  -7.279
REMARK INTRA:                  -2.750
REMARK UNBOUND:                -2.750
REMARK SMILES CCCCCCCCCCCCCCCCCC(=O)[O-]
REMARK SMILES IDX 10 1 11 2 12 3 13 4 14 5 15 6 16 7 17 8 18 9 19 10 20 11
REMARK SMILES IDX 9 12 8 13 7 14 6 15 5 16 4 17 3 18 2 19 1 20
REMARK H PARENT
REMARK Flexibility Score: inf
ROOT
ATOM      1  C   UNL     1      36.302 -51.176 -15.731  1.00  0.00     0.000 C 
ENDROOT
BRANCH   1   2
ATOM      2  C   UNL     1      36.600 -51.941 -17.034  1.00  0.00     0.000 C 
BRANCH   2   3
ATOM      3  C   UNL     1      38.037 -51.726 -17.542  1.00  0.00     0.000 C 
BRANCH   3   4
ATOM      4  C   UNL     1      38.287 -50.268 -17.980  1.00  0.00     0.000 C 
BRANCH   4   5
ATOM      5  C   UNL     1      39.549 -49.643 -17.360  1.00  0.00     0.000 C 
BRANCH   5   6
ATOM      6  C   UNL     1      39.331 -48.193 -16.899  1.00  0.00     0.000 C 
BRANCH   6   7
ATOM      7  C   UNL     1      38.623 -48.106 -15.537  1.00  0.00     0.006 C 
BRANCH   7   8
ATOM      8  C   UNL     1      39.136 -49.152 -14.538  1.00  0.00     0.053 C 
BRANCH   8   9
ATOM      9  C   UNL     1      39.464 -48.505 -13.228  1.00  0.00     0.041 C 
ATOM     10  O   UNL     1      38.968 -48.952 -12.160  1.00  0.00    -0.550 OA
ATOM     11  O   UNL     1      40.353 -47.440 -13.183  1.00  0.00    -0.550 OA
ENDBRANCH   8   9
ENDBRANCH   7   8
ENDBRANCH   6   7
ENDBRANCH   5   6
ENDBRANCH   4   5
ENDBRANCH   3   4
ENDBRANCH   2   3
ENDBRANCH   1   2
BRANCH   1  12
ATOM     12  C   UNL     1      34.940 -50.460 -15.691  1.00  0.00     0.000 C 
BRANCH  12  13
ATOM     13  C   UNL     1      35.057 -48.941 -15.900  1.00  0.00    -0.000 C 
BRANCH  13  14
ATOM     14  C   UNL     1      35.053 -48.547 -17.386  1.00  0.00    -0.000 C 
BRANCH  14  15
ATOM     15  C   UNL     1      35.944 -47.327 -17.680  1.00  0.00    -0.000 C 
BRANCH  15  16
ATOM     16  C   UNL     1      36.345 -47.234 -19.161  1.00  0.00    -0.000 C 
BRANCH  16  17
ATOM     17  C   UNL     1      37.152 -45.966 -19.476  1.00  0.00    -0.000 C 
BRANCH  17  18
ATOM     18  C   UNL     1      38.399 -46.300 -20.302  1.00  0.00    -0.000 C 
BRANCH  18  19
ATOM     19  C   UNL     1      38.080 -47.337 -21.385  1.00  0.00    -0.003 C 
ATOM     20  C   UNL     1      39.001 -48.549 -21.278  1.00  0.00     0.004 C 
ENDBRANCH  18  19
ENDBRANCH  17  18
ENDBRANCH  16  17
ENDBRANCH  15  16
ENDBRANCH  14  15
ENDBRANCH  13  14
ENDBRANCH  12  13
ENDBRANCH   1  12
TORSDOF 16
ENDMDL
MODEL 2
REMARK VINA RESULT:    -3.547      2.653      5.992
REMARK INTER + INTRA:          -9.614
REMARK INTER:                  -7.006
REMARK INTRA:                  -2.608
REMARK UNBOUND:                -2.750
REMARK SMILES CCCCCCCCCCCCCCCCCC(=O)[O-]
REMARK SMILES IDX 10 1 11 2 12 3 13 4 14 5 15 6 16 7 17 8 18 9 19 10 20 11
REMARK SMILES IDX 9 12 8 13 7 14 6 15 5 16 4 17 3 18 2 19 1 20
REMARK H PARENT
REMARK Flexibility Score: inf
ROOT
ATOM      1  C   UNL     1      36.885 -51.705 -17.669  1.00  0.00     0.000 C 
ENDROOT
BRANCH   1   2
ATOM      2  C   UNL     1      36.118 -51.633 -16.336  1.00  0.00     0.000 C 
BRANCH   2   3
ATOM      3  C   UNL     1      35.254 -50.365 -16.208  1.00  0.00     0.000 C 
BRANCH   3   4
ATOM      4  C   UNL     1      35.965 -49.256 -15.406  1.00  0.00     0.000 C 
BRANCH   4   5
ATOM      5  C   UNL     1      35.884 -47.867 -16.064  1.00  0.00     0.000 C 
BRANCH   5   6
ATOM      6  C   UNL     1      35.876 -47.936 -17.599  1.00  0.00     0.000 C 
BRANCH   6   7
ATOM      7  C   UNL     1      36.724 -46.828 -18.244  1.00  0.00     0.006 C 
BRANCH   7   8
ATOM      8  C   UNL     1      36.640 -46.836 -19.777  1.00  0.00     0.053 C 
BRANCH   8   9
ATOM      9  C   UNL     1      38.008 -46.954 -20.373  1.00  0.00     0.041 C 
ATOM     10  O   UNL     1      39.029 -46.804 -19.651  1.00  0.00    -0.550 OA
ATOM     11  O   UNL     1      38.156 -47.275 -21.716  1.00  0.00    -0.550 OA
ENDBRANCH   8   9
ENDBRANCH   7   8
ENDBRANCH   6   7
ENDBRANCH   5   6
ENDBRANCH   4   5
ENDBRANCH   3   4
ENDBRANCH   2   3
ENDBRANCH   1   2
BRANCH   1  12
ATOM     12  C   UNL     1      38.408 -51.508 -17.557  1.00  0.00     0.000 C 
BRANCH  12  13
ATOM     13  C   UNL     1      38.844 -50.055 -17.808  1.00  0.00    -0.000 C 
BRANCH  13  14
ATOM     14  C   UNL     1      39.825 -49.540 -16.742  1.00  0.00    -0.000 C 
BRANCH  14  15
ATOM     15  C   UNL     1      39.570 -48.071 -16.360  1.00  0.00    -0.000 C 
BRANCH  15  16
ATOM     16  C   UNL     1      39.398 -47.877 -14.845  1.00  0.00    -0.000 C 
BRANCH  16  17
ATOM     17  C   UNL     1      39.617 -49.175 -14.055  1.00  0.00    -0.000 C 
BRANCH  17  18
ATOM     18  C   UNL     1      38.749 -49.200 -12.790  1.00  0.00    -0.000 C 
BRANCH  18  19
ATOM     19  C   UNL     1      39.331 -48.286 -11.706  1.00  0.00    -0.003 C 
ATOM     20  C   UNL     1      40.765 -48.678 -11.364  1.00  0.00     0.004 C 
ENDBRANCH  18  19
ENDBRANCH  17  18
ENDBRANCH  16  17
ENDBRANCH  15  16
ENDBRANCH  14  15
ENDBRANCH  13  14
ENDBRANCH  12  13
ENDBRANCH   1  12
TORSDOF 16
ENDMDL
MODEL 3
REMARK VINA RESULT:    -3.540      3.434      5.862
REMARK INTER + INTRA:          -9.601
REMARK INTER:                  -7.083
REMARK INTRA:                  -2.517
REMARK UNBOUND:                -2.750
REMARK SMILES CCCCCCCCCCCCCCCCCC(=O)[O-]
REMARK SMILES IDX 10 1 11 2 12 3 13 4 14 5 15 6 16 7 17 8 18 9 19 10 20 11
REMARK SMILES IDX 9 12 8 13 7 14 6 15 5 16 4 17 3 18 2 19 1 20
REMARK H PARENT
REMARK Flexibility Score: inf
ROOT
ATOM      1  C   UNL     1      35.687 -47.881 -17.891  1.00  0.00     0.000 C 
ENDROOT
BRANCH   1   2
ATOM      2  C   UNL     1      36.782 -46.925 -18.399  1.00  0.00     0.000 C 
BRANCH   2   3
ATOM      3  C   UNL     1      36.860 -46.863 -19.935  1.00  0.00     0.000 C 
BRANCH   3   4
ATOM      4  C   UNL     1      38.288 -46.556 -20.432  1.00  0.00     0.000 C 
BRANCH   4   5
ATOM      5  C   UNL     1      39.085 -45.634 -19.493  1.00  0.00     0.000 C 
BRANCH   5   6
ATOM      6  C   UNL     1      38.925 -44.145 -19.842  1.00  0.00     0.000 C 
BRANCH   6   7
ATOM      7  C   UNL     1      38.185 -43.359 -18.748  1.00  0.00     0.006 C 
BRANCH   7   8
ATOM      8  C   UNL     1      36.672 -43.284 -18.994  1.00  0.00     0.053 C 
BRANCH   8   9
ATOM      9  C   UNL     1      36.184 -41.880 -18.819  1.00  0.00     0.041 C 
ATOM     10  O   UNL     1      36.592 -41.183 -17.853  1.00  0.00    -0.550 OA
ATOM     11  O   UNL     1      35.315 -41.326 -19.750  1.00  0.00    -0.550 OA
ENDBRANCH   8   9
ENDBRANCH   7   8
ENDBRANCH   6   7
ENDBRANCH   5   6
ENDBRANCH   4   5
ENDBRANCH   3   4
ENDBRANCH   2   3
ENDBRANCH   1   2
BRANCH   1  12
ATOM     12  C   UNL     1      35.520 -47.930 -16.361  1.00  0.00     0.000 C 
BRANCH  12  13
ATOM     13  C   UNL     1      36.864 -47.998 -15.616  1.00  0.00    -0.000 C 
BRANCH  13  14
ATOM     14  C   UNL     1      37.075 -49.344 -14.901  1.00  0.00    -0.000 C 
BRANCH  14  15
ATOM     15  C   UNL     1      35.979 -50.371 -15.236  1.00  0.00    -0.000 C 
BRANCH  15  16
ATOM     16  C   UNL     1      36.542 -51.636 -15.904  1.00  0.00    -0.000 C 
BRANCH  16  17
ATOM     17  C   UNL     1      36.799 -51.446 -17.406  1.00  0.00    -0.000 C 
BRANCH  17  18
ATOM     18  C   UNL     1      38.303 -51.389 -17.702  1.00  0.00    -0.000 C 
BRANCH  18  19
ATOM     19  C   UNL     1      38.654 -50.143 -18.523  1.00  0.00    -0.003 C 
ATOM     20  C   UNL     1      39.674 -49.272 -17.795  1.00  0.00     0.004 C 
ENDBRANCH  18  19
ENDBRANCH  17  18
ENDBRANCH  16  17
ENDBRANCH  15  16
ENDBRANCH  14  15
ENDBRANCH  13  14
ENDBRANCH  12  13
ENDBRANCH   1  12
TORSDOF 16
ENDMDL
MODEL 4
REMARK VINA RESULT:    -3.536      1.105      1.613
REMARK INTER + INTRA:          -9.593
REMARK INTER:                  -6.989
REMARK INTRA:                  -2.604
REMARK UNBOUND:                -2.750
REMARK SMILES CCCCCCCCCCCCCCCCCC(=O)[O-]
REMARK SMILES IDX 10 1 11 2 12 3 13 4 14 5 15 6 16 7 17 8 18 9 19 10 20 11
REMARK SMILES IDX 9 12 8 13 7 14 6 15 5 16 4 17 3 18 2 19 1 20
REMARK H PARENT
REMARK Flexibility Score: inf
ROOT
ATOM      1  C   UNL     1      36.438 -51.579 -16.875  1.00  0.00     0.000 C 
ENDROOT
BRANCH   1   2
ATOM      2  C   UNL     1      37.825 -51.757 -17.518  1.00  0.00     0.000 C 
BRANCH   2   3
ATOM      3  C   UNL     1      38.395 -50.447 -18.092  1.00  0.00     0.000 C 
BRANCH   3   4
ATOM      4  C   UNL     1      39.903 -50.293 -17.804  1.00  0.00     0.000 C 
BRANCH   4   5
ATOM      5  C   UNL     1      40.241 -49.097 -16.898  1.00  0.00     0.000 C 
BRANCH   5   6
ATOM      6  C   UNL     1      39.040 -48.623 -16.064  1.00  0.00     0.000 C 
BRANCH   6   7
ATOM      7  C   UNL     1      39.191 -48.955 -14.571  1.00  0.00     0.006 C 
BRANCH   7   8
ATOM      8  C   UNL     1      40.026 -47.912 -13.815  1.00  0.00     0.053 C 
BRANCH   8   9
ATOM      9  C   UNL     1      41.229 -48.554 -13.199  1.00  0.00     0.041 C 
ATOM     10  O   UNL     1      41.263 -48.779 -11.960  1.00  0.00    -0.550 OA
ATOM     11  O   UNL     1      42.294 -48.948 -14.000  1.00  0.00    -0.550 OA
ENDBRANCH   8   9
ENDBRANCH   7   8
ENDBRANCH   6   7
ENDBRANCH   5   6
ENDBRANCH   4   5
ENDBRANCH   3   4
ENDBRANCH   2   3
ENDBRANCH   1   2
BRANCH   1  12
ATOM     12  C   UNL     1      36.446 -51.385 -15.348  1.00  0.00     0.000 C 
BRANCH  12  13
ATOM     13  C   UNL     1      35.786 -50.066 -14.910  1.00  0.00    -0.000 C 
BRANCH  13  14
ATOM     14  C   UNL     1      34.897 -49.457 -16.007  1.00  0.00    -0.000 C 
BRANCH  14  15
ATOM     15  C   UNL     1      35.343 -48.041 -16.414  1.00  0.00    -0.000 C 
BRANCH  15  16
ATOM     16  C   UNL     1      35.637 -47.926 -17.918  1.00  0.00    -0.000 C 
BRANCH  16  17
ATOM     17  C   UNL     1      36.727 -46.890 -18.230  1.00  0.00    -0.000 C 
BRANCH  17  18
ATOM     18  C   UNL     1      36.900 -46.714 -19.743  1.00  0.00    -0.000 C 
BRANCH  18  19
ATOM     19  C   UNL     1      38.244 -47.281 -20.213  1.00  0.00    -0.003 C 
ATOM     20  C   UNL     1      38.194 -47.667 -21.689  1.00  0.00     0.004 C 
ENDBRANCH  18  19
ENDBRANCH  17  18
ENDBRANCH  16  17
ENDBRANCH  15  16
ENDBRANCH  14  15
ENDBRANCH  13  14
ENDBRANCH  12  13
ENDBRANCH   1  12
TORSDOF 16
ENDMDL
MODEL 5
REMARK VINA RESULT:    -3.520     12.477     15.168
REMARK INTER + INTRA:          -9.562
REMARK INTER:                  -7.391
REMARK INTRA:                  -2.171
REMARK UNBOUND:                -2.750
REMARK SMILES CCCCCCCCCCCCCCCCCC(=O)[O-]
REMARK SMILES IDX 10 1 11 2 12 3 13 4 14 5 15 6 16 7 17 8 18 9 19 10 20 11
REMARK SMILES IDX 9 12 8 13 7 14 6 15 5 16 4 17 3 18 2 19 1 20
REMARK H PARENT
REMARK Flexibility Score: inf
ROOT
ATOM      1  C   UNL     1      52.061 -49.296  -8.112  1.00  0.00     0.000 C 
ENDROOT
BRANCH   1   2
ATOM      2  C   UNL     1      51.329 -50.637  -7.924  1.00  0.00     0.000 C 
BRANCH   2   3
ATOM      3  C   UNL     1      51.841 -51.739  -8.868  1.00  0.00     0.000 C 
BRANCH   3   4
ATOM      4  C   UNL     1      53.147 -51.334  -9.581  1.00  0.00     0.000 C 
BRANCH   4   5
ATOM      5  C   UNL     1      53.022 -51.269 -11.114  1.00  0.00     0.000 C 
BRANCH   5   6
ATOM      6  C   UNL     1      51.561 -51.239 -11.590  1.00  0.00     0.000 C 
BRANCH   6   7
ATOM      7  C   UNL     1      51.440 -51.161 -13.121  1.00  0.00     0.006 C 
BRANCH   7   8
ATOM      8  C   UNL     1      50.211 -50.365 -13.578  1.00  0.00     0.053 C 
BRANCH   8   9
ATOM      9  C   UNL     1      49.127 -51.293 -14.031  1.00  0.00     0.041 C 
ATOM     10  O   UNL     1      48.553 -52.048 -13.203  1.00  0.00    -0.550 OA
ATOM     11  O   UNL     1      48.719 -51.289 -15.359  1.00  0.00    -0.550 OA
ENDBRANCH   8   9
ENDBRANCH   7   8
ENDBRANCH   6   7
ENDBRANCH   5   6
ENDBRANCH   4   5
ENDBRANCH   3   4
ENDBRANCH   2   3
ENDBRANCH   1   2
BRANCH   1  12
ATOM     12  C   UNL     1      51.324 -48.266  -8.988  1.00  0.00     0.000 C 
BRANCH  12  13
ATOM     13  C   UNL     1      52.179 -47.759 -10.162  1.00  0.00    -0.000 C 
BRANCH  13  14
ATOM     14  C   UNL     1      51.345 -47.491 -11.426  1.00  0.00    -0.000 C 
BRANCH  14  15
ATOM     15  C   UNL     1      49.830 -47.589 -11.170  1.00  0.00    -0.000 C 
BRANCH  15  16
ATOM     16  C   UNL     1      49.075 -46.325 -11.610  1.00  0.00    -0.000 C 
BRANCH  16  17
ATOM     17  C   UNL     1      48.635 -45.456 -10.423  1.00  0.00    -0.000 C 
BRANCH  17  18
ATOM     18  C   UNL     1      49.825 -44.691  -9.832  1.00  0.00    -0.000 C 
BRANCH  18  19
ATOM     19  C   UNL     1      49.375 -43.766  -8.695  1.00  0.00    -0.003 C 
ATOM     20  C   UNL     1      48.033 -43.113  -9.014  1.00  0.00     0.004 C 
ENDBRANCH  18  19
ENDBRANCH  17  18
ENDBRANCH  16  17
ENDBRANCH  15  16
ENDBRANCH  14  15
ENDBRANCH  13  14
ENDBRANCH  12  13
ENDBRANCH   1  12
TORSDOF 16
ENDMDL
MODEL 6
REMARK VINA RESULT:    -3.501      1.392      2.709
REMARK INTER + INTRA:          -9.526
REMARK INTER:                  -7.006
REMARK INTRA:                  -2.520
REMARK UNBOUND:                -2.750
REMARK SMILES CCCCCCCCCCCCCCCCCC(=O)[O-]
REMARK SMILES IDX 10 1 11 2 12 3 13 4 14 5 15 6 16 7 17 8 18 9 19 10 20 11
REMARK SMILES IDX 9 12 8 13 7 14 6 15 5 16 4 17 3 18 2 19 1 20
REMARK H PARENT
REMARK Flexibility Score: inf
ROOT
ATOM      1  C   UNL     1      38.177 -51.733 -17.480  1.00  0.00     0.000 C 
ENDROOT
BRANCH   1   2
ATOM      2  C   UNL     1      38.597 -50.628 -18.467  1.00  0.00     0.000 C 
BRANCH   2   3
ATOM      3  C   UNL     1      39.016 -49.324 -17.766  1.00  0.00     0.000 C 
BRANCH   3   4
ATOM      4  C   UNL     1      39.753 -49.588 -16.436  1.00  0.00     0.000 C 
BRANCH   4   5
ATOM      5  C   UNL     1      39.340 -48.636 -15.300  1.00  0.00     0.000 C 
BRANCH   5   6
ATOM      6  C   UNL     1      39.912 -49.055 -13.936  1.00  0.00     0.000 C 
BRANCH   6   7
ATOM      7  C   UNL     1      38.991 -48.671 -12.767  1.00  0.00     0.006 C 
BRANCH   7   8
ATOM      8  C   UNL     1      39.769 -48.197 -11.532  1.00  0.00     0.053 C 
BRANCH   8   9
ATOM      9  C   UNL     1      39.241 -46.880 -11.056  1.00  0.00     0.041 C 
ATOM     10  O   UNL     1      38.619 -46.124 -11.848  1.00  0.00    -0.550 OA
ATOM     11  O   UNL     1      39.394 -46.509  -9.726  1.00  0.00    -0.550 OA
ENDBRANCH   8   9
ENDBRANCH   7   8
ENDBRANCH   6   7
ENDBRANCH   5   6
ENDBRANCH   4   5
ENDBRANCH   3   4
ENDBRANCH   2   3
ENDBRANCH   1   2
BRANCH   1  12
ATOM     12  C   UNL     1      36.703 -51.685 -17.035  1.00  0.00     0.000 C 
BRANCH  12  13
ATOM     13  C   UNL     1      36.514 -51.014 -15.664  1.00  0.00    -0.000 C 
BRANCH  13  14
ATOM     14  C   UNL     1      35.686 -49.721 -15.750  1.00  0.00    -0.000 C 
BRANCH  14  15
ATOM     15  C   UNL     1      34.879 -49.618 -17.056  1.00  0.00    -0.000 C 
BRANCH  15  16
ATOM     16  C   UNL     1      35.216 -48.350 -17.858  1.00  0.00    -0.000 C 
BRANCH  16  17
ATOM     17  C   UNL     1      35.995 -47.318 -17.031  1.00  0.00    -0.000 C 
BRANCH  17  18
ATOM     18  C   UNL     1      36.887 -46.454 -17.931  1.00  0.00    -0.000 C 
BRANCH  18  19
ATOM     19  C   UNL     1      36.741 -46.859 -19.402  1.00  0.00    -0.003 C 
ATOM     20  C   UNL     1      38.024 -46.582 -20.181  1.00  0.00     0.004 C 
ENDBRANCH  18  19
ENDBRANCH  17  18
ENDBRANCH  16  17
ENDBRANCH  15  16
ENDBRANCH  14  15
ENDBRANCH  13  14
ENDBRANCH  12  13
ENDBRANCH   1  12
TORSDOF 16
ENDMDL
MODEL 7
REMARK VINA RESULT:    -3.432     11.529     14.906
REMARK INTER + INTRA:          -9.391
REMARK INTER:                  -7.106
REMARK INTRA:                  -2.285
REMARK UNBOUND:                -2.750
REMARK SMILES CCCCCCCCCCCCCCCCCC(=O)[O-]
REMARK SMILES IDX 10 1 11 2 12 3 13 4 14 5 15 6 16 7 17 8 18 9 19 10 20 11
REMARK SMILES IDX 9 12 8 13 7 14 6 15 5 16 4 17 3 18 2 19 1 20
REMARK H PARENT
REMARK Flexibility Score: inf
ROOT
ATOM      1  C   UNL     1      51.924 -49.233  -8.091  1.00  0.00     0.000 C 
ENDROOT
BRANCH   1   2
ATOM      2  C   UNL     1      51.117 -48.416  -9.118  1.00  0.00     0.000 C 
BRANCH   2   3
ATOM      3  C   UNL     1      52.005 -47.728 -10.169  1.00  0.00     0.000 C 
BRANCH   3   4
ATOM      4  C   UNL     1      51.350 -46.452 -10.738  1.00  0.00     0.000 C 
BRANCH   4   5
ATOM      5  C   UNL     1      50.142 -45.960  -9.922  1.00  0.00     0.000 C 
BRANCH   5   6
ATOM      6  C   UNL     1      49.089 -45.248 -10.788  1.00  0.00     0.000 C 
BRANCH   6   7
ATOM      7  C   UNL     1      47.719 -45.943 -10.743  1.00  0.00     0.006 C 
BRANCH   7   8
ATOM      8  C   UNL     1      47.715 -47.291 -11.476  1.00  0.00     0.053 C 
BRANCH   8   9
ATOM      9  C   UNL     1      46.774 -47.249 -12.639  1.00  0.00     0.041 C 
ATOM     10  O   UNL     1      45.848 -46.397 -12.674  1.00  0.00    -0.550 OA
ATOM     11  O   UNL     1      46.948 -48.121 -13.707  1.00  0.00    -0.550 OA
ENDBRANCH   8   9
ENDBRANCH   7   8
ENDBRANCH   6   7
ENDBRANCH   5   6
ENDBRANCH   4   5
ENDBRANCH   3   4
ENDBRANCH   2   3
ENDBRANCH   1   2
BRANCH   1  12
ATOM     12  C   UNL     1      51.353 -50.626  -7.771  1.00  0.00     0.000 C 
BRANCH  12  13
ATOM     13  C   UNL     1      51.844 -51.711  -8.744  1.00  0.00    -0.000 C 
BRANCH  13  14
ATOM     14  C   UNL     1      53.256 -51.426  -9.282  1.00  0.00    -0.000 C 
BRANCH  14  15
ATOM     15  C   UNL     1      53.303 -51.359 -10.819  1.00  0.00    -0.000 C 
BRANCH  15  16
ATOM     16  C   UNL     1      51.906 -51.232 -11.446  1.00  0.00    -0.000 C 
BRANCH  16  17
ATOM     17  C   UNL     1      51.950 -51.168 -12.980  1.00  0.00    -0.000 C 
BRANCH  17  18
ATOM     18  C   UNL     1      50.554 -50.906 -13.559  1.00  0.00    -0.000 C 
BRANCH  18  19
ATOM     19  C   UNL     1      50.030 -49.531 -13.130  1.00  0.00    -0.003 C 
ATOM     20  C   UNL     1      50.850 -48.408 -13.760  1.00  0.00     0.004 C 
ENDBRANCH  18  19
ENDBRANCH  17  18
ENDBRANCH  16  17
ENDBRANCH  15  16
ENDBRANCH  14  15
ENDBRANCH  13  14
ENDBRANCH  12  13
ENDBRANCH   1  12
TORSDOF 16
ENDMDL
MODEL 8
REMARK VINA RESULT:    -3.429      1.264      2.845
REMARK INTER + INTRA:          -9.386
REMARK INTER:                  -6.914
REMARK INTRA:                  -2.472
REMARK UNBOUND:                -2.750
REMARK SMILES CCCCCCCCCCCCCCCCCC(=O)[O-]
REMARK SMILES IDX 10 1 11 2 12 3 13 4 14 5 15 6 16 7 17 8 18 9 19 10 20 11
REMARK SMILES IDX 9 12 8 13 7 14 6 15 5 16 4 17 3 18 2 19 1 20
REMARK H PARENT
REMARK Flexibility Score: inf
ROOT
ATOM      1  C   UNL     1      35.386 -50.578 -15.880  1.00  0.00     0.000 C 
ENDROOT
BRANCH   1   2
ATOM      2  C   UNL     1      35.120 -49.743 -17.146  1.00  0.00     0.000 C 
BRANCH   2   3
ATOM      3  C   UNL     1      35.461 -48.253 -16.966  1.00  0.00     0.000 C 
BRANCH   3   4
ATOM      4  C   UNL     1      36.210 -47.983 -15.645  1.00  0.00     0.000 C 
BRANCH   4   5
ATOM      5  C   UNL     1      37.605 -47.362 -15.841  1.00  0.00     0.000 C 
BRANCH   5   6
ATOM      6  C   UNL     1      38.735 -48.258 -15.309  1.00  0.00     0.000 C 
BRANCH   6   7
ATOM      7  C   UNL     1      38.285 -49.141 -14.134  1.00  0.00     0.006 C 
BRANCH   7   8
ATOM      8  C   UNL     1      38.925 -48.725 -12.802  1.00  0.00     0.053 C 
BRANCH   8   9
ATOM      9  C   UNL     1      40.383 -48.444 -12.989  1.00  0.00     0.041 C 
ATOM     10  O   UNL     1      40.834 -47.284 -12.800  1.00  0.00    -0.550 OA
ATOM     11  O   UNL     1      41.251 -49.475 -13.326  1.00  0.00    -0.550 OA
ENDBRANCH   8   9
ENDBRANCH   7   8
ENDBRANCH   6   7
ENDBRANCH   5   6
ENDBRANCH   4   5
ENDBRANCH   3   4
ENDBRANCH   2   3
ENDBRANCH   1   2
BRANCH   1  12
ATOM     12  C   UNL     1      36.370 -51.747 -16.064  1.00  0.00     0.000 C 
BRANCH  12  13
ATOM     13  C   UNL     1      36.984 -51.797 -17.474  1.00  0.00    -0.000 C 
BRANCH  13  14
ATOM     14  C   UNL     1      38.505 -51.571 -17.464  1.00  0.00    -0.000 C 
BRANCH  14  15
ATOM     15  C   UNL     1      38.998 -50.795 -18.698  1.00  0.00    -0.000 C 
BRANCH  15  16
ATOM     16  C   UNL     1      38.551 -49.324 -18.686  1.00  0.00    -0.000 C 
BRANCH  16  17
ATOM     17  C   UNL     1      39.443 -48.429 -19.559  1.00  0.00    -0.000 C 
BRANCH  17  18
ATOM     18  C   UNL     1      38.989 -46.966 -19.487  1.00  0.00    -0.000 C 
BRANCH  18  19
ATOM     19  C   UNL     1      38.150 -46.589 -20.714  1.00  0.00    -0.003 C 
ATOM     20  C   UNL     1      38.221 -47.674 -21.784  1.00  0.00     0.004 C 
ENDBRANCH  18  19
ENDBRANCH  17  18
ENDBRANCH  16  17
ENDBRANCH  15  16
ENDBRANCH  14  15
ENDBRANCH  13  14
ENDBRANCH  12  13
ENDBRANCH   1  12
TORSDOF 16
ENDMDL
MODEL 9
REMARK VINA RESULT:    -3.373      2.971      6.450
REMARK INTER + INTRA:          -9.277
REMARK INTER:                  -6.414
REMARK INTRA:                  -2.863
REMARK UNBOUND:                -2.750
REMARK SMILES CCCCCCCCCCCCCCCCCC(=O)[O-]
REMARK SMILES IDX 10 1 11 2 12 3 13 4 14 5 15 6 16 7 17 8 18 9 19 10 20 11
REMARK SMILES IDX 9 12 8 13 7 14 6 15 5 16 4 17 3 18 2 19 1 20
REMARK H PARENT
REMARK Flexibility Score: inf
ROOT
ATOM      1  C   UNL     1      39.225 -50.213 -17.250  1.00  0.00     0.000 C 
ENDROOT
BRANCH   1   2
ATOM      2  C   UNL     1      37.693 -50.251 -17.399  1.00  0.00     0.000 C 
BRANCH   2   3
ATOM      3  C   UNL     1      36.956 -50.191 -16.049  1.00  0.00     0.000 C 
BRANCH   3   4
ATOM      4  C   UNL     1      35.825 -49.141 -16.050  1.00  0.00     0.000 C 
BRANCH   4   5
ATOM      5  C   UNL     1      35.827 -48.230 -17.291  1.00  0.00     0.000 C 
BRANCH   5   6
ATOM      6  C   UNL     1      36.382 -46.827 -16.997  1.00  0.00     0.000 C 
BRANCH   6   7
ATOM      7  C   UNL     1      37.143 -46.231 -18.192  1.00  0.00     0.006 C 
BRANCH   7   8
ATOM      8  C   UNL     1      37.006 -47.080 -19.463  1.00  0.00     0.053 C 
BRANCH   8   9
ATOM      9  C   UNL     1      37.920 -46.570 -20.533  1.00  0.00     0.041 C 
ATOM     10  O   UNL     1      38.665 -45.580 -20.310  1.00  0.00    -0.550 OA
ATOM     11  O   UNL     1      37.984 -47.217 -21.760  1.00  0.00    -0.550 OA
ENDBRANCH   8   9
ENDBRANCH   7   8
ENDBRANCH   6   7
ENDBRANCH   5   6
ENDBRANCH   4   5
ENDBRANCH   3   4
ENDBRANCH   2   3
ENDBRANCH   1   2
BRANCH   1  12
ATOM     12  C   UNL     1      39.840 -48.803 -17.191  1.00  0.00     0.000 C 
BRANCH  12  13
ATOM     13  C   UNL     1      40.328 -48.422 -15.783  1.00  0.00    -0.000 C 
BRANCH  13  14
ATOM     14  C   UNL     1      39.618 -47.174 -15.231  1.00  0.00    -0.000 C 
BRANCH  14  15
ATOM     15  C   UNL     1      38.666 -47.500 -14.066  1.00  0.00    -0.000 C 
BRANCH  15  16
ATOM     16  C   UNL     1      39.057 -48.791 -13.329  1.00  0.00    -0.000 C 
BRANCH  16  17
ATOM     17  C   UNL     1      39.326 -48.560 -11.835  1.00  0.00    -0.000 C 
BRANCH  17  18
ATOM     18  C   UNL     1      40.702 -49.107 -11.435  1.00  0.00    -0.000 C 
BRANCH  18  19
ATOM     19  C   UNL     1      41.808 -48.512 -12.315  1.00  0.00    -0.003 C 
ATOM     20  C   UNL     1      42.249 -47.146 -11.798  1.00  0.00     0.004 C 
ENDBRANCH  18  19
ENDBRANCH  17  18
ENDBRANCH  16  17
ENDBRANCH  15  16
ENDBRANCH  14  15
ENDBRANCH  13  14
ENDBRANCH  12  13
ENDBRANCH   1  12
TORSDOF 16
ENDMDL
