MODEL 1
REMARK VINA RESULT:    -3.395      0.000      0.000
REMARK INTER + INTRA:          -5.125
REMARK INTER:                  -4.684
REMARK INTRA:                  -0.441
REMARK UNBOUND:                -0.441
REMARK SMILES CCCCCCCCO
REMARK SMILES IDX 5 1 4 2 3 3 2 4 1 5 6 6 7 7 8 8 9 9
REMARK H PARENT 9 10
REMARK Flexibility Score: inf
ROOT
ATOM      1  C   UNL     1     174.772 173.132 151.731  1.00  0.00     0.000 C 
ENDROOT
BRANCH   1   2
ATOM      2  C   UNL     1     174.614 173.757 150.333  1.00  0.00    -0.000 C 
BRANCH   2   3
ATOM      3  C   UNL     1     173.218 173.532 149.729  1.00  0.00    -0.000 C 
BRANCH   3   4
ATOM      4  C   UNL     1     172.107 173.547 150.792  1.00  0.00    -0.003 C 
ATOM      5  C   UNL     1     171.624 174.959 151.125  1.00  0.00     0.004 C 
ENDBRANCH   3   4
ENDBRANCH   2   3
ENDBRANCH   1   2
BRANCH   1   6
ATOM      6  C   UNL     1     175.244 174.100 152.831  1.00  0.00     0.002 C 
BRANCH   6   7
ATOM      7  C   UNL     1     174.811 173.664 154.239  1.00  0.00     0.028 C 
BRANCH   7   8
ATOM      8  C   UNL     1     173.307 173.379 154.288  1.00  0.00     0.156 C 
BRANCH   8   9
ATOM      9  O   UNL     1     172.616 174.505 154.755  1.00  0.00    -0.396 OA
ATOM     10  H   UNL     1     172.647 175.180 154.028  1.00  0.00     0.210 HD
ENDBRANCH   8   9
ENDBRANCH   7   8
ENDBRANCH   6   7
ENDBRANCH   1   6
TORSDOF 7
ENDMDL
MODEL 2
REMARK VINA RESULT:    -3.376      1.393      2.100
REMARK INTER + INTRA:          -5.100
REMARK INTER:                  -4.706
REMARK INTRA:                  -0.394
REMARK UNBOUND:                -0.441
REMARK SMILES CCCCCCCCO
REMARK SMILES IDX 5 1 4 2 3 3 2 4 1 5 6 6 7 7 8 8 9 9
REMARK H PARENT 9 10
REMARK Flexibility Score: inf
ROOT
ATOM      1  C   UNL     1     174.403 174.253 151.937  1.00  0.00     0.000 C 
ENDROOT
BRANCH   1   2
ATOM      2  C   UNL     1     174.963 173.965 150.532  1.00  0.00    -0.000 C 
BRANCH   2   3
ATOM      3  C   UNL     1     174.109 172.958 149.742  1.00  0.00    -0.000 C 
BRANCH   3   4
ATOM      4  C   UNL     1     173.830 171.672 150.536  1.00  0.00    -0.003 C 
ATOM      5  C   UNL     1     175.000 170.688 150.505  1.00  0.00     0.004 C 
ENDBRANCH   3   4
ENDBRANCH   2   3
ENDBRANCH   1   2
BRANCH   1   6
ATOM      6  C   UNL     1     175.371 173.963 153.099  1.00  0.00     0.002 C 
BRANCH   6   7
ATOM      7  C   UNL     1     174.671 173.361 154.326  1.00  0.00     0.028 C 
BRANCH   7   8
ATOM      8  C   UNL     1     173.153 173.530 154.232  1.00  0.00     0.156 C 
BRANCH   8   9
ATOM      9  O   UNL     1     172.738 174.626 155.002  1.00  0.00    -0.396 OA
ATOM     10  H   UNL     1     172.380 175.300 154.367  1.00  0.00     0.210 HD
ENDBRANCH   8   9
ENDBRANCH   7   8
ENDBRANCH   6   7
ENDBRANCH   1   6
TORSDOF 7
ENDMDL
MODEL 3
REMARK VINA RESULT:    -3.297      2.318      3.419
REMARK INTER + INTRA:          -4.991
REMARK INTER:                  -4.491
REMARK INTRA:                  -0.500
REMARK UNBOUND:                -0.441
REMARK SMILES CCCCCCCCO
REMARK SMILES IDX 5 1 4 2 3 3 2 4 1 5 6 6 7 7 8 8 9 9
REMARK H PARENT 9 10
REMARK Flexibility Score: inf
ROOT
ATOM      1  C   UNL     1     174.432 173.323 149.742  1.00  0.00     0.000 C 
ENDROOT
BRANCH   1   2
ATOM      2  C   UNL     1     173.214 172.502 150.202  1.00  0.00    -0.000 C 
BRANCH   2   3
ATOM      3  C   UNL     1     173.497 170.991 150.260  1.00  0.00    -0.000 C 
BRANCH   3   4
ATOM      4  C   UNL     1     174.999 170.671 150.198  1.00  0.00    -0.003 C 
ATOM      5  C   UNL     1     175.389 169.478 151.071  1.00  0.00     0.004 C 
ENDBRANCH   3   4
ENDBRANCH   2   3
ENDBRANCH   1   2
BRANCH   1   6
ATOM      6  C   UNL     1     175.001 174.294 150.792  1.00  0.00     0.002 C 
BRANCH   6   7
ATOM      7  C   UNL     1     174.381 174.102 152.184  1.00  0.00     0.028 C 
BRANCH   7   8
ATOM      8  C   UNL     1     175.436 173.657 153.201  1.00  0.00     0.156 C 
BRANCH   8   9
ATOM      9  O   UNL     1     175.418 172.263 153.339  1.00  0.00    -0.396 OA
ATOM     10  H   UNL     1     175.899 171.893 152.553  1.00  0.00     0.210 HD
ENDBRANCH   8   9
ENDBRANCH   7   8
ENDBRANCH   6   7
ENDBRANCH   1   6
TORSDOF 7
ENDMDL
MODEL 4
REMARK VINA RESULT:    -3.296      2.838      4.297
REMARK INTER + INTRA:          -4.990
REMARK INTER:                  -4.520
REMARK INTRA:                  -0.470
REMARK UNBOUND:                -0.441
REMARK SMILES CCCCCCCCO
REMARK SMILES IDX 5 1 4 2 3 3 2 4 1 5 6 6 7 7 8 8 9 9
REMARK H PARENT 9 10
REMARK Flexibility Score: inf
ROOT
ATOM      1  C   UNL     1     174.175 173.389 149.770  1.00  0.00     0.000 C 
ENDROOT
BRANCH   1   2
ATOM      2  C   UNL     1     175.031 174.193 150.765  1.00  0.00    -0.000 C 
BRANCH   2   3
ATOM      3  C   UNL     1     174.448 174.198 152.189  1.00  0.00    -0.000 C 
BRANCH   3   4
ATOM      4  C   UNL     1     175.467 173.740 153.244  1.00  0.00    -0.003 C 
ATOM      5  C   UNL     1     175.079 172.419 153.909  1.00  0.00     0.004 C 
ENDBRANCH   3   4
ENDBRANCH   2   3
ENDBRANCH   1   2
BRANCH   1   6
ATOM      6  C   UNL     1     173.888 171.934 150.180  1.00  0.00     0.002 C 
BRANCH   6   7
ATOM      7  C   UNL     1     175.151 171.060 150.214  1.00  0.00     0.028 C 
BRANCH   7   8
ATOM      8  C   UNL     1     174.874 169.719 150.899  1.00  0.00     0.156 C 
BRANCH   8   9
ATOM      9  O   UNL     1     175.919 169.398 151.776  1.00  0.00    -0.396 OA
ATOM     10  H   UNL     1     176.685 169.980 151.532  1.00  0.00     0.210 HD
ENDBRANCH   8   9
ENDBRANCH   7   8
ENDBRANCH   6   7
ENDBRANCH   1   6
TORSDOF 7
ENDMDL
MODEL 5
REMARK VINA RESULT:    -3.259      2.446      3.568
REMARK INTER + INTRA:          -4.939
REMARK INTER:                  -4.446
REMARK INTRA:                  -0.493
REMARK UNBOUND:                -0.441
REMARK SMILES CCCCCCCCO
REMARK SMILES IDX 5 1 4 2 3 3 2 4 1 5 6 6 7 7 8 8 9 9
REMARK H PARENT 9 10
REMARK Flexibility Score: inf
ROOT
ATOM      1  C   UNL     1     173.782 171.936 150.159  1.00  0.00     0.000 C 
ENDROOT
BRANCH   1   2
ATOM      2  C   UNL     1     174.000 173.406 149.759  1.00  0.00    -0.000 C 
BRANCH   2   3
ATOM      3  C   UNL     1     174.972 174.144 150.694  1.00  0.00    -0.000 C 
BRANCH   3   4
ATOM      4  C   UNL     1     174.493 174.150 152.155  1.00  0.00    -0.003 C 
ATOM      5  C   UNL     1     175.646 174.223 153.157  1.00  0.00     0.004 C 
ENDBRANCH   3   4
ENDBRANCH   2   3
ENDBRANCH   1   2
BRANCH   1   6
ATOM      6  C   UNL     1     175.046 171.056 150.134  1.00  0.00     0.002 C 
BRANCH   6   7
ATOM      7  C   UNL     1     175.024 169.945 151.194  1.00  0.00     0.028 C 
BRANCH   7   8
ATOM      8  C   UNL     1     174.310 170.410 152.466  1.00  0.00     0.156 C 
BRANCH   8   9
ATOM      9  O   UNL     1     175.247 170.735 153.456  1.00  0.00    -0.396 OA
ATOM     10  H   UNL     1     175.550 171.662 153.268  1.00  0.00     0.210 HD
ENDBRANCH   8   9
ENDBRANCH   7   8
ENDBRANCH   6   7
ENDBRANCH   1   6
TORSDOF 7
ENDMDL
MODEL 6
REMARK VINA RESULT:    -3.169      4.529      5.400
REMARK INTER + INTRA:          -4.814
REMARK INTER:                  -4.571
REMARK INTRA:                  -0.243
REMARK UNBOUND:                -0.441
REMARK SMILES CCCCCCCCO
REMARK SMILES IDX 5 1 4 2 3 3 2 4 1 5 6 6 7 7 8 8 9 9
REMARK H PARENT 9 10
REMARK Flexibility Score: inf
ROOT
ATOM      1  C   UNL     1     175.061 170.950 150.131  1.00  0.00     0.000 C 
ENDROOT
BRANCH   1   2
ATOM      2  C   UNL     1     173.601 171.435 150.160  1.00  0.00    -0.000 C 
BRANCH   2   3
ATOM      3  C   UNL     1     173.470 172.954 149.956  1.00  0.00    -0.000 C 
BRANCH   3   4
ATOM      4  C   UNL     1     174.785 173.700 150.232  1.00  0.00    -0.003 C 
ATOM      5  C   UNL     1     174.898 174.189 151.677  1.00  0.00     0.004 C 
ENDBRANCH   3   4
ENDBRANCH   2   3
ENDBRANCH   1   2
BRANCH   1   6
ATOM      6  C   UNL     1     175.244 169.422 150.170  1.00  0.00     0.002 C 
BRANCH   6   7
ATOM      7  C   UNL     1     173.913 168.657 150.116  1.00  0.00     0.028 C 
BRANCH   7   8
ATOM      8  C   UNL     1     173.890 167.673 148.944  1.00  0.00     0.156 C 
BRANCH   8   9
ATOM      9  O   UNL     1     175.184 167.493 148.437  1.00  0.00    -0.396 OA
ATOM     10  H   UNL     1     175.651 168.364 148.534  1.00  0.00     0.210 HD
ENDBRANCH   8   9
ENDBRANCH   7   8
ENDBRANCH   6   7
ENDBRANCH   1   6
TORSDOF 7
ENDMDL
MODEL 7
REMARK VINA RESULT:    -3.167      2.101      2.512
REMARK INTER + INTRA:          -4.811
REMARK INTER:                  -4.239
REMARK INTRA:                  -0.573
REMARK UNBOUND:                -0.441
REMARK SMILES CCCCCCCCO
REMARK SMILES IDX 5 1 4 2 3 3 2 4 1 5 6 6 7 7 8 8 9 9
REMARK H PARENT 9 10
REMARK Flexibility Score: inf
ROOT
ATOM      1  C   UNL     1     174.967 173.952 150.647  1.00  0.00     0.000 C 
ENDROOT
BRANCH   1   2
ATOM      2  C   UNL     1     173.784 173.506 149.769  1.00  0.00    -0.000 C 
BRANCH   2   3
ATOM      3  C   UNL     1     172.445 173.498 150.526  1.00  0.00    -0.000 C 
BRANCH   3   4
ATOM      4  C   UNL     1     171.843 172.089 150.642  1.00  0.00    -0.003 C 
ATOM      5  C   UNL     1     172.671 171.027 149.917  1.00  0.00     0.004 C 
ENDBRANCH   3   4
ENDBRANCH   2   3
ENDBRANCH   1   2
BRANCH   1   6
ATOM      6  C   UNL     1     174.622 174.222 152.123  1.00  0.00     0.002 C 
BRANCH   6   7
ATOM      7  C   UNL     1     175.330 173.261 153.090  1.00  0.00     0.028 C 
BRANCH   7   8
ATOM      8  C   UNL     1     174.577 171.932 153.194  1.00  0.00     0.156 C 
BRANCH   8   9
ATOM      9  O   UNL     1     175.212 170.954 152.417  1.00  0.00    -0.396 OA
ATOM     10  H   UNL     1     175.132 170.099 152.915  1.00  0.00     0.210 HD
ENDBRANCH   8   9
ENDBRANCH   7   8
ENDBRANCH   6   7
ENDBRANCH   1   6
TORSDOF 7
ENDMDL
MODEL 8
REMARK VINA RESULT:    -3.151      3.219      4.248
REMARK INTER + INTRA:          -4.789
REMARK INTER:                  -4.591
REMARK INTRA:                  -0.198
REMARK UNBOUND:                -0.441
REMARK SMILES CCCCCCCCO
REMARK SMILES IDX 5 1 4 2 3 3 2 4 1 5 6 6 7 7 8 8 9 9
REMARK H PARENT 9 10
REMARK Flexibility Score: inf
ROOT
ATOM      1  C   UNL     1     174.011 171.797 150.152  1.00  0.00     0.000 C 
ENDROOT
BRANCH   1   2
ATOM      2  C   UNL     1     175.026 170.930 150.918  1.00  0.00    -0.000 C 
BRANCH   2   3
ATOM      3  C   UNL     1     175.533 169.733 150.096  1.00  0.00    -0.000 C 
BRANCH   3   4
ATOM      4  C   UNL     1     174.566 168.540 150.135  1.00  0.00    -0.003 C 
ATOM      5  C   UNL     1     174.693 167.632 148.911  1.00  0.00     0.004 C 
ENDBRANCH   3   4
ENDBRANCH   2   3
ENDBRANCH   1   2
BRANCH   1   6
ATOM      6  C   UNL     1     174.467 173.239 149.865  1.00  0.00     0.002 C 
BRANCH   6   7
ATOM      7  C   UNL     1     174.832 174.017 151.138  1.00  0.00     0.028 C 
BRANCH   7   8
ATOM      8  C   UNL     1     173.608 174.207 152.037  1.00  0.00     0.156 C 
BRANCH   8   9
ATOM      9  O   UNL     1     173.993 174.218 153.385  1.00  0.00    -0.396 OA
ATOM     10  H   UNL     1     173.344 173.645 153.871  1.00  0.00     0.210 HD
ENDBRANCH   8   9
ENDBRANCH   7   8
ENDBRANCH   6   7
ENDBRANCH   1   6
TORSDOF 7
ENDMDL
MODEL 9
REMARK VINA RESULT:    -3.143      1.364      3.442
REMARK INTER + INTRA:          -4.778
REMARK INTER:                  -4.268
REMARK INTRA:                  -0.510
REMARK UNBOUND:                -0.441
REMARK SMILES CCCCCCCCO
REMARK SMILES IDX 5 1 4 2 3 3 2 4 1 5 6 6 7 7 8 8 9 9
REMARK H PARENT 9 10
REMARK Flexibility Score: inf
ROOT
ATOM      1  C   UNL     1     173.203 173.526 149.732  1.00  0.00     0.000 C 
ENDROOT
BRANCH   1   2
ATOM      2  C   UNL     1     174.678 173.422 150.158  1.00  0.00    -0.000 C 
BRANCH   2   3
ATOM      3  C   UNL     1     174.982 174.185 151.458  1.00  0.00    -0.000 C 
BRANCH   3   4
ATOM      4  C   UNL     1     175.091 173.254 152.676  1.00  0.00    -0.003 C 
ATOM      5  C   UNL     1     174.257 173.732 153.865  1.00  0.00     0.004 C 
ENDBRANCH   3   4
ENDBRANCH   2   3
ENDBRANCH   1   2
BRANCH   1   6
ATOM      6  C   UNL     1     172.269 172.466 150.342  1.00  0.00     0.002 C 
BRANCH   6   7
ATOM      7  C   UNL     1     171.424 173.008 151.504  1.00  0.00     0.028 C 
BRANCH   7   8
ATOM      8  C   UNL     1     170.754 174.332 151.127  1.00  0.00     0.156 C 
BRANCH   8   9
ATOM      9  O   UNL     1     171.121 175.337 152.033  1.00  0.00    -0.396 OA
ATOM     10  H   UNL     1     171.221 174.898 152.918  1.00  0.00     0.210 HD
ENDBRANCH   8   9
ENDBRANCH   7   8
ENDBRANCH   6   7
ENDBRANCH   1   6
TORSDOF 7
ENDMDL
