MODEL 1
REMARK VINA RESULT:     6.448      0.000      0.000
REMARK INTER + INTRA:          11.670
REMARK INTER:                  11.725
REMARK INTRA:                  -0.055
REMARK UNBOUND:                -0.055
REMARK SMILES CCCCCCCCCCCCCC[C@@H](C)C(=O)[O-]
REMARK SMILES IDX 9 1 10 2 11 3 12 4 13 5 14 6 15 7 16 8 17 9 18 10 19 11 8 12
REMARK SMILES IDX 7 13 6 14 5 15 4 16 3 17 2 18 1 19
REMARK H PARENT
REMARK Flexibility Score: inf
ROOT
ATOM      1  C   UNL     1     -13.612  61.123  -2.610  1.00  0.00     0.000 C 
ENDROOT
BRANCH   1   2
ATOM      2  C   UNL     1     -13.480  62.079  -3.810  1.00  0.00     0.000 C 
BRANCH   2   3
ATOM      3  C   UNL     1     -12.728  61.442  -4.989  1.00  0.00     0.000 C 
BRANCH   3   4
ATOM      4  C   UNL     1     -12.850  62.268  -6.282  1.00  0.00     0.000 C 
BRANCH   4   5
ATOM      5  C   UNL     1     -11.875  61.799  -7.375  1.00  0.00     0.001 C 
BRANCH   5   6
ATOM      6  C   UNL     1     -11.955  62.658  -8.650  1.00  0.00     0.009 C 
BRANCH   6   7
ATOM      7  C   UNL     1     -12.778  61.984  -9.769  1.00  0.00     0.032 C 
ATOM      8  C   UNL     1     -12.916  60.470  -9.555  1.00  0.00     0.014 C 
BRANCH   7   9
ATOM      9  C   UNL     1     -14.145  62.609  -9.841  1.00  0.00     0.044 C 
ATOM     10  O   UNL     1     -14.266  63.859  -9.914  1.00  0.00    -0.550 OA
ATOM     11  O   UNL     1     -15.283  61.811  -9.826  1.00  0.00    -0.550 OA
ENDBRANCH   7   9
ENDBRANCH   6   7
ENDBRANCH   5   6
ENDBRANCH   4   5
ENDBRANCH   3   4
ENDBRANCH   2   3
ENDBRANCH   1   2
BRANCH   1  12
ATOM     12  C   UNL     1     -14.909  61.346  -1.812  1.00  0.00     0.000 C 
BRANCH  12  13
ATOM     13  C   UNL     1     -16.129  61.773  -2.652  1.00  0.00    -0.000 C 
BRANCH  13  14
ATOM     14  C   UNL     1     -17.501  61.500  -2.002  1.00  0.00    -0.000 C 
BRANCH  14  15
ATOM     15  C   UNL     1     -18.703  61.605  -2.957  1.00  0.00    -0.000 C 
BRANCH  15  16
ATOM     16  C   UNL     1     -20.036  61.255  -2.278  1.00  0.00    -0.000 C 
BRANCH  16  17
ATOM     17  C   UNL     1     -20.150  61.944  -0.910  1.00  0.00    -0.000 C 
BRANCH  17  18
ATOM     18  C   UNL     1     -19.430  63.299  -0.869  1.00  0.00    -0.003 C 
ATOM     19  C   UNL     1     -20.300  64.415  -0.292  1.00  0.00     0.004 C 
ENDBRANCH  17  18
ENDBRANCH  16  17
ENDBRANCH  15  16
ENDBRANCH  14  15
ENDBRANCH  13  14
ENDBRANCH  12  13
ENDBRANCH   1  12
TORSDOF 14
ENDMDL
MODEL 2
REMARK VINA RESULT:     7.053      4.936      6.721
REMARK INTER + INTRA:          12.771
REMARK INTER:                  13.453
REMARK INTRA:                  -0.682
REMARK UNBOUND:                -0.055
REMARK SMILES CCCCCCCCCCCCCC[C@@H](C)C(=O)[O-]
REMARK SMILES IDX 9 1 10 2 11 3 12 4 13 5 14 6 15 7 16 8 17 9 18 10 19 11 8 12
REMARK SMILES IDX 7 13 6 14 5 15 4 16 3 17 2 18 1 19
REMARK H PARENT
REMARK Flexibility Score: inf
ROOT
ATOM      1  C   UNL     1     -18.554  64.497  -0.232  1.00  0.00     0.000 C 
ENDROOT
BRANCH   1   2
ATOM      2  C   UNL     1     -17.913  63.162   0.186  1.00  0.00     0.000 C 
BRANCH   2   3
ATOM      3  C   UNL     1     -16.648  62.837  -0.625  1.00  0.00     0.000 C 
BRANCH   3   4
ATOM      4  C   UNL     1     -16.934  61.908  -1.818  1.00  0.00     0.000 C 
BRANCH   4   5
ATOM      5  C   UNL     1     -15.650  61.450  -2.530  1.00  0.00     0.001 C 
BRANCH   5   6
ATOM      6  C   UNL     1     -14.900  60.352  -1.754  1.00  0.00     0.009 C 
BRANCH   6   7
ATOM      7  C   UNL     1     -13.366  60.483  -1.874  1.00  0.00     0.032 C 
ATOM      8  C   UNL     1     -12.949  61.779  -2.584  1.00  0.00     0.014 C 
BRANCH   7   9
ATOM      9  C   UNL     1     -12.743  60.437  -0.505  1.00  0.00     0.044 C 
ATOM     10  O   UNL     1     -12.281  61.485   0.016  1.00  0.00    -0.550 OA
ATOM     11  O   UNL     1     -12.672  59.237   0.193  1.00  0.00    -0.550 OA
ENDBRANCH   7   9
ENDBRANCH   6   7
ENDBRANCH   5   6
ENDBRANCH   4   5
ENDBRANCH   3   4
ENDBRANCH   2   3
ENDBRANCH   1   2
BRANCH   1  12
ATOM     12  C   UNL     1     -20.080  64.395  -0.409  1.00  0.00     0.000 C 
BRANCH  12  13
ATOM     13  C   UNL     1     -20.568  63.146  -1.168  1.00  0.00    -0.000 C 
BRANCH  13  14
ATOM     14  C   UNL     1     -19.965  62.954  -2.573  1.00  0.00    -0.000 C 
BRANCH  14  15
ATOM     15  C   UNL     1     -19.700  61.491  -2.972  1.00  0.00    -0.000 C 
BRANCH  15  16
ATOM     16  C   UNL     1     -20.731  60.517  -2.382  1.00  0.00    -0.000 C 
BRANCH  16  17
ATOM     17  C   UNL     1     -21.676  59.992  -3.473  1.00  0.00    -0.000 C 
BRANCH  17  18
ATOM     18  C   UNL     1     -20.951  59.711  -4.798  1.00  0.00    -0.003 C 
ATOM     19  C   UNL     1     -21.901  59.265  -5.909  1.00  0.00     0.004 C 
ENDBRANCH  17  18
ENDBRANCH  16  17
ENDBRANCH  15  16
ENDBRANCH  14  15
ENDBRANCH  13  14
ENDBRANCH  12  13
ENDBRANCH   1  12
TORSDOF 14
ENDMDL
MODEL 3
REMARK VINA RESULT:     7.178      6.396      7.652
REMARK INTER + INTRA:          12.997
REMARK INTER:                  13.690
REMARK INTRA:                  -0.693
REMARK UNBOUND:                -0.055
REMARK SMILES CCCCCCCCCCCCCC[C@@H](C)C(=O)[O-]
REMARK SMILES IDX 9 1 10 2 11 3 12 4 13 5 14 6 15 7 16 8 17 9 18 10 19 11 8 12
REMARK SMILES IDX 7 13 6 14 5 15 4 16 3 17 2 18 1 19
REMARK H PARENT
REMARK Flexibility Score: inf
ROOT
ATOM      1  C   UNL     1     -19.032  64.728  -0.594  1.00  0.00     0.000 C 
ENDROOT
BRANCH   1   2
ATOM      2  C   UNL     1     -17.517  64.946  -0.757  1.00  0.00     0.000 C 
BRANCH   2   3
ATOM      3  C   UNL     1     -17.186  66.261  -1.483  1.00  0.00     0.000 C 
BRANCH   3   4
ATOM      4  C   UNL     1     -15.708  66.660  -1.336  1.00  0.00     0.000 C 
BRANCH   4   5
ATOM      5  C   UNL     1     -15.322  67.838  -2.247  1.00  0.00     0.001 C 
BRANCH   5   6
ATOM      6  C   UNL     1     -14.412  68.860  -1.542  1.00  0.00     0.009 C 
BRANCH   6   7
ATOM      7  C   UNL     1     -12.942  68.763  -2.003  1.00  0.00     0.032 C 
ATOM      8  C   UNL     1     -12.191  70.090  -1.829  1.00  0.00     0.014 C 
BRANCH   7   9
ATOM      9  C   UNL     1     -12.237  67.681  -1.230  1.00  0.00     0.044 C 
ATOM     10  O   UNL     1     -11.877  66.623  -1.808  1.00  0.00    -0.550 OA
ATOM     11  O   UNL     1     -11.981  67.841   0.127  1.00  0.00    -0.550 OA
ENDBRANCH   7   9
ENDBRANCH   6   7
ENDBRANCH   5   6
ENDBRANCH   4   5
ENDBRANCH   3   4
ENDBRANCH   2   3
ENDBRANCH   1   2
BRANCH   1  12
ATOM     12  C   UNL     1     -19.373  63.370   0.044  1.00  0.00     0.000 C 
BRANCH  12  13
ATOM     13  C   UNL     1     -20.550  62.618  -0.609  1.00  0.00    -0.000 C 
BRANCH  13  14
ATOM     14  C   UNL     1     -20.169  61.328  -1.362  1.00  0.00    -0.000 C 
BRANCH  14  15
ATOM     15  C   UNL     1     -19.361  61.545  -2.654  1.00  0.00    -0.000 C 
BRANCH  15  16
ATOM     16  C   UNL     1     -19.940  60.781  -3.854  1.00  0.00    -0.000 C 
BRANCH  16  17
ATOM     17  C   UNL     1     -21.363  60.286  -3.553  1.00  0.00    -0.000 C 
BRANCH  17  18
ATOM     18  C   UNL     1     -22.040  59.655  -4.779  1.00  0.00    -0.003 C 
ATOM     19  C   UNL     1     -21.048  59.302  -5.887  1.00  0.00     0.004 C 
ENDBRANCH  17  18
ENDBRANCH  16  17
ENDBRANCH  15  16
ENDBRANCH  14  15
ENDBRANCH  13  14
ENDBRANCH  12  13
ENDBRANCH   1  12
TORSDOF 14
ENDMDL
MODEL 4
REMARK VINA RESULT:     7.334      3.010      8.193
REMARK INTER + INTRA:          13.281
REMARK INTER:                  13.588
REMARK INTRA:                  -0.307
REMARK UNBOUND:                -0.055
REMARK SMILES CCCCCCCCCCCCCC[C@@H](C)C(=O)[O-]
REMARK SMILES IDX 9 1 10 2 11 3 12 4 13 5 14 6 15 7 16 8 17 9 18 10 19 11 8 12
REMARK SMILES IDX 7 13 6 14 5 15 4 16 3 17 2 18 1 19
REMARK H PARENT
REMARK Flexibility Score: inf
ROOT
ATOM      1  C   UNL     1     -12.453  61.487  -4.955  1.00  0.00     0.000 C 
ENDROOT
BRANCH   1   2
ATOM      2  C   UNL     1     -13.716  61.887  -4.171  1.00  0.00     0.000 C 
BRANCH   2   3
ATOM      3  C   UNL     1     -13.575  61.638  -2.661  1.00  0.00     0.000 C 
BRANCH   3   4
ATOM      4  C   UNL     1     -14.787  60.898  -2.069  1.00  0.00     0.000 C 
BRANCH   4   5
ATOM      5  C   UNL     1     -15.914  61.855  -1.648  1.00  0.00     0.001 C 
BRANCH   5   6
ATOM      6  C   UNL     1     -17.255  61.532  -2.333  1.00  0.00     0.009 C 
BRANCH   6   7
ATOM      7  C   UNL     1     -18.471  61.854  -1.438  1.00  0.00     0.032 C 
ATOM      8  C   UNL     1     -18.328  63.210  -0.733  1.00  0.00     0.014 C 
BRANCH   7   9
ATOM      9  C   UNL     1     -19.727  61.846  -2.266  1.00  0.00     0.044 C 
ATOM     10  O   UNL     1     -19.979  62.804  -3.042  1.00  0.00    -0.550 OA
ATOM     11  O   UNL     1     -20.619  60.783  -2.179  1.00  0.00    -0.550 OA
ENDBRANCH   7   9
ENDBRANCH   6   7
ENDBRANCH   5   6
ENDBRANCH   4   5
ENDBRANCH   3   4
ENDBRANCH   2   3
ENDBRANCH   1   2
BRANCH   1  12
ATOM     12  C   UNL     1     -12.400  62.113  -6.360  1.00  0.00     0.000 C 
BRANCH  12  13
ATOM     13  C   UNL     1     -12.052  61.135  -7.500  1.00  0.00    -0.000 C 
BRANCH  13  14
ATOM     14  C   UNL     1     -11.876  61.781  -8.888  1.00  0.00    -0.000 C 
BRANCH  14  15
ATOM     15  C   UNL     1     -12.488  60.987 -10.056  1.00  0.00    -0.000 C 
BRANCH  15  16
ATOM     16  C   UNL     1     -13.856  60.379  -9.710  1.00  0.00    -0.000 C 
BRANCH  16  17
ATOM     17  C   UNL     1     -14.985  61.387  -9.969  1.00  0.00    -0.000 C 
BRANCH  17  18
ATOM     18  C   UNL     1     -14.681  62.776  -9.388  1.00  0.00    -0.003 C 
ATOM     19  C   UNL     1     -15.746  63.813  -9.746  1.00  0.00     0.004 C 
ENDBRANCH  17  18
ENDBRANCH  16  17
ENDBRANCH  15  16
ENDBRANCH  14  15
ENDBRANCH  13  14
ENDBRANCH  12  13
ENDBRANCH   1  12
TORSDOF 14
ENDMDL
MODEL 5
REMARK VINA RESULT:     7.430      3.524      8.455
REMARK INTER + INTRA:          13.455
REMARK INTER:                  13.968
REMARK INTRA:                  -0.513
REMARK UNBOUND:                -0.055
REMARK SMILES CCCCCCCCCCCCCC[C@@H](C)C(=O)[O-]
REMARK SMILES IDX 9 1 10 2 11 3 12 4 13 5 14 6 15 7 16 8 17 9 18 10 19 11 8 12
REMARK SMILES IDX 7 13 6 14 5 15 4 16 3 17 2 18 1 19
REMARK H PARENT
REMARK Flexibility Score: inf
ROOT
ATOM      1  C   UNL     1     -13.315  61.820  -4.641  1.00  0.00     0.000 C 
ENDROOT
BRANCH   1   2
ATOM      2  C   UNL     1     -13.265  61.959  -3.109  1.00  0.00     0.000 C 
BRANCH   2   3
ATOM      3  C   UNL     1     -14.095  60.881  -2.393  1.00  0.00     0.000 C 
BRANCH   3   4
ATOM      4  C   UNL     1     -15.252  61.476  -1.572  1.00  0.00     0.000 C 
BRANCH   4   5
ATOM      5  C   UNL     1     -16.461  61.855  -2.444  1.00  0.00     0.001 C 
BRANCH   5   6
ATOM      6  C   UNL     1     -17.784  61.279  -1.908  1.00  0.00     0.009 C 
BRANCH   6   7
ATOM      7  C   UNL     1     -18.992  62.196  -2.200  1.00  0.00     0.032 C 
ATOM      8  C   UNL     1     -20.231  61.401  -2.634  1.00  0.00     0.014 C 
BRANCH   7   9
ATOM      9  C   UNL     1     -19.319  63.011  -0.979  1.00  0.00     0.044 C 
ATOM     10  O   UNL     1     -18.442  63.749  -0.457  1.00  0.00    -0.550 OA
ATOM     11  O   UNL     1     -20.588  62.954  -0.416  1.00  0.00    -0.550 OA
ENDBRANCH   7   9
ENDBRANCH   6   7
ENDBRANCH   5   6
ENDBRANCH   4   5
ENDBRANCH   3   4
ENDBRANCH   2   3
ENDBRANCH   1   2
BRANCH   1  12
ATOM     12  C   UNL     1     -11.916  61.795  -5.282  1.00  0.00     0.000 C 
BRANCH  12  13
ATOM     13  C   UNL     1     -11.883  61.364  -6.762  1.00  0.00    -0.000 C 
BRANCH  13  14
ATOM     14  C   UNL     1     -12.400  62.417  -7.763  1.00  0.00    -0.000 C 
BRANCH  14  15
ATOM     15  C   UNL     1     -11.875  62.257  -9.202  1.00  0.00    -0.000 C 
BRANCH  15  16
ATOM     16  C   UNL     1     -12.251  63.439 -10.108  1.00  0.00    -0.000 C 
BRANCH  16  17
ATOM     17  C   UNL     1     -13.597  64.046  -9.685  1.00  0.00    -0.000 C 
BRANCH  17  18
ATOM     18  C   UNL     1     -14.793  63.169 -10.086  1.00  0.00    -0.003 C 
ATOM     19  C   UNL     1     -16.067  63.519  -9.318  1.00  0.00     0.004 C 
ENDBRANCH  17  18
ENDBRANCH  16  17
ENDBRANCH  15  16
ENDBRANCH  14  15
ENDBRANCH  13  14
ENDBRANCH  12  13
ENDBRANCH   1  12
TORSDOF 14
ENDMDL
MODEL 6
REMARK VINA RESULT:     7.506      1.085      1.802
REMARK INTER + INTRA:          13.593
REMARK INTER:                  14.181
REMARK INTRA:                  -0.587
REMARK UNBOUND:                -0.055
REMARK SMILES CCCCCCCCCCCCCC[C@@H](C)C(=O)[O-]
REMARK SMILES IDX 9 1 10 2 11 3 12 4 13 5 14 6 15 7 16 8 17 9 18 10 19 11 8 12
REMARK SMILES IDX 7 13 6 14 5 15 4 16 3 17 2 18 1 19
REMARK H PARENT
REMARK Flexibility Score: inf
ROOT
ATOM      1  C   UNL     1     -12.940  61.920  -3.619  1.00  0.00     0.000 C 
ENDROOT
BRANCH   1   2
ATOM      2  C   UNL     1     -12.083  61.419  -4.796  1.00  0.00     0.000 C 
BRANCH   2   3
ATOM      3  C   UNL     1     -12.472  62.078  -6.129  1.00  0.00     0.000 C 
BRANCH   3   4
ATOM      4  C   UNL     1     -12.460  61.085  -7.304  1.00  0.00     0.000 C 
BRANCH   4   5
ATOM      5  C   UNL     1     -11.875  61.698  -8.588  1.00  0.00     0.001 C 
BRANCH   5   6
ATOM      6  C   UNL     1     -12.559  63.021  -8.980  1.00  0.00     0.009 C 
BRANCH   6   7
ATOM      7  C   UNL     1     -13.821  62.803  -9.842  1.00  0.00     0.032 C 
ATOM      8  C   UNL     1     -14.096  61.316 -10.102  1.00  0.00     0.014 C 
BRANCH   7   9
ATOM      9  C   UNL     1     -15.012  63.424  -9.164  1.00  0.00     0.044 C 
ATOM     10  O   UNL     1     -14.986  63.658  -7.927  1.00  0.00    -0.550 OA
ATOM     11  O   UNL     1     -16.150  63.743  -9.896  1.00  0.00    -0.550 OA
ENDBRANCH   7   9
ENDBRANCH   6   7
ENDBRANCH   5   6
ENDBRANCH   4   5
ENDBRANCH   3   4
ENDBRANCH   2   3
ENDBRANCH   1   2
BRANCH   1  12
ATOM     12  C   UNL     1     -12.790  61.047  -2.360  1.00  0.00     0.000 C 
BRANCH  12  13
ATOM     13  C   UNL     1     -14.101  60.765  -1.600  1.00  0.00    -0.000 C 
BRANCH  13  14
ATOM     14  C   UNL     1     -15.263  61.726  -1.917  1.00  0.00    -0.000 C 
BRANCH  14  15
ATOM     15  C   UNL     1     -16.664  61.092  -1.857  1.00  0.00    -0.000 C 
BRANCH  15  16
ATOM     16  C   UNL     1     -17.746  61.976  -2.497  1.00  0.00    -0.000 C 
BRANCH  16  17
ATOM     17  C   UNL     1     -19.146  61.394  -2.249  1.00  0.00    -0.000 C 
BRANCH  17  18
ATOM     18  C   UNL     1     -20.157  62.459  -1.799  1.00  0.00    -0.003 C 
ATOM     19  C   UNL     1     -19.720  63.190  -0.530  1.00  0.00     0.004 C 
ENDBRANCH  17  18
ENDBRANCH  16  17
ENDBRANCH  15  16
ENDBRANCH  14  15
ENDBRANCH  13  14
ENDBRANCH  12  13
ENDBRANCH   1  12
TORSDOF 14
ENDMDL
MODEL 7
REMARK VINA RESULT:     7.693      3.323      8.588
REMARK INTER + INTRA:          13.934
REMARK INTER:                  14.741
REMARK INTRA:                  -0.806
REMARK UNBOUND:                -0.055
REMARK SMILES CCCCCCCCCCCCCC[C@@H](C)C(=O)[O-]
REMARK SMILES IDX 9 1 10 2 11 3 12 4 13 5 14 6 15 7 16 8 17 9 18 10 19 11 8 12
REMARK SMILES IDX 7 13 6 14 5 15 4 16 3 17 2 18 1 19
REMARK H PARENT
REMARK Flexibility Score: inf
ROOT
ATOM      1  C   UNL     1     -13.338  61.875  -4.215  1.00  0.00     0.000 C 
ENDROOT
BRANCH   1   2
ATOM      2  C   UNL     1     -12.991  61.407  -2.791  1.00  0.00     0.000 C 
BRANCH   2   3
ATOM      3  C   UNL     1     -14.236  61.249  -1.903  1.00  0.00     0.000 C 
BRANCH   3   4
ATOM      4  C   UNL     1     -15.545  61.495  -2.674  1.00  0.00     0.000 C 
BRANCH   4   5
ATOM      5  C   UNL     1     -16.669  62.033  -1.772  1.00  0.00     0.001 C 
BRANCH   5   6
ATOM      6  C   UNL     1     -17.961  61.202  -1.874  1.00  0.00     0.009 C 
BRANCH   6   7
ATOM      7  C   UNL     1     -19.097  61.959  -2.596  1.00  0.00     0.032 C 
ATOM      8  C   UNL     1     -20.257  61.032  -2.983  1.00  0.00     0.014 C 
BRANCH   7   9
ATOM      9  C   UNL     1     -19.610  63.066  -1.716  1.00  0.00     0.044 C 
ATOM     10  O   UNL     1     -20.106  64.104  -2.227  1.00  0.00    -0.550 OA
ATOM     11  O   UNL     1     -19.537  62.953  -0.332  1.00  0.00    -0.550 OA
ENDBRANCH   7   9
ENDBRANCH   6   7
ENDBRANCH   5   6
ENDBRANCH   4   5
ENDBRANCH   3   4
ENDBRANCH   2   3
ENDBRANCH   1   2
BRANCH   1  12
ATOM     12  C   UNL     1     -12.122  61.862  -5.159  1.00  0.00     0.000 C 
BRANCH  12  13
ATOM     13  C   UNL     1     -12.428  61.455  -6.614  1.00  0.00    -0.000 C 
BRANCH  13  14
ATOM     14  C   UNL     1     -11.875  62.408  -7.692  1.00  0.00    -0.000 C 
BRANCH  14  15
ATOM     15  C   UNL     1     -12.801  62.626  -8.902  1.00  0.00    -0.000 C 
BRANCH  15  16
ATOM     16  C   UNL     1     -12.613  61.564  -9.995  1.00  0.00    -0.000 C 
BRANCH  16  17
ATOM     17  C   UNL     1     -13.810  60.602 -10.037  1.00  0.00    -0.000 C 
BRANCH  17  18
ATOM     18  C   UNL     1     -13.405  59.143  -9.780  1.00  0.00    -0.003 C 
ATOM     19  C   UNL     1     -11.964  59.007  -9.290  1.00  0.00     0.004 C 
ENDBRANCH  17  18
ENDBRANCH  16  17
ENDBRANCH  15  16
ENDBRANCH  14  15
ENDBRANCH  13  14
ENDBRANCH  12  13
ENDBRANCH   1  12
TORSDOF 14
ENDMDL
MODEL 8
REMARK VINA RESULT:     7.938      3.230      8.926
REMARK INTER + INTRA:          14.379
REMARK INTER:                  14.939
REMARK INTRA:                  -0.560
REMARK UNBOUND:                -0.055
REMARK SMILES CCCCCCCCCCCCCC[C@@H](C)C(=O)[O-]
REMARK SMILES IDX 9 1 10 2 11 3 12 4 13 5 14 6 15 7 16 8 17 9 18 10 19 11 8 12
REMARK SMILES IDX 7 13 6 14 5 15 4 16 3 17 2 18 1 19
REMARK H PARENT
REMARK Flexibility Score: inf
ROOT
ATOM      1  C   UNL     1     -12.683  61.876  -5.404  1.00  0.00     0.000 C 
ENDROOT
BRANCH   1   2
ATOM      2  C   UNL     1     -13.876  61.900  -4.432  1.00  0.00     0.000 C 
BRANCH   2   3
ATOM      3  C   UNL     1     -13.476  61.510  -3.000  1.00  0.00     0.000 C 
BRANCH   3   4
ATOM      4  C   UNL     1     -14.620  60.822  -2.235  1.00  0.00     0.000 C 
BRANCH   4   5
ATOM      5  C   UNL     1     -15.581  61.829  -1.581  1.00  0.00     0.001 C 
BRANCH   5   6
ATOM      6  C   UNL     1     -16.947  61.891  -2.289  1.00  0.00     0.009 C 
BRANCH   6   7
ATOM      7  C   UNL     1     -18.123  62.029  -1.297  1.00  0.00     0.032 C 
ATOM      8  C   UNL     1     -18.237  63.449  -0.726  1.00  0.00     0.014 C 
BRANCH   7   9
ATOM      9  C   UNL     1     -19.410  61.656  -1.981  1.00  0.00     0.044 C 
ATOM     10  O   UNL     1     -20.498  61.698  -1.348  1.00  0.00    -0.550 OA
ATOM     11  O   UNL     1     -19.409  61.262  -3.314  1.00  0.00    -0.550 OA
ENDBRANCH   7   9
ENDBRANCH   6   7
ENDBRANCH   5   6
ENDBRANCH   4   5
ENDBRANCH   3   4
ENDBRANCH   2   3
ENDBRANCH   1   2
BRANCH   1  12
ATOM     12  C   UNL     1     -13.024  62.476  -6.780  1.00  0.00     0.000 C 
BRANCH  12  13
ATOM     13  C   UNL     1     -11.883  62.427  -7.816  1.00  0.00    -0.000 C 
BRANCH  13  14
ATOM     14  C   UNL     1     -12.323  62.586  -9.285  1.00  0.00    -0.000 C 
BRANCH  14  15
ATOM     15  C   UNL     1     -12.283  61.292 -10.118  1.00  0.00    -0.000 C 
BRANCH  15  16
ATOM     16  C   UNL     1     -11.992  60.045  -9.268  1.00  0.00    -0.000 C 
BRANCH  16  17
ATOM     17  C   UNL     1     -12.750  58.824  -9.810  1.00  0.00    -0.000 C 
BRANCH  17  18
ATOM     18  C   UNL     1     -11.877  57.561  -9.858  1.00  0.00    -0.003 C 
ATOM     19  C   UNL     1     -12.543  56.356  -9.193  1.00  0.00     0.004 C 
ENDBRANCH  17  18
ENDBRANCH  16  17
ENDBRANCH  15  16
ENDBRANCH  14  15
ENDBRANCH  13  14
ENDBRANCH  12  13
ENDBRANCH   1  12
TORSDOF 14
ENDMDL
