MODEL 1
REMARK VINA RESULT:    -3.139      0.000      0.000
REMARK INTER + INTRA:          -5.144
REMARK INTER:                  -4.790
REMARK INTRA:                  -0.354
REMARK UNBOUND:                -0.354
REMARK SMILES CC1=CCC[C@H](C)C(=O)C[C@H](C(C)C)C(=O)C1
REMARK SMILES IDX 8 1 9 2 6 3 7 4 5 5 4 6 3 7 2 8 1 9 10 11 11 12 15 13 16 14
REMARK SMILES IDX 17 15 12 17 13 18 14 19
REMARK H PARENT
REMARK Flexibility Score: 70.00
ROOT
ATOM      1  C   UNL     1      15.506  61.499  24.015  1.00  0.00     0.136 C 
ATOM      2  O   UNL     1      16.004  60.451  24.405  1.00  0.00    -0.299 OA
ENDROOT
BRANCH   1   3
ATOM      3  C   UNL     1      16.213  62.323  22.961  1.00  0.00     0.053 C 
ATOM      4  C   UNL     1      17.470  62.956  23.568  1.00  0.00     0.016 C 
BRANCH   3   5
ATOM      5  C   UNL     1      16.587  61.489  21.713  1.00  0.00     0.015 C 
BRANCH   5   6
ATOM      6  C   UNL     1      15.428  61.294  20.725  1.00  0.00     0.028 C 
BRANCH   6   7
ATOM      7  C   UNL     1      14.886  59.886  20.783  1.00  0.00    -0.028 C 
ATOM      8  C   UNL     1      13.628  59.552  21.151  1.00  0.00    -0.070 CG0
ATOM      9  C   UNL     1      13.254  58.092  21.158  1.00  0.00     0.039 C 
ATOM     10  G   UNL     1      12.592  60.580  21.567  1.00  0.00     0.000 G0
ENDBRANCH   6   7
ENDBRANCH   5   6
ENDBRANCH   3   5
ENDBRANCH   1   3
BRANCH   1  11
ATOM     11  C   UNL     1      14.219  61.980  24.643  1.00  0.00     0.087 C 
BRANCH  11  12
ATOM     12  C   UNL     1      13.081  62.240  23.619  1.00  0.00     0.066 C 
BRANCH  12  13
ATOM     13  C   UNL     1      12.568  60.920  23.049  1.00  0.00     0.140 C 
ATOM     14  O   UNL     1      12.047  60.116  23.808  1.00  0.00    -0.299 OA
BRANCH  13  15
ATOM     15  C   UNL     1      12.586  60.594  21.569  1.00  0.00     0.106 CG0
ATOM     16  G   UNL     1      13.625  59.562  21.168  1.00  0.00     0.000 G0
ENDBRANCH  13  15
ENDBRANCH  12  13
BRANCH  12  17
ATOM     17  C   UNL     1      11.906  63.043  24.265  1.00  0.00    -0.006 C 
ATOM     18  C   UNL     1      11.502  64.250  23.400  1.00  0.00     0.008 C 
ATOM     19  C   UNL     1      12.252  63.544  25.681  1.00  0.00     0.008 C 
ENDBRANCH  12  17
ENDBRANCH  11  12
ENDBRANCH   1  11
TORSDOF 1
ENDMDL
MODEL 2
REMARK VINA RESULT:    -3.106     13.182     14.058
REMARK INTER + INTRA:          -5.094
REMARK INTER:                  -4.794
REMARK INTRA:                  -0.300
REMARK UNBOUND:                -0.354
REMARK SMILES CC1=CCC[C@H](C)C(=O)C[C@H](C(C)C)C(=O)C1
REMARK SMILES IDX 8 1 9 2 6 3 7 4 5 5 4 6 3 7 2 8 1 9 10 11 11 12 15 13 16 14
REMARK SMILES IDX 17 15 12 17 13 18 14 19
REMARK H PARENT
REMARK Flexibility Score: 70.00
ROOT
ATOM      1  C   UNL     1      18.003  53.103  34.927  1.00  0.00     0.136 C 
ATOM      2  O   UNL     1      19.015  53.099  35.613  1.00  0.00    -0.299 OA
ENDROOT
BRANCH   1   3
ATOM      3  C   UNL     1      17.848  54.123  33.818  1.00  0.00     0.053 C 
ATOM      4  C   UNL     1      18.222  55.511  34.348  1.00  0.00     0.016 C 
BRANCH   3   5
ATOM      5  C   UNL     1      18.704  53.778  32.577  1.00  0.00     0.015 C 
BRANCH   5   6
ATOM      6  C   UNL     1      17.949  52.983  31.502  1.00  0.00     0.028 C 
BRANCH   6   7
ATOM      7  C   UNL     1      16.568  53.549  31.268  1.00  0.00    -0.028 C 
ATOM      8  C   UNL     1      15.412  52.950  31.633  1.00  0.00    -0.070 CG0
ATOM      9  C   UNL     1      14.117  53.654  31.318  1.00  0.00     0.039 C 
ATOM     10  G   UNL     1      15.367  51.602  32.329  1.00  0.00     0.000 G0
ENDBRANCH   6   7
ENDBRANCH   5   6
ENDBRANCH   3   5
ENDBRANCH   1   3
BRANCH   1  11
ATOM     11  C   UNL     1      16.896  52.126  35.242  1.00  0.00     0.087 C 
BRANCH  11  12
ATOM     12  C   UNL     1      15.484  52.619  34.822  1.00  0.00     0.066 C 
BRANCH  12  13
ATOM     13  C   UNL     1      14.876  51.671  33.792  1.00  0.00     0.140 C 
ATOM     14  O   UNL     1      13.916  50.988  34.117  1.00  0.00    -0.299 OA
BRANCH  13  15
ATOM     15  C   UNL     1      15.343  51.603  32.350  1.00  0.00     0.106 CG0
ATOM     16  G   UNL     1      15.409  52.948  31.651  1.00  0.00     0.000 G0
ENDBRANCH  13  15
ENDBRANCH  12  13
BRANCH  12  17
ATOM     17  C   UNL     1      14.537  52.754  36.058  1.00  0.00    -0.006 C 
ATOM     18  C   UNL     1      14.106  54.215  36.282  1.00  0.00     0.008 C 
ATOM     19  C   UNL     1      15.188  52.227  37.351  1.00  0.00     0.008 C 
ENDBRANCH  12  17
ENDBRANCH  11  12
ENDBRANCH   1  11
TORSDOF 1
ENDMDL
MODEL 3
REMARK VINA RESULT:    -2.985      2.347      4.298
REMARK INTER + INTRA:          -4.910
REMARK INTER:                  -4.437
REMARK INTRA:                  -0.473
REMARK UNBOUND:                -0.354
REMARK SMILES CC1=CCC[C@H](C)C(=O)C[C@H](C(C)C)C(=O)C1
REMARK SMILES IDX 8 1 9 2 6 3 7 4 5 5 4 6 3 7 2 8 1 9 10 11 11 12 15 13 16 14
REMARK SMILES IDX 17 15 12 17 13 18 14 19
REMARK H PARENT
REMARK Flexibility Score: 70.00
ROOT
ATOM      1  C   UNL     1      16.099  60.280  21.254  1.00  0.00     0.136 C 
ATOM      2  O   UNL     1      16.987  60.357  20.416  1.00  0.00    -0.299 OA
ENDROOT
BRANCH   1   3
ATOM      3  C   UNL     1      15.965  59.030  22.098  1.00  0.00     0.053 C 
ATOM      4  C   UNL     1      16.098  57.795  21.202  1.00  0.00     0.016 C 
BRANCH   3   5
ATOM      5  C   UNL     1      17.007  58.975  23.240  1.00  0.00     0.015 C 
BRANCH   5   6
ATOM      6  C   UNL     1      16.485  59.502  24.585  1.00  0.00     0.028 C 
BRANCH   6   7
ATOM      7  C   UNL     1      16.760  60.978  24.741  1.00  0.00    -0.028 C 
ATOM      8  C   UNL     1      15.814  61.942  24.806  1.00  0.00    -0.070 CG0
ATOM      9  C   UNL     1      16.265  63.372  24.959  1.00  0.00     0.039 C 
ATOM     10  G   UNL     1      14.328  61.644  24.717  1.00  0.00     0.000 G0
ENDBRANCH   6   7
ENDBRANCH   5   6
ENDBRANCH   3   5
ENDBRANCH   1   3
BRANCH   1  11
ATOM     11  C   UNL     1      15.113  61.416  21.388  1.00  0.00     0.087 C 
BRANCH  11  12
ATOM     12  C   UNL     1      13.827  61.042  22.175  1.00  0.00     0.066 C 
BRANCH  12  13
ATOM     13  C   UNL     1      13.668  61.949  23.393  1.00  0.00     0.140 C 
ATOM     14  O   UNL     1      12.922  62.914  23.313  1.00  0.00    -0.299 OA
BRANCH  13  15
ATOM     15  C   UNL     1      14.316  61.659  24.733  1.00  0.00     0.106 CG0
ATOM     16  G   UNL     1      15.804  61.955  24.785  1.00  0.00     0.000 G0
ENDBRANCH  13  15
ENDBRANCH  12  13
BRANCH  12  17
ATOM     17  C   UNL     1      12.558  61.127  21.268  1.00  0.00    -0.006 C 
ATOM     18  C   UNL     1      11.846  59.767  21.162  1.00  0.00     0.008 C 
ATOM     19  C   UNL     1      12.890  61.623  19.847  1.00  0.00     0.008 C 
ENDBRANCH  12  17
ENDBRANCH  11  12
ENDBRANCH   1  11
TORSDOF 1
ENDMDL
MODEL 4
REMARK VINA RESULT:    -2.977      2.042      4.324
REMARK INTER + INTRA:          -4.897
REMARK INTER:                  -4.391
REMARK INTRA:                  -0.507
REMARK UNBOUND:                -0.354
REMARK SMILES CC1=CCC[C@H](C)C(=O)C[C@H](C(C)C)C(=O)C1
REMARK SMILES IDX 8 1 9 2 6 3 7 4 5 5 4 6 3 7 2 8 1 9 10 11 11 12 15 13 16 14
REMARK SMILES IDX 17 15 12 17 13 18 14 19
REMARK H PARENT
REMARK Flexibility Score: 70.00
ROOT
ATOM      1  C   UNL     1      12.839  61.178  24.265  1.00  0.00     0.136 C 
ATOM      2  O   UNL     1      12.082  60.735  25.118  1.00  0.00    -0.299 OA
ENDROOT
BRANCH   1   3
ATOM      3  C   UNL     1      13.222  62.643  24.286  1.00  0.00     0.053 C 
ATOM      4  C   UNL     1      11.972  63.493  24.536  1.00  0.00     0.016 C 
BRANCH   3   5
ATOM      5  C   UNL     1      14.300  62.955  25.351  1.00  0.00     0.015 C 
BRANCH   5   6
ATOM      6  C   UNL     1      15.692  63.234  24.765  1.00  0.00     0.028 C 
BRANCH   6   7
ATOM      7  C   UNL     1      16.567  62.005  24.819  1.00  0.00    -0.028 C 
ATOM      8  C   UNL     1      16.936  61.267  23.748  1.00  0.00    -0.070 CG0
ATOM      9  C   UNL     1      17.813  60.063  23.982  1.00  0.00     0.039 C 
ATOM     10  G   UNL     1      16.494  61.590  22.332  1.00  0.00     0.000 G0
ENDBRANCH   6   7
ENDBRANCH   5   6
ENDBRANCH   3   5
ENDBRANCH   1   3
BRANCH   1  11
ATOM     11  C   UNL     1      13.328  60.264  23.168  1.00  0.00     0.087 C 
BRANCH  11  12
ATOM     12  C   UNL     1      13.919  61.013  21.943  1.00  0.00     0.066 C 
BRANCH  12  13
ATOM     13  C   UNL     1      15.401  60.684  21.783  1.00  0.00     0.140 C 
ATOM     14  O   UNL     1      15.717  59.705  21.123  1.00  0.00    -0.299 OA
BRANCH  13  15
ATOM     15  C   UNL     1      16.509  61.567  22.323  1.00  0.00     0.106 CG0
ATOM     16  G   UNL     1      16.920  61.252  23.751  1.00  0.00     0.000 G0
ENDBRANCH  13  15
ENDBRANCH  12  13
BRANCH  12  17
ATOM     17  C   UNL     1      13.143  60.663  20.632  1.00  0.00    -0.006 C 
ATOM     18  C   UNL     1      12.776  61.928  19.836  1.00  0.00     0.008 C 
ATOM     19  C   UNL     1      11.855  59.865  20.913  1.00  0.00     0.008 C 
ENDBRANCH  12  17
ENDBRANCH  11  12
ENDBRANCH   1  11
TORSDOF 1
ENDMDL
MODEL 5
REMARK VINA RESULT:    -2.917     13.414     14.654
REMARK INTER + INTRA:          -4.805
REMARK INTER:                  -4.514
REMARK INTRA:                  -0.291
REMARK UNBOUND:                -0.354
REMARK SMILES CC1=CCC[C@H](C)C(=O)C[C@H](C(C)C)C(=O)C1
REMARK SMILES IDX 8 1 9 2 6 3 7 4 5 5 4 6 3 7 2 8 1 9 10 11 11 12 15 13 16 14
REMARK SMILES IDX 17 15 12 17 13 18 14 19
REMARK H PARENT
REMARK Flexibility Score: 70.00
ROOT
ATOM      1  C   UNL     1      14.251  51.571  33.108  1.00  0.00     0.136 C 
ATOM      2  O   UNL     1      13.147  51.695  33.622  1.00  0.00    -0.299 OA
ENDROOT
BRANCH   1   3
ATOM      3  C   UNL     1      14.538  50.380  32.218  1.00  0.00     0.053 C 
ATOM      4  C   UNL     1      13.244  49.592  31.991  1.00  0.00     0.016 C 
BRANCH   3   5
ATOM      5  C   UNL     1      15.155  50.794  30.861  1.00  0.00     0.015 C 
BRANCH   5   6
ATOM      6  C   UNL     1      16.646  50.449  30.726  1.00  0.00     0.028 C 
BRANCH   6   7
ATOM      7  C   UNL     1      17.484  51.693  30.551  1.00  0.00    -0.028 C 
ATOM      8  C   UNL     1      18.297  52.220  31.494  1.00  0.00    -0.070 CG0
ATOM      9  C   UNL     1      19.061  53.474  31.154  1.00  0.00     0.039 C 
ATOM     10  G   UNL     1      18.458  51.613  32.876  1.00  0.00     0.000 G0
ENDBRANCH   6   7
ENDBRANCH   5   6
ENDBRANCH   3   5
ENDBRANCH   1   3
BRANCH   1  11
ATOM     11  C   UNL     1      15.327  52.582  33.424  1.00  0.00     0.087 C 
BRANCH  11  12
ATOM     12  C   UNL     1      16.357  52.094  34.479  1.00  0.00     0.066 C 
BRANCH  12  13
ATOM     13  C   UNL     1      17.779  52.377  34.003  1.00  0.00     0.140 C 
ATOM     14  O   UNL     1      18.442  53.214  34.598  1.00  0.00    -0.299 OA
BRANCH  13  15
ATOM     15  C   UNL     1      18.449  51.602  32.885  1.00  0.00     0.106 CG0
ATOM     16  G   UNL     1      18.288  52.222  31.509  1.00  0.00     0.000 G0
ENDBRANCH  13  15
ENDBRANCH  12  13
BRANCH  12  17
ATOM     17  C   UNL     1      16.108  52.763  35.869  1.00  0.00    -0.006 C 
ATOM     18  C   UNL     1      15.451  51.784  36.859  1.00  0.00     0.008 C 
ATOM     19  C   UNL     1      15.227  54.023  35.760  1.00  0.00     0.008 C 
ENDBRANCH  12  17
ENDBRANCH  11  12
ENDBRANCH   1  11
TORSDOF 1
ENDMDL
MODEL 6
REMARK VINA RESULT:    -2.833      2.005      4.321
REMARK INTER + INTRA:          -4.678
REMARK INTER:                  -4.223
REMARK INTRA:                  -0.455
REMARK UNBOUND:                -0.354
REMARK SMILES CC1=CCC[C@H](C)C(=O)C[C@H](C(C)C)C(=O)C1
REMARK SMILES IDX 8 1 9 2 6 3 7 4 5 5 4 6 3 7 2 8 1 9 10 11 11 12 15 13 16 14
REMARK SMILES IDX 17 15 12 17 13 18 14 19
REMARK H PARENT
REMARK Flexibility Score: 70.00
ROOT
ATOM      1  C   UNL     1      14.185  61.761  21.680  1.00  0.00     0.136 C 
ATOM      2  O   UNL     1      13.583  61.824  20.616  1.00  0.00    -0.299 OA
ENDROOT
BRANCH   1   3
ATOM      3  C   UNL     1      13.412  61.692  22.980  1.00  0.00     0.053 C 
ATOM      4  C   UNL     1      12.703  63.028  23.222  1.00  0.00     0.016 C 
BRANCH   3   5
ATOM      5  C   UNL     1      12.386  60.534  22.995  1.00  0.00     0.015 C 
BRANCH   5   6
ATOM      6  C   UNL     1      12.984  59.179  23.401  1.00  0.00     0.028 C 
BRANCH   6   7
ATOM      7  C   UNL     1      13.390  58.373  22.191  1.00  0.00    -0.028 C 
ATOM      8  C   UNL     1      14.656  57.998  21.897  1.00  0.00    -0.070 CG0
ATOM      9  C   UNL     1      14.886  57.197  20.642  1.00  0.00     0.039 C 
ATOM     10  G   UNL     1      15.845  58.363  22.767  1.00  0.00     0.000 G0
ENDBRANCH   6   7
ENDBRANCH   5   6
ENDBRANCH   3   5
ENDBRANCH   1   3
BRANCH   1  11
ATOM     11  C   UNL     1      15.694  61.816  21.676  1.00  0.00     0.087 C 
BRANCH  11  12
ATOM     12  C   UNL     1      16.355  60.976  22.801  1.00  0.00     0.066 C 
BRANCH  12  13
ATOM     13  C   UNL     1      16.642  59.560  22.307  1.00  0.00     0.140 C 
ATOM     14  O   UNL     1      17.602  59.378  21.573  1.00  0.00    -0.299 OA
BRANCH  13  15
ATOM     15  C   UNL     1      15.852  58.348  22.759  1.00  0.00     0.106 CG0
ATOM     16  G   UNL     1      14.662  58.013  21.878  1.00  0.00     0.000 G0
ENDBRANCH  13  15
ENDBRANCH  12  13
BRANCH  12  17
ATOM     17  C   UNL     1      17.670  61.646  23.316  1.00  0.00    -0.006 C 
ATOM     18  C   UNL     1      18.154  61.007  24.629  1.00  0.00     0.008 C 
ATOM     19  C   UNL     1      17.503  63.162  23.536  1.00  0.00     0.008 C 
ENDBRANCH  12  17
ENDBRANCH  11  12
ENDBRANCH   1  11
TORSDOF 1
ENDMDL
MODEL 7
REMARK VINA RESULT:    -2.823     13.153     14.839
REMARK INTER + INTRA:          -4.663
REMARK INTER:                  -4.500
REMARK INTRA:                  -0.162
REMARK UNBOUND:                -0.354
REMARK SMILES CC1=CCC[C@H](C)C(=O)C[C@H](C(C)C)C(=O)C1
REMARK SMILES IDX 8 1 9 2 6 3 7 4 5 5 4 6 3 7 2 8 1 9 10 11 11 12 15 13 16 14
REMARK SMILES IDX 17 15 12 17 13 18 14 19
REMARK H PARENT
REMARK Flexibility Score: 70.00
ROOT
ATOM      1  C   UNL     1      16.619  51.730  32.417  1.00  0.00     0.136 C 
ATOM      2  O   UNL     1      16.352  51.095  31.406  1.00  0.00    -0.299 OA
ENDROOT
BRANCH   1   3
ATOM      3  C   UNL     1      15.524  52.479  33.147  1.00  0.00     0.053 C 
ATOM      4  C   UNL     1      14.226  52.402  32.336  1.00  0.00     0.016 C 
BRANCH   3   5
ATOM      5  C   UNL     1      15.291  51.937  34.578  1.00  0.00     0.015 C 
BRANCH   5   6
ATOM      6  C   UNL     1      16.097  52.672  35.659  1.00  0.00     0.028 C 
BRANCH   6   7
ATOM      7  C   UNL     1      16.313  54.121  35.295  1.00  0.00    -0.028 C 
ATOM      8  C   UNL     1      17.509  54.674  34.987  1.00  0.00    -0.070 CG0
ATOM      9  C   UNL     1      17.547  56.142  34.650  1.00  0.00     0.039 C 
ATOM     10  G   UNL     1      18.805  53.883  34.982  1.00  0.00     0.000 G0
ENDBRANCH   6   7
ENDBRANCH   5   6
ENDBRANCH   3   5
ENDBRANCH   1   3
BRANCH   1  11
ATOM     11  C   UNL     1      18.053  51.804  32.883  1.00  0.00     0.087 C 
BRANCH  11  12
ATOM     12  C   UNL     1      18.802  53.079  32.411  1.00  0.00     0.066 C 
BRANCH  12  13
ATOM     13  C   UNL     1      19.463  53.776  33.597  1.00  0.00     0.140 C 
ATOM     14  O   UNL     1      20.533  54.342  33.424  1.00  0.00    -0.299 OA
BRANCH  13  15
ATOM     15  C   UNL     1      18.812  53.887  34.962  1.00  0.00     0.106 CG0
ATOM     16  G   UNL     1      17.510  54.668  34.972  1.00  0.00     0.000 G0
ENDBRANCH  13  15
ENDBRANCH  12  13
BRANCH  12  17
ATOM     17  C   UNL     1      19.868  52.743  31.318  1.00  0.00    -0.006 C 
ATOM     18  C   UNL     1      19.310  52.956  29.899  1.00  0.00     0.008 C 
ATOM     19  C   UNL     1      20.384  51.295  31.434  1.00  0.00     0.008 C 
ENDBRANCH  12  17
ENDBRANCH  11  12
ENDBRANCH   1  11
TORSDOF 1
ENDMDL
MODEL 8
REMARK VINA RESULT:    -2.729      2.790      4.844
REMARK INTER + INTRA:          -4.519
REMARK INTER:                  -4.028
REMARK INTRA:                  -0.490
REMARK UNBOUND:                -0.354
REMARK SMILES CC1=CCC[C@H](C)C(=O)C[C@H](C(C)C)C(=O)C1
REMARK SMILES IDX 8 1 9 2 6 3 7 4 5 5 4 6 3 7 2 8 1 9 10 11 11 12 15 13 16 14
REMARK SMILES IDX 17 15 12 17 13 18 14 19
REMARK H PARENT
REMARK Flexibility Score: 70.00
ROOT
ATOM      1  C   UNL     1      13.901  60.566  22.555  1.00  0.00     0.136 C 
ATOM      2  O   UNL     1      13.404  61.390  23.310  1.00  0.00    -0.299 OA
ENDROOT
BRANCH   1   3
ATOM      3  C   UNL     1      14.267  60.964  21.140  1.00  0.00     0.053 C 
ATOM      4  C   UNL     1      13.112  61.756  20.520  1.00  0.00     0.016 C 
BRANCH   3   5
ATOM      5  C   UNL     1      15.573  61.792  21.081  1.00  0.00     0.015 C 
BRANCH   5   6
ATOM      6  C   UNL     1      16.797  60.989  20.614  1.00  0.00     0.028 C 
BRANCH   6   7
ATOM      7  C   UNL     1      17.650  60.559  21.782  1.00  0.00    -0.028 C 
ATOM      8  C   UNL     1      17.820  59.281  22.190  1.00  0.00    -0.070 CG0
ATOM      9  C   UNL     1      18.706  59.027  23.383  1.00  0.00     0.039 C 
ATOM     10  G   UNL     1      17.147  58.102  21.509  1.00  0.00     0.000 G0
ENDBRANCH   6   7
ENDBRANCH   5   6
ENDBRANCH   3   5
ENDBRANCH   1   3
BRANCH   1  11
ATOM     11  C   UNL     1      14.083  59.145  23.032  1.00  0.00     0.087 C 
BRANCH  11  12
ATOM     12  C   UNL     1      14.501  58.155  21.912  1.00  0.00     0.066 C 
BRANCH  12  13
ATOM     13  C   UNL     1      15.894  57.596  22.191  1.00  0.00     0.140 C 
ATOM     14  O   UNL     1      16.004  56.647  22.954  1.00  0.00    -0.299 OA
BRANCH  13  15
ATOM     15  C   UNL     1      17.144  58.096  21.493  1.00  0.00     0.106 CG0
ATOM     16  G   UNL     1      17.818  59.269  22.183  1.00  0.00     0.000 G0
ENDBRANCH  13  15
ENDBRANCH  12  13
BRANCH  12  17
ATOM     17  C   UNL     1      13.470  56.989  21.766  1.00  0.00    -0.006 C 
ATOM     18  C   UNL     1      13.450  56.428  20.333  1.00  0.00     0.008 C 
ATOM     19  C   UNL     1      12.042  57.425  22.146  1.00  0.00     0.008 C 
ENDBRANCH  12  17
ENDBRANCH  11  12
ENDBRANCH   1  11
TORSDOF 1
ENDMDL
MODEL 9
REMARK VINA RESULT:    -2.702      2.140      4.957
REMARK INTER + INTRA:          -4.478
REMARK INTER:                  -4.088
REMARK INTRA:                  -0.390
REMARK UNBOUND:                -0.354
REMARK SMILES CC1=CCC[C@H](C)C(=O)C[C@H](C(C)C)C(=O)C1
REMARK SMILES IDX 8 1 9 2 6 3 7 4 5 5 4 6 3 7 2 8 1 9 10 11 11 12 15 13 16 14
REMARK SMILES IDX 17 15 12 17 13 18 14 19
REMARK H PARENT
REMARK Flexibility Score: 70.00
ROOT
ATOM      1  C   UNL     1      15.415  60.252  20.952  1.00  0.00     0.136 C 
ATOM      2  O   UNL     1      16.327  60.521  20.181  1.00  0.00    -0.299 OA
ENDROOT
BRANCH   1   3
ATOM      3  C   UNL     1      13.997  60.661  20.614  1.00  0.00     0.053 C 
ATOM      4  C   UNL     1      13.027  59.578  21.096  1.00  0.00     0.016 C 
BRANCH   3   5
ATOM      5  C   UNL     1      13.617  62.029  21.228  1.00  0.00     0.015 C 
BRANCH   5   6
ATOM      6  C   UNL     1      12.648  61.929  22.416  1.00  0.00     0.028 C 
BRANCH   6   7
ATOM      7  C   UNL     1      13.145  62.725  23.599  1.00  0.00    -0.028 C 
ATOM      8  C   UNL     1      13.828  62.213  24.648  1.00  0.00    -0.070 CG0
ATOM      9  C   UNL     1      14.246  63.151  25.751  1.00  0.00     0.039 C 
ATOM     10  G   UNL     1      14.175  60.739  24.764  1.00  0.00     0.000 G0
ENDBRANCH   6   7
ENDBRANCH   5   6
ENDBRANCH   3   5
ENDBRANCH   1   3
BRANCH   1  11
ATOM     11  C   UNL     1      15.735  59.566  22.259  1.00  0.00     0.087 C 
BRANCH  11  12
ATOM     12  C   UNL     1      16.403  60.495  23.308  1.00  0.00     0.066 C 
BRANCH  12  13
ATOM     13  C   UNL     1      15.654  60.421  24.636  1.00  0.00     0.140 C 
ATOM     14  O   UNL     1      16.285  60.178  25.654  1.00  0.00    -0.299 OA
BRANCH  13  15
ATOM     15  C   UNL     1      14.175  60.731  24.772  1.00  0.00     0.106 CG0
ATOM     16  G   UNL     1      13.829  62.202  24.633  1.00  0.00     0.000 G0
ENDBRANCH  13  15
ENDBRANCH  12  13
BRANCH  12  17
ATOM     17  C   UNL     1      17.909  60.131  23.516  1.00  0.00    -0.006 C 
ATOM     18  C   UNL     1      18.834  61.286  23.093  1.00  0.00     0.008 C 
ATOM     19  C   UNL     1      18.313  58.863  22.738  1.00  0.00     0.008 C 
ENDBRANCH  12  17
ENDBRANCH  11  12
ENDBRANCH   1  11
TORSDOF 1
ENDMDL
