MODEL 1
REMARK VINA RESULT:    -5.186      0.000      0.000
REMARK INTER + INTRA:          -7.747
REMARK INTER:                  -7.005
REMARK INTRA:                  -0.742
REMARK UNBOUND:                -0.742
REMARK SMILES CC(=O)CCC=C(C)CCC=C(C)C
REMARK SMILES IDX 7 1 6 2 8 3 9 4 10 5 11 6 13 7 12 8 14 9 5 10 4 11 2 12 3 13
REMARK SMILES IDX 1 14
REMARK H PARENT
REMARK Flexibility Score: inf
ROOT
ATOM      1  C   UNL     1      10.291 -15.087  17.602  1.00  0.00    -0.077 C 
ATOM      2  C   UNL     1      10.826 -13.856  17.434  1.00  0.00    -0.028 C 
ATOM      3  C   UNL     1       9.035 -15.307  18.413  1.00  0.00     0.039 C 
ENDROOT
BRANCH   1   4
ATOM      4  C   UNL     1      10.955 -16.272  16.935  1.00  0.00     0.034 C 
BRANCH   4   5
ATOM      5  C   UNL     1      11.909 -15.810  15.828  1.00  0.00     0.032 C 
BRANCH   5   6
ATOM      6  C   UNL     1      11.460 -16.328  14.485  1.00  0.00    -0.028 C 
ATOM      7  C   UNL     1      10.350 -14.175  13.847  1.00  0.00     0.039 C 
ATOM      8  C   UNL     1      10.780 -15.598  13.573  1.00  0.00    -0.080 C 
ATOM      9  C   UNL     1      10.432 -16.238  12.254  1.00  0.00     0.039 C 
ENDBRANCH   5   6
ENDBRANCH   4   5
ENDBRANCH   1   4
BRANCH   2  10
ATOM     10  C   UNL     1      10.303 -12.597  18.084  1.00  0.00     0.035 C 
BRANCH  10  11
ATOM     11  C   UNL     1      11.323 -11.453  18.013  1.00  0.00     0.079 C 
BRANCH  11  12
ATOM     12  C   UNL     1      10.802 -10.197  18.660  1.00  0.00     0.130 C 
ATOM     13  O   UNL     1       9.759  -9.697  18.263  1.00  0.00    -0.300 OA
ATOM     14  C   UNL     1      11.541  -9.569  19.802  1.00  0.00     0.087 C 
ENDBRANCH  11  12
ENDBRANCH  10  11
ENDBRANCH   2  10
TORSDOF 6
ENDMDL
MODEL 2
REMARK VINA RESULT:    -5.172      1.455      1.834
REMARK INTER + INTRA:          -7.727
REMARK INTER:                  -6.887
REMARK INTRA:                  -0.841
REMARK UNBOUND:                -0.742
REMARK SMILES CC(=O)CCC=C(C)CCC=C(C)C
REMARK SMILES IDX 7 1 6 2 8 3 9 4 10 5 11 6 13 7 12 8 14 9 5 10 4 11 2 12 3 13
REMARK SMILES IDX 1 14
REMARK H PARENT
REMARK Flexibility Score: inf
ROOT
ATOM      1  C   UNL     1      10.435 -15.192  17.304  1.00  0.00    -0.077 C 
ATOM      2  C   UNL     1      11.011 -14.221  16.559  1.00  0.00    -0.028 C 
ATOM      3  C   UNL     1       9.353 -14.887  18.314  1.00  0.00     0.039 C 
ENDROOT
BRANCH   1   4
ATOM      4  C   UNL     1      10.867 -16.627  17.099  1.00  0.00     0.034 C 
BRANCH   4   5
ATOM      5  C   UNL     1      12.220 -16.691  16.383  1.00  0.00     0.032 C 
BRANCH   5   6
ATOM      6  C   UNL     1      12.248 -17.827  15.391  1.00  0.00    -0.028 C 
ATOM      7  C   UNL     1      11.662 -16.356  13.450  1.00  0.00     0.039 C 
ATOM      8  C   UNL     1      12.023 -17.689  14.066  1.00  0.00    -0.080 C 
ATOM      9  C   UNL     1      12.123 -18.910  13.188  1.00  0.00     0.039 C 
ENDBRANCH   5   6
ENDBRANCH   4   5
ENDBRANCH   1   4
BRANCH   2  10
ATOM     10  C   UNL     1      10.717 -12.746  16.697  1.00  0.00     0.035 C 
BRANCH  10  11
ATOM     11  C   UNL     1      11.725 -12.049  17.621  1.00  0.00     0.079 C 
BRANCH  11  12
ATOM     12  C   UNL     1      11.044 -11.130  18.600  1.00  0.00     0.130 C 
ATOM     13  O   UNL     1      11.684 -10.642  19.521  1.00  0.00    -0.300 OA
ATOM     14  C   UNL     1       9.593 -10.791  18.440  1.00  0.00     0.087 C 
ENDBRANCH  11  12
ENDBRANCH  10  11
ENDBRANCH   2  10
TORSDOF 6
ENDMDL
MODEL 3
REMARK VINA RESULT:    -5.136      2.889      6.444
REMARK INTER + INTRA:          -7.679
REMARK INTER:                  -7.046
REMARK INTRA:                  -0.633
REMARK UNBOUND:                -0.742
REMARK SMILES CC(=O)CCC=C(C)CCC=C(C)C
REMARK SMILES IDX 7 1 6 2 8 3 9 4 10 5 11 6 13 7 12 8 14 9 5 10 4 11 2 12 3 13
REMARK SMILES IDX 1 14
REMARK H PARENT
REMARK Flexibility Score: inf
ROOT
ATOM      1  C   UNL     1      10.371 -14.378  17.136  1.00  0.00    -0.077 C 
ATOM      2  C   UNL     1      10.927 -14.310  15.905  1.00  0.00    -0.028 C 
ATOM      3  C   UNL     1       9.709 -15.638  17.644  1.00  0.00     0.039 C 
ENDROOT
BRANCH   1   4
ATOM      4  C   UNL     1      10.440 -13.167  18.039  1.00  0.00     0.034 C 
BRANCH   4   5
ATOM      5  C   UNL     1      11.392 -12.112  17.465  1.00  0.00     0.032 C 
BRANCH   5   6
ATOM      6  C   UNL     1      11.765 -11.098  18.517  1.00  0.00    -0.028 C 
ATOM      7  C   UNL     1       9.707  -9.720  18.144  1.00  0.00     0.039 C 
ATOM      8  C   UNL     1      11.007 -10.030  18.851  1.00  0.00    -0.080 C 
ATOM      9  C   UNL     1      11.490  -9.121  19.951  1.00  0.00     0.039 C 
ENDBRANCH   5   6
ENDBRANCH   4   5
ENDBRANCH   1   4
BRANCH   2  10
ATOM     10  C   UNL     1      10.883 -15.420  14.881  1.00  0.00     0.035 C 
BRANCH  10  11
ATOM     11  C   UNL     1      12.267 -16.045  14.659  1.00  0.00     0.079 C 
BRANCH  11  12
ATOM     12  C   UNL     1      12.307 -17.485  15.095  1.00  0.00     0.130 C 
ATOM     13  O   UNL     1      12.022 -18.369  14.299  1.00  0.00    -0.300 OA
ATOM     14  C   UNL     1      12.718 -17.845  16.491  1.00  0.00     0.087 C 
ENDBRANCH  11  12
ENDBRANCH  10  11
ENDBRANCH   2  10
TORSDOF 6
ENDMDL
MODEL 4
REMARK VINA RESULT:    -5.111      1.751      2.149
REMARK INTER + INTRA:          -7.646
REMARK INTER:                  -6.871
REMARK INTRA:                  -0.774
REMARK UNBOUND:                -0.742
REMARK SMILES CC(=O)CCC=C(C)CCC=C(C)C
REMARK SMILES IDX 7 1 6 2 8 3 9 4 10 5 11 6 13 7 12 8 14 9 5 10 4 11 2 12 3 13
REMARK SMILES IDX 1 14
REMARK H PARENT
REMARK Flexibility Score: inf
ROOT
ATOM      1  C   UNL     1       9.962 -14.329  17.058  1.00  0.00    -0.077 C 
ATOM      2  C   UNL     1      10.171 -13.458  18.072  1.00  0.00    -0.028 C 
ATOM      3  C   UNL     1       9.771 -13.862  15.633  1.00  0.00     0.039 C 
ENDROOT
BRANCH   1   4
ATOM      4  C   UNL     1       9.946 -15.812  17.356  1.00  0.00     0.034 C 
BRANCH   4   5
ATOM      5  C   UNL     1      11.373 -16.359  17.469  1.00  0.00     0.032 C 
BRANCH   5   6
ATOM      6  C   UNL     1      11.672 -17.311  16.338  1.00  0.00    -0.028 C 
ATOM      7  C   UNL     1      13.007 -15.622  15.059  1.00  0.00     0.039 C 
ATOM      8  C   UNL     1      12.425 -17.002  15.260  1.00  0.00    -0.080 C 
ATOM      9  C   UNL     1      12.672 -18.070  14.225  1.00  0.00     0.039 C 
ENDBRANCH   5   6
ENDBRANCH   4   5
ENDBRANCH   1   4
BRANCH   2  10
ATOM     10  C   UNL     1      10.157 -11.955  17.930  1.00  0.00     0.035 C 
BRANCH  10  11
ATOM     11  C   UNL     1      11.553 -11.351  18.127  1.00  0.00     0.079 C 
BRANCH  11  12
ATOM     12  C   UNL     1      11.535 -10.202  19.099  1.00  0.00     0.130 C 
ATOM     13  O   UNL     1      12.091 -10.313  20.182  1.00  0.00    -0.300 OA
ATOM     14  C   UNL     1      10.858  -8.914  18.739  1.00  0.00     0.087 C 
ENDBRANCH  11  12
ENDBRANCH  10  11
ENDBRANCH   2  10
TORSDOF 6
ENDMDL
MODEL 5
REMARK VINA RESULT:    -5.080      3.394      6.735
REMARK INTER + INTRA:          -7.604
REMARK INTER:                  -6.733
REMARK INTRA:                  -0.871
REMARK UNBOUND:                -0.742
REMARK SMILES CC(=O)CCC=C(C)CCC=C(C)C
REMARK SMILES IDX 7 1 6 2 8 3 9 4 10 5 11 6 13 7 12 8 14 9 5 10 4 11 2 12 3 13
REMARK SMILES IDX 1 14
REMARK H PARENT
REMARK Flexibility Score: inf
ROOT
ATOM      1  C   UNL     1      11.662 -16.803  16.190  1.00  0.00    -0.077 C 
ATOM      2  C   UNL     1      11.324 -16.213  15.021  1.00  0.00    -0.028 C 
ATOM      3  C   UNL     1      12.751 -17.848  16.271  1.00  0.00     0.039 C 
ENDROOT
BRANCH   1   4
ATOM      4  C   UNL     1      10.948 -16.384  17.456  1.00  0.00     0.034 C 
BRANCH   4   5
ATOM      5  C   UNL     1       9.852 -15.358  17.149  1.00  0.00     0.032 C 
BRANCH   5   6
ATOM      6  C   UNL     1      10.042 -14.110  17.974  1.00  0.00    -0.028 C 
ATOM      7  C   UNL     1      10.415 -12.651  15.973  1.00  0.00     0.039 C 
ATOM      8  C   UNL     1      10.271 -12.881  17.460  1.00  0.00    -0.080 C 
ATOM      9  C   UNL     1      10.400 -11.718  18.408  1.00  0.00     0.039 C 
ENDBRANCH   5   6
ENDBRANCH   4   5
ENDBRANCH   1   4
BRANCH   2  10
ATOM     10  C   UNL     1      11.913 -16.572  13.677  1.00  0.00     0.035 C 
BRANCH  10  11
ATOM     11  C   UNL     1      10.823 -16.840  12.631  1.00  0.00     0.079 C 
BRANCH  11  12
ATOM     12  C   UNL     1      10.910 -18.237  12.077  1.00  0.00     0.130 C 
ATOM     13  O   UNL     1      10.446 -18.483  10.972  1.00  0.00    -0.300 OA
ATOM     14  C   UNL     1      11.581 -19.324  12.860  1.00  0.00     0.087 C 
ENDBRANCH  11  12
ENDBRANCH  10  11
ENDBRANCH   2  10
TORSDOF 6
ENDMDL
MODEL 6
REMARK VINA RESULT:    -4.922      2.584      6.210
REMARK INTER + INTRA:          -7.390
REMARK INTER:                  -6.810
REMARK INTRA:                  -0.580
REMARK UNBOUND:                -0.742
REMARK SMILES CC(=O)CCC=C(C)CCC=C(C)C
REMARK SMILES IDX 7 1 6 2 8 3 9 4 10 5 11 6 13 7 12 8 14 9 5 10 4 11 2 12 3 13
REMARK SMILES IDX 1 14
REMARK H PARENT
REMARK Flexibility Score: inf
ROOT
ATOM      1  C   UNL     1      10.260 -14.742  17.124  1.00  0.00    -0.077 C 
ATOM      2  C   UNL     1      11.313 -15.003  16.317  1.00  0.00    -0.028 C 
ATOM      3  C   UNL     1       9.087 -15.689  17.237  1.00  0.00     0.039 C 
ENDROOT
BRANCH   1   4
ATOM      4  C   UNL     1      10.270 -13.480  17.958  1.00  0.00     0.034 C 
BRANCH   4   5
ATOM      5  C   UNL     1      11.180 -12.419  17.329  1.00  0.00     0.032 C 
BRANCH   5   6
ATOM      6  C   UNL     1      11.649 -11.432  18.369  1.00  0.00    -0.028 C 
ATOM      7  C   UNL     1       9.635  -9.965  18.114  1.00  0.00     0.039 C 
ATOM      8  C   UNL     1      10.955 -10.337  18.750  1.00  0.00    -0.080 C 
ATOM      9  C   UNL     1      11.531  -9.460  19.831  1.00  0.00     0.039 C 
ENDBRANCH   5   6
ENDBRANCH   4   5
ENDBRANCH   1   4
BRANCH   2  10
ATOM     10  C   UNL     1      11.411 -16.192  15.392  1.00  0.00     0.035 C 
BRANCH  10  11
ATOM     11  C   UNL     1      11.895 -15.788  13.993  1.00  0.00     0.079 C 
BRANCH  11  12
ATOM     12  C   UNL     1      10.756 -15.693  13.012  1.00  0.00     0.130 C 
ATOM     13  O   UNL     1      10.361 -16.700  12.441  1.00  0.00    -0.300 OA
ATOM     14  C   UNL     1      10.089 -14.377  12.748  1.00  0.00     0.087 C 
ENDBRANCH  11  12
ENDBRANCH  10  11
ENDBRANCH   2  10
TORSDOF 6
ENDMDL
MODEL 7
REMARK VINA RESULT:    -4.870     16.227     18.164
REMARK INTER + INTRA:          -7.321
REMARK INTER:                  -5.921
REMARK INTRA:                  -1.400
REMARK UNBOUND:                -0.742
REMARK SMILES CC(=O)CCC=C(C)CCC=C(C)C
REMARK SMILES IDX 7 1 6 2 8 3 9 4 10 5 11 6 13 7 12 8 14 9 5 10 4 11 2 12 3 13
REMARK SMILES IDX 1 14
REMARK H PARENT
REMARK Flexibility Score: inf
ROOT
ATOM      1  C   UNL     1      -3.005 -27.052  13.782  1.00  0.00    -0.077 C 
ATOM      2  C   UNL     1      -2.600 -27.370  15.032  1.00  0.00    -0.028 C 
ATOM      3  C   UNL     1      -3.022 -25.624  13.287  1.00  0.00     0.039 C 
ENDROOT
BRANCH   1   4
ATOM      4  C   UNL     1      -3.428 -28.160  12.843  1.00  0.00     0.034 C 
BRANCH   4   5
ATOM      5  C   UNL     1      -2.266 -29.125  12.581  1.00  0.00     0.032 C 
BRANCH   5   6
ATOM      6  C   UNL     1      -1.169 -28.443  11.803  1.00  0.00    -0.028 C 
ATOM      7  C   UNL     1       0.513 -28.699  13.640  1.00  0.00     0.039 C 
ATOM      8  C   UNL     1       0.092 -28.265  12.255  1.00  0.00    -0.080 C 
ATOM      9  C   UNL     1       1.094 -27.600  11.348  1.00  0.00     0.039 C 
ENDBRANCH   5   6
ENDBRANCH   4   5
ENDBRANCH   1   4
BRANCH   2  10
ATOM     10  C   UNL     1      -2.205 -26.366  16.088  1.00  0.00     0.035 C 
BRANCH  10  11
ATOM     11  C   UNL     1      -0.692 -26.112  16.096  1.00  0.00     0.079 C 
BRANCH  11  12
ATOM     12  C   UNL     1      -0.323 -24.892  15.295  1.00  0.00     0.130 C 
ATOM     13  O   UNL     1      -0.857 -23.820  15.542  1.00  0.00    -0.300 OA
ATOM     14  C   UNL     1       0.711 -24.977  14.214  1.00  0.00     0.087 C 
ENDBRANCH  11  12
ENDBRANCH  10  11
ENDBRANCH   2  10
TORSDOF 6
ENDMDL
MODEL 8
REMARK VINA RESULT:    -4.857     16.720     18.643
REMARK INTER + INTRA:          -7.303
REMARK INTER:                  -6.223
REMARK INTRA:                  -1.080
REMARK UNBOUND:                -0.742
REMARK SMILES CC(=O)CCC=C(C)CCC=C(C)C
REMARK SMILES IDX 7 1 6 2 8 3 9 4 10 5 11 6 13 7 12 8 14 9 5 10 4 11 2 12 3 13
REMARK SMILES IDX 1 14
REMARK H PARENT
REMARK Flexibility Score: inf
ROOT
ATOM      1  C   UNL     1      -0.814 -26.779  13.267  1.00  0.00    -0.077 C 
ATOM      2  C   UNL     1      -0.696 -28.053  12.830  1.00  0.00    -0.028 C 
ATOM      3  C   UNL     1       0.376 -25.851  13.351  1.00  0.00     0.039 C 
ENDROOT
BRANCH   1   4
ATOM      4  C   UNL     1      -2.180 -26.261  13.658  1.00  0.00     0.034 C 
BRANCH   4   5
ATOM      5  C   UNL     1      -2.204 -25.847  15.133  1.00  0.00     0.032 C 
BRANCH   5   6
ATOM      6  C   UNL     1      -2.342 -27.055  16.026  1.00  0.00    -0.028 C 
ATOM      7  C   UNL     1       0.001 -26.881  16.893  1.00  0.00     0.039 C 
ATOM      8  C   UNL     1      -1.369 -27.518  16.841  1.00  0.00    -0.080 C 
ATOM      9  C   UNL     1      -1.665 -28.715  17.707  1.00  0.00     0.039 C 
ENDBRANCH   5   6
ENDBRANCH   4   5
ENDBRANCH   1   4
BRANCH   2  10
ATOM     10  C   UNL     1       0.610 -28.716  12.461  1.00  0.00     0.035 C 
BRANCH  10  11
ATOM     11  C   UNL     1       0.858 -28.684  10.947  1.00  0.00     0.079 C 
BRANCH  11  12
ATOM     12  C   UNL     1       2.101 -27.909  10.599  1.00  0.00     0.130 C 
ATOM     13  O   UNL     1       3.190 -28.463  10.629  1.00  0.00    -0.300 OA
ATOM     14  C   UNL     1       2.009 -26.469  10.194  1.00  0.00     0.087 C 
ENDBRANCH  11  12
ENDBRANCH  10  11
ENDBRANCH   2  10
TORSDOF 6
ENDMDL
MODEL 9
REMARK VINA RESULT:    -4.815      3.993      7.729
REMARK INTER + INTRA:          -7.246
REMARK INTER:                  -6.597
REMARK INTRA:                  -0.649
REMARK UNBOUND:                -0.742
REMARK SMILES CC(=O)CCC=C(C)CCC=C(C)C
REMARK SMILES IDX 7 1 6 2 8 3 9 4 10 5 11 6 13 7 12 8 14 9 5 10 4 11 2 12 3 13
REMARK SMILES IDX 1 14
REMARK H PARENT
REMARK Flexibility Score: inf
ROOT
ATOM      1  C   UNL     1      11.997 -16.851  14.867  1.00  0.00    -0.077 C 
ATOM      2  C   UNL     1      12.012 -17.388  13.626  1.00  0.00    -0.028 C 
ATOM      3  C   UNL     1      12.017 -17.712  16.109  1.00  0.00     0.039 C 
ENDROOT
BRANCH   1   4
ATOM      4  C   UNL     1      11.988 -15.346  15.015  1.00  0.00     0.034 C 
BRANCH   4   5
ATOM      5  C   UNL     1      10.555 -14.821  15.156  1.00  0.00     0.032 C 
BRANCH   5   6
ATOM      6  C   UNL     1      10.480 -13.745  16.210  1.00  0.00    -0.028 C 
ATOM      7  C   UNL     1       9.725 -15.328  17.998  1.00  0.00     0.039 C 
ATOM      8  C   UNL     1      10.132 -13.961  17.498  1.00  0.00    -0.080 C 
ATOM      9  C   UNL     1      10.139 -12.794  18.450  1.00  0.00     0.039 C 
ENDBRANCH   5   6
ENDBRANCH   4   5
ENDBRANCH   1   4
BRANCH   2  10
ATOM     10  C   UNL     1      11.966 -18.868  13.331  1.00  0.00     0.035 C 
BRANCH  10  11
ATOM     11  C   UNL     1      10.927 -19.202  12.252  1.00  0.00     0.079 C 
BRANCH  11  12
ATOM     12  C   UNL     1      11.567 -19.426  10.908  1.00  0.00     0.130 C 
ATOM     13  O   UNL     1      12.762 -19.676  10.838  1.00  0.00    -0.300 OA
ATOM     14  C   UNL     1      10.744 -19.368   9.657  1.00  0.00     0.087 C 
ENDBRANCH  11  12
ENDBRANCH  10  11
ENDBRANCH   2  10
TORSDOF 6
ENDMDL
