MODEL 1
REMARK VINA RESULT:    67.598      0.000      0.000
REMARK INTER + INTRA:          99.636
REMARK INTER:                  95.261
REMARK INTRA:                   4.376
REMARK UNBOUND:                 4.376
REMARK SMILES COc1c(O[C@@H]2O[C@H](C(=O)[O-])[C@@H](O)[C@@H](O)[C@H]2O)cc(O)c2c(=O)cc(-c3ccccc3)oc12
REMARK SMILES IDX 5 1 6 2 8 3 12 4 7 5 14 6 16 7 9 8 10 9 11 10 13 11 15 13
REMARK SMILES IDX 17 15 4 17 3 18 18 19 33 20 19 21 21 22 32 23 22 24 25 25
REMARK SMILES IDX 24 26 23 27 2 28 1 29 20 30 26 32 27 33 31 34 28 35 30 36
REMARK SMILES IDX 29 37
REMARK H PARENT 13 12 15 14 17 16 20 31
REMARK Flexibility Score: inf
ROOT
ATOM      1  O   UNL     1     -18.143  13.029 -10.832  1.00  0.00    -0.458 OA
ENDROOT
BRANCH   1   2
ATOM      2  C   UNL     1     -18.247  14.443 -10.644  1.00  0.00     0.339 C 
ATOM      3  C   UNL     1     -16.818  15.047 -12.455  1.00  0.00     0.199 C 
ATOM      4  C   UNL     1     -15.679  15.477 -11.494  1.00  0.00     0.180 C 
ATOM      5  O   UNL     1     -18.114  15.148 -11.873  1.00  0.00    -0.328 OA
ATOM      6  C   UNL     1     -15.806  14.777 -10.132  1.00  0.00     0.181 C 
ATOM      7  C   UNL     1     -17.235  14.916  -9.587  1.00  0.00     0.214 C 
BRANCH   3   8
ATOM      8  C   UNL     1     -16.600  13.709 -13.120  1.00  0.00     0.073 C 
ATOM      9  O   UNL     1     -15.547  13.508 -13.781  1.00  0.00    -0.547 OA
ATOM     10  O   UNL     1     -17.542  12.691 -13.023  1.00  0.00    -0.547 OA
ENDBRANCH   3   8
BRANCH   4  11
ATOM     11  O   UNL     1     -15.715  16.870 -11.310  1.00  0.00    -0.387 OA
ATOM     12  H   UNL     1     -14.856  17.130 -10.886  1.00  0.00     0.211 HD
ENDBRANCH   4  11
BRANCH   6  13
ATOM     13  O   UNL     1     -14.880  15.327  -9.231  1.00  0.00    -0.387 OA
ATOM     14  H   UNL     1     -15.332  16.090  -8.784  1.00  0.00     0.211 HD
ENDBRANCH   6  13
BRANCH   7  15
ATOM     15  O   UNL     1     -17.491  16.255  -9.243  1.00  0.00    -0.384 OA
ATOM     16  H   UNL     1     -17.879  16.248  -8.329  1.00  0.00     0.211 HD
ENDBRANCH   7  15
ENDBRANCH   1   2
BRANCH   1  17
ATOM     17  C   UNL     1     -17.675  12.112  -9.876  1.00  0.00     0.172 A 
ATOM     18  C   UNL     1     -16.996  10.976 -10.331  1.00  0.00     0.205 A 
ATOM     19  C   UNL     1     -17.895  12.292  -8.504  1.00  0.00     0.097 A 
ATOM     20  C   UNL     1     -16.512  10.026  -9.399  1.00  0.00     0.188 A 
ATOM     21  C   UNL     1     -17.470  11.348  -7.571  1.00  0.00     0.134 A 
ATOM     22  C   UNL     1     -16.725  10.216  -8.003  1.00  0.00     0.111 A 
ATOM     23  O   UNL     1     -15.857   8.950  -9.828  1.00  0.00    -0.452 OA
ATOM     24  C   UNL     1     -16.145   9.269  -7.125  1.00  0.00     0.197 A 
ATOM     25  C   UNL     1     -15.365   8.013  -9.024  1.00  0.00     0.138 A 
ATOM     26  C   UNL     1     -15.488   8.157  -7.640  1.00  0.00     0.100 A 
ATOM     27  O   UNL     1     -16.172   9.414  -5.875  1.00  0.00    -0.289 OA
BRANCH  18  28
ATOM     28  O   UNL     1     -16.844  10.855 -11.727  1.00  0.00    -0.490 OA
ATOM     29  C   UNL     1     -17.880  10.650 -12.679  1.00  0.00     0.278 C 
ENDBRANCH  18  28
BRANCH  21  30
ATOM     30  O   UNL     1     -17.847  11.571  -6.244  1.00  0.00    -0.507 OA
ATOM     31  H   UNL     1     -18.188  10.859  -5.616  1.00  0.00     0.293 HD
ENDBRANCH  21  30
BRANCH  25  32
ATOM     32  C   UNL     1     -14.676   6.842  -9.616  1.00  0.00     0.017 A 
ATOM     33  C   UNL     1     -14.541   5.638  -8.898  1.00  0.00     0.012 A 
ATOM     34  C   UNL     1     -14.163   6.916 -10.922  1.00  0.00     0.012 A 
ATOM     35  C   UNL     1     -13.893   4.540  -9.475  1.00  0.00     0.001 A 
ATOM     36  C   UNL     1     -13.516   5.817 -11.493  1.00  0.00     0.001 A 
ATOM     37  C   UNL     1     -13.380   4.630 -10.770  1.00  0.00     0.000 A 
ENDBRANCH  25  32
ENDBRANCH   1  17
TORSDOF 9
ENDMDL
MODEL 2
REMARK VINA RESULT:    70.515      0.953      2.309
REMARK INTER + INTRA:         103.747
REMARK INTER:                 102.073
REMARK INTRA:                   1.674
REMARK UNBOUND:                 4.376
REMARK SMILES COc1c(O[C@@H]2O[C@H](C(=O)[O-])[C@@H](O)[C@@H](O)[C@H]2O)cc(O)c2c(=O)cc(-c3ccccc3)oc12
REMARK SMILES IDX 5 1 6 2 8 3 12 4 7 5 14 6 16 7 9 8 10 9 11 10 13 11 15 13
REMARK SMILES IDX 17 15 4 17 3 18 18 19 33 20 19 21 21 22 32 23 22 24 25 25
REMARK SMILES IDX 24 26 23 27 2 28 1 29 20 30 26 32 27 33 31 34 28 35 30 36
REMARK SMILES IDX 29 37
REMARK H PARENT 13 12 15 14 17 16 20 31
REMARK Flexibility Score: inf
ROOT
ATOM      1  O   UNL     1     -17.764  13.046 -11.273  1.00  0.00    -0.458 OA
ENDROOT
BRANCH   1   2
ATOM      2  C   UNL     1     -16.863  13.357 -12.340  1.00  0.00     0.339 C 
ATOM      3  C   UNL     1     -15.809  15.200 -11.253  1.00  0.00     0.199 C 
ATOM      4  C   UNL     1     -16.514  16.228 -12.177  1.00  0.00     0.180 C 
ATOM      5  O   UNL     1     -15.648  13.920 -11.855  1.00  0.00    -0.328 OA
ATOM      6  C   UNL     1     -17.810  15.649 -12.765  1.00  0.00     0.181 C 
ATOM      7  C   UNL     1     -17.553  14.263 -13.374  1.00  0.00     0.214 C 
BRANCH   3   8
ATOM      8  C   UNL     1     -16.398  15.103  -9.867  1.00  0.00     0.073 C 
ATOM      9  O   UNL     1     -15.688  14.671  -8.920  1.00  0.00    -0.547 OA
ATOM     10  O   UNL     1     -17.713  15.474  -9.611  1.00  0.00    -0.547 OA
ENDBRANCH   3   8
BRANCH   4  11
ATOM     11  O   UNL     1     -15.648  16.597 -13.222  1.00  0.00    -0.387 OA
ATOM     12  H   UNL     1     -14.735  16.313 -12.957  1.00  0.00     0.211 HD
ENDBRANCH   4  11
BRANCH   6  13
ATOM     13  O   UNL     1     -18.319  16.527 -13.737  1.00  0.00    -0.387 OA
ATOM     14  H   UNL     1     -18.899  17.178 -13.261  1.00  0.00     0.211 HD
ENDBRANCH   6  13
BRANCH   7  15
ATOM     15  O   UNL     1     -16.749  14.381 -14.521  1.00  0.00    -0.384 OA
ATOM     16  H   UNL     1     -16.042  15.046 -14.309  1.00  0.00     0.211 HD
ENDBRANCH   7  15
ENDBRANCH   1   2
BRANCH   1  17
ATOM     17  C   UNL     1     -17.492  12.173 -10.206  1.00  0.00     0.172 A 
ATOM     18  C   UNL     1     -16.840  10.969 -10.491  1.00  0.00     0.205 A 
ATOM     19  C   UNL     1     -17.878  12.465  -8.891  1.00  0.00     0.097 A 
ATOM     20  C   UNL     1     -16.552  10.060  -9.444  1.00  0.00     0.188 A 
ATOM     21  C   UNL     1     -17.648  11.566  -7.851  1.00  0.00     0.134 A 
ATOM     22  C   UNL     1     -16.933  10.363  -8.105  1.00  0.00     0.111 A 
ATOM     23  O   UNL     1     -15.922   8.918  -9.710  1.00  0.00    -0.452 OA
ATOM     24  C   UNL     1     -16.542   9.449  -7.097  1.00  0.00     0.197 A 
ATOM     25  C   UNL     1     -15.608   8.013  -8.790  1.00  0.00     0.138 A 
ATOM     26  C   UNL     1     -15.902   8.264  -7.447  1.00  0.00     0.100 A 
ATOM     27  O   UNL     1     -16.725   9.684  -5.875  1.00  0.00    -0.289 OA
BRANCH  18  28
ATOM     28  O   UNL     1     -16.513  10.739 -11.843  1.00  0.00    -0.490 OA
ATOM     29  C   UNL     1     -17.426  10.514 -12.911  1.00  0.00     0.278 C 
ENDBRANCH  18  28
BRANCH  21  30
ATOM     30  O   UNL     1     -18.180  11.908  -6.604  1.00  0.00    -0.507 OA
ATOM     31  H   UNL     1     -19.102  11.652  -6.285  1.00  0.00     0.293 HD
ENDBRANCH  21  30
BRANCH  25  32
ATOM     32  C   UNL     1     -14.931   6.763  -9.206  1.00  0.00     0.017 A 
ATOM     33  C   UNL     1     -14.942   5.620  -8.384  1.00  0.00     0.012 A 
ATOM     34  C   UNL     1     -14.280   6.699 -10.450  1.00  0.00     0.012 A 
ATOM     35  C   UNL     1     -14.304   4.445  -8.796  1.00  0.00     0.001 A 
ATOM     36  C   UNL     1     -13.642   5.524 -10.857  1.00  0.00     0.001 A 
ATOM     37  C   UNL     1     -13.653   4.399 -10.030  1.00  0.00     0.000 A 
ENDBRANCH  25  32
ENDBRANCH   1  17
TORSDOF 9
ENDMDL
