MODEL 1
REMARK VINA RESULT:    -6.434      0.000      0.000
REMARK INTER + INTRA:          -7.033
REMARK INTER:                  -7.374
REMARK INTRA:                   0.341
REMARK UNBOUND:                 0.341
REMARK SMILES O=c1c(-c2ccc(O)cc2)coc2c(O)c(O)ccc12
REMARK SMILES IDX 3 1 11 2 12 3 13 4 20 5 2 6 1 7 19 8 18 9 16 10 14 11 4 12
REMARK SMILES IDX 5 13 6 14 7 15 10 16 9 17 8 18 15 20 17 22
REMARK H PARENT 8 19 15 21 17 23
REMARK Flexibility Score: inf
ROOT
ATOM      1  C   UNL     1     132.107 -33.140 254.948  1.00  0.00     0.065 A 
ATOM      2  C   UNL     1     132.429 -33.267 256.308  1.00  0.00     0.208 A 
ATOM      3  O   UNL     1     131.534 -33.714 257.181  1.00  0.00    -0.459 OA
ATOM      4  C   UNL     1     130.298 -34.061 256.836  1.00  0.00     0.183 A 
ATOM      5  C   UNL     1     129.885 -33.960 255.488  1.00  0.00     0.069 A 
ATOM      6  C   UNL     1     130.806 -33.487 254.537  1.00  0.00     0.200 A 
ATOM      7  O   UNL     1     130.463 -33.354 253.329  1.00  0.00    -0.288 OA
ATOM      8  C   UNL     1     128.574 -34.328 255.138  1.00  0.00     0.020 A 
ATOM      9  C   UNL     1     127.689 -34.791 256.114  1.00  0.00     0.051 A 
ATOM     10  C   UNL     1     128.098 -34.893 257.449  1.00  0.00     0.161 A 
ATOM     11  C   UNL     1     129.401 -34.528 257.815  1.00  0.00     0.201 A 
ENDROOT
BRANCH   1  12
ATOM     12  C   UNL     1     133.128 -32.646 253.989  1.00  0.00    -0.011 A 
ATOM     13  C   UNL     1     134.119 -31.737 254.401  1.00  0.00     0.013 A 
ATOM     14  C   UNL     1     135.072 -31.270 253.491  1.00  0.00     0.047 A 
ATOM     15  C   UNL     1     135.046 -31.698 252.161  1.00  0.00     0.115 A 
ATOM     16  C   UNL     1     133.103 -33.067 252.648  1.00  0.00     0.013 A 
ATOM     17  C   UNL     1     134.057 -32.597 251.741  1.00  0.00     0.047 A 
BRANCH  15  18
ATOM     18  O   UNL     1     136.001 -31.224 251.266  1.00  0.00    -0.508 OA
ATOM     19  H   UNL     1     136.294 -30.254 251.268  1.00  0.00     0.293 HD
ENDBRANCH  15  18
ENDBRANCH   1  12
BRANCH  11  20
ATOM     20  O   UNL     1     129.789 -34.637 259.150  1.00  0.00    -0.502 OA
ATOM     21  H   UNL     1     129.167 -34.401 259.914  1.00  0.00     0.293 HD
ENDBRANCH  11  20
BRANCH  10  22
ATOM     22  O   UNL     1     127.214 -35.356 258.423  1.00  0.00    -0.504 OA
ATOM     23  H   UNL     1     127.333 -36.263 258.859  1.00  0.00     0.293 HD
ENDBRANCH  10  22
TORSDOF 4
ENDMDL
MODEL 2
REMARK VINA RESULT:    -6.424      9.604     10.508
REMARK INTER + INTRA:          -7.022
REMARK INTER:                  -6.798
REMARK INTRA:                  -0.223
REMARK UNBOUND:                 0.341
REMARK SMILES O=c1c(-c2ccc(O)cc2)coc2c(O)c(O)ccc12
REMARK SMILES IDX 3 1 11 2 12 3 13 4 20 5 2 6 1 7 19 8 18 9 16 10 14 11 4 12
REMARK SMILES IDX 5 13 6 14 7 15 10 16 9 17 8 18 15 20 17 22
REMARK H PARENT 8 19 15 21 17 23
REMARK Flexibility Score: inf
ROOT
ATOM      1  C   UNL     1     129.917 -24.593 253.790  1.00  0.00     0.065 A 
ATOM      2  C   UNL     1     130.172 -23.373 253.146  1.00  0.00     0.208 A 
ATOM      3  O   UNL     1     129.856 -22.219 253.721  1.00  0.00    -0.459 OA
ATOM      4  C   UNL     1     129.287 -22.142 254.921  1.00  0.00     0.183 A 
ATOM      5  C   UNL     1     128.989 -23.322 255.640  1.00  0.00     0.069 A 
ATOM      6  C   UNL     1     129.306 -24.561 255.058  1.00  0.00     0.200 A 
ATOM      7  O   UNL     1     129.028 -25.637 255.657  1.00  0.00    -0.288 OA
ATOM      8  C   UNL     1     128.384 -23.225 256.906  1.00  0.00     0.020 A 
ATOM      9  C   UNL     1     128.083 -21.975 257.447  1.00  0.00     0.051 A 
ATOM     10  C   UNL     1     128.380 -20.805 256.736  1.00  0.00     0.161 A 
ATOM     11  C   UNL     1     128.981 -20.884 255.473  1.00  0.00     0.201 A 
ENDROOT
BRANCH   1  12
ATOM     12  C   UNL     1     130.288 -25.871 253.128  1.00  0.00    -0.011 A 
ATOM     13  C   UNL     1     129.308 -26.672 252.515  1.00  0.00     0.013 A 
ATOM     14  C   UNL     1     129.662 -27.877 251.902  1.00  0.00     0.047 A 
ATOM     15  C   UNL     1     130.994 -28.300 251.896  1.00  0.00     0.115 A 
ATOM     16  C   UNL     1     131.625 -26.306 253.126  1.00  0.00     0.013 A 
ATOM     17  C   UNL     1     131.975 -27.512 252.511  1.00  0.00     0.047 A 
BRANCH  15  18
ATOM     18  O   UNL     1     131.332 -29.503 251.282  1.00  0.00    -0.508 OA
ATOM     19  H   UNL     1     131.379 -29.588 250.274  1.00  0.00     0.293 HD
ENDBRANCH  15  18
ENDBRANCH   1  12
BRANCH  11  20
ATOM     20  O   UNL     1     129.267 -19.708 254.780  1.00  0.00    -0.502 OA
ATOM     21  H   UNL     1     128.760 -18.847 254.944  1.00  0.00     0.293 HD
ENDBRANCH  11  20
BRANCH  10  22
ATOM     22  O   UNL     1     128.078 -19.556 257.278  1.00  0.00    -0.504 OA
ATOM     23  H   UNL     1     127.690 -19.462 258.210  1.00  0.00     0.293 HD
ENDBRANCH  10  22
TORSDOF 4
ENDMDL
MODEL 3
REMARK VINA RESULT:    -6.225      9.358     10.597
REMARK INTER + INTRA:          -6.795
REMARK INTER:                  -6.594
REMARK INTRA:                  -0.201
REMARK UNBOUND:                 0.341
REMARK SMILES O=c1c(-c2ccc(O)cc2)coc2c(O)c(O)ccc12
REMARK SMILES IDX 3 1 11 2 12 3 13 4 20 5 2 6 1 7 19 8 18 9 16 10 14 11 4 12
REMARK SMILES IDX 5 13 6 14 7 15 10 16 9 17 8 18 15 20 17 22
REMARK H PARENT 8 19 15 21 17 23
REMARK Flexibility Score: inf
ROOT
ATOM      1  C   UNL     1     130.108 -24.950 253.644  1.00  0.00     0.065 A 
ATOM      2  C   UNL     1     129.374 -24.913 254.839  1.00  0.00     0.208 A 
ATOM      3  O   UNL     1     129.038 -23.757 255.397  1.00  0.00    -0.459 OA
ATOM      4  C   UNL     1     129.369 -22.579 254.876  1.00  0.00     0.183 A 
ATOM      5  C   UNL     1     130.114 -22.521 253.676  1.00  0.00     0.069 A 
ATOM      6  C   UNL     1     130.490 -23.728 253.060  1.00  0.00     0.200 A 
ATOM      7  O   UNL     1     131.182 -23.716 252.003  1.00  0.00    -0.288 OA
ATOM      8  C   UNL     1     130.460 -21.269 253.137  1.00  0.00     0.020 A 
ATOM      9  C   UNL     1     130.069 -20.095 253.781  1.00  0.00     0.051 A 
ATOM     10  C   UNL     1     129.330 -20.151 254.969  1.00  0.00     0.161 A 
ATOM     11  C   UNL     1     128.979 -21.391 255.520  1.00  0.00     0.201 A 
ENDROOT
BRANCH   1  12
ATOM     12  C   UNL     1     130.465 -26.257 253.034  1.00  0.00    -0.011 A 
ATOM     13  C   UNL     1     129.489 -27.037 252.388  1.00  0.00     0.013 A 
ATOM     14  C   UNL     1     129.829 -28.270 251.824  1.00  0.00     0.047 A 
ATOM     15  C   UNL     1     131.142 -28.742 251.901  1.00  0.00     0.115 A 
ATOM     16  C   UNL     1     131.782 -26.741 253.115  1.00  0.00     0.013 A 
ATOM     17  C   UNL     1     132.118 -27.975 252.550  1.00  0.00     0.047 A 
BRANCH  15  18
ATOM     18  O   UNL     1     131.466 -29.972 251.334  1.00  0.00    -0.508 OA
ATOM     19  H   UNL     1     131.519 -30.815 251.893  1.00  0.00     0.293 HD
ENDBRANCH  15  18
ENDBRANCH   1  12
BRANCH  11  20
ATOM     20  O   UNL     1     128.242 -21.426 256.705  1.00  0.00    -0.502 OA
ATOM     21  H   UNL     1     127.732 -22.250 256.998  1.00  0.00     0.293 HD
ENDBRANCH  11  20
BRANCH  10  22
ATOM     22  O   UNL     1     128.940 -18.977 255.612  1.00  0.00    -0.504 OA
ATOM     23  H   UNL     1     128.576 -18.985 256.559  1.00  0.00     0.293 HD
ENDBRANCH  10  22
TORSDOF 4
ENDMDL
MODEL 4
REMARK VINA RESULT:    -5.895      2.810      7.416
REMARK INTER + INTRA:          -6.416
REMARK INTER:                  -6.143
REMARK INTRA:                  -0.273
REMARK UNBOUND:                 0.341
REMARK SMILES O=c1c(-c2ccc(O)cc2)coc2c(O)c(O)ccc12
REMARK SMILES IDX 3 1 11 2 12 3 13 4 20 5 2 6 1 7 19 8 18 9 16 10 14 11 4 12
REMARK SMILES IDX 5 13 6 14 7 15 10 16 9 17 8 18 15 20 17 22
REMARK H PARENT 8 19 15 21 17 23
REMARK Flexibility Score: inf
ROOT
ATOM      1  C   UNL     1     127.121 -35.216 255.934  1.00  0.00     0.065 A 
ATOM      2  C   UNL     1     127.469 -35.356 257.286  1.00  0.00     0.208 A 
ATOM      3  O   UNL     1     128.682 -35.028 257.715  1.00  0.00    -0.459 OA
ATOM      4  C   UNL     1     129.630 -34.557 256.911  1.00  0.00     0.183 A 
ATOM      5  C   UNL     1     129.369 -34.388 255.532  1.00  0.00     0.069 A 
ATOM      6  C   UNL     1     128.096 -34.730 255.043  1.00  0.00     0.200 A 
ATOM      7  O   UNL     1     127.836 -34.621 253.812  1.00  0.00    -0.288 OA
ATOM      8  C   UNL     1     130.382 -33.892 254.692  1.00  0.00     0.020 A 
ATOM      9  C   UNL     1     131.634 -33.568 255.218  1.00  0.00     0.051 A 
ATOM     10  C   UNL     1     131.893 -33.733 256.585  1.00  0.00     0.161 A 
ATOM     11  C   UNL     1     130.894 -34.228 257.434  1.00  0.00     0.201 A 
ENDROOT
BRANCH   1  12
ATOM     12  C   UNL     1     125.754 -35.582 255.480  1.00  0.00    -0.011 A 
ATOM     13  C   UNL     1     124.757 -34.599 255.342  1.00  0.00     0.013 A 
ATOM     14  C   UNL     1     123.471 -34.951 254.922  1.00  0.00     0.047 A 
ATOM     15  C   UNL     1     123.162 -36.285 254.640  1.00  0.00     0.115 A 
ATOM     16  C   UNL     1     125.435 -36.922 255.201  1.00  0.00     0.013 A 
ATOM     17  C   UNL     1     124.148 -37.270 254.782  1.00  0.00     0.047 A 
BRANCH  15  18
ATOM     18  O   UNL     1     121.877 -36.621 254.223  1.00  0.00    -0.508 OA
ATOM     19  H   UNL     1     121.624 -36.633 253.242  1.00  0.00     0.293 HD
ENDBRANCH  15  18
ENDBRANCH   1  12
BRANCH  11  20
ATOM     20  O   UNL     1     131.172 -34.386 258.792  1.00  0.00    -0.502 OA
ATOM     21  H   UNL     1     130.441 -34.413 259.493  1.00  0.00     0.293 HD
ENDBRANCH  11  20
BRANCH  10  22
ATOM     22  O   UNL     1     133.143 -33.408 257.108  1.00  0.00    -0.504 OA
ATOM     23  H   UNL     1     133.378 -32.457 257.370  1.00  0.00     0.293 HD
ENDBRANCH  10  22
TORSDOF 4
ENDMDL
MODEL 5
REMARK VINA RESULT:    -5.862      1.074      2.386
REMARK INTER + INTRA:          -6.378
REMARK INTER:                  -6.695
REMARK INTRA:                   0.317
REMARK UNBOUND:                 0.341
REMARK SMILES O=c1c(-c2ccc(O)cc2)coc2c(O)c(O)ccc12
REMARK SMILES IDX 3 1 11 2 12 3 13 4 20 5 2 6 1 7 19 8 18 9 16 10 14 11 4 12
REMARK SMILES IDX 5 13 6 14 7 15 10 16 9 17 8 18 15 20 17 22
REMARK H PARENT 8 19 15 21 17 23
REMARK Flexibility Score: inf
ROOT
ATOM      1  C   UNL     1     131.791 -33.072 254.085  1.00  0.00     0.065 A 
ATOM      2  C   UNL     1     130.504 -33.166 253.534  1.00  0.00     0.208 A 
ATOM      3  O   UNL     1     129.478 -33.584 254.266  1.00  0.00    -0.459 OA
ATOM      4  C   UNL     1     129.597 -33.935 255.543  1.00  0.00     0.183 A 
ATOM      5  C   UNL     1     130.858 -33.876 256.178  1.00  0.00     0.069 A 
ATOM      6  C   UNL     1     131.967 -33.443 255.431  1.00  0.00     0.200 A 
ATOM      7  O   UNL     1     133.115 -33.406 255.956  1.00  0.00    -0.288 OA
ATOM      8  C   UNL     1     130.970 -34.254 257.529  1.00  0.00     0.020 A 
ATOM      9  C   UNL     1     129.844 -34.681 258.234  1.00  0.00     0.051 A 
ATOM     10  C   UNL     1     128.594 -34.738 257.606  1.00  0.00     0.161 A 
ATOM     11  C   UNL     1     128.466 -34.367 256.261  1.00  0.00     0.201 A 
ENDROOT
BRANCH   1  12
ATOM     12  C   UNL     1     132.921 -32.594 253.247  1.00  0.00    -0.011 A 
ATOM     13  C   UNL     1     132.958 -32.868 251.868  1.00  0.00     0.013 A 
ATOM     14  C   UNL     1     134.029 -32.423 251.088  1.00  0.00     0.047 A 
ATOM     15  C   UNL     1     135.076 -31.704 251.671  1.00  0.00     0.115 A 
ATOM     16  C   UNL     1     133.982 -31.878 253.830  1.00  0.00     0.013 A 
ATOM     17  C   UNL     1     135.050 -31.434 253.046  1.00  0.00     0.047 A 
BRANCH  15  18
ATOM     18  O   UNL     1     136.136 -31.268 250.881  1.00  0.00    -0.508 OA
ATOM     19  H   UNL     1     136.217 -31.537 249.908  1.00  0.00     0.293 HD
ENDBRANCH  15  18
ENDBRANCH   1  12
BRANCH  11  20
ATOM     20  O   UNL     1     127.212 -34.431 255.652  1.00  0.00    -0.502 OA
ATOM     21  H   UNL     1     127.096 -34.701 254.683  1.00  0.00     0.293 HD
ENDBRANCH  11  20
BRANCH  10  22
ATOM     22  O   UNL     1     127.470 -35.165 258.312  1.00  0.00    -0.504 OA
ATOM     23  H   UNL     1     126.710 -34.531 258.533  1.00  0.00     0.293 HD
ENDBRANCH  10  22
TORSDOF 4
ENDMDL
MODEL 6
REMARK VINA RESULT:    -5.697      2.001      6.815
REMARK INTER + INTRA:          -6.189
REMARK INTER:                  -6.012
REMARK INTRA:                  -0.177
REMARK UNBOUND:                 0.341
REMARK SMILES O=c1c(-c2ccc(O)cc2)coc2c(O)c(O)ccc12
REMARK SMILES IDX 3 1 11 2 12 3 13 4 20 5 2 6 1 7 19 8 18 9 16 10 14 11 4 12
REMARK SMILES IDX 5 13 6 14 7 15 10 16 9 17 8 18 15 20 17 22
REMARK H PARENT 8 19 15 21 17 23
REMARK Flexibility Score: inf
ROOT
ATOM      1  C   UNL     1     131.649 -34.358 254.742  1.00  0.00     0.065 A 
ATOM      2  C   UNL     1     132.422 -33.639 255.665  1.00  0.00     0.208 A 
ATOM      3  O   UNL     1     133.302 -32.732 255.258  1.00  0.00    -0.459 OA
ATOM      4  C   UNL     1     133.509 -32.450 253.975  1.00  0.00     0.183 A 
ATOM      5  C   UNL     1     132.777 -33.131 252.975  1.00  0.00     0.069 A 
ATOM      6  C   UNL     1     131.840 -34.101 253.371  1.00  0.00     0.200 A 
ATOM      7  O   UNL     1     131.190 -34.750 252.505  1.00  0.00    -0.288 OA
ATOM      8  C   UNL     1     133.008 -32.825 251.622  1.00  0.00     0.020 A 
ATOM      9  C   UNL     1     133.950 -31.857 251.271  1.00  0.00     0.051 A 
ATOM     10  C   UNL     1     134.673 -31.181 252.261  1.00  0.00     0.161 A 
ATOM     11  C   UNL     1     134.457 -31.475 253.614  1.00  0.00     0.201 A 
ENDROOT
BRANCH   1  12
ATOM     12  C   UNL     1     130.665 -35.362 255.223  1.00  0.00    -0.011 A 
ATOM     13  C   UNL     1     129.484 -34.956 255.870  1.00  0.00     0.013 A 
ATOM     14  C   UNL     1     128.566 -35.906 256.327  1.00  0.00     0.047 A 
ATOM     15  C   UNL     1     128.816 -37.270 256.151  1.00  0.00     0.115 A 
ATOM     16  C   UNL     1     130.914 -36.736 255.055  1.00  0.00     0.013 A 
ATOM     17  C   UNL     1     129.994 -37.682 255.514  1.00  0.00     0.047 A 
BRANCH  15  18
ATOM     18  O   UNL     1     127.893 -38.204 256.612  1.00  0.00    -0.508 OA
ATOM     19  H   UNL     1     128.174 -38.986 257.191  1.00  0.00     0.293 HD
ENDBRANCH  15  18
ENDBRANCH   1  12
BRANCH  11  20
ATOM     20  O   UNL     1     135.188 -30.792 254.586  1.00  0.00    -0.502 OA
ATOM     21  H   UNL     1     135.841 -31.263 255.201  1.00  0.00     0.293 HD
ENDBRANCH  11  20
BRANCH  10  22
ATOM     22  O   UNL     1     135.614 -30.214 251.909  1.00  0.00    -0.504 OA
ATOM     23  H   UNL     1     136.084 -30.233 251.011  1.00  0.00     0.293 HD
ENDBRANCH  10  22
TORSDOF 4
ENDMDL
MODEL 7
REMARK VINA RESULT:    -5.607      2.749      7.818
REMARK INTER + INTRA:          -6.086
REMARK INTER:                  -5.861
REMARK INTRA:                  -0.225
REMARK UNBOUND:                 0.341
REMARK SMILES O=c1c(-c2ccc(O)cc2)coc2c(O)c(O)ccc12
REMARK SMILES IDX 3 1 11 2 12 3 13 4 20 5 2 6 1 7 19 8 18 9 16 10 14 11 4 12
REMARK SMILES IDX 5 13 6 14 7 15 10 16 9 17 8 18 15 20 17 22
REMARK H PARENT 8 19 15 21 17 23
REMARK Flexibility Score: inf
ROOT
ATOM      1  C   UNL     1     127.180 -35.012 255.433  1.00  0.00     0.065 A 
ATOM      2  C   UNL     1     127.725 -34.519 254.238  1.00  0.00     0.208 A 
ATOM      3  O   UNL     1     128.963 -34.040 254.199  1.00  0.00    -0.459 OA
ATOM      4  C   UNL     1     129.754 -33.995 255.266  1.00  0.00     0.183 A 
ATOM      5  C   UNL     1     129.286 -34.466 256.515  1.00  0.00     0.069 A 
ATOM      6  C   UNL     1     127.978 -34.975 256.593  1.00  0.00     0.200 A 
ATOM      7  O   UNL     1     127.515 -35.376 257.696  1.00  0.00    -0.288 OA
ATOM      8  C   UNL     1     130.132 -34.408 257.636  1.00  0.00     0.020 A 
ATOM      9  C   UNL     1     131.423 -33.893 257.516  1.00  0.00     0.051 A 
ATOM     10  C   UNL     1     131.889 -33.428 256.280  1.00  0.00     0.161 A 
ATOM     11  C   UNL     1     131.057 -33.476 255.153  1.00  0.00     0.201 A 
ENDROOT
BRANCH   1  12
ATOM     12  C   UNL     1     125.795 -35.549 255.449  1.00  0.00    -0.011 A 
ATOM     13  C   UNL     1     125.565 -36.935 255.505  1.00  0.00     0.013 A 
ATOM     14  C   UNL     1     124.259 -37.435 255.511  1.00  0.00     0.047 A 
ATOM     15  C   UNL     1     123.170 -36.561 255.457  1.00  0.00     0.115 A 
ATOM     16  C   UNL     1     124.695 -34.676 255.387  1.00  0.00     0.013 A 
ATOM     17  C   UNL     1     123.391 -35.180 255.393  1.00  0.00     0.047 A 
BRANCH  15  18
ATOM     18  O   UNL     1     121.875 -37.074 255.463  1.00  0.00    -0.508 OA
ATOM     19  H   UNL     1     121.434 -37.410 254.616  1.00  0.00     0.293 HD
ENDBRANCH  15  18
ENDBRANCH   1  12
BRANCH  11  20
ATOM     20  O   UNL     1     131.538 -33.007 253.931  1.00  0.00    -0.502 OA
ATOM     21  H   UNL     1     131.514 -33.570 253.089  1.00  0.00     0.293 HD
ENDBRANCH  11  20
BRANCH  10  22
ATOM     22  O   UNL     1     133.179 -32.913 256.162  1.00  0.00    -0.504 OA
ATOM     23  H   UNL     1     133.913 -33.166 256.814  1.00  0.00     0.293 HD
ENDBRANCH  10  22
TORSDOF 4
ENDMDL
MODEL 8
REMARK VINA RESULT:    -5.587      2.495      2.769
REMARK INTER + INTRA:          -6.063
REMARK INTER:                  -5.818
REMARK INTRA:                  -0.245
REMARK UNBOUND:                 0.341
REMARK SMILES O=c1c(-c2ccc(O)cc2)coc2c(O)c(O)ccc12
REMARK SMILES IDX 3 1 11 2 12 3 13 4 20 5 2 6 1 7 19 8 18 9 16 10 14 11 4 12
REMARK SMILES IDX 5 13 6 14 7 15 10 16 9 17 8 18 15 20 17 22
REMARK H PARENT 8 19 15 21 17 23
REMARK Flexibility Score: inf
ROOT
ATOM      1  C   UNL     1     130.987 -34.151 254.290  1.00  0.00     0.065 A 
ATOM      2  C   UNL     1     129.991 -33.747 255.192  1.00  0.00     0.208 A 
ATOM      3  O   UNL     1     129.239 -34.641 255.822  1.00  0.00    -0.459 OA
ATOM      4  C   UNL     1     129.373 -35.952 255.645  1.00  0.00     0.183 A 
ATOM      5  C   UNL     1     130.348 -36.449 254.751  1.00  0.00     0.069 A 
ATOM      6  C   UNL     1     131.159 -35.530 254.063  1.00  0.00     0.200 A 
ATOM      7  O   UNL     1     132.021 -35.935 253.234  1.00  0.00    -0.288 OA
ATOM      8  C   UNL     1     130.477 -37.838 254.571  1.00  0.00     0.020 A 
ATOM      9  C   UNL     1     129.650 -38.717 255.272  1.00  0.00     0.051 A 
ATOM     10  C   UNL     1     128.685 -38.225 256.160  1.00  0.00     0.161 A 
ATOM     11  C   UNL     1     128.543 -36.844 256.348  1.00  0.00     0.201 A 
ENDROOT
BRANCH   1  12
ATOM     12  C   UNL     1     131.821 -33.131 253.603  1.00  0.00    -0.011 A 
ATOM     13  C   UNL     1     133.129 -32.860 254.043  1.00  0.00     0.013 A 
ATOM     14  C   UNL     1     133.905 -31.893 253.397  1.00  0.00     0.047 A 
ATOM     15  C   UNL     1     133.387 -31.184 252.310  1.00  0.00     0.115 A 
ATOM     16  C   UNL     1     131.303 -32.409 252.513  1.00  0.00     0.013 A 
ATOM     17  C   UNL     1     132.083 -31.443 251.871  1.00  0.00     0.047 A 
BRANCH  15  18
ATOM     18  O   UNL     1     134.173 -30.224 251.677  1.00  0.00    -0.508 OA
ATOM     19  H   UNL     1     134.970 -29.803 252.139  1.00  0.00     0.293 HD
ENDBRANCH  15  18
ENDBRANCH   1  12
BRANCH  11  20
ATOM     20  O   UNL     1     127.574 -36.374 257.236  1.00  0.00    -0.502 OA
ATOM     21  H   UNL     1     126.719 -35.935 256.919  1.00  0.00     0.293 HD
ENDBRANCH  11  20
BRANCH  10  22
ATOM     22  O   UNL     1     127.859 -39.104 256.859  1.00  0.00    -0.504 OA
ATOM     23  H   UNL     1     127.337 -39.833 256.385  1.00  0.00     0.293 HD
ENDBRANCH  10  22
TORSDOF 4
ENDMDL
MODEL 9
REMARK VINA RESULT:    -5.568      8.609     10.777
REMARK INTER + INTRA:          -6.041
REMARK INTER:                  -5.782
REMARK INTRA:                  -0.259
REMARK UNBOUND:                 0.341
REMARK SMILES O=c1c(-c2ccc(O)cc2)coc2c(O)c(O)ccc12
REMARK SMILES IDX 3 1 11 2 12 3 13 4 20 5 2 6 1 7 19 8 18 9 16 10 14 11 4 12
REMARK SMILES IDX 5 13 6 14 7 15 10 16 9 17 8 18 15 20 17 22
REMARK H PARENT 8 19 15 21 17 23
REMARK Flexibility Score: inf
ROOT
ATOM      1  C   UNL     1     130.878 -24.115 252.521  1.00  0.00     0.065 A 
ATOM      2  C   UNL     1     130.335 -25.254 253.135  1.00  0.00     0.208 A 
ATOM      3  O   UNL     1     130.926 -26.437 253.021  1.00  0.00    -0.459 OA
ATOM      4  C   UNL     1     132.048 -26.622 252.332  1.00  0.00     0.183 A 
ATOM      5  C   UNL     1     132.663 -25.530 251.676  1.00  0.00     0.069 A 
ATOM      6  C   UNL     1     132.061 -24.264 251.771  1.00  0.00     0.200 A 
ATOM      7  O   UNL     1     132.564 -23.272 251.174  1.00  0.00    -0.288 OA
ATOM      8  C   UNL     1     133.847 -25.740 250.947  1.00  0.00     0.020 A 
ATOM      9  C   UNL     1     134.411 -27.015 250.875  1.00  0.00     0.051 A 
ATOM     10  C   UNL     1     133.804 -28.096 251.527  1.00  0.00     0.161 A 
ATOM     11  C   UNL     1     132.623 -27.904 252.255  1.00  0.00     0.201 A 
ENDROOT
BRANCH   1  12
ATOM     12  C   UNL     1     130.202 -22.801 252.669  1.00  0.00    -0.011 A 
ATOM     13  C   UNL     1     129.341 -22.320 251.667  1.00  0.00     0.013 A 
ATOM     14  C   UNL     1     128.714 -21.078 251.809  1.00  0.00     0.047 A 
ATOM     15  C   UNL     1     128.942 -20.300 252.948  1.00  0.00     0.115 A 
ATOM     16  C   UNL     1     130.432 -22.010 253.809  1.00  0.00     0.013 A 
ATOM     17  C   UNL     1     129.804 -20.769 253.947  1.00  0.00     0.047 A 
BRANCH  15  18
ATOM     18  O   UNL     1     128.311 -19.066 253.076  1.00  0.00    -0.508 OA
ATOM     19  H   UNL     1     127.355 -18.990 253.401  1.00  0.00     0.293 HD
ENDBRANCH  15  18
ENDBRANCH   1  12
BRANCH  11  20
ATOM     20  O   UNL     1     132.032 -28.994 252.896  1.00  0.00    -0.502 OA
ATOM     21  H   UNL     1     131.676 -29.792 252.385  1.00  0.00     0.293 HD
ENDBRANCH  11  20
BRANCH  10  22
ATOM     22  O   UNL     1     134.369 -29.369 251.454  1.00  0.00    -0.504 OA
ATOM     23  H   UNL     1     135.373 -29.505 251.473  1.00  0.00     0.293 HD
ENDBRANCH  10  22
TORSDOF 4
ENDMDL
