MODEL 1
REMARK VINA RESULT:    -4.832      0.000      0.000
REMARK INTER + INTRA:          -5.580
REMARK INTER:                  -5.256
REMARK INTRA:                  -0.324
REMARK UNBOUND:                -0.324
REMARK SMILES C=C1C[C@@]2(O)O[C@@]3(C[C@@H]2C(C)C)[C@@H](C)CC[C@@H]13
REMARK SMILES IDX 14 1 13 2 15 3 16 4 17 5 7 6 8 7 9 8 4 9 6 10 3 11 2 12 1 13
REMARK SMILES IDX 10 14 11 15 12 16 5 17
REMARK H PARENT 5 18
REMARK Flexibility Score: inf
ROOT
ATOM      1  C   UNL     1     -60.308  18.978 -16.504  1.00  0.00     0.011 C 
ATOM      2  C   UNL     1     -60.052  17.487 -16.764  1.00  0.00     0.019 C 
ATOM      3  C   UNL     1     -61.220  16.812 -17.497  1.00  0.00     0.007 C 
ATOM      4  C   UNL     1     -60.612  15.839 -18.511  1.00  0.00     0.011 C 
ATOM      5  C   UNL     1     -59.106  15.831 -18.249  1.00  0.00     0.047 C 
ATOM      6  C   UNL     1     -58.814  17.208 -17.631  1.00  0.00     0.081 C 
ATOM      7  C   UNL     1     -57.487  17.221 -16.862  1.00  0.00     0.046 C 
ATOM      8  C   UNL     1     -56.491  17.726 -17.907  1.00  0.00     0.054 C 
ATOM      9  C   UNL     1     -57.388  17.951 -19.162  1.00  0.00     0.173 C 
ATOM     10  O   UNL     1     -58.690  18.156 -18.670  1.00  0.00    -0.342 OA
ATOM     11  C   UNL     1     -57.428  16.701 -20.088  1.00  0.00     0.096 C 
ATOM     12  C   UNL     1     -58.286  15.593 -19.508  1.00  0.00    -0.066 C 
ATOM     13  C   UNL     1     -58.327  14.400 -20.119  1.00  0.00     0.008 C 
ENDROOT
BRANCH   8  14
ATOM     14  C   UNL     1     -55.671  18.976 -17.442  1.00  0.00    -0.009 C 
ATOM     15  C   UNL     1     -54.281  18.567 -16.935  1.00  0.00     0.008 C 
ATOM     16  C   UNL     1     -56.381  19.853 -16.389  1.00  0.00     0.008 C 
ENDBRANCH   8  14
BRANCH   9  17
ATOM     17  O   UNL     1     -56.996  19.076 -19.908  1.00  0.00    -0.365 OA
ATOM     18  H   UNL     1     -57.196  18.884 -20.862  1.00  0.00     0.214 HD
ENDBRANCH   9  17
TORSDOF 2
ENDMDL
MODEL 2
REMARK VINA RESULT:    -4.376      9.267     10.823
REMARK INTER + INTRA:          -5.084
REMARK INTER:                  -4.760
REMARK INTRA:                  -0.325
REMARK UNBOUND:                -0.324
REMARK SMILES C=C1C[C@@]2(O)O[C@@]3(C[C@@H]2C(C)C)[C@@H](C)CC[C@@H]13
REMARK SMILES IDX 14 1 13 2 15 3 16 4 17 5 7 6 8 7 9 8 4 9 6 10 3 11 2 12 1 13
REMARK SMILES IDX 10 14 11 15 12 16 5 17
REMARK H PARENT 5 18
REMARK Flexibility Score: inf
ROOT
ATOM      1  C   UNL     1     -58.668  27.605 -17.027  1.00  0.00     0.011 C 
ATOM      2  C   UNL     1     -57.983  26.342 -16.485  1.00  0.00     0.019 C 
ATOM      3  C   UNL     1     -56.520  26.230 -16.939  1.00  0.00     0.007 C 
ATOM      4  C   UNL     1     -55.721  25.693 -15.748  1.00  0.00     0.011 C 
ATOM      5  C   UNL     1     -56.743  25.340 -14.668  1.00  0.00     0.047 C 
ATOM      6  C   UNL     1     -57.939  26.265 -14.951  1.00  0.00     0.081 C 
ATOM      7  C   UNL     1     -59.229  25.746 -14.306  1.00  0.00     0.046 C 
ATOM      8  C   UNL     1     -59.262  26.482 -12.965  1.00  0.00     0.054 C 
ATOM      9  C   UNL     1     -57.970  27.350 -13.015  1.00  0.00     0.173 C 
ATOM     10  O   UNL     1     -57.681  27.530 -14.380  1.00  0.00    -0.342 OA
ATOM     11  C   UNL     1     -56.751  26.630 -12.368  1.00  0.00     0.096 C 
ATOM     12  C   UNL     1     -56.205  25.530 -13.258  1.00  0.00    -0.066 C 
ATOM     13  C   UNL     1     -55.234  24.727 -12.798  1.00  0.00     0.008 C 
ENDROOT
BRANCH   8  14
ATOM     14  C   UNL     1     -60.589  27.275 -12.716  1.00  0.00    -0.009 C 
ATOM     15  C   UNL     1     -61.575  26.449 -11.876  1.00  0.00     0.008 C 
ATOM     16  C   UNL     1     -61.282  27.784 -13.997  1.00  0.00     0.008 C 
ENDBRANCH   8  14
BRANCH   9  17
ATOM     17  O   UNL     1     -58.145  28.609 -12.412  1.00  0.00    -0.365 OA
ATOM     18  H   UNL     1     -57.274  28.871 -12.013  1.00  0.00     0.214 HD
ENDBRANCH   9  17
TORSDOF 2
ENDMDL
MODEL 3
REMARK VINA RESULT:    -4.303      7.203      9.962
REMARK INTER + INTRA:          -5.004
REMARK INTER:                  -4.680
REMARK INTRA:                  -0.324
REMARK UNBOUND:                -0.324
REMARK SMILES C=C1C[C@@]2(O)O[C@@]3(C[C@@H]2C(C)C)[C@@H](C)CC[C@@H]13
REMARK SMILES IDX 14 1 13 2 15 3 16 4 17 5 7 6 8 7 9 8 4 9 6 10 3 11 2 12 1 13
REMARK SMILES IDX 10 14 11 15 12 16 5 17
REMARK H PARENT 5 18
REMARK Flexibility Score: inf
ROOT
ATOM      1  C   UNL     1     -55.836  27.291 -11.837  1.00  0.00     0.011 C 
ATOM      2  C   UNL     1     -57.164  27.306 -12.607  1.00  0.00     0.019 C 
ATOM      3  C   UNL     1     -57.596  28.726 -13.001  1.00  0.00     0.007 C 
ATOM      4  C   UNL     1     -58.188  28.640 -14.411  1.00  0.00     0.011 C 
ATOM      5  C   UNL     1     -58.249  27.154 -14.762  1.00  0.00     0.047 C 
ATOM      6  C   UNL     1     -57.132  26.513 -13.923  1.00  0.00     0.081 C 
ATOM      7  C   UNL     1     -57.336  25.001 -13.756  1.00  0.00     0.046 C 
ATOM      8  C   UNL     1     -56.508  24.416 -14.901  1.00  0.00     0.054 C 
ATOM      9  C   UNL     1     -55.917  25.684 -15.586  1.00  0.00     0.173 C 
ATOM     10  O   UNL     1     -55.902  26.683 -14.596  1.00  0.00    -0.342 OA
ATOM     11  C   UNL     1     -56.811  26.194 -16.754  1.00  0.00     0.096 C 
ATOM     12  C   UNL     1     -58.062  26.887 -16.248  1.00  0.00    -0.066 C 
ATOM     13  C   UNL     1     -59.002  27.275 -17.122  1.00  0.00     0.008 C 
ENDROOT
BRANCH   8  14
ATOM     14  C   UNL     1     -55.453  23.357 -14.435  1.00  0.00    -0.009 C 
ATOM     15  C   UNL     1     -56.009  21.931 -14.561  1.00  0.00     0.008 C 
ATOM     16  C   UNL     1     -54.899  23.585 -13.014  1.00  0.00     0.008 C 
ENDBRANCH   8  14
BRANCH   9  17
ATOM     17  O   UNL     1     -54.606  25.481 -16.053  1.00  0.00    -0.365 OA
ATOM     18  H   UNL     1     -54.672  25.148 -16.987  1.00  0.00     0.214 HD
ENDBRANCH   9  17
TORSDOF 2
ENDMDL
MODEL 4
REMARK VINA RESULT:    -4.299      7.432      8.944
REMARK INTER + INTRA:          -5.000
REMARK INTER:                  -4.689
REMARK INTRA:                  -0.312
REMARK UNBOUND:                -0.324
REMARK SMILES C=C1C[C@@]2(O)O[C@@]3(C[C@@H]2C(C)C)[C@@H](C)CC[C@@H]13
REMARK SMILES IDX 14 1 13 2 15 3 16 4 17 5 7 6 8 7 9 8 4 9 6 10 3 11 2 12 1 13
REMARK SMILES IDX 10 14 11 15 12 16 5 17
REMARK H PARENT 5 18
REMARK Flexibility Score: inf
ROOT
ATOM      1  C   UNL     1     -53.667  18.408 -11.579  1.00  0.00     0.011 C 
ATOM      2  C   UNL     1     -54.025  17.246 -12.516  1.00  0.00     0.019 C 
ATOM      3  C   UNL     1     -52.824  16.774 -13.348  1.00  0.00     0.007 C 
ATOM      4  C   UNL     1     -52.900  15.246 -13.420  1.00  0.00     0.011 C 
ATOM      5  C   UNL     1     -54.228  14.851 -12.775  1.00  0.00     0.047 C 
ATOM      6  C   UNL     1     -54.532  15.991 -11.789  1.00  0.00     0.081 C 
ATOM      7  C   UNL     1     -56.017  16.037 -11.407  1.00  0.00     0.046 C 
ATOM      8  C   UNL     1     -56.066  15.210 -10.121  1.00  0.00     0.054 C 
ATOM      9  C   UNL     1     -54.578  14.794  -9.920  1.00  0.00     0.173 C 
ATOM     10  O   UNL     1     -53.814  15.763 -10.594  1.00  0.00    -0.342 OA
ATOM     11  C   UNL     1     -54.260  13.413 -10.564  1.00  0.00     0.096 C 
ATOM     12  C   UNL     1     -54.169  13.501 -12.076  1.00  0.00    -0.066 C 
ATOM     13  C   UNL     1     -54.026  12.380 -12.796  1.00  0.00     0.008 C 
ENDROOT
BRANCH   8  14
ATOM     14  C   UNL     1     -56.717  15.965  -8.913  1.00  0.00    -0.009 C 
ATOM     15  C   UNL     1     -58.075  15.349  -8.545  1.00  0.00     0.008 C 
ATOM     16  C   UNL     1     -56.862  17.487  -9.112  1.00  0.00     0.008 C 
ENDBRANCH   8  14
BRANCH   9  17
ATOM     17  O   UNL     1     -54.204  14.776  -8.564  1.00  0.00    -0.365 OA
ATOM     18  H   UNL     1     -53.326  14.316  -8.504  1.00  0.00     0.214 HD
ENDBRANCH   9  17
TORSDOF 2
ENDMDL
MODEL 5
REMARK VINA RESULT:    -4.276      8.650     10.214
REMARK INTER + INTRA:          -4.975
REMARK INTER:                  -4.653
REMARK INTRA:                  -0.322
REMARK UNBOUND:                -0.324
REMARK SMILES C=C1C[C@@]2(O)O[C@@]3(C[C@@H]2C(C)C)[C@@H](C)CC[C@@H]13
REMARK SMILES IDX 14 1 13 2 15 3 16 4 17 5 7 6 8 7 9 8 4 9 6 10 3 11 2 12 1 13
REMARK SMILES IDX 10 14 11 15 12 16 5 17
REMARK H PARENT 5 18
REMARK Flexibility Score: inf
ROOT
ATOM      1  C   UNL     1     -58.942  27.066 -16.745  1.00  0.00     0.011 C 
ATOM      2  C   UNL     1     -58.726  27.700 -15.364  1.00  0.00     0.019 C 
ATOM      3  C   UNL     1     -60.046  27.933 -14.614  1.00  0.00     0.007 C 
ATOM      4  C   UNL     1     -59.793  27.590 -13.143  1.00  0.00     0.011 C 
ATOM      5  C   UNL     1     -58.294  27.321 -13.015  1.00  0.00     0.047 C 
ATOM      6  C   UNL     1     -57.866  26.850 -14.415  1.00  0.00     0.081 C 
ATOM      7  C   UNL     1     -56.354  26.994 -14.631  1.00  0.00     0.046 C 
ATOM      8  C   UNL     1     -55.820  25.614 -14.246  1.00  0.00     0.054 C 
ATOM      9  C   UNL     1     -57.114  24.836 -13.859  1.00  0.00     0.173 C 
ATOM     10  O   UNL     1     -58.163  25.476 -14.544  1.00  0.00    -0.342 OA
ATOM     11  C   UNL     1     -57.422  24.926 -12.336  1.00  0.00     0.096 C 
ATOM     12  C   UNL     1     -57.966  26.288 -11.948  1.00  0.00    -0.066 C 
ATOM     13  C   UNL     1     -58.166  26.576 -10.654  1.00  0.00     0.008 C 
ENDROOT
BRANCH   8  14
ATOM     14  C   UNL     1     -54.947  24.945 -15.360  1.00  0.00    -0.009 C 
ATOM     15  C   UNL     1     -53.451  25.057 -15.032  1.00  0.00     0.008 C 
ATOM     16  C   UNL     1     -55.217  25.468 -16.786  1.00  0.00     0.008 C 
ENDBRANCH   8  14
BRANCH   9  17
ATOM     17  O   UNL     1     -57.065  23.486 -14.250  1.00  0.00    -0.365 OA
ATOM     18  H   UNL     1     -57.773  23.006 -13.745  1.00  0.00     0.214 HD
ENDBRANCH   9  17
TORSDOF 2
ENDMDL
MODEL 6
REMARK VINA RESULT:    -4.256      9.041     10.385
REMARK INTER + INTRA:          -4.954
REMARK INTER:                  -4.629
REMARK INTRA:                  -0.324
REMARK UNBOUND:                -0.324
REMARK SMILES C=C1C[C@@]2(O)O[C@@]3(C[C@@H]2C(C)C)[C@@H](C)CC[C@@H]13
REMARK SMILES IDX 14 1 13 2 15 3 16 4 17 5 7 6 8 7 9 8 4 9 6 10 3 11 2 12 1 13
REMARK SMILES IDX 10 14 11 15 12 16 5 17
REMARK H PARENT 5 18
REMARK Flexibility Score: inf
ROOT
ATOM      1  C   UNL     1     -60.091  28.474 -14.488  1.00  0.00     0.011 C 
ATOM      2  C   UNL     1     -59.412  27.456 -15.415  1.00  0.00     0.019 C 
ATOM      3  C   UNL     1     -58.683  28.127 -16.587  1.00  0.00     0.007 C 
ATOM      4  C   UNL     1     -57.376  27.358 -16.803  1.00  0.00     0.011 C 
ATOM      5  C   UNL     1     -57.431  26.148 -15.870  1.00  0.00     0.047 C 
ATOM      6  C   UNL     1     -58.351  26.588 -14.720  1.00  0.00     0.081 C 
ATOM      7  C   UNL     1     -58.918  25.390 -13.949  1.00  0.00     0.046 C 
ATOM      8  C   UNL     1     -57.927  25.224 -12.797  1.00  0.00     0.054 C 
ATOM      9  C   UNL     1     -56.904  26.371 -13.051  1.00  0.00     0.173 C 
ATOM     10  O   UNL     1     -57.595  27.343 -13.796  1.00  0.00    -0.342 OA
ATOM     11  C   UNL     1     -55.690  25.900 -13.905  1.00  0.00     0.096 C 
ATOM     12  C   UNL     1     -56.059  25.726 -15.366  1.00  0.00    -0.066 C 
ATOM     13  C   UNL     1     -55.164  25.205 -16.216  1.00  0.00     0.008 C 
ENDROOT
BRANCH   8  14
ATOM     14  C   UNL     1     -58.599  25.231 -11.383  1.00  0.00    -0.009 C 
ATOM     15  C   UNL     1     -58.792  23.802 -10.856  1.00  0.00     0.008 C 
ATOM     16  C   UNL     1     -59.931  26.006 -11.311  1.00  0.00     0.008 C 
ENDBRANCH   8  14
BRANCH   9  17
ATOM     17  O   UNL     1     -56.440  26.952 -11.857  1.00  0.00    -0.365 OA
ATOM     18  H   UNL     1     -56.179  26.211 -11.248  1.00  0.00     0.214 HD
ENDBRANCH   9  17
TORSDOF 2
ENDMDL
MODEL 7
REMARK VINA RESULT:    -4.153      9.130      9.980
REMARK INTER + INTRA:          -4.841
REMARK INTER:                  -4.550
REMARK INTRA:                  -0.291
REMARK UNBOUND:                -0.324
REMARK SMILES C=C1C[C@@]2(O)O[C@@]3(C[C@@H]2C(C)C)[C@@H](C)CC[C@@H]13
REMARK SMILES IDX 14 1 13 2 15 3 16 4 17 5 7 6 8 7 9 8 4 9 6 10 3 11 2 12 1 13
REMARK SMILES IDX 10 14 11 15 12 16 5 17
REMARK H PARENT 5 18
REMARK Flexibility Score: inf
ROOT
ATOM      1  C   UNL     1     -58.043  25.689 -11.063  1.00  0.00     0.011 C 
ATOM      2  C   UNL     1     -58.720  25.440 -12.418  1.00  0.00     0.019 C 
ATOM      3  C   UNL     1     -60.029  26.227 -12.572  1.00  0.00     0.007 C 
ATOM      4  C   UNL     1     -60.083  26.730 -14.018  1.00  0.00     0.011 C 
ATOM      5  C   UNL     1     -58.893  26.096 -14.739  1.00  0.00     0.047 C 
ATOM      6  C   UNL     1     -57.861  25.840 -13.628  1.00  0.00     0.081 C 
ATOM      7  C   UNL     1     -56.822  24.790 -14.042  1.00  0.00     0.046 C 
ATOM      8  C   UNL     1     -55.680  25.641 -14.601  1.00  0.00     0.054 C 
ATOM      9  C   UNL     1     -56.213  27.095 -14.427  1.00  0.00     0.173 C 
ATOM     10  O   UNL     1     -57.152  27.036 -13.382  1.00  0.00    -0.342 OA
ATOM     11  C   UNL     1     -56.955  27.606 -15.697  1.00  0.00     0.096 C 
ATOM     12  C   UNL     1     -58.328  26.978 -15.842  1.00  0.00    -0.066 C 
ATOM     13  C   UNL     1     -59.050  27.214 -16.947  1.00  0.00     0.008 C 
ENDROOT
BRANCH   8  14
ATOM     14  C   UNL     1     -54.295  25.354 -13.930  1.00  0.00    -0.009 C 
ATOM     15  C   UNL     1     -53.262  24.896 -14.969  1.00  0.00     0.008 C 
ATOM     16  C   UNL     1     -54.347  24.352 -12.758  1.00  0.00     0.008 C 
ENDBRANCH   8  14
BRANCH   9  17
ATOM     17  O   UNL     1     -55.195  28.002 -14.082  1.00  0.00    -0.365 OA
ATOM     18  H   UNL     1     -54.623  28.126 -14.884  1.00  0.00     0.214 HD
ENDBRANCH   9  17
TORSDOF 2
ENDMDL
MODEL 8
REMARK VINA RESULT:    -4.091      8.486      9.796
REMARK INTER + INTRA:          -4.773
REMARK INTER:                  -4.451
REMARK INTRA:                  -0.323
REMARK UNBOUND:                -0.324
REMARK SMILES C=C1C[C@@]2(O)O[C@@]3(C[C@@H]2C(C)C)[C@@H](C)CC[C@@H]13
REMARK SMILES IDX 14 1 13 2 15 3 16 4 17 5 7 6 8 7 9 8 4 9 6 10 3 11 2 12 1 13
REMARK SMILES IDX 10 14 11 15 12 16 5 17
REMARK H PARENT 5 18
REMARK Flexibility Score: inf
ROOT
ATOM      1  C   UNL     1     -56.048  26.494 -17.418  1.00  0.00     0.011 C 
ATOM      2  C   UNL     1     -56.875  27.197 -16.332  1.00  0.00     0.019 C 
ATOM      3  C   UNL     1     -58.326  27.445 -16.770  1.00  0.00     0.007 C 
ATOM      4  C   UNL     1     -59.215  27.178 -15.552  1.00  0.00     0.011 C 
ATOM      5  C   UNL     1     -58.270  26.939 -14.374  1.00  0.00     0.047 C 
ATOM      6  C   UNL     1     -56.979  26.408 -15.017  1.00  0.00     0.081 C 
ATOM      7  C   UNL     1     -55.769  26.565 -14.087  1.00  0.00     0.046 C 
ATOM      8  C   UNL     1     -55.707  25.213 -13.374  1.00  0.00     0.054 C 
ATOM      9  C   UNL     1     -56.903  24.435 -14.001  1.00  0.00     0.173 C 
ATOM     10  O   UNL     1     -57.126  25.024 -15.258  1.00  0.00    -0.342 OA
ATOM     11  C   UNL     1     -58.209  24.594 -13.169  1.00  0.00     0.096 C 
ATOM     12  C   UNL     1     -58.833  25.964 -13.351  1.00  0.00    -0.066 C 
ATOM     13  C   UNL     1     -59.895  26.311 -12.609  1.00  0.00     0.008 C 
ENDROOT
BRANCH   8  14
ATOM     14  C   UNL     1     -54.316  24.504 -13.491  1.00  0.00    -0.009 C 
ATOM     15  C   UNL     1     -53.420  24.845 -12.291  1.00  0.00     0.008 C 
ATOM     16  C   UNL     1     -53.563  24.782 -14.809  1.00  0.00     0.008 C 
ENDBRANCH   8  14
BRANCH   9  17
ATOM     17  O   UNL     1     -56.621  23.069 -14.176  1.00  0.00    -0.365 OA
ATOM     18  H   UNL     1     -57.201  22.738 -14.911  1.00  0.00     0.214 HD
ENDBRANCH   9  17
TORSDOF 2
ENDMDL
MODEL 9
REMARK VINA RESULT:    -4.048     10.046     12.543
REMARK INTER + INTRA:          -4.727
REMARK INTER:                  -4.437
REMARK INTRA:                  -0.290
REMARK UNBOUND:                -0.324
REMARK SMILES C=C1C[C@@]2(O)O[C@@]3(C[C@@H]2C(C)C)[C@@H](C)CC[C@@H]13
REMARK SMILES IDX 14 1 13 2 15 3 16 4 17 5 7 6 8 7 9 8 4 9 6 10 3 11 2 12 1 13
REMARK SMILES IDX 10 14 11 15 12 16 5 17
REMARK H PARENT 5 18
REMARK Flexibility Score: inf
ROOT
ATOM      1  C   UNL     1     -51.585  23.490 -14.698  1.00  0.00     0.011 C 
ATOM      2  C   UNL     1     -51.247  24.879 -15.258  1.00  0.00     0.019 C 
ATOM      3  C   UNL     1     -51.423  25.990 -14.213  1.00  0.00     0.007 C 
ATOM      4  C   UNL     1     -50.268  26.977 -14.409  1.00  0.00     0.011 C 
ATOM      5  C   UNL     1     -49.526  26.527 -15.667  1.00  0.00     0.047 C 
ATOM      6  C   UNL     1     -49.800  25.017 -15.757  1.00  0.00     0.081 C 
ATOM      7  C   UNL     1     -49.564  24.475 -17.172  1.00  0.00     0.046 C 
ATOM      8  C   UNL     1     -48.117  23.983 -17.114  1.00  0.00     0.054 C 
ATOM      9  C   UNL     1     -47.701  24.303 -15.646  1.00  0.00     0.173 C 
ATOM     10  O   UNL     1     -48.897  24.339 -14.909  1.00  0.00    -0.342 OA
ATOM     11  C   UNL     1     -47.027  25.700 -15.517  1.00  0.00     0.096 C 
ATOM     12  C   UNL     1     -48.036  26.828 -15.617  1.00  0.00    -0.066 C 
ATOM     13  C   UNL     1     -47.608  28.098 -15.650  1.00  0.00     0.008 C 
ENDROOT
BRANCH   8  14
ATOM     14  C   UNL     1     -47.942  22.489 -17.545  1.00  0.00    -0.009 C 
ATOM     15  C   UNL     1     -46.976  22.366 -18.733  1.00  0.00     0.008 C 
ATOM     16  C   UNL     1     -49.262  21.754 -17.858  1.00  0.00     0.008 C 
ENDBRANCH   8  14
BRANCH   9  17
ATOM     17  O   UNL     1     -46.854  23.321 -15.102  1.00  0.00    -0.365 OA
ATOM     18  H   UNL     1     -47.037  23.278 -14.127  1.00  0.00     0.214 HD
ENDBRANCH   9  17
TORSDOF 2
ENDMDL
