MODEL 1
REMARK VINA RESULT:     8.615      0.000      0.000
REMARK INTER + INTRA:          14.538
REMARK INTER:                  15.162
REMARK INTRA:                  -0.625
REMARK UNBOUND:                -0.625
REMARK SMILES CCCCCCC=CCCCCCCCC(=O)[O-]
REMARK SMILES IDX 10 1 11 2 12 3 13 4 14 5 15 6 16 7 17 8 18 9 9 10 8 11 7 12
REMARK SMILES IDX 6 13 5 14 4 15 3 16 2 17 1 18
REMARK H PARENT
REMARK Flexibility Score: inf
ROOT
ATOM      1  C   UNL     1     -13.502  18.028 -15.914  1.00  0.00     0.004 C 
ENDROOT
BRANCH   1   2
ATOM      2  C   UNL     1     -14.597  18.190 -16.985  1.00  0.00     0.000 C 
BRANCH   2   3
ATOM      3  C   UNL     1     -14.097  18.126 -18.439  1.00  0.00     0.000 C 
BRANCH   3   4
ATOM      4  C   UNL     1     -14.755  19.176 -19.346  1.00  0.00     0.000 C 
BRANCH   4   5
ATOM      5  C   UNL     1     -13.707  20.127 -19.936  1.00  0.00     0.006 C 
BRANCH   5   6
ATOM      6  C   UNL     1     -14.201  20.745 -21.247  1.00  0.00     0.053 C 
BRANCH   6   7
ATOM      7  C   UNL     1     -13.653  19.994 -22.420  1.00  0.00     0.041 C 
ATOM      8  O   UNL     1     -14.345  19.106 -22.982  1.00  0.00    -0.550 OA
ATOM      9  O   UNL     1     -12.398  20.311 -22.923  1.00  0.00    -0.550 OA
ENDBRANCH   6   7
ENDBRANCH   5   6
ENDBRANCH   4   5
ENDBRANCH   3   4
ENDBRANCH   2   3
ENDBRANCH   1   2
BRANCH   1  10
ATOM     10  C   UNL     1     -13.703  18.960 -14.711  1.00  0.00     0.027 C 
BRANCH  10  11
ATOM     11  C   UNL     1     -12.379  19.298 -14.073  1.00  0.00    -0.031 C 
ATOM     12  C   UNL     1     -12.167  19.373 -12.746  1.00  0.00    -0.031 C 
BRANCH  12  13
ATOM     13  C   UNL     1     -13.195  19.041 -11.691  1.00  0.00     0.027 C 
BRANCH  13  14
ATOM     14  C   UNL     1     -12.769  17.846 -10.820  1.00  0.00     0.004 C 
BRANCH  14  15
ATOM     15  C   UNL     1     -12.784  18.125  -9.304  1.00  0.00     0.000 C 
BRANCH  15  16
ATOM     16  C   UNL     1     -13.453  19.465  -8.952  1.00  0.00    -0.000 C 
BRANCH  16  17
ATOM     17  C   UNL     1     -12.844  20.111  -7.697  1.00  0.00    -0.003 C 
ATOM     18  C   UNL     1     -11.979  21.331  -8.017  1.00  0.00     0.004 C 
ENDBRANCH  16  17
ENDBRANCH  15  16
ENDBRANCH  14  15
ENDBRANCH  13  14
ENDBRANCH  12  13
ENDBRANCH  10  11
ENDBRANCH   1  10
TORSDOF 13
ENDMDL
MODEL 2
REMARK VINA RESULT:     8.837      1.429      1.885
REMARK INTER + INTRA:          14.927
REMARK INTER:                  15.500
REMARK INTRA:                  -0.572
REMARK UNBOUND:                -0.625
REMARK SMILES CCCCCCC=CCCCCCCCC(=O)[O-]
REMARK SMILES IDX 10 1 11 2 12 3 13 4 14 5 15 6 16 7 17 8 18 9 9 10 8 11 7 12
REMARK SMILES IDX 6 13 5 14 4 15 3 16 2 17 1 18
REMARK H PARENT
REMARK Flexibility Score: inf
ROOT
ATOM      1  C   UNL     1     -10.680  19.298 -15.853  1.00  0.00     0.004 C 
ENDROOT
BRANCH   1   2
ATOM      2  C   UNL     1     -11.000  20.002 -17.185  1.00  0.00     0.000 C 
BRANCH   2   3
ATOM      3  C   UNL     1     -11.519  19.077 -18.300  1.00  0.00     0.000 C 
BRANCH   3   4
ATOM      4  C   UNL     1     -11.888  19.833 -19.583  1.00  0.00     0.000 C 
BRANCH   4   5
ATOM      5  C   UNL     1     -13.319  19.502 -20.025  1.00  0.00     0.006 C 
BRANCH   5   6
ATOM      6  C   UNL     1     -13.884  20.599 -20.931  1.00  0.00     0.053 C 
BRANCH   6   7
ATOM      7  C   UNL     1     -13.538  20.329 -22.361  1.00  0.00     0.041 C 
ATOM      8  O   UNL     1     -12.774  21.110 -22.986  1.00  0.00    -0.550 OA
ATOM      9  O   UNL     1     -14.019  19.186 -22.989  1.00  0.00    -0.550 OA
ENDBRANCH   6   7
ENDBRANCH   5   6
ENDBRANCH   4   5
ENDBRANCH   3   4
ENDBRANCH   2   3
ENDBRANCH   1   2
BRANCH   1  10
ATOM     10  C   UNL     1     -11.419  19.918 -14.659  1.00  0.00     0.027 C 
BRANCH  10  11
ATOM     11  C   UNL     1     -12.739  19.226 -14.432  1.00  0.00    -0.031 C 
ATOM     12  C   UNL     1     -13.256  18.942 -13.222  1.00  0.00    -0.031 C 
BRANCH  12  13
ATOM     13  C   UNL     1     -12.640  19.354 -11.907  1.00  0.00     0.027 C 
BRANCH  13  14
ATOM     14  C   UNL     1     -13.258  18.603 -10.714  1.00  0.00     0.004 C 
BRANCH  14  15
ATOM     15  C   UNL     1     -12.569  18.874  -9.363  1.00  0.00     0.000 C 
BRANCH  15  16
ATOM     16  C   UNL     1     -13.540  19.409  -8.296  1.00  0.00    -0.000 C 
BRANCH  16  17
ATOM     17  C   UNL     1     -12.877  20.436  -7.363  1.00  0.00    -0.003 C 
ATOM     18  C   UNL     1     -11.972  21.418  -8.108  1.00  0.00     0.004 C 
ENDBRANCH  16  17
ENDBRANCH  15  16
ENDBRANCH  14  15
ENDBRANCH  13  14
ENDBRANCH  12  13
ENDBRANCH  10  11
ENDBRANCH   1  10
TORSDOF 13
ENDMDL
MODEL 3
REMARK VINA RESULT:     9.504      5.476     10.596
REMARK INTER + INTRA:          16.103
REMARK INTER:                  16.579
REMARK INTRA:                  -0.476
REMARK UNBOUND:                -0.625
REMARK SMILES CCCCCCC=CCCCCCCCC(=O)[O-]
REMARK SMILES IDX 10 1 11 2 12 3 13 4 14 5 15 6 16 7 17 8 18 9 9 10 8 11 7 12
REMARK SMILES IDX 6 13 5 14 4 15 3 16 2 17 1 18
REMARK H PARENT
REMARK Flexibility Score: inf
ROOT
ATOM      1  C   UNL     1     -11.856  19.706 -13.847  1.00  0.00     0.004 C 
ENDROOT
BRANCH   1   2
ATOM      2  C   UNL     1     -12.997  19.009 -13.082  1.00  0.00     0.000 C 
BRANCH   2   3
ATOM      3  C   UNL     1     -13.031  19.291 -11.569  1.00  0.00     0.000 C 
BRANCH   3   4
ATOM      4  C   UNL     1     -12.914  18.018 -10.720  1.00  0.00     0.000 C 
BRANCH   4   5
ATOM      5  C   UNL     1     -12.828  18.359  -9.227  1.00  0.00     0.006 C 
BRANCH   5   6
ATOM      6  C   UNL     1     -13.376  19.762  -8.950  1.00  0.00     0.053 C 
BRANCH   6   7
ATOM      7  C   UNL     1     -12.784  20.317  -7.694  1.00  0.00     0.041 C 
ATOM      8  O   UNL     1     -13.015  19.765  -6.586  1.00  0.00    -0.550 OA
ATOM      9  O   UNL     1     -11.935  21.416  -7.751  1.00  0.00    -0.550 OA
ENDBRANCH   6   7
ENDBRANCH   5   6
ENDBRANCH   4   5
ENDBRANCH   3   4
ENDBRANCH   2   3
ENDBRANCH   1   2
BRANCH   1  10
ATOM     10  C   UNL     1     -11.502  18.999 -15.162  1.00  0.00     0.027 C 
BRANCH  10  11
ATOM     11  C   UNL     1     -10.646  19.886 -16.030  1.00  0.00    -0.031 C 
ATOM     12  C   UNL     1     -10.664  19.886 -17.375  1.00  0.00    -0.031 C 
BRANCH  12  13
ATOM     13  C   UNL     1     -11.607  19.066 -18.223  1.00  0.00     0.027 C 
BRANCH  13  14
ATOM     14  C   UNL     1     -11.504  19.419 -19.717  1.00  0.00     0.004 C 
BRANCH  14  15
ATOM     15  C   UNL     1     -12.854  19.726 -20.394  1.00  0.00     0.000 C 
BRANCH  15  16
ATOM     16  C   UNL     1     -12.731  19.895 -21.919  1.00  0.00    -0.000 C 
BRANCH  16  17
ATOM     17  C   UNL     1     -14.006  20.478 -22.548  1.00  0.00    -0.003 C 
ATOM     18  C   UNL     1     -14.984  21.027 -21.509  1.00  0.00     0.004 C 
ENDBRANCH  16  17
ENDBRANCH  15  16
ENDBRANCH  14  15
ENDBRANCH  13  14
ENDBRANCH  12  13
ENDBRANCH  10  11
ENDBRANCH   1  10
TORSDOF 13
ENDMDL
MODEL 4
REMARK VINA RESULT:    10.479     12.972     15.718
REMARK INTER + INTRA:          17.818
REMARK INTER:                  18.534
REMARK INTRA:                  -0.716
REMARK UNBOUND:                -0.625
REMARK SMILES CCCCCCC=CCCCCCCCC(=O)[O-]
REMARK SMILES IDX 10 1 11 2 12 3 13 4 14 5 15 6 16 7 17 8 18 9 9 10 8 11 7 12
REMARK SMILES IDX 6 13 5 14 4 15 3 16 2 17 1 18
REMARK H PARENT
REMARK Flexibility Score: inf
ROOT
ATOM      1  C   UNL     1      -7.367   7.640 -18.069  1.00  0.00     0.004 C 
ENDROOT
BRANCH   1   2
ATOM      2  C   UNL     1      -8.002   8.915 -18.654  1.00  0.00     0.000 C 
BRANCH   2   3
ATOM      3  C   UNL     1      -8.395   9.980 -17.615  1.00  0.00     0.000 C 
BRANCH   3   4
ATOM      4  C   UNL     1      -7.238  10.920 -17.253  1.00  0.00     0.000 C 
BRANCH   4   5
ATOM      5  C   UNL     1      -6.694  11.627 -18.500  1.00  0.00     0.006 C 
BRANCH   5   6
ATOM      6  C   UNL     1      -6.464  13.117 -18.233  1.00  0.00     0.053 C 
BRANCH   6   7
ATOM      7  C   UNL     1      -5.548  13.305 -17.065  1.00  0.00     0.041 C 
ATOM      8  O   UNL     1      -5.963  13.868 -16.018  1.00  0.00    -0.550 OA
ATOM      9  O   UNL     1      -4.249  12.813 -17.113  1.00  0.00    -0.550 OA
ENDBRANCH   6   7
ENDBRANCH   5   6
ENDBRANCH   4   5
ENDBRANCH   3   4
ENDBRANCH   2   3
ENDBRANCH   1   2
BRANCH   1  10
ATOM     10  C   UNL     1      -7.021   6.600 -19.143  1.00  0.00     0.027 C 
BRANCH  10  11
ATOM     11  C   UNL     1      -8.238   5.790 -19.511  1.00  0.00    -0.031 C 
ATOM     12  C   UNL     1      -8.205   4.613 -20.163  1.00  0.00    -0.031 C 
BRANCH  12  13
ATOM     13  C   UNL     1      -6.943   3.877 -20.544  1.00  0.00     0.027 C 
BRANCH  13  14
ATOM     14  C   UNL     1      -7.058   3.197 -21.921  1.00  0.00     0.004 C 
BRANCH  14  15
ATOM     15  C   UNL     1      -7.645   4.095 -23.027  1.00  0.00     0.000 C 
BRANCH  15  16
ATOM     16  C   UNL     1      -9.178   4.000 -23.122  1.00  0.00    -0.000 C 
BRANCH  16  17
ATOM     17  C   UNL     1      -9.851   5.382 -23.123  1.00  0.00    -0.003 C 
ATOM     18  C   UNL     1      -8.845   6.533 -23.125  1.00  0.00     0.004 C 
ENDBRANCH  16  17
ENDBRANCH  15  16
ENDBRANCH  14  15
ENDBRANCH  13  14
ENDBRANCH  12  13
ENDBRANCH  10  11
ENDBRANCH   1  10
TORSDOF 13
ENDMDL
MODEL 5
REMARK VINA RESULT:    10.920     12.814     14.132
REMARK INTER + INTRA:          18.594
REMARK INTER:                  18.960
REMARK INTRA:                  -0.365
REMARK UNBOUND:                -0.625
REMARK SMILES CCCCCCC=CCCCCCCCC(=O)[O-]
REMARK SMILES IDX 10 1 11 2 12 3 13 4 14 5 15 6 16 7 17 8 18 9 9 10 8 11 7 12
REMARK SMILES IDX 6 13 5 14 4 15 3 16 2 17 1 18
REMARK H PARENT
REMARK Flexibility Score: inf
ROOT
ATOM      1  C   UNL     1      -7.456   7.568 -18.290  1.00  0.00     0.004 C 
ENDROOT
BRANCH   1   2
ATOM      2  C   UNL     1      -7.309   6.588 -19.469  1.00  0.00     0.000 C 
BRANCH   2   3
ATOM      3  C   UNL     1      -8.278   5.393 -19.444  1.00  0.00     0.000 C 
BRANCH   3   4
ATOM      4  C   UNL     1      -8.026   4.393 -20.581  1.00  0.00     0.000 C 
BRANCH   4   5
ATOM      5  C   UNL     1      -8.962   4.659 -21.765  1.00  0.00     0.006 C 
BRANCH   5   6
ATOM      6  C   UNL     1      -8.318   4.225 -23.085  1.00  0.00     0.053 C 
BRANCH   6   7
ATOM      7  C   UNL     1      -6.847   4.016 -22.907  1.00  0.00     0.041 C 
ATOM      8  O   UNL     1      -6.401   2.875 -22.617  1.00  0.00    -0.550 OA
ATOM      9  O   UNL     1      -5.965   5.070 -23.111  1.00  0.00    -0.550 OA
ENDBRANCH   6   7
ENDBRANCH   5   6
ENDBRANCH   4   5
ENDBRANCH   3   4
ENDBRANCH   2   3
ENDBRANCH   1   2
BRANCH   1  10
ATOM     10  C   UNL     1      -8.237   8.836 -18.664  1.00  0.00     0.027 C 
BRANCH  10  11
ATOM     11  C   UNL     1      -8.264   9.804 -17.509  1.00  0.00    -0.031 C 
ATOM     12  C   UNL     1      -7.638  10.996 -17.495  1.00  0.00    -0.031 C 
BRANCH  12  13
ATOM     13  C   UNL     1      -6.891  11.588 -18.666  1.00  0.00     0.027 C 
BRANCH  13  14
ATOM     14  C   UNL     1      -5.796  12.573 -18.220  1.00  0.00     0.004 C 
BRANCH  14  15
ATOM     15  C   UNL     1      -6.254  13.603 -17.170  1.00  0.00     0.000 C 
BRANCH  15  16
ATOM     16  C   UNL     1      -5.268  13.739 -15.997  1.00  0.00    -0.000 C 
BRANCH  16  17
ATOM     17  C   UNL     1      -3.809  13.846 -16.469  1.00  0.00    -0.003 C 
ATOM     18  C   UNL     1      -3.194  15.219 -16.191  1.00  0.00     0.004 C 
ENDBRANCH  16  17
ENDBRANCH  15  16
ENDBRANCH  14  15
ENDBRANCH  13  14
ENDBRANCH  12  13
ENDBRANCH  10  11
ENDBRANCH   1  10
TORSDOF 13
ENDMDL
MODEL 6
REMARK VINA RESULT:    11.143     13.182     15.861
REMARK INTER + INTRA:          18.986
REMARK INTER:                  19.373
REMARK INTRA:                  -0.387
REMARK UNBOUND:                -0.625
REMARK SMILES CCCCCCC=CCCCCCCCC(=O)[O-]
REMARK SMILES IDX 10 1 11 2 12 3 13 4 14 5 15 6 16 7 17 8 18 9 9 10 8 11 7 12
REMARK SMILES IDX 6 13 5 14 4 15 3 16 2 17 1 18
REMARK H PARENT
REMARK Flexibility Score: inf
ROOT
ATOM      1  C   UNL     1      -7.560   7.998 -18.097  1.00  0.00     0.004 C 
ENDROOT
BRANCH   1   2
ATOM      2  C   UNL     1      -8.211   9.260 -18.695  1.00  0.00     0.000 C 
BRANCH   2   3
ATOM      3  C   UNL     1      -8.198  10.493 -17.775  1.00  0.00     0.000 C 
BRANCH   3   4
ATOM      4  C   UNL     1      -7.137  11.528 -18.174  1.00  0.00     0.000 C 
BRANCH   4   5
ATOM      5  C   UNL     1      -6.295  11.948 -16.964  1.00  0.00     0.006 C 
BRANCH   5   6
ATOM      6  C   UNL     1      -5.908  13.427 -17.049  1.00  0.00     0.053 C 
BRANCH   6   7
ATOM      7  C   UNL     1      -4.519  13.636 -16.532  1.00  0.00     0.041 C 
ATOM      8  O   UNL     1      -4.123  14.792 -16.231  1.00  0.00    -0.550 OA
ATOM      9  O   UNL     1      -3.679  12.547 -16.335  1.00  0.00    -0.550 OA
ENDBRANCH   6   7
ENDBRANCH   5   6
ENDBRANCH   4   5
ENDBRANCH   3   4
ENDBRANCH   2   3
ENDBRANCH   1   2
BRANCH   1  10
ATOM     10  C   UNL     1      -6.917   7.099 -19.162  1.00  0.00     0.027 C 
BRANCH  10  11
ATOM     11  C   UNL     1      -7.036   5.647 -18.775  1.00  0.00    -0.031 C 
ATOM     12  C   UNL     1      -7.957   4.797 -19.267  1.00  0.00    -0.031 C 
BRANCH  12  13
ATOM     13  C   UNL     1      -8.952   5.141 -20.348  1.00  0.00     0.027 C 
BRANCH  13  14
ATOM     14  C   UNL     1      -9.072   4.027 -21.404  1.00  0.00     0.004 C 
BRANCH  14  15
ATOM     15  C   UNL     1      -8.797   4.487 -22.849  1.00  0.00     0.000 C 
BRANCH  15  16
ATOM     16  C   UNL     1      -7.302   4.723 -23.125  1.00  0.00    -0.000 C 
BRANCH  16  17
ATOM     17  C   UNL     1      -6.485   3.421 -23.081  1.00  0.00    -0.003 C 
ATOM     18  C   UNL     1      -6.313   2.875 -21.663  1.00  0.00     0.004 C 
ENDBRANCH  16  17
ENDBRANCH  15  16
ENDBRANCH  14  15
ENDBRANCH  13  14
ENDBRANCH  12  13
ENDBRANCH  10  11
ENDBRANCH   1  10
TORSDOF 13
ENDMDL
