MODEL 1
REMARK VINA RESULT:    -6.086      0.000      0.000
REMARK INTER + INTRA:          -7.265
REMARK INTER:                  -6.975
REMARK INTRA:                  -0.290
REMARK UNBOUND:                -0.290
REMARK SMILES O=C1C[C@@H](c2ccc(O)cc2)Oc2cc(O)cc(O)c21
REMARK SMILES IDX 3 1 4 2 12 3 13 4 14 5 15 6 17 7 18 8 20 9 2 10 1 11 5 12
REMARK SMILES IDX 6 13 11 14 7 15 10 16 8 17 9 18 19 20 16 22
REMARK H PARENT 9 19 19 21 16 23
REMARK Flexibility Score: inf
ROOT
ATOM      1  C   UNL     1      19.310  -0.036 -17.341  1.00  0.00     0.131 C 
ATOM      2  C   UNL     1      19.072  -0.683 -18.719  1.00  0.00     0.211 C 
ATOM      3  O   UNL     1      19.138  -2.108 -18.604  1.00  0.00    -0.484 OA
ATOM      4  C   UNL     1      18.590  -2.810 -17.522  1.00  0.00     0.138 A 
ATOM      5  C   UNL     1      18.436  -4.196 -17.622  1.00  0.00     0.093 A 
ATOM      6  C   UNL     1      17.888  -4.923 -16.565  1.00  0.00     0.123 A 
ATOM      7  C   UNL     1      17.515  -4.264 -15.388  1.00  0.00     0.093 A 
ATOM      8  C   UNL     1      17.695  -2.882 -15.251  1.00  0.00     0.133 A 
ATOM      9  C   UNL     1      18.212  -2.133 -16.342  1.00  0.00     0.102 A 
ATOM     10  C   UNL     1      18.388  -0.659 -16.336  1.00  0.00     0.174 C 
ATOM     11  O   UNL     1      17.752   0.082 -15.540  1.00  0.00    -0.294 OA
ENDROOT
BRANCH   2  12
ATOM     12  C   UNL     1      20.020  -0.229 -19.817  1.00  0.00    -0.007 A 
ATOM     13  C   UNL     1      20.813   0.909 -19.581  1.00  0.00     0.011 A 
ATOM     14  C   UNL     1      20.160  -0.905 -21.049  1.00  0.00     0.011 A 
ATOM     15  C   UNL     1      21.696   1.381 -20.556  1.00  0.00     0.046 A 
ATOM     16  C   UNL     1      21.053  -0.438 -22.018  1.00  0.00     0.046 A 
ATOM     17  C   UNL     1      21.819   0.710 -21.775  1.00  0.00     0.115 A 
BRANCH  17  18
ATOM     18  O   UNL     1      22.710   1.185 -22.736  1.00  0.00    -0.508 OA
ATOM     19  H   UNL     1      22.575   0.996 -23.724  1.00  0.00     0.293 HD
ENDBRANCH  17  18
ENDBRANCH   2  12
BRANCH   8  20
ATOM     20  O   UNL     1      17.382  -2.314 -14.015  1.00  0.00    -0.507 OA
ATOM     21  H   UNL     1      16.787  -2.749 -13.326  1.00  0.00     0.293 HD
ENDBRANCH   8  20
BRANCH   6  22
ATOM     22  O   UNL     1      17.726  -6.302 -16.689  1.00  0.00    -0.508 OA
ATOM     23  H   UNL     1      18.495  -6.904 -16.961  1.00  0.00     0.293 HD
ENDBRANCH   6  22
TORSDOF 4
ENDMDL
MODEL 2
REMARK VINA RESULT:    -6.031      2.513      6.865
REMARK INTER + INTRA:          -7.202
REMARK INTER:                  -6.945
REMARK INTRA:                  -0.257
REMARK UNBOUND:                -0.290
REMARK SMILES O=C1C[C@@H](c2ccc(O)cc2)Oc2cc(O)cc(O)c21
REMARK SMILES IDX 3 1 4 2 12 3 13 4 14 5 15 6 17 7 18 8 20 9 2 10 1 11 5 12
REMARK SMILES IDX 6 13 11 14 7 15 10 16 8 17 9 18 19 20 16 22
REMARK H PARENT 9 19 19 21 16 23
REMARK Flexibility Score: inf
ROOT
ATOM      1  C   UNL     1      19.555   0.909 -15.829  1.00  0.00     0.131 C 
ATOM      2  C   UNL     1      18.880  -0.464 -16.008  1.00  0.00     0.211 C 
ATOM      3  O   UNL     1      18.627  -0.703 -17.396  1.00  0.00    -0.484 OA
ATOM      4  C   UNL     1      19.536  -0.359 -18.406  1.00  0.00     0.138 A 
ATOM      5  C   UNL     1      19.353  -0.882 -19.689  1.00  0.00     0.093 A 
ATOM      6  C   UNL     1      20.244  -0.563 -20.714  1.00  0.00     0.123 A 
ATOM      7  C   UNL     1      21.312   0.305 -20.462  1.00  0.00     0.093 A 
ATOM      8  C   UNL     1      21.493   0.870 -19.193  1.00  0.00     0.133 A 
ATOM      9  C   UNL     1      20.613   0.513 -18.137  1.00  0.00     0.102 A 
ATOM     10  C   UNL     1      20.743   0.998 -16.740  1.00  0.00     0.174 C 
ATOM     11  O   UNL     1      21.834   1.441 -16.289  1.00  0.00    -0.294 OA
ENDROOT
BRANCH   2  12
ATOM     12  C   UNL     1      17.589  -0.654 -15.228  1.00  0.00    -0.007 A 
ATOM     13  C   UNL     1      17.435  -1.834 -14.476  1.00  0.00     0.011 A 
ATOM     14  C   UNL     1      16.550   0.302 -15.202  1.00  0.00     0.011 A 
ATOM     15  C   UNL     1      16.267  -2.070 -13.747  1.00  0.00     0.046 A 
ATOM     16  C   UNL     1      15.387   0.067 -14.462  1.00  0.00     0.046 A 
ATOM     17  C   UNL     1      15.241  -1.122 -13.737  1.00  0.00     0.115 A 
BRANCH  17  18
ATOM     18  O   UNL     1      14.085  -1.367 -12.998  1.00  0.00    -0.508 OA
ATOM     19  H   UNL     1      13.513  -0.608 -12.643  1.00  0.00     0.293 HD
ENDBRANCH  17  18
ENDBRANCH   2  12
BRANCH   8  20
ATOM     20  O   UNL     1      22.528   1.796 -19.045  1.00  0.00    -0.507 OA
ATOM     21  H   UNL     1      23.328   1.854 -19.658  1.00  0.00     0.293 HD
ENDBRANCH   8  20
BRANCH   6  22
ATOM     22  O   UNL     1      20.056  -1.108 -21.983  1.00  0.00    -0.508 OA
ATOM     23  H   UNL     1      20.790  -1.090 -22.682  1.00  0.00     0.293 HD
ENDBRANCH   6  22
TORSDOF 4
ENDMDL
MODEL 3
REMARK VINA RESULT:    -5.962      1.340      2.044
REMARK INTER + INTRA:          -7.123
REMARK INTER:                  -6.870
REMARK INTRA:                  -0.252
REMARK UNBOUND:                -0.290
REMARK SMILES O=C1C[C@@H](c2ccc(O)cc2)Oc2cc(O)cc(O)c21
REMARK SMILES IDX 3 1 4 2 12 3 13 4 14 5 15 6 17 7 18 8 20 9 2 10 1 11 5 12
REMARK SMILES IDX 6 13 11 14 7 15 10 16 8 17 9 18 19 20 16 22
REMARK H PARENT 9 19 19 21 16 23
REMARK Flexibility Score: inf
ROOT
ATOM      1  C   UNL     1      18.379  -0.127 -15.699  1.00  0.00     0.131 C 
ATOM      2  C   UNL     1      18.379  -0.758 -17.105  1.00  0.00     0.211 C 
ATOM      3  O   UNL     1      18.578  -2.172 -17.002  1.00  0.00    -0.484 OA
ATOM      4  C   UNL     1      17.976  -2.954 -16.006  1.00  0.00     0.138 A 
ATOM      5  C   UNL     1      17.978  -4.345 -16.144  1.00  0.00     0.093 A 
ATOM      6  C   UNL     1      17.383  -5.151 -15.174  1.00  0.00     0.123 A 
ATOM      7  C   UNL     1      16.803  -4.564 -14.044  1.00  0.00     0.093 A 
ATOM      8  C   UNL     1      16.821  -3.175 -13.867  1.00  0.00     0.133 A 
ATOM      9  C   UNL     1      17.388  -2.350 -14.874  1.00  0.00     0.102 A 
ATOM     10  C   UNL     1      17.409  -0.866 -14.826  1.00  0.00     0.174 C 
ATOM     11  O   UNL     1      16.608  -0.214 -14.105  1.00  0.00    -0.294 OA
ENDROOT
BRANCH   2  12
ATOM     12  C   UNL     1      19.403  -0.183 -18.070  1.00  0.00    -0.007 A 
ATOM     13  C   UNL     1      19.154  -0.299 -19.450  1.00  0.00     0.011 A 
ATOM     14  C   UNL     1      20.577   0.482 -17.650  1.00  0.00     0.011 A 
ATOM     15  C   UNL     1      20.062   0.202 -20.386  1.00  0.00     0.046 A 
ATOM     16  C   UNL     1      21.479   0.991 -18.590  1.00  0.00     0.046 A 
ATOM     17  C   UNL     1      21.225   0.848 -19.960  1.00  0.00     0.115 A 
BRANCH  17  18
ATOM     18  O   UNL     1      22.119   1.350 -20.904  1.00  0.00    -0.508 OA
ATOM     19  H   UNL     1      21.807   1.940 -21.668  1.00  0.00     0.293 HD
ENDBRANCH  17  18
ENDBRANCH   2  12
BRANCH   8  20
ATOM     20  O   UNL     1      16.302  -2.674 -12.672  1.00  0.00    -0.507 OA
ATOM     21  H   UNL     1      16.600  -2.974 -11.755  1.00  0.00     0.293 HD
ENDBRANCH   8  20
BRANCH   6  22
ATOM     22  O   UNL     1      17.380  -6.536 -15.336  1.00  0.00    -0.508 OA
ATOM     23  H   UNL     1      18.026  -7.130 -14.830  1.00  0.00     0.293 HD
ENDBRANCH   6  22
TORSDOF 4
ENDMDL
MODEL 4
REMARK VINA RESULT:    -5.897      3.873      5.789
REMARK INTER + INTRA:          -7.048
REMARK INTER:                  -6.765
REMARK INTRA:                  -0.284
REMARK UNBOUND:                -0.290
REMARK SMILES O=C1C[C@@H](c2ccc(O)cc2)Oc2cc(O)cc(O)c21
REMARK SMILES IDX 3 1 4 2 12 3 13 4 14 5 15 6 17 7 18 8 20 9 2 10 1 11 5 12
REMARK SMILES IDX 6 13 11 14 7 15 10 16 8 17 9 18 19 20 16 22
REMARK H PARENT 9 19 19 21 16 23
REMARK Flexibility Score: inf
ROOT
ATOM      1  C   UNL     1      19.585   0.874 -16.423  1.00  0.00     0.131 C 
ATOM      2  C   UNL     1      20.948   0.461 -17.011  1.00  0.00     0.211 C 
ATOM      3  O   UNL     1      21.925   1.467 -16.722  1.00  0.00    -0.484 OA
ATOM      4  C   UNL     1      21.993   2.131 -15.490  1.00  0.00     0.138 A 
ATOM      5  C   UNL     1      23.136   2.874 -15.183  1.00  0.00     0.093 A 
ATOM      6  C   UNL     1      23.237   3.542 -13.962  1.00  0.00     0.123 A 
ATOM      7  C   UNL     1      22.177   3.487 -13.051  1.00  0.00     0.093 A 
ATOM      8  C   UNL     1      21.006   2.779 -13.353  1.00  0.00     0.133 A 
ATOM      9  C   UNL     1      20.919   2.063 -14.577  1.00  0.00     0.102 A 
ATOM     10  C   UNL     1      19.758   1.229 -14.976  1.00  0.00     0.174 C 
ATOM     11  O   UNL     1      18.941   0.778 -14.129  1.00  0.00    -0.294 OA
ENDROOT
BRANCH   2  12
ATOM     12  C   UNL     1      20.949   0.183 -18.505  1.00  0.00    -0.007 A 
ATOM     13  C   UNL     1      20.442  -1.052 -18.951  1.00  0.00     0.011 A 
ATOM     14  C   UNL     1      21.410   1.109 -19.466  1.00  0.00     0.011 A 
ATOM     15  C   UNL     1      20.425  -1.370 -20.311  1.00  0.00     0.046 A 
ATOM     16  C   UNL     1      21.381   0.793 -20.828  1.00  0.00     0.046 A 
ATOM     17  C   UNL     1      20.893  -0.450 -21.253  1.00  0.00     0.115 A 
BRANCH  17  18
ATOM     18  O   UNL     1      20.863  -0.776 -22.607  1.00  0.00    -0.508 OA
ATOM     19  H   UNL     1      21.452  -1.508 -22.990  1.00  0.00     0.293 HD
ENDBRANCH  17  18
ENDBRANCH   2  12
BRANCH   8  20
ATOM     20  O   UNL     1      19.960   2.847 -12.432  1.00  0.00    -0.507 OA
ATOM     21  H   UNL     1      19.498   3.703 -12.162  1.00  0.00     0.293 HD
ENDBRANCH   8  20
BRANCH   6  22
ATOM     22  O   UNL     1      24.392   4.264 -13.666  1.00  0.00    -0.508 OA
ATOM     23  H   UNL     1      25.178   4.292 -14.305  1.00  0.00     0.293 HD
ENDBRANCH   6  22
TORSDOF 4
ENDMDL
MODEL 5
REMARK VINA RESULT:    -5.874      8.667     12.182
REMARK INTER + INTRA:          -7.022
REMARK INTER:                  -6.719
REMARK INTRA:                  -0.302
REMARK UNBOUND:                -0.290
REMARK SMILES O=C1C[C@@H](c2ccc(O)cc2)Oc2cc(O)cc(O)c21
REMARK SMILES IDX 3 1 4 2 12 3 13 4 14 5 15 6 17 7 18 8 20 9 2 10 1 11 5 12
REMARK SMILES IDX 6 13 11 14 7 15 10 16 8 17 9 18 19 20 16 22
REMARK H PARENT 9 19 19 21 16 23
REMARK Flexibility Score: inf
ROOT
ATOM      1  C   UNL     1      11.949  -6.367  -9.202  1.00  0.00     0.131 C 
ATOM      2  C   UNL     1      12.068  -5.758 -10.612  1.00  0.00     0.211 C 
ATOM      3  O   UNL     1      11.252  -6.495 -11.530  1.00  0.00    -0.484 OA
ATOM      4  C   UNL     1       9.976  -6.971 -11.200  1.00  0.00     0.138 A 
ATOM      5  C   UNL     1       9.135  -7.417 -12.223  1.00  0.00     0.093 A 
ATOM      6  C   UNL     1       7.856  -7.891 -11.929  1.00  0.00     0.123 A 
ATOM      7  C   UNL     1       7.424  -7.944 -10.599  1.00  0.00     0.093 A 
ATOM      8  C   UNL     1       8.264  -7.537  -9.554  1.00  0.00     0.133 A 
ATOM      9  C   UNL     1       9.550  -7.013  -9.855  1.00  0.00     0.102 A 
ATOM     10  C   UNL     1      10.499  -6.495  -8.839  1.00  0.00     0.174 C 
ATOM     11  O   UNL     1      10.114  -6.120  -7.700  1.00  0.00    -0.294 OA
ENDROOT
BRANCH   2  12
ATOM     12  C   UNL     1      13.482  -5.674 -11.162  1.00  0.00    -0.007 A 
ATOM     13  C   UNL     1      13.874  -6.615 -12.133  1.00  0.00     0.011 A 
ATOM     14  C   UNL     1      14.412  -4.688 -10.766  1.00  0.00     0.011 A 
ATOM     15  C   UNL     1      15.164  -6.596 -12.669  1.00  0.00     0.046 A 
ATOM     16  C   UNL     1      15.699  -4.664 -11.312  1.00  0.00     0.046 A 
ATOM     17  C   UNL     1      16.079  -5.622 -12.261  1.00  0.00     0.115 A 
BRANCH  17  18
ATOM     18  O   UNL     1      17.360  -5.609 -12.810  1.00  0.00    -0.508 OA
ATOM     19  H   UNL     1      17.630  -4.925 -13.510  1.00  0.00     0.293 HD
ENDBRANCH  17  18
ENDBRANCH   2  12
BRANCH   8  20
ATOM     20  O   UNL     1       7.793  -7.705  -8.251  1.00  0.00    -0.507 OA
ATOM     21  H   UNL     1       7.803  -6.981  -7.548  1.00  0.00     0.293 HD
ENDBRANCH   8  20
BRANCH   6  22
ATOM     22  O   UNL     1       7.025  -8.316 -12.964  1.00  0.00    -0.508 OA
ATOM     23  H   UNL     1       6.924  -9.298 -13.195  1.00  0.00     0.293 HD
ENDBRANCH   6  22
TORSDOF 4
ENDMDL
MODEL 6
REMARK VINA RESULT:    -5.816      2.274      4.053
REMARK INTER + INTRA:          -6.956
REMARK INTER:                  -6.650
REMARK INTRA:                  -0.305
REMARK UNBOUND:                -0.290
REMARK SMILES O=C1C[C@@H](c2ccc(O)cc2)Oc2cc(O)cc(O)c21
REMARK SMILES IDX 3 1 4 2 12 3 13 4 14 5 15 6 17 7 18 8 20 9 2 10 1 11 5 12
REMARK SMILES IDX 6 13 11 14 7 15 10 16 8 17 9 18 19 20 16 22
REMARK H PARENT 9 19 19 21 16 23
REMARK Flexibility Score: inf
ROOT
ATOM      1  C   UNL     1      18.754  -0.685 -17.735  1.00  0.00     0.131 C 
ATOM      2  C   UNL     1      20.228  -0.255 -17.863  1.00  0.00     0.211 C 
ATOM      3  O   UNL     1      20.477   0.880 -17.026  1.00  0.00    -0.484 OA
ATOM      4  C   UNL     1      19.935   1.011 -15.740  1.00  0.00     0.138 A 
ATOM      5  C   UNL     1      20.451   1.988 -14.885  1.00  0.00     0.093 A 
ATOM      6  C   UNL     1      19.938   2.140 -13.596  1.00  0.00     0.123 A 
ATOM      7  C   UNL     1      18.884   1.326 -13.168  1.00  0.00     0.093 A 
ATOM      8  C   UNL     1      18.327   0.364 -14.021  1.00  0.00     0.133 A 
ATOM      9  C   UNL     1      18.876   0.179 -15.318  1.00  0.00     0.102 A 
ATOM     10  C   UNL     1      18.411  -0.848 -16.284  1.00  0.00     0.174 C 
ATOM     11  O   UNL     1      17.775  -1.870 -15.912  1.00  0.00    -0.294 OA
ENDROOT
BRANCH   2  12
ATOM     12  C   UNL     1      20.688   0.060 -19.277  1.00  0.00    -0.007 A 
ATOM     13  C   UNL     1      21.359   1.277 -19.501  1.00  0.00     0.011 A 
ATOM     14  C   UNL     1      20.497  -0.816 -20.368  1.00  0.00     0.011 A 
ATOM     15  C   UNL     1      21.797   1.627 -20.781  1.00  0.00     0.046 A 
ATOM     16  C   UNL     1      20.946  -0.467 -21.646  1.00  0.00     0.046 A 
ATOM     17  C   UNL     1      21.593   0.758 -21.855  1.00  0.00     0.115 A 
BRANCH  17  18
ATOM     18  O   UNL     1      22.042   1.115 -23.125  1.00  0.00    -0.508 OA
ATOM     19  H   UNL     1      21.449   1.021 -23.943  1.00  0.00     0.293 HD
ENDBRANCH  17  18
ENDBRANCH   2  12
BRANCH   8  20
ATOM     20  O   UNL     1      17.220  -0.345 -13.552  1.00  0.00    -0.507 OA
ATOM     21  H   UNL     1      17.120  -0.676 -12.603  1.00  0.00     0.293 HD
ENDBRANCH   8  20
BRANCH   6  22
ATOM     22  O   UNL     1      20.476   3.109 -12.751  1.00  0.00    -0.508 OA
ATOM     23  H   UNL     1      20.510   4.086 -13.017  1.00  0.00     0.293 HD
ENDBRANCH   6  22
TORSDOF 4
ENDMDL
MODEL 7
REMARK VINA RESULT:    -5.770      9.019     13.825
REMARK INTER + INTRA:          -6.903
REMARK INTER:                  -6.611
REMARK INTRA:                  -0.292
REMARK UNBOUND:                -0.290
REMARK SMILES O=C1C[C@@H](c2ccc(O)cc2)Oc2cc(O)cc(O)c21
REMARK SMILES IDX 3 1 4 2 12 3 13 4 14 5 15 6 17 7 18 8 20 9 2 10 1 11 5 12
REMARK SMILES IDX 6 13 11 14 7 15 10 16 8 17 9 18 19 20 16 22
REMARK H PARENT 9 19 19 21 16 23
REMARK Flexibility Score: inf
ROOT
ATOM      1  C   UNL     1      10.834  -7.981 -10.527  1.00  0.00     0.131 C 
ATOM      2  C   UNL     1      10.536  -6.486 -10.305  1.00  0.00     0.211 C 
ATOM      3  O   UNL     1      11.763  -5.758 -10.194  1.00  0.00    -0.484 OA
ATOM      4  C   UNL     1      12.879  -6.021 -10.999  1.00  0.00     0.138 A 
ATOM      5  C   UNL     1      13.922  -5.091 -11.037  1.00  0.00     0.093 A 
ATOM      6  C   UNL     1      15.045  -5.320 -11.833  1.00  0.00     0.123 A 
ATOM      7  C   UNL     1      15.138  -6.501 -12.578  1.00  0.00     0.093 A 
ATOM      8  C   UNL     1      14.122  -7.465 -12.527  1.00  0.00     0.133 A 
ATOM      9  C   UNL     1      12.959  -7.213 -11.751  1.00  0.00     0.102 A 
ATOM     10  C   UNL     1      11.794  -8.129 -11.671  1.00  0.00     0.174 C 
ATOM     11  O   UNL     1      11.567  -8.996 -12.557  1.00  0.00    -0.294 OA
ENDROOT
BRANCH   2  12
ATOM     12  C   UNL     1       9.663  -6.175  -9.100  1.00  0.00    -0.007 A 
ATOM     13  C   UNL     1      10.276  -6.114  -7.835  1.00  0.00     0.011 A 
ATOM     14  C   UNL     1       8.277  -5.921  -9.191  1.00  0.00     0.011 A 
ATOM     15  C   UNL     1       9.525  -5.842  -6.689  1.00  0.00     0.046 A 
ATOM     16  C   UNL     1       7.530  -5.638  -8.043  1.00  0.00     0.046 A 
ATOM     17  C   UNL     1       8.152  -5.603  -6.788  1.00  0.00     0.115 A 
BRANCH  17  18
ATOM     18  O   UNL     1       7.417  -5.324  -5.638  1.00  0.00    -0.508 OA
ATOM     19  H   UNL     1       7.677  -5.708  -4.736  1.00  0.00     0.293 HD
ENDBRANCH  17  18
ENDBRANCH   2  12
BRANCH   8  20
ATOM     20  O   UNL     1      14.331  -8.654 -13.227  1.00  0.00    -0.507 OA
ATOM     21  H   UNL     1      15.054  -9.323 -13.005  1.00  0.00     0.293 HD
ENDBRANCH   8  20
BRANCH   6  22
ATOM     22  O   UNL     1      16.067  -4.374 -11.871  1.00  0.00    -0.508 OA
ATOM     23  H   UNL     1      16.884  -4.499 -12.457  1.00  0.00     0.293 HD
ENDBRANCH   6  22
TORSDOF 4
ENDMDL
MODEL 8
REMARK VINA RESULT:    -5.678      3.085      4.824
REMARK INTER + INTRA:          -6.798
REMARK INTER:                  -6.515
REMARK INTRA:                  -0.282
REMARK UNBOUND:                -0.290
REMARK SMILES O=C1C[C@@H](c2ccc(O)cc2)Oc2cc(O)cc(O)c21
REMARK SMILES IDX 3 1 4 2 12 3 13 4 14 5 15 6 17 7 18 8 20 9 2 10 1 11 5 12
REMARK SMILES IDX 6 13 11 14 7 15 10 16 8 17 9 18 19 20 16 22
REMARK H PARENT 9 19 19 21 16 23
REMARK Flexibility Score: inf
ROOT
ATOM      1  C   UNL     1      17.984  -1.659 -14.796  1.00  0.00     0.131 C 
ATOM      2  C   UNL     1      18.059  -0.255 -15.426  1.00  0.00     0.211 C 
ATOM      3  O   UNL     1      16.738   0.231 -15.686  1.00  0.00    -0.484 OA
ATOM      4  C   UNL     1      15.669   0.040 -14.801  1.00  0.00     0.138 A 
ATOM      5  C   UNL     1      14.500   0.785 -14.980  1.00  0.00     0.093 A 
ATOM      6  C   UNL     1      13.419   0.623 -14.113  1.00  0.00     0.123 A 
ATOM      7  C   UNL     1      13.498  -0.310 -13.072  1.00  0.00     0.093 A 
ATOM      8  C   UNL     1      14.646  -1.094 -12.896  1.00  0.00     0.133 A 
ATOM      9  C   UNL     1      15.763  -0.899 -13.752  1.00  0.00     0.102 A 
ATOM     10  C   UNL     1      17.051  -1.625 -13.622  1.00  0.00     0.174 C 
ATOM     11  O   UNL     1      17.399  -2.174 -12.543  1.00  0.00    -0.294 OA
ENDROOT
BRANCH   2  12
ATOM     12  C   UNL     1      18.882  -0.163 -16.701  1.00  0.00    -0.007 A 
ATOM     13  C   UNL     1      18.417  -0.842 -17.842  1.00  0.00     0.011 A 
ATOM     14  C   UNL     1      20.074   0.588 -16.802  1.00  0.00     0.011 A 
ATOM     15  C   UNL     1      19.134  -0.803 -19.040  1.00  0.00     0.046 A 
ATOM     16  C   UNL     1      20.784   0.634 -18.006  1.00  0.00     0.046 A 
ATOM     17  C   UNL     1      20.318  -0.065 -19.126  1.00  0.00     0.115 A 
BRANCH  17  18
ATOM     18  O   UNL     1      21.019  -0.028 -20.330  1.00  0.00    -0.508 OA
ATOM     19  H   UNL     1      20.586   0.302 -21.186  1.00  0.00     0.293 HD
ENDBRANCH  17  18
ENDBRANCH   2  12
BRANCH   8  20
ATOM     20  O   UNL     1      14.612  -2.063 -11.892  1.00  0.00    -0.507 OA
ATOM     21  H   UNL     1      14.065  -1.986 -11.048  1.00  0.00     0.293 HD
ENDBRANCH   8  20
BRANCH   6  22
ATOM     22  O   UNL     1      12.268   1.386 -14.296  1.00  0.00    -0.508 OA
ATOM     23  H   UNL     1      11.798   1.834 -13.517  1.00  0.00     0.293 HD
ENDBRANCH   6  22
TORSDOF 4
ENDMDL
MODEL 9
REMARK VINA RESULT:    -5.663      9.531     12.898
REMARK INTER + INTRA:          -6.780
REMARK INTER:                  -6.524
REMARK INTRA:                  -0.257
REMARK UNBOUND:                -0.290
REMARK SMILES O=C1C[C@@H](c2ccc(O)cc2)Oc2cc(O)cc(O)c21
REMARK SMILES IDX 3 1 4 2 12 3 13 4 14 5 15 6 17 7 18 8 20 9 2 10 1 11 5 12
REMARK SMILES IDX 6 13 11 14 7 15 10 16 8 17 9 18 19 20 16 22
REMARK H PARENT 9 19 19 21 16 23
REMARK Flexibility Score: inf
ROOT
ATOM      1  C   UNL     1      11.026  -6.870  -9.219  1.00  0.00     0.131 C 
ATOM      2  C   UNL     1      11.589  -5.947 -10.317  1.00  0.00     0.211 C 
ATOM      3  O   UNL     1      10.518  -5.440 -11.120  1.00  0.00    -0.484 OA
ATOM      4  C   UNL     1       9.290  -5.033 -10.582  1.00  0.00     0.138 A 
ATOM      5  C   UNL     1       8.416  -4.286 -11.377  1.00  0.00     0.093 A 
ATOM      6  C   UNL     1       7.188  -3.860 -10.869  1.00  0.00     0.123 A 
ATOM      7  C   UNL     1       6.820  -4.205  -9.564  1.00  0.00     0.093 A 
ATOM      8  C   UNL     1       7.664  -4.985  -8.761  1.00  0.00     0.133 A 
ATOM      9  C   UNL     1       8.932  -5.382  -9.262  1.00  0.00     0.102 A 
ATOM     10  C   UNL     1       9.933  -6.154  -8.484  1.00  0.00     0.174 C 
ATOM     11  O   UNL     1       9.913  -6.187  -7.224  1.00  0.00    -0.294 OA
ENDROOT
BRANCH   2  12
ATOM     12  C   UNL     1      12.631  -6.583 -11.223  1.00  0.00    -0.007 A 
ATOM     13  C   UNL     1      13.800  -5.852 -11.506  1.00  0.00     0.011 A 
ATOM     14  C   UNL     1      12.494  -7.876 -11.774  1.00  0.00     0.011 A 
ATOM     15  C   UNL     1      14.788  -6.380 -12.340  1.00  0.00     0.046 A 
ATOM     16  C   UNL     1      13.491  -8.406 -12.600  1.00  0.00     0.046 A 
ATOM     17  C   UNL     1      14.638  -7.656 -12.888  1.00  0.00     0.115 A 
BRANCH  17  18
ATOM     18  O   UNL     1      15.637  -8.173 -13.711  1.00  0.00    -0.508 OA
ATOM     19  H   UNL     1      16.593  -8.274 -13.386  1.00  0.00     0.293 HD
ENDBRANCH  17  18
ENDBRANCH   2  12
BRANCH   8  20
ATOM     20  O   UNL     1       7.186  -5.362  -7.505  1.00  0.00    -0.507 OA
ATOM     21  H   UNL     1       6.233  -5.230  -7.198  1.00  0.00     0.293 HD
ENDBRANCH   8  20
BRANCH   6  22
ATOM     22  O   UNL     1       6.337  -3.102 -11.670  1.00  0.00    -0.508 OA
ATOM     23  H   UNL     1       5.333  -3.109 -11.532  1.00  0.00     0.293 HD
ENDBRANCH   6  22
TORSDOF 4
ENDMDL
