MODEL 1
REMARK VINA RESULT:    -4.669      0.000      0.000
REMARK INTER + INTRA:         -10.751
REMARK INTER:                  -8.764
REMARK INTRA:                  -1.988
REMARK UNBOUND:                -1.988
REMARK SMILES O=C([O-])CCCCCCCCCCCCCCC(=O)[O-]
REMARK SMILES IDX 10 1 9 2 8 3 7 4 6 5 5 6 4 7 2 8 1 9 3 10 11 11 12 12 13 13
REMARK SMILES IDX 14 14 15 15 16 16 17 17 18 18 19 19 20 20
REMARK H PARENT
REMARK Flexibility Score: inf
ROOT
ATOM      1  C   UNL     1      50.465 -39.929  -5.667  1.00  0.00     0.000 C 
ENDROOT
BRANCH   1   2
ATOM      2  C   UNL     1      49.081 -40.302  -5.109  1.00  0.00     0.000 C 
BRANCH   2   3
ATOM      3  C   UNL     1      49.139 -41.486  -4.129  1.00  0.00     0.000 C 
BRANCH   3   4
ATOM      4  C   UNL     1      50.125 -41.254  -2.974  1.00  0.00     0.000 C 
BRANCH   4   5
ATOM      5  C   UNL     1      51.338 -42.189  -3.094  1.00  0.00     0.000 C 
BRANCH   5   6
ATOM      6  C   UNL     1      52.524 -41.737  -2.230  1.00  0.00     0.006 C 
BRANCH   6   7
ATOM      7  C   UNL     1      52.803 -40.232  -2.349  1.00  0.00     0.053 C 
BRANCH   7   8
ATOM      8  C   UNL     1      54.252 -39.948  -2.105  1.00  0.00     0.041 C 
ATOM      9  O   UNL     1      55.047 -40.889  -1.848  1.00  0.00    -0.550 OA
ATOM     10  O   UNL     1      54.732 -38.650  -2.210  1.00  0.00    -0.550 OA
ENDBRANCH   7   8
ENDBRANCH   6   7
ENDBRANCH   5   6
ENDBRANCH   4   5
ENDBRANCH   3   4
ENDBRANCH   2   3
ENDBRANCH   1   2
BRANCH   1  11
ATOM     11  C   UNL     1      50.829 -38.457  -5.409  1.00  0.00     0.000 C 
BRANCH  11  12
ATOM     12  C   UNL     1      49.770 -37.725  -4.566  1.00  0.00     0.000 C 
BRANCH  12  13
ATOM     13  C   UNL     1      50.244 -37.451  -3.129  1.00  0.00     0.000 C 
BRANCH  13  14
ATOM     14  C   UNL     1      49.079 -37.171  -2.165  1.00  0.00     0.000 C 
BRANCH  14  15
ATOM     15  C   UNL     1      47.881 -38.111  -2.381  1.00  0.00     0.000 C 
BRANCH  15  16
ATOM     16  C   UNL     1      47.672 -39.178  -1.288  1.00  0.00     0.006 C 
BRANCH  16  17
ATOM     17  C   UNL     1      46.369 -39.009  -0.484  1.00  0.00     0.053 C 
BRANCH  17  18
ATOM     18  C   UNL     1      45.146 -39.062  -1.350  1.00  0.00     0.041 C 
ATOM     19  O   UNL     1      44.890 -40.094  -2.027  1.00  0.00    -0.550 OA
ATOM     20  O   UNL     1      44.265 -37.989  -1.378  1.00  0.00    -0.550 OA
ENDBRANCH  17  18
ENDBRANCH  16  17
ENDBRANCH  15  16
ENDBRANCH  14  15
ENDBRANCH  13  14
ENDBRANCH  12  13
ENDBRANCH  11  12
ENDBRANCH   1  11
TORSDOF 15
ENDMDL
MODEL 2
REMARK VINA RESULT:    -4.594      1.587      7.007
REMARK INTER + INTRA:         -10.611
REMARK INTER:                  -8.553
REMARK INTRA:                  -2.058
REMARK UNBOUND:                -1.988
REMARK SMILES O=C([O-])CCCCCCCCCCCCCCC(=O)[O-]
REMARK SMILES IDX 10 1 9 2 8 3 7 4 6 5 5 6 4 7 2 8 1 9 3 10 11 11 12 12 13 13
REMARK SMILES IDX 14 14 15 15 16 16 17 17 18 18 19 19 20 20
REMARK H PARENT
REMARK Flexibility Score: inf
ROOT
ATOM      1  C   UNL     1      48.872 -37.569  -3.863  1.00  0.00     0.000 C 
ENDROOT
BRANCH   1   2
ATOM      2  C   UNL     1      49.083 -37.928  -2.382  1.00  0.00     0.000 C 
BRANCH   2   3
ATOM      3  C   UNL     1      47.758 -38.136  -1.630  1.00  0.00     0.000 C 
BRANCH   3   4
ATOM      4  C   UNL     1      47.651 -39.529  -0.990  1.00  0.00     0.000 C 
BRANCH   4   5
ATOM      5  C   UNL     1      46.438 -40.293  -1.544  1.00  0.00     0.000 C 
BRANCH   5   6
ATOM      6  C   UNL     1      45.310 -39.358  -2.008  1.00  0.00     0.006 C 
BRANCH   6   7
ATOM      7  C   UNL     1      44.829 -39.673  -3.431  1.00  0.00     0.053 C 
BRANCH   7   8
ATOM      8  C   UNL     1      44.801 -38.428  -4.260  1.00  0.00     0.041 C 
ATOM      9  O   UNL     1      44.709 -37.301  -3.708  1.00  0.00    -0.550 OA
ATOM     10  O   UNL     1      44.925 -38.511  -5.641  1.00  0.00    -0.550 OA
ENDBRANCH   7   8
ENDBRANCH   6   7
ENDBRANCH   5   6
ENDBRANCH   4   5
ENDBRANCH   3   4
ENDBRANCH   2   3
ENDBRANCH   1   2
BRANCH   1  11
ATOM     11  C   UNL     1      49.196 -38.740  -4.806  1.00  0.00     0.000 C 
BRANCH  11  12
ATOM     12  C   UNL     1      48.150 -39.865  -4.733  1.00  0.00     0.000 C 
BRANCH  12  13
ATOM     13  C   UNL     1      48.782 -41.266  -4.790  1.00  0.00     0.000 C 
BRANCH  13  14
ATOM     14  C   UNL     1      49.384 -41.698  -3.441  1.00  0.00     0.000 C 
BRANCH  14  15
ATOM     15  C   UNL     1      50.916 -41.828  -3.482  1.00  0.00     0.000 C 
BRANCH  15  16
ATOM     16  C   UNL     1      51.667 -41.150  -2.318  1.00  0.00     0.006 C 
BRANCH  16  17
ATOM     17  C   UNL     1      52.943 -41.893  -1.875  1.00  0.00     0.053 C 
BRANCH  17  18
ATOM     18  C   UNL     1      54.157 -41.013  -1.887  1.00  0.00     0.041 C 
ATOM     19  O   UNL     1      55.306 -41.514  -1.762  1.00  0.00    -0.550 OA
ATOM     20  O   UNL     1      54.023 -39.645  -2.080  1.00  0.00    -0.550 OA
ENDBRANCH  17  18
ENDBRANCH  16  17
ENDBRANCH  15  16
ENDBRANCH  14  15
ENDBRANCH  13  14
ENDBRANCH  12  13
ENDBRANCH  11  12
ENDBRANCH   1  11
TORSDOF 15
ENDMDL
MODEL 3
REMARK VINA RESULT:    -4.526     10.830     12.893
REMARK INTER + INTRA:         -10.482
REMARK INTER:                  -7.871
REMARK INTRA:                  -2.611
REMARK UNBOUND:                -1.988
REMARK SMILES O=C([O-])CCCCCCCCCCCCCCC(=O)[O-]
REMARK SMILES IDX 10 1 9 2 8 3 7 4 6 5 5 6 4 7 2 8 1 9 3 10 11 11 12 12 13 13
REMARK SMILES IDX 14 14 15 15 16 16 17 17 18 18 19 19 20 20
REMARK H PARENT
REMARK Flexibility Score: inf
ROOT
ATOM      1  C   UNL     1      49.804 -40.516   7.875  1.00  0.00     0.000 C 
ENDROOT
BRANCH   1   2
ATOM      2  C   UNL     1      50.116 -39.035   7.600  1.00  0.00     0.000 C 
BRANCH   2   3
ATOM      3  C   UNL     1      51.399 -38.561   8.302  1.00  0.00     0.000 C 
BRANCH   3   4
ATOM      4  C   UNL     1      51.175 -37.316   9.174  1.00  0.00     0.000 C 
BRANCH   4   5
ATOM      5  C   UNL     1      50.515 -36.191   8.362  1.00  0.00     0.000 C 
BRANCH   5   6
ATOM      6  C   UNL     1      50.034 -35.027   9.242  1.00  0.00     0.006 C 
BRANCH   6   7
ATOM      7  C   UNL     1      50.324 -35.254  10.732  1.00  0.00     0.053 C 
BRANCH   7   8
ATOM      8  C   UNL     1      50.341 -33.950  11.465  1.00  0.00     0.041 C 
ATOM      9  O   UNL     1      50.638 -32.887  10.860  1.00  0.00    -0.550 OA
ATOM     10  O   UNL     1      49.982 -33.902  12.806  1.00  0.00    -0.550 OA
ENDBRANCH   7   8
ENDBRANCH   6   7
ENDBRANCH   5   6
ENDBRANCH   4   5
ENDBRANCH   3   4
ENDBRANCH   2   3
ENDBRANCH   1   2
BRANCH   1  11
ATOM     11  C   UNL     1      49.971 -40.891   9.357  1.00  0.00     0.000 C 
BRANCH  11  12
ATOM     12  C   UNL     1      48.683 -40.672  10.170  1.00  0.00     0.000 C 
BRANCH  12  13
ATOM     13  C   UNL     1      48.825 -39.549  11.211  1.00  0.00     0.000 C 
BRANCH  13  14
ATOM     14  C   UNL     1      48.096 -38.261  10.794  1.00  0.00     0.000 C 
BRANCH  14  15
ATOM     15  C   UNL     1      47.074 -38.487   9.667  1.00  0.00     0.000 C 
BRANCH  15  16
ATOM     16  C   UNL     1      47.030 -37.390   8.585  1.00  0.00     0.006 C 
BRANCH  16  17
ATOM     17  C   UNL     1      46.687 -37.910   7.175  1.00  0.00     0.053 C 
BRANCH  17  18
ATOM     18  C   UNL     1      46.985 -36.906   6.102  1.00  0.00     0.041 C 
ATOM     19  O   UNL     1      48.175 -36.681   5.754  1.00  0.00    -0.550 OA
ATOM     20  O   UNL     1      45.946 -36.251   5.453  1.00  0.00    -0.550 OA
ENDBRANCH  17  18
ENDBRANCH  16  17
ENDBRANCH  15  16
ENDBRANCH  14  15
ENDBRANCH  13  14
ENDBRANCH  12  13
ENDBRANCH  11  12
ENDBRANCH   1  11
TORSDOF 15
ENDMDL
MODEL 4
REMARK VINA RESULT:    -4.505      2.945      5.950
REMARK INTER + INTRA:         -10.442
REMARK INTER:                  -8.296
REMARK INTRA:                  -2.146
REMARK UNBOUND:                -1.988
REMARK SMILES O=C([O-])CCCCCCCCCCCCCCC(=O)[O-]
REMARK SMILES IDX 10 1 9 2 8 3 7 4 6 5 5 6 4 7 2 8 1 9 3 10 11 11 12 12 13 13
REMARK SMILES IDX 14 14 15 15 16 16 17 17 18 18 19 19 20 20
REMARK H PARENT
REMARK Flexibility Score: inf
ROOT
ATOM      1  C   UNL     1      46.404 -39.749  -1.345  1.00  0.00     0.000 C 
ENDROOT
BRANCH   1   2
ATOM      2  C   UNL     1      47.786 -39.171  -0.993  1.00  0.00     0.000 C 
BRANCH   2   3
ATOM      3  C   UNL     1      47.728 -37.679  -0.628  1.00  0.00     0.000 C 
BRANCH   3   4
ATOM      4  C   UNL     1      48.692 -36.825  -1.465  1.00  0.00     0.000 C 
BRANCH   4   5
ATOM      5  C   UNL     1      49.248 -37.629  -2.649  1.00  0.00     0.000 C 
BRANCH   5   6
ATOM      6  C   UNL     1      49.721 -36.733  -3.805  1.00  0.00     0.006 C 
BRANCH   6   7
ATOM      7  C   UNL     1      49.828 -37.492  -5.135  1.00  0.00     0.053 C 
BRANCH   7   8
ATOM      8  C   UNL     1      51.133 -37.194  -5.803  1.00  0.00     0.041 C 
ATOM      9  O   UNL     1      52.068 -38.036  -5.771  1.00  0.00    -0.550 OA
ATOM     10  O   UNL     1      51.299 -36.006  -6.504  1.00  0.00    -0.550 OA
ENDBRANCH   7   8
ENDBRANCH   6   7
ENDBRANCH   5   6
ENDBRANCH   4   5
ENDBRANCH   3   4
ENDBRANCH   2   3
ENDBRANCH   1   2
BRANCH   1  11
ATOM     11  C   UNL     1      46.003 -39.474  -2.804  1.00  0.00     0.000 C 
BRANCH  11  12
ATOM     12  C   UNL     1      46.399 -40.620  -3.751  1.00  0.00     0.000 C 
BRANCH  12  13
ATOM     13  C   UNL     1      47.713 -40.340  -4.500  1.00  0.00     0.000 C 
BRANCH  13  14
ATOM     14  C   UNL     1      48.767 -41.438  -4.275  1.00  0.00     0.000 C 
BRANCH  14  15
ATOM     15  C   UNL     1      50.207 -40.895  -4.273  1.00  0.00     0.000 C 
BRANCH  15  16
ATOM     16  C   UNL     1      50.944 -40.982  -2.921  1.00  0.00     0.006 C 
BRANCH  16  17
ATOM     17  C   UNL     1      52.173 -40.059  -2.815  1.00  0.00     0.053 C 
BRANCH  17  18
ATOM     18  C   UNL     1      53.296 -40.682  -2.041  1.00  0.00     0.041 C 
ATOM     19  O   UNL     1      53.171 -41.839  -1.558  1.00  0.00    -0.550 OA
ATOM     20  O   UNL     1      54.498 -40.002  -1.889  1.00  0.00    -0.550 OA
ENDBRANCH  17  18
ENDBRANCH  16  17
ENDBRANCH  15  16
ENDBRANCH  14  15
ENDBRANCH  13  14
ENDBRANCH  12  13
ENDBRANCH  11  12
ENDBRANCH   1  11
TORSDOF 15
ENDMDL
MODEL 5
REMARK VINA RESULT:    -4.471      2.424      3.889
REMARK INTER + INTRA:         -10.379
REMARK INTER:                  -8.417
REMARK INTRA:                  -1.962
REMARK UNBOUND:                -1.988
REMARK SMILES O=C([O-])CCCCCCCCCCCCCCC(=O)[O-]
REMARK SMILES IDX 10 1 9 2 8 3 7 4 6 5 5 6 4 7 2 8 1 9 3 10 11 11 12 12 13 13
REMARK SMILES IDX 14 14 15 15 16 16 17 17 18 18 19 19 20 20
REMARK H PARENT
REMARK Flexibility Score: inf
ROOT
ATOM      1  C   UNL     1      47.697 -40.118  -2.328  1.00  0.00     0.000 C 
ENDROOT
BRANCH   1   2
ATOM      2  C   UNL     1      48.086 -41.026  -3.509  1.00  0.00     0.000 C 
BRANCH   2   3
ATOM      3  C   UNL     1      48.932 -40.294  -4.563  1.00  0.00     0.000 C 
BRANCH   3   4
ATOM      4  C   UNL     1      50.442 -40.473  -4.340  1.00  0.00     0.000 C 
BRANCH   4   5
ATOM      5  C   UNL     1      50.723 -41.688  -3.443  1.00  0.00     0.000 C 
BRANCH   5   6
ATOM      6  C   UNL     1      51.981 -41.509  -2.579  1.00  0.00     0.006 C 
BRANCH   6   7
ATOM      7  C   UNL     1      52.480 -40.058  -2.554  1.00  0.00     0.053 C 
BRANCH   7   8
ATOM      8  C   UNL     1      53.928 -40.010  -2.180  1.00  0.00     0.041 C 
ATOM      9  O   UNL     1      54.526 -38.905  -2.105  1.00  0.00    -0.550 OA
ATOM     10  O   UNL     1      54.603 -41.181  -1.867  1.00  0.00    -0.550 OA
ENDBRANCH   7   8
ENDBRANCH   6   7
ENDBRANCH   5   6
ENDBRANCH   4   5
ENDBRANCH   3   4
ENDBRANCH   2   3
ENDBRANCH   1   2
BRANCH   1  11
ATOM     11  C   UNL     1      46.183 -40.116  -2.058  1.00  0.00     0.000 C 
BRANCH  11  12
ATOM     12  C   UNL     1      45.352 -40.176  -3.351  1.00  0.00     0.000 C 
BRANCH  12  13
ATOM     13  C   UNL     1      45.034 -38.780  -3.914  1.00  0.00     0.000 C 
BRANCH  13  14
ATOM     14  C   UNL     1      45.782 -38.487  -5.226  1.00  0.00     0.000 C 
BRANCH  14  15
ATOM     15  C   UNL     1      46.649 -37.219  -5.151  1.00  0.00     0.000 C 
BRANCH  15  16
ATOM     16  C   UNL     1      47.011 -36.748  -3.728  1.00  0.00     0.006 C 
BRANCH  16  17
ATOM     17  C   UNL     1      48.525 -36.699  -3.448  1.00  0.00     0.053 C 
BRANCH  17  18
ATOM     18  C   UNL     1      48.906 -35.575  -2.530  1.00  0.00     0.041 C 
ATOM     19  O   UNL     1      48.332 -34.457  -2.622  1.00  0.00    -0.550 OA
ATOM     20  O   UNL     1      49.863 -35.776  -1.544  1.00  0.00    -0.550 OA
ENDBRANCH  17  18
ENDBRANCH  16  17
ENDBRANCH  15  16
ENDBRANCH  14  15
ENDBRANCH  13  14
ENDBRANCH  12  13
ENDBRANCH  11  12
ENDBRANCH   1  11
TORSDOF 15
ENDMDL
MODEL 6
REMARK VINA RESULT:    -4.445      2.323      6.190
REMARK INTER + INTRA:         -10.330
REMARK INTER:                  -8.420
REMARK INTRA:                  -1.910
REMARK UNBOUND:                -1.988
REMARK SMILES O=C([O-])CCCCCCCCCCCCCCC(=O)[O-]
REMARK SMILES IDX 10 1 9 2 8 3 7 4 6 5 5 6 4 7 2 8 1 9 3 10 11 11 12 12 13 13
REMARK SMILES IDX 14 14 15 15 16 16 17 17 18 18 19 19 20 20
REMARK H PARENT
REMARK Flexibility Score: inf
ROOT
ATOM      1  C   UNL     1      49.101 -41.135  -3.607  1.00  0.00     0.000 C 
ENDROOT
BRANCH   1   2
ATOM      2  C   UNL     1      47.848 -40.546  -2.934  1.00  0.00     0.000 C 
BRANCH   2   3
ATOM      3  C   UNL     1      46.700 -40.310  -3.928  1.00  0.00     0.000 C 
BRANCH   3   4
ATOM      4  C   UNL     1      46.268 -38.837  -3.998  1.00  0.00     0.000 C 
BRANCH   4   5
ATOM      5  C   UNL     1      46.486 -38.139  -2.647  1.00  0.00     0.000 C 
BRANCH   5   6
ATOM      6  C   UNL     1      47.635 -37.119  -2.685  1.00  0.00     0.006 C 
BRANCH   6   7
ATOM      7  C   UNL     1      48.473 -37.123  -1.399  1.00  0.00     0.053 C 
BRANCH   7   8
ATOM      8  C   UNL     1      48.360 -35.807  -0.697  1.00  0.00     0.041 C 
ATOM      9  O   UNL     1      48.116 -34.759  -1.351  1.00  0.00    -0.550 OA
ATOM     10  O   UNL     1      48.477 -35.744   0.685  1.00  0.00    -0.550 OA
ENDBRANCH   7   8
ENDBRANCH   6   7
ENDBRANCH   5   6
ENDBRANCH   4   5
ENDBRANCH   3   4
ENDBRANCH   2   3
ENDBRANCH   1   2
BRANCH   1  11
ATOM     11  C   UNL     1      49.131 -40.883  -5.124  1.00  0.00     0.000 C 
BRANCH  11  12
ATOM     12  C   UNL     1      50.214 -39.870  -5.533  1.00  0.00     0.000 C 
BRANCH  12  13
ATOM     13  C   UNL     1      49.882 -38.437  -5.085  1.00  0.00     0.000 C 
BRANCH  13  14
ATOM     14  C   UNL     1      50.956 -37.844  -4.156  1.00  0.00     0.000 C 
BRANCH  14  15
ATOM     15  C   UNL     1      52.177 -38.763  -3.987  1.00  0.00     0.000 C 
BRANCH  15  16
ATOM     16  C   UNL     1      52.318 -39.426  -2.602  1.00  0.00     0.006 C 
BRANCH  16  17
ATOM     17  C   UNL     1      53.758 -39.849  -2.251  1.00  0.00     0.053 C 
BRANCH  17  18
ATOM     18  C   UNL     1      53.876 -41.317  -1.970  1.00  0.00     0.041 C 
ATOM     19  O   UNL     1      52.846 -42.043  -1.934  1.00  0.00    -0.550 OA
ATOM     20  O   UNL     1      55.127 -41.893  -1.791  1.00  0.00    -0.550 OA
ENDBRANCH  17  18
ENDBRANCH  16  17
ENDBRANCH  15  16
ENDBRANCH  14  15
ENDBRANCH  13  14
ENDBRANCH  12  13
ENDBRANCH  11  12
ENDBRANCH   1  11
TORSDOF 15
ENDMDL
MODEL 7
REMARK VINA RESULT:    -4.418      2.300      6.236
REMARK INTER + INTRA:         -10.280
REMARK INTER:                  -8.482
REMARK INTRA:                  -1.799
REMARK UNBOUND:                -1.988
REMARK SMILES O=C([O-])CCCCCCCCCCCCCCC(=O)[O-]
REMARK SMILES IDX 10 1 9 2 8 3 7 4 6 5 5 6 4 7 2 8 1 9 3 10 11 11 12 12 13 13
REMARK SMILES IDX 14 14 15 15 16 16 17 17 18 18 19 19 20 20
REMARK H PARENT
REMARK Flexibility Score: inf
ROOT
ATOM      1  C   UNL     1      46.325 -40.650  -3.566  1.00  0.00     0.000 C 
ENDROOT
BRANCH   1   2
ATOM      2  C   UNL     1      45.630 -39.803  -2.486  1.00  0.00     0.000 C 
BRANCH   2   3
ATOM      3  C   UNL     1      46.046 -40.206  -1.062  1.00  0.00     0.000 C 
BRANCH   3   4
ATOM      4  C   UNL     1      47.271 -39.428  -0.558  1.00  0.00     0.000 C 
BRANCH   4   5
ATOM      5  C   UNL     1      46.842 -38.160   0.195  1.00  0.00     0.000 C 
BRANCH   5   6
ATOM      6  C   UNL     1      47.353 -36.872  -0.471  1.00  0.00     0.006 C 
BRANCH   6   7
ATOM      7  C   UNL     1      47.984 -37.129  -1.846  1.00  0.00     0.053 C 
BRANCH   7   8
ATOM      8  C   UNL     1      48.981 -36.061  -2.170  1.00  0.00     0.041 C 
ATOM      9  O   UNL     1      49.827 -35.702  -1.310  1.00  0.00    -0.550 OA
ATOM     10  O   UNL     1      49.007 -35.498  -3.439  1.00  0.00    -0.550 OA
ENDBRANCH   7   8
ENDBRANCH   6   7
ENDBRANCH   5   6
ENDBRANCH   4   5
ENDBRANCH   3   4
ENDBRANCH   2   3
ENDBRANCH   1   2
BRANCH   1  11
ATOM     11  C   UNL     1      47.222 -39.808  -4.490  1.00  0.00     0.000 C 
BRANCH  11  12
ATOM     12  C   UNL     1      48.519 -40.539  -4.880  1.00  0.00     0.000 C 
BRANCH  12  13
ATOM     13  C   UNL     1      49.103 -41.366  -3.722  1.00  0.00     0.000 C 
BRANCH  13  14
ATOM     14  C   UNL     1      49.873 -40.502  -2.709  1.00  0.00     0.000 C 
BRANCH  14  15
ATOM     15  C   UNL     1      50.555 -39.283  -3.354  1.00  0.00     0.000 C 
BRANCH  15  16
ATOM     16  C   UNL     1      52.091 -39.243  -3.228  1.00  0.00     0.006 C 
BRANCH  16  17
ATOM     17  C   UNL     1      52.701 -40.492  -2.563  1.00  0.00     0.053 C 
BRANCH  17  18
ATOM     18  C   UNL     1      54.090 -40.253  -2.052  1.00  0.00     0.041 C 
ATOM     19  O   UNL     1      54.845 -41.225  -1.784  1.00  0.00    -0.550 OA
ATOM     20  O   UNL     1      54.568 -38.956  -1.912  1.00  0.00    -0.550 OA
ENDBRANCH  17  18
ENDBRANCH  16  17
ENDBRANCH  15  16
ENDBRANCH  14  15
ENDBRANCH  13  14
ENDBRANCH  12  13
ENDBRANCH  11  12
ENDBRANCH   1  11
TORSDOF 15
ENDMDL
MODEL 8
REMARK VINA RESULT:    -4.394      2.206      3.461
REMARK INTER + INTRA:         -10.234
REMARK INTER:                  -8.102
REMARK INTRA:                  -2.132
REMARK UNBOUND:                -1.988
REMARK SMILES O=C([O-])CCCCCCCCCCCCCCC(=O)[O-]
REMARK SMILES IDX 10 1 9 2 8 3 7 4 6 5 5 6 4 7 2 8 1 9 3 10 11 11 12 12 13 13
REMARK SMILES IDX 14 14 15 15 16 16 17 17 18 18 19 19 20 20
REMARK H PARENT
REMARK Flexibility Score: inf
ROOT
ATOM      1  C   UNL     1      48.895 -40.498  -2.603  1.00  0.00     0.000 C 
ENDROOT
BRANCH   1   2
ATOM      2  C   UNL     1      49.448 -41.523  -3.608  1.00  0.00     0.000 C 
BRANCH   2   3
ATOM      3  C   UNL     1      50.444 -40.899  -4.600  1.00  0.00     0.000 C 
BRANCH   3   4
ATOM      4  C   UNL     1      50.424 -39.363  -4.575  1.00  0.00     0.000 C 
BRANCH   4   5
ATOM      5  C   UNL     1      51.824 -38.802  -4.281  1.00  0.00     0.000 C 
BRANCH   5   6
ATOM      6  C   UNL     1      52.192 -38.876  -2.791  1.00  0.00     0.006 C 
BRANCH   6   7
ATOM      7  C   UNL     1      53.651 -39.293  -2.563  1.00  0.00     0.053 C 
BRANCH   7   8
ATOM      8  C   UNL     1      53.719 -40.701  -2.060  1.00  0.00     0.041 C 
ATOM      9  O   UNL     1      54.834 -41.240  -1.835  1.00  0.00    -0.550 OA
ATOM     10  O   UNL     1      52.550 -41.400  -1.793  1.00  0.00    -0.550 OA
ENDBRANCH   7   8
ENDBRANCH   6   7
ENDBRANCH   5   6
ENDBRANCH   4   5
ENDBRANCH   3   4
ENDBRANCH   2   3
ENDBRANCH   1   2
BRANCH   1  11
ATOM     11  C   UNL     1      47.358 -40.431  -2.613  1.00  0.00     0.000 C 
BRANCH  11  12
ATOM     12  C   UNL     1      46.788 -40.157  -4.016  1.00  0.00     0.000 C 
BRANCH  12  13
ATOM     13  C   UNL     1      46.913 -38.680  -4.426  1.00  0.00     0.000 C 
BRANCH  13  14
ATOM     14  C   UNL     1      46.792 -37.721  -3.230  1.00  0.00     0.000 C 
BRANCH  14  15
ATOM     15  C   UNL     1      47.912 -36.668  -3.190  1.00  0.00     0.000 C 
BRANCH  15  16
ATOM     16  C   UNL     1      49.060 -36.961  -2.202  1.00  0.00     0.006 C 
BRANCH  16  17
ATOM     17  C   UNL     1      49.406 -35.781  -1.273  1.00  0.00     0.053 C 
BRANCH  17  18
ATOM     18  C   UNL     1      48.228 -35.312  -0.472  1.00  0.00     0.041 C 
ATOM     19  O   UNL     1      47.727 -34.176  -0.685  1.00  0.00    -0.550 OA
ATOM     20  O   UNL     1      47.656 -36.147   0.479  1.00  0.00    -0.550 OA
ENDBRANCH  17  18
ENDBRANCH  16  17
ENDBRANCH  15  16
ENDBRANCH  14  15
ENDBRANCH  13  14
ENDBRANCH  12  13
ENDBRANCH  11  12
ENDBRANCH   1  11
TORSDOF 15
ENDMDL
MODEL 9
REMARK VINA RESULT:    -4.363     10.700     13.166
REMARK INTER + INTRA:         -10.177
REMARK INTER:                  -7.957
REMARK INTRA:                  -2.220
REMARK UNBOUND:                -1.988
REMARK SMILES O=C([O-])CCCCCCCCCCCCCCC(=O)[O-]
REMARK SMILES IDX 10 1 9 2 8 3 7 4 6 5 5 6 4 7 2 8 1 9 3 10 11 11 12 12 13 13
REMARK SMILES IDX 14 14 15 15 16 16 17 17 18 18 19 19 20 20
REMARK H PARENT
REMARK Flexibility Score: inf
ROOT
ATOM      1  C   UNL     1      49.872 -40.139   9.326  1.00  0.00     0.000 C 
ENDROOT
BRANCH   1   2
ATOM      2  C   UNL     1      48.380 -40.180   9.700  1.00  0.00     0.000 C 
BRANCH   2   3
ATOM      3  C   UNL     1      47.827 -38.797  10.078  1.00  0.00     0.000 C 
BRANCH   3   4
ATOM      4  C   UNL     1      46.681 -38.344   9.160  1.00  0.00     0.000 C 
BRANCH   4   5
ATOM      5  C   UNL     1      47.113 -37.151   8.294  1.00  0.00     0.000 C 
BRANCH   5   6
ATOM      6  C   UNL     1      47.229 -37.510   6.804  1.00  0.00     0.006 C 
BRANCH   6   7
ATOM      7  C   UNL     1      48.046 -36.481   6.010  1.00  0.00     0.053 C 
BRANCH   7   8
ATOM      8  C   UNL     1      47.169 -35.757   5.038  1.00  0.00     0.041 C 
ATOM      9  O   UNL     1      45.918 -35.877   5.101  1.00  0.00    -0.550 OA
ATOM     10  O   UNL     1      47.733 -34.911   4.092  1.00  0.00    -0.550 OA
ENDBRANCH   7   8
ENDBRANCH   6   7
ENDBRANCH   5   6
ENDBRANCH   4   5
ENDBRANCH   3   4
ENDBRANCH   2   3
ENDBRANCH   1   2
BRANCH   1  11
ATOM     11  C   UNL     1      50.110 -39.597   7.906  1.00  0.00     0.000 C 
BRANCH  11  12
ATOM     12  C   UNL     1      50.739 -38.193   7.907  1.00  0.00     0.000 C 
BRANCH  12  13
ATOM     13  C   UNL     1      51.721 -37.986   9.072  1.00  0.00     0.000 C 
BRANCH  13  14
ATOM     14  C   UNL     1      51.419 -36.714   9.882  1.00  0.00     0.000 C 
BRANCH  14  15
ATOM     15  C   UNL     1      50.693 -35.636   9.058  1.00  0.00     0.000 C 
BRANCH  15  16
ATOM     16  C   UNL     1      49.564 -34.890   9.796  1.00  0.00     0.006 C 
BRANCH  16  17
ATOM     17  C   UNL     1      50.001 -33.554  10.428  1.00  0.00     0.053 C 
BRANCH  17  18
ATOM     18  C   UNL     1      50.469 -33.712  11.844  1.00  0.00     0.041 C 
ATOM     19  O   UNL     1      49.669 -34.095  12.739  1.00  0.00    -0.550 OA
ATOM     20  O   UNL     1      51.799 -33.477  12.168  1.00  0.00    -0.550 OA
ENDBRANCH  17  18
ENDBRANCH  16  17
ENDBRANCH  15  16
ENDBRANCH  14  15
ENDBRANCH  13  14
ENDBRANCH  12  13
ENDBRANCH  11  12
ENDBRANCH   1  11
TORSDOF 15
ENDMDL
