MODEL 1
REMARK VINA RESULT:    -4.375      0.000      0.000
REMARK INTER + INTRA:          -6.282
REMARK INTER:                  -6.037
REMARK INTRA:                  -0.245
REMARK UNBOUND:                -0.245
REMARK SMILES CCCCCCCCO
REMARK SMILES IDX 5 1 4 2 3 3 2 4 1 5 6 6 7 7 8 8 9 9
REMARK H PARENT 9 10
REMARK Flexibility Score: inf
ROOT
ATOM      1  C   UNL     1       4.053   2.186  11.385  1.00  0.00     0.000 C 
ENDROOT
BRANCH   1   2
ATOM      2  C   UNL     1       5.052   3.343  11.517  1.00  0.00    -0.000 C 
BRANCH   2   3
ATOM      3  C   UNL     1       4.582   4.359  12.565  1.00  0.00    -0.000 C 
BRANCH   3   4
ATOM      4  C   UNL     1       5.761   5.175  13.108  1.00  0.00    -0.003 C 
ATOM      5  C   UNL     1       6.101   4.767  14.538  1.00  0.00     0.004 C 
ENDBRANCH   3   4
ENDBRANCH   2   3
ENDBRANCH   1   2
BRANCH   1   6
ATOM      6  C   UNL     1       2.646   2.623  11.809  1.00  0.00     0.002 C 
BRANCH   6   7
ATOM      7  C   UNL     1       1.801   1.416  12.237  1.00  0.00     0.028 C 
BRANCH   7   8
ATOM      8  C   UNL     1       2.598   0.117  12.127  1.00  0.00     0.156 C 
BRANCH   8   9
ATOM      9  O   UNL     1       1.880  -0.922  12.731  1.00  0.00    -0.396 OA
ATOM     10  H   UNL     1       2.447  -1.250  13.476  1.00  0.00     0.210 HD
ENDBRANCH   8   9
ENDBRANCH   7   8
ENDBRANCH   6   7
ENDBRANCH   1   6
TORSDOF 7
ENDMDL
MODEL 2
REMARK VINA RESULT:    -4.228      3.768      6.077
REMARK INTER + INTRA:          -6.080
REMARK INTER:                  -5.906
REMARK INTRA:                  -0.174
REMARK UNBOUND:                -0.245
REMARK SMILES CCCCCCCCO
REMARK SMILES IDX 5 1 4 2 3 3 2 4 1 5 6 6 7 7 8 8 9 9
REMARK H PARENT 9 10
REMARK Flexibility Score: inf
ROOT
ATOM      1  C   UNL     1       5.821   5.141  12.975  1.00  0.00     0.000 C 
ENDROOT
BRANCH   1   2
ATOM      2  C   UNL     1       4.571   4.375  12.521  1.00  0.00    -0.000 C 
BRANCH   2   3
ATOM      3  C   UNL     1       4.951   3.048  11.854  1.00  0.00    -0.000 C 
BRANCH   3   4
ATOM      4  C   UNL     1       3.799   2.515  10.995  1.00  0.00    -0.003 C 
ATOM      5  C   UNL     1       2.513   2.399  11.808  1.00  0.00     0.004 C 
ENDBRANCH   3   4
ENDBRANCH   2   3
ENDBRANCH   1   2
BRANCH   1   6
ATOM      6  C   UNL     1       6.047   4.980  14.482  1.00  0.00     0.002 C 
BRANCH   6   7
ATOM      7  C   UNL     1       6.873   6.146  15.042  1.00  0.00     0.028 C 
BRANCH   7   8
ATOM      8  C   UNL     1       7.270   7.122  13.936  1.00  0.00     0.156 C 
BRANCH   8   9
ATOM      9  O   UNL     1       7.104   8.435  14.393  1.00  0.00    -0.396 OA
ATOM     10  H   UNL     1       6.489   8.874  13.750  1.00  0.00     0.210 HD
ENDBRANCH   8   9
ENDBRANCH   7   8
ENDBRANCH   6   7
ENDBRANCH   1   6
TORSDOF 7
ENDMDL
MODEL 3
REMARK VINA RESULT:    -4.221      1.525      1.765
REMARK INTER + INTRA:          -6.070
REMARK INTER:                  -5.939
REMARK INTRA:                  -0.132
REMARK UNBOUND:                -0.245
REMARK SMILES CCCCCCCCO
REMARK SMILES IDX 5 1 4 2 3 3 2 4 1 5 6 6 7 7 8 8 9 9
REMARK H PARENT 9 10
REMARK Flexibility Score: inf
ROOT
ATOM      1  C   UNL     1       3.246   2.915  11.855  1.00  0.00     0.000 C 
ENDROOT
BRANCH   1   2
ATOM      2  C   UNL     1       4.745   3.238  11.868  1.00  0.00    -0.000 C 
BRANCH   2   3
ATOM      3  C   UNL     1       5.008   4.607  12.508  1.00  0.00    -0.000 C 
BRANCH   3   4
ATOM      4  C   UNL     1       5.827   4.464  13.795  1.00  0.00    -0.003 C 
ATOM      5  C   UNL     1       6.392   5.810  14.241  1.00  0.00     0.004 C 
ENDBRANCH   3   4
ENDBRANCH   2   3
ENDBRANCH   1   2
BRANCH   1   6
ATOM      6  C   UNL     1       3.009   1.409  11.696  1.00  0.00     0.002 C 
BRANCH   6   7
ATOM      7  C   UNL     1       1.619   1.013  12.209  1.00  0.00     0.028 C 
BRANCH   7   8
ATOM      8  C   UNL     1       0.577   2.073  11.854  1.00  0.00     0.156 C 
BRANCH   8   9
ATOM      9  O   UNL     1      -0.496   1.990  12.750  1.00  0.00    -0.396 OA
ATOM     10  H   UNL     1      -0.613   2.902  13.123  1.00  0.00     0.210 HD
ENDBRANCH   8   9
ENDBRANCH   7   8
ENDBRANCH   6   7
ENDBRANCH   1   6
TORSDOF 7
ENDMDL
MODEL 4
REMARK VINA RESULT:    -4.171      3.237      5.526
REMARK INTER + INTRA:          -6.000
REMARK INTER:                  -5.829
REMARK INTRA:                  -0.171
REMARK UNBOUND:                -0.245
REMARK SMILES CCCCCCCCO
REMARK SMILES IDX 5 1 4 2 3 3 2 4 1 5 6 6 7 7 8 8 9 9
REMARK H PARENT 9 10
REMARK Flexibility Score: inf
ROOT
ATOM      1  C   UNL     1       4.544   4.353  12.507  1.00  0.00     0.000 C 
ENDROOT
BRANCH   1   2
ATOM      2  C   UNL     1       4.944   3.037  11.826  1.00  0.00    -0.000 C 
BRANCH   2   3
ATOM      3  C   UNL     1       3.792   2.485  10.977  1.00  0.00    -0.000 C 
BRANCH   3   4
ATOM      4  C   UNL     1       2.534   2.278  11.827  1.00  0.00    -0.003 C 
ATOM      5  C   UNL     1       2.255   0.793  12.044  1.00  0.00     0.004 C 
ENDBRANCH   3   4
ENDBRANCH   2   3
ENDBRANCH   1   2
BRANCH   1   6
ATOM      6  C   UNL     1       5.781   5.125  12.980  1.00  0.00     0.002 C 
BRANCH   6   7
ATOM      7  C   UNL     1       6.069   4.849  14.461  1.00  0.00     0.028 C 
BRANCH   7   8
ATOM      8  C   UNL     1       6.960   5.936  15.062  1.00  0.00     0.156 C 
BRANCH   8   9
ATOM      9  O   UNL     1       6.420   7.195  14.770  1.00  0.00    -0.396 OA
ATOM     10  H   UNL     1       5.813   7.060  13.996  1.00  0.00     0.210 HD
ENDBRANCH   8   9
ENDBRANCH   7   8
ENDBRANCH   6   7
ENDBRANCH   1   6
TORSDOF 7
ENDMDL
MODEL 5
REMARK VINA RESULT:    -4.125      2.883      4.324
REMARK INTER + INTRA:          -5.937
REMARK INTER:                  -5.630
REMARK INTRA:                  -0.307
REMARK UNBOUND:                -0.245
REMARK SMILES CCCCCCCCO
REMARK SMILES IDX 5 1 4 2 3 3 2 4 1 5 6 6 7 7 8 8 9 9
REMARK H PARENT 9 10
REMARK Flexibility Score: inf
ROOT
ATOM      1  C   UNL     1       6.062   4.676  14.554  1.00  0.00     0.000 C 
ENDROOT
BRANCH   1   2
ATOM      2  C   UNL     1       6.839   5.842  15.179  1.00  0.00    -0.000 C 
BRANCH   2   3
ATOM      3  C   UNL     1       6.889   7.043  14.228  1.00  0.00    -0.000 C 
BRANCH   3   4
ATOM      4  C   UNL     1       8.336   7.393  13.862  1.00  0.00    -0.003 C 
ATOM      5  C   UNL     1       8.526   7.440  12.349  1.00  0.00     0.004 C 
ENDBRANCH   3   4
ENDBRANCH   2   3
ENDBRANCH   1   2
BRANCH   1   6
ATOM      6  C   UNL     1       5.605   5.020  13.132  1.00  0.00     0.002 C 
BRANCH   6   7
ATOM      7  C   UNL     1       4.921   3.818  12.468  1.00  0.00     0.028 C 
BRANCH   7   8
ATOM      8  C   UNL     1       5.817   3.195  11.398  1.00  0.00     0.156 C 
BRANCH   8   9
ATOM      9  O   UNL     1       6.223   1.922  11.816  1.00  0.00    -0.396 OA
ATOM     10  H   UNL     1       5.392   1.395  11.939  1.00  0.00     0.210 HD
ENDBRANCH   8   9
ENDBRANCH   7   8
ENDBRANCH   6   7
ENDBRANCH   1   6
TORSDOF 7
ENDMDL
MODEL 6
REMARK VINA RESULT:    -3.943      2.642      3.633
REMARK INTER + INTRA:          -5.687
REMARK INTER:                  -5.417
REMARK INTRA:                  -0.270
REMARK UNBOUND:                -0.245
REMARK SMILES CCCCCCCCO
REMARK SMILES IDX 5 1 4 2 3 3 2 4 1 5 6 6 7 7 8 8 9 9
REMARK H PARENT 9 10
REMARK Flexibility Score: inf
ROOT
ATOM      1  C   UNL     1       5.806   5.141  12.243  1.00  0.00     0.000 C 
ENDROOT
BRANCH   1   2
ATOM      2  C   UNL     1       6.305   5.836  13.516  1.00  0.00    -0.000 C 
BRANCH   2   3
ATOM      3  C   UNL     1       6.138   4.928  14.741  1.00  0.00    -0.000 C 
BRANCH   3   4
ATOM      4  C   UNL     1       6.635   5.624  16.012  1.00  0.00    -0.003 C 
ATOM      5  C   UNL     1       7.438   6.878  15.676  1.00  0.00     0.004 C 
ENDBRANCH   3   4
ENDBRANCH   2   3
ENDBRANCH   1   2
BRANCH   1   6
ATOM      6  C   UNL     1       4.586   4.261  12.539  1.00  0.00     0.002 C 
BRANCH   6   7
ATOM      7  C   UNL     1       4.699   2.906  11.830  1.00  0.00     0.028 C 
BRANCH   7   8
ATOM      8  C   UNL     1       6.150   2.595  11.463  1.00  0.00     0.156 C 
BRANCH   8   9
ATOM      9  O   UNL     1       6.803   2.046  12.573  1.00  0.00    -0.396 OA
ATOM     10  H   UNL     1       6.445   2.522  13.366  1.00  0.00     0.210 HD
ENDBRANCH   8   9
ENDBRANCH   7   8
ENDBRANCH   6   7
ENDBRANCH   1   6
TORSDOF 7
ENDMDL
MODEL 7
REMARK VINA RESULT:    -3.905      0.950      1.533
REMARK INTER + INTRA:          -5.633
REMARK INTER:                  -5.457
REMARK INTRA:                  -0.177
REMARK UNBOUND:                -0.245
REMARK SMILES CCCCCCCCO
REMARK SMILES IDX 5 1 4 2 3 3 2 4 1 5 6 6 7 7 8 8 9 9
REMARK H PARENT 9 10
REMARK Flexibility Score: inf
ROOT
ATOM      1  C   UNL     1       5.160   3.143  11.683  1.00  0.00     0.000 C 
ENDROOT
BRANCH   1   2
ATOM      2  C   UNL     1       4.598   4.267  12.563  1.00  0.00    -0.000 C 
BRANCH   2   3
ATOM      3  C   UNL     1       5.724   5.141  13.126  1.00  0.00    -0.000 C 
BRANCH   3   4
ATOM      4  C   UNL     1       6.068   4.735  14.564  1.00  0.00    -0.003 C 
ATOM      5  C   UNL     1       6.831   5.844  15.282  1.00  0.00     0.004 C 
ENDBRANCH   3   4
ENDBRANCH   2   3
ENDBRANCH   1   2
BRANCH   1   6
ATOM      6  C   UNL     1       4.048   2.475  10.867  1.00  0.00     0.002 C 
BRANCH   6   7
ATOM      7  C   UNL     1       2.839   2.145  11.751  1.00  0.00     0.028 C 
BRANCH   7   8
ATOM      8  C   UNL     1       2.585   0.639  11.801  1.00  0.00     0.156 C 
BRANCH   8   9
ATOM      9  O   UNL     1       3.778  -0.023  12.115  1.00  0.00    -0.396 OA
ATOM     10  H   UNL     1       4.498   0.654  12.033  1.00  0.00     0.210 HD
ENDBRANCH   8   9
ENDBRANCH   7   8
ENDBRANCH   6   7
ENDBRANCH   1   6
TORSDOF 7
ENDMDL
MODEL 8
REMARK VINA RESULT:    -3.658      2.601      4.883
REMARK INTER + INTRA:          -5.293
REMARK INTER:                  -5.009
REMARK INTRA:                  -0.284
REMARK UNBOUND:                -0.245
REMARK SMILES CCCCCCCCO
REMARK SMILES IDX 5 1 4 2 3 3 2 4 1 5 6 6 7 7 8 8 9 9
REMARK H PARENT 9 10
REMARK Flexibility Score: inf
ROOT
ATOM      1  C   UNL     1       3.735   3.215  12.007  1.00  0.00     0.000 C 
ENDROOT
BRANCH   1   2
ATOM      2  C   UNL     1       3.374   2.311  10.820  1.00  0.00    -0.000 C 
BRANCH   2   3
ATOM      3  C   UNL     1       2.452   1.168  11.261  1.00  0.00    -0.000 C 
BRANCH   3   4
ATOM      4  C   UNL     1       1.363   1.676  12.212  1.00  0.00    -0.003 C 
ATOM      5  C   UNL     1       0.204   2.300  11.441  1.00  0.00     0.004 C 
ENDBRANCH   3   4
ENDBRANCH   2   3
ENDBRANCH   1   2
BRANCH   1   6
ATOM      6  C   UNL     1       5.217   3.605  11.969  1.00  0.00     0.002 C 
BRANCH   6   7
ATOM      7  C   UNL     1       5.593   4.206  10.608  1.00  0.00     0.028 C 
BRANCH   7   8
ATOM      8  C   UNL     1       6.908   3.623  10.092  1.00  0.00     0.156 C 
BRANCH   8   9
ATOM      9  O   UNL     1       6.755   2.249   9.876  1.00  0.00    -0.396 OA
ATOM     10  H   UNL     1       7.634   1.838  10.086  1.00  0.00     0.210 HD
ENDBRANCH   8   9
ENDBRANCH   7   8
ENDBRANCH   6   7
ENDBRANCH   1   6
TORSDOF 7
ENDMDL
