MODEL 1
REMARK VINA RESULT:     2.808      0.000      0.000
REMARK INTER + INTRA:           3.274
REMARK INTER:                   3.301
REMARK INTRA:                  -0.027
REMARK UNBOUND:                -0.027
REMARK SMILES CCCCC(=O)[O-]
REMARK SMILES IDX 4 1 5 2 6 3 7 4 3 5 2 6 1 7
REMARK H PARENT
REMARK Flexibility Score: inf
ROOT
ATOM      1  C   UNL     1      -0.871  -9.094  25.630  1.00  0.00     0.053 C 
ENDROOT
BRANCH   1   2
ATOM      2  C   UNL     1       0.275  -8.453  26.347  1.00  0.00     0.041 C 
ATOM      3  O   UNL     1       0.995  -9.133  27.125  1.00  0.00    -0.550 OA
ATOM      4  O   UNL     1       0.517  -7.093  26.196  1.00  0.00    -0.550 OA
ENDBRANCH   1   2
BRANCH   1   5
ATOM      5  C   UNL     1      -1.259  -8.271  24.397  1.00  0.00     0.006 C 
BRANCH   5   6
ATOM      6  C   UNL     1      -2.762  -8.380  24.115  1.00  0.00    -0.003 C 
ATOM      7  C   UNL     1      -3.229  -7.272  23.176  1.00  0.00     0.004 C 
ENDBRANCH   5   6
ENDBRANCH   1   5
TORSDOF 3
ENDMDL
MODEL 2
REMARK VINA RESULT:     3.208      2.643      4.043
REMARK INTER + INTRA:           3.744
REMARK INTER:                   3.779
REMARK INTRA:                  -0.035
REMARK UNBOUND:                -0.027
REMARK SMILES CCCCC(=O)[O-]
REMARK SMILES IDX 4 1 5 2 6 3 7 4 3 5 2 6 1 7
REMARK H PARENT
REMARK Flexibility Score: inf
ROOT
ATOM      1  C   UNL     1      -1.122  -8.798  25.123  1.00  0.00     0.053 C 
ENDROOT
BRANCH   1   2
ATOM      2  C   UNL     1      -2.278  -8.431  24.246  1.00  0.00     0.041 C 
ATOM      3  O   UNL     1      -2.084  -7.797  23.176  1.00  0.00    -0.550 OA
ATOM      4  O   UNL     1      -3.573  -8.747  24.636  1.00  0.00    -0.550 OA
ENDBRANCH   1   2
BRANCH   1   5
ATOM      5  C   UNL     1      -0.139  -7.628  25.231  1.00  0.00     0.006 C 
BRANCH   5   6
ATOM      6  C   UNL     1       0.632  -7.679  26.555  1.00  0.00    -0.003 C 
ATOM      7  C   UNL     1       0.658  -9.095  27.124  1.00  0.00     0.004 C 
ENDBRANCH   5   6
ENDBRANCH   1   5
TORSDOF 3
ENDMDL
MODEL 3
REMARK VINA RESULT:     4.321      9.830     10.499
REMARK INTER + INTRA:           5.053
REMARK INTER:                   5.094
REMARK INTRA:                  -0.042
REMARK UNBOUND:                -0.027
REMARK SMILES CCCCC(=O)[O-]
REMARK SMILES IDX 4 1 5 2 6 3 7 4 3 5 2 6 1 7
REMARK H PARENT
REMARK Flexibility Score: inf
ROOT
ATOM      1  C   UNL     1      -5.358 -18.070  25.594  1.00  0.00     0.053 C 
ENDROOT
BRANCH   1   2
ATOM      2  C   UNL     1      -5.493 -18.268  24.118  1.00  0.00     0.041 C 
ATOM      3  O   UNL     1      -4.689 -17.710  23.327  1.00  0.00    -0.550 OA
ATOM      4  O   UNL     1      -6.540 -19.029  23.612  1.00  0.00    -0.550 OA
ENDBRANCH   1   2
BRANCH   1   5
ATOM      5  C   UNL     1      -4.485 -16.846  25.893  1.00  0.00     0.006 C 
BRANCH   5   6
ATOM      6  C   UNL     1      -5.265 -15.799  26.696  1.00  0.00    -0.003 C 
ATOM      7  C   UNL     1      -4.878 -14.383  26.277  1.00  0.00     0.004 C 
ENDBRANCH   5   6
ENDBRANCH   1   5
TORSDOF 3
ENDMDL
MODEL 4
REMARK VINA RESULT:     5.248      9.265      9.796
REMARK INTER + INTRA:           6.141
REMARK INTER:                   6.192
REMARK INTRA:                  -0.051
REMARK UNBOUND:                -0.027
REMARK SMILES CCCCC(=O)[O-]
REMARK SMILES IDX 4 1 5 2 6 3 7 4 3 5 2 6 1 7
REMARK H PARENT
REMARK Flexibility Score: inf
ROOT
ATOM      1  C   UNL     1      -4.410 -16.956  25.480  1.00  0.00     0.053 C 
ENDROOT
BRANCH   1   2
ATOM      2  C   UNL     1      -4.969 -15.746  26.159  1.00  0.00     0.041 C 
ATOM      3  O   UNL     1      -5.766 -15.874  27.125  1.00  0.00    -0.550 OA
ATOM      4  O   UNL     1      -4.650 -14.477  25.692  1.00  0.00    -0.550 OA
ENDBRANCH   1   2
BRANCH   1   5
ATOM      5  C   UNL     1      -5.378 -18.137  25.604  1.00  0.00     0.006 C 
BRANCH   5   6
ATOM      6  C   UNL     1      -5.824 -18.629  24.222  1.00  0.00    -0.003 C 
ATOM      7  C   UNL     1      -5.252 -17.750  23.113  1.00  0.00     0.004 C 
ENDBRANCH   5   6
ENDBRANCH   1   5
TORSDOF 3
ENDMDL
