MODEL 1
REMARK VINA RESULT:    -2.335      0.000      0.000
REMARK INTER + INTRA:          -2.335
REMARK INTER:                  -2.335
REMARK INTRA:                   0.000
REMARK UNBOUND:                 0.000
REMARK SMILES CC(=O)[O-]
REMARK SMILES IDX 1 1 2 2 3 3 4 4
REMARK H PARENT
REMARK Flexibility Score: inf
ROOT
ATOM      1  C   UNL     1       7.795 125.297 111.189  1.00  0.00     0.063 C 
ATOM      2  C   UNL     1       8.047 124.057 111.976  1.00  0.00     0.038 C 
ATOM      3  O   UNL     1       9.100 123.942 112.656  1.00  0.00    -0.550 OA
ATOM      4  O   UNL     1       7.094 123.045 112.004  1.00  0.00    -0.550 OA
ENDROOT
TORSDOF 0
ENDMDL
MODEL 2
REMARK VINA RESULT:    -2.301      0.372      1.653
REMARK INTER + INTRA:          -2.301
REMARK INTER:                  -2.301
REMARK INTRA:                   0.000
REMARK UNBOUND:                 0.000
REMARK SMILES CC(=O)[O-]
REMARK SMILES IDX 1 1 2 2 3 3 4 4
REMARK H PARENT
REMARK Flexibility Score: inf
ROOT
ATOM      1  C   UNL     1       8.190 124.905 110.977  1.00  0.00     0.063 C 
ATOM      2  C   UNL     1       8.088 123.879 112.053  1.00  0.00     0.038 C 
ATOM      3  O   UNL     1       7.118 123.077 112.072  1.00  0.00    -0.550 OA
ATOM      4  O   UNL     1       9.092 123.770 113.008  1.00  0.00    -0.550 OA
ENDROOT
TORSDOF 0
ENDMDL
MODEL 3
REMARK VINA RESULT:    -2.258      7.088      7.490
REMARK INTER + INTRA:          -2.258
REMARK INTER:                  -2.258
REMARK INTRA:                   0.000
REMARK UNBOUND:                 0.000
REMARK SMILES CC(=O)[O-]
REMARK SMILES IDX 1 1 2 2 3 3 4 4
REMARK H PARENT
REMARK Flexibility Score: inf
ROOT
ATOM      1  C   UNL     1       5.882 130.546 114.168  1.00  0.00     0.063 C 
ATOM      2  C   UNL     1       7.277 130.824 114.613  1.00  0.00     0.038 C 
ATOM      3  O   UNL     1       8.241 130.640 113.824  1.00  0.00    -0.550 OA
ATOM      4  O   UNL     1       7.514 131.339 115.882  1.00  0.00    -0.550 OA
ENDROOT
TORSDOF 0
ENDMDL
MODEL 4
REMARK VINA RESULT:    -2.253      1.883      2.098
REMARK INTER + INTRA:          -2.253
REMARK INTER:                  -2.253
REMARK INTRA:                   0.000
REMARK UNBOUND:                 0.000
REMARK SMILES CC(=O)[O-]
REMARK SMILES IDX 1 1 2 2 3 3 4 4
REMARK H PARENT
REMARK Flexibility Score: inf
ROOT
ATOM      1  C   UNL     1       7.797 124.862 109.483  1.00  0.00     0.063 C 
ATOM      2  C   UNL     1       8.038 125.161 110.923  1.00  0.00     0.038 C 
ATOM      3  O   UNL     1       8.826 124.446 111.595  1.00  0.00    -0.550 OA
ATOM      4  O   UNL     1       7.434 126.264 111.515  1.00  0.00    -0.550 OA
ENDROOT
TORSDOF 0
ENDMDL
MODEL 5
REMARK VINA RESULT:    -2.238      7.142      7.504
REMARK INTER + INTRA:          -2.238
REMARK INTER:                  -2.238
REMARK INTRA:                   0.000
REMARK UNBOUND:                 0.000
REMARK SMILES CC(=O)[O-]
REMARK SMILES IDX 1 1 2 2 3 3 4 4
REMARK H PARENT
REMARK Flexibility Score: inf
ROOT
ATOM      1  C   UNL     1       5.836 130.630 114.354  1.00  0.00     0.063 C 
ATOM      2  C   UNL     1       7.266 130.888 114.684  1.00  0.00     0.038 C 
ATOM      3  O   UNL     1       7.585 131.313 115.825  1.00  0.00    -0.550 OA
ATOM      4  O   UNL     1       8.257 130.610 113.750  1.00  0.00    -0.550 OA
ENDROOT
TORSDOF 0
ENDMDL
MODEL 6
REMARK VINA RESULT:    -2.173     10.388     10.944
REMARK INTER + INTRA:          -2.173
REMARK INTER:                  -2.173
REMARK INTRA:                   0.000
REMARK UNBOUND:                 0.000
REMARK SMILES CC(=O)[O-]
REMARK SMILES IDX 1 1 2 2 3 3 4 4
REMARK H PARENT
REMARK Flexibility Score: inf
ROOT
ATOM      1  C   UNL     1      14.882 124.888 121.670  1.00  0.00     0.063 C 
ATOM      2  C   UNL     1      14.577 125.488 120.340  1.00  0.00     0.038 C 
ATOM      3  O   UNL     1      14.244 126.699 120.254  1.00  0.00    -0.550 OA
ATOM      4  O   UNL     1      14.713 124.727 119.185  1.00  0.00    -0.550 OA
ENDROOT
TORSDOF 0
ENDMDL
MODEL 7
REMARK VINA RESULT:    -2.158     10.037     10.375
REMARK INTER + INTRA:          -2.158
REMARK INTER:                  -2.158
REMARK INTRA:                   0.000
REMARK UNBOUND:                 0.000
REMARK SMILES CC(=O)[O-]
REMARK SMILES IDX 1 1 2 2 3 3 4 4
REMARK H PARENT
REMARK Flexibility Score: inf
ROOT
ATOM      1  C   UNL     1      12.828 124.941 120.626  1.00  0.00     0.063 C 
ATOM      2  C   UNL     1      14.092 125.443 120.018  1.00  0.00     0.038 C 
ATOM      3  O   UNL     1      14.759 124.706 119.245  1.00  0.00    -0.550 OA
ATOM      4  O   UNL     1      14.512 126.746 120.260  1.00  0.00    -0.550 OA
ENDROOT
TORSDOF 0
ENDMDL
MODEL 8
REMARK VINA RESULT:    -1.880      8.768      9.258
REMARK INTER + INTRA:          -1.880
REMARK INTER:                  -1.880
REMARK INTRA:                   0.000
REMARK UNBOUND:                 0.000
REMARK SMILES CC(=O)[O-]
REMARK SMILES IDX 1 1 2 2 3 3 4 4
REMARK H PARENT
REMARK Flexibility Score: inf
ROOT
ATOM      1  C   UNL     1      12.336 125.094 119.682  1.00  0.00     0.063 C 
ATOM      2  C   UNL     1      13.479 124.279 119.183  1.00  0.00     0.038 C 
ATOM      3  O   UNL     1      13.270 123.164 118.636  1.00  0.00    -0.550 OA
ATOM      4  O   UNL     1      14.776 124.770 119.271  1.00  0.00    -0.550 OA
ENDROOT
TORSDOF 0
ENDMDL
MODEL 9
REMARK VINA RESULT:    -1.818      8.438      8.468
REMARK INTER + INTRA:          -1.818
REMARK INTER:                  -1.818
REMARK INTRA:                   0.000
REMARK UNBOUND:                 0.000
REMARK SMILES CC(=O)[O-]
REMARK SMILES IDX 1 1 2 2 3 3 4 4
REMARK H PARENT
REMARK Flexibility Score: inf
ROOT
ATOM      1  C   UNL     1       5.223 131.618 115.263  1.00  0.00     0.063 C 
ATOM      2  C   UNL     1       6.304 131.136 116.169  1.00  0.00     0.038 C 
ATOM      3  O   UNL     1       7.507 131.413 115.921  1.00  0.00    -0.550 OA
ATOM      4  O   UNL     1       5.983 130.424 117.319  1.00  0.00    -0.550 OA
ENDROOT
TORSDOF 0
ENDMDL
