MODEL 1
REMARK VINA RESULT:    -5.996      0.000      0.000
REMARK INTER + INTRA:         -12.900
REMARK INTER:                 -11.254
REMARK INTRA:                  -1.646
REMARK UNBOUND:                -1.646
REMARK SMILES CCCCCCCCC=CCCCCCCCC(=O)[O-]
REMARK SMILES IDX 10 1 9 2 11 3 12 4 13 5 14 6 15 7 16 8 17 9 18 10 19 11
REMARK SMILES IDX 20 12 8 13 7 14 6 15 5 16 4 17 3 18 2 19 1 20
REMARK H PARENT
REMARK Flexibility Score: inf
ROOT
ATOM      1  C   UNL     1      -4.268  10.347 -18.271  1.00  0.00    -0.031 C 
ATOM      2  C   UNL     1      -3.925  11.545 -18.766  1.00  0.00    -0.031 C 
ENDROOT
BRANCH   1   3
ATOM      3  C   UNL     1      -3.397   9.626 -17.278  1.00  0.00     0.027 C 
BRANCH   3   4
ATOM      4  C   UNL     1      -2.274   8.820 -17.954  1.00  0.00     0.004 C 
BRANCH   4   5
ATOM      5  C   UNL     1      -0.990   9.627 -18.231  1.00  0.00     0.000 C 
BRANCH   5   6
ATOM      6  C   UNL     1       0.322   8.823 -18.131  1.00  0.00     0.000 C 
BRANCH   6   7
ATOM      7  C   UNL     1       0.403   7.591 -19.050  1.00  0.00     0.000 C 
BRANCH   7   8
ATOM      8  C   UNL     1       0.319   6.264 -18.277  1.00  0.00     0.006 C 
BRANCH   8   9
ATOM      9  C   UNL     1      -0.399   5.171 -19.080  1.00  0.00     0.053 C 
BRANCH   9  10
ATOM     10  C   UNL     1      -1.778   4.908 -18.557  1.00  0.00     0.041 C 
ATOM     11  O   UNL     1      -2.152   5.425 -17.470  1.00  0.00    -0.550 OA
ATOM     12  O   UNL     1      -2.661   4.119 -19.284  1.00  0.00    -0.550 OA
ENDBRANCH   9  10
ENDBRANCH   8   9
ENDBRANCH   7   8
ENDBRANCH   6   7
ENDBRANCH   5   6
ENDBRANCH   4   5
ENDBRANCH   3   4
ENDBRANCH   1   3
BRANCH   2  13
ATOM     13  C   UNL     1      -4.770  12.246 -19.795  1.00  0.00     0.027 C 
BRANCH  13  14
ATOM     14  C   UNL     1      -5.581  11.249 -20.632  1.00  0.00     0.004 C 
BRANCH  14  15
ATOM     15  C   UNL     1      -7.034  11.712 -20.838  1.00  0.00     0.000 C 
BRANCH  15  16
ATOM     16  C   UNL     1      -8.060  10.733 -20.243  1.00  0.00     0.000 C 
BRANCH  16  17
ATOM     17  C   UNL     1      -7.923  10.594 -18.717  1.00  0.00    -0.000 C 
BRANCH  17  18
ATOM     18  C   UNL     1      -7.874  11.952 -17.994  1.00  0.00    -0.000 C 
BRANCH  18  19
ATOM     19  C   UNL     1      -7.600  11.874 -16.481  1.00  0.00    -0.003 C 
ATOM     20  C   UNL     1      -7.109  10.498 -16.033  1.00  0.00     0.004 C 
ENDBRANCH  18  19
ENDBRANCH  17  18
ENDBRANCH  16  17
ENDBRANCH  15  16
ENDBRANCH  14  15
ENDBRANCH  13  14
ENDBRANCH   2  13
TORSDOF 15
ENDMDL
MODEL 2
REMARK VINA RESULT:    -5.795      1.015      2.787
REMARK INTER + INTRA:         -12.522
REMARK INTER:                 -11.400
REMARK INTRA:                  -1.122
REMARK UNBOUND:                -1.646
REMARK SMILES CCCCCCCCC=CCCCCCCCC(=O)[O-]
REMARK SMILES IDX 10 1 9 2 11 3 12 4 13 5 14 6 15 7 16 8 17 9 18 10 19 11
REMARK SMILES IDX 20 12 8 13 7 14 6 15 5 16 4 17 3 18 2 19 1 20
REMARK H PARENT
REMARK Flexibility Score: inf
ROOT
ATOM      1  C   UNL     1      -5.115  10.078 -17.357  1.00  0.00    -0.031 C 
ATOM      2  C   UNL     1      -6.128  10.413 -16.546  1.00  0.00    -0.031 C 
ENDROOT
BRANCH   1   3
ATOM      3  C   UNL     1      -3.857   9.445 -16.827  1.00  0.00     0.027 C 
BRANCH   3   4
ATOM      4  C   UNL     1      -2.601   9.897 -17.593  1.00  0.00     0.004 C 
BRANCH   4   5
ATOM      5  C   UNL     1      -1.848   8.757 -18.307  1.00  0.00     0.000 C 
BRANCH   5   6
ATOM      6  C   UNL     1      -0.310   8.877 -18.288  1.00  0.00     0.000 C 
BRANCH   6   7
ATOM      7  C   UNL     1       0.446   7.671 -18.874  1.00  0.00     0.000 C 
BRANCH   7   8
ATOM      8  C   UNL     1       0.267   6.392 -18.039  1.00  0.00     0.006 C 
BRANCH   8   9
ATOM      9  C   UNL     1      -0.350   5.249 -18.856  1.00  0.00     0.053 C 
BRANCH   9  10
ATOM     10  C   UNL     1      -1.762   4.967 -18.445  1.00  0.00     0.041 C 
ATOM     11  O   UNL     1      -2.491   4.220 -19.150  1.00  0.00    -0.550 OA
ATOM     12  O   UNL     1      -2.265   5.504 -17.266  1.00  0.00    -0.550 OA
ENDBRANCH   9  10
ENDBRANCH   8   9
ENDBRANCH   7   8
ENDBRANCH   6   7
ENDBRANCH   5   6
ENDBRANCH   4   5
ENDBRANCH   3   4
ENDBRANCH   1   3
BRANCH   2  13
ATOM     13  C   UNL     1      -7.367  11.091 -17.067  1.00  0.00     0.027 C 
BRANCH  13  14
ATOM     14  C   UNL     1      -7.634  10.727 -18.533  1.00  0.00     0.004 C 
BRANCH  14  15
ATOM     15  C   UNL     1      -7.190  11.843 -19.496  1.00  0.00     0.000 C 
BRANCH  15  16
ATOM     16  C   UNL     1      -6.324  11.318 -20.653  1.00  0.00     0.000 C 
BRANCH  16  17
ATOM     17  C   UNL     1      -4.821  11.366 -20.332  1.00  0.00    -0.000 C 
BRANCH  17  18
ATOM     18  C   UNL     1      -4.427  12.594 -19.491  1.00  0.00    -0.000 C 
BRANCH  18  19
ATOM     19  C   UNL     1      -2.939  12.668 -19.104  1.00  0.00    -0.003 C 
ATOM     20  C   UNL     1      -2.477  14.087 -18.773  1.00  0.00     0.004 C 
ENDBRANCH  18  19
ENDBRANCH  17  18
ENDBRANCH  16  17
ENDBRANCH  15  16
ENDBRANCH  14  15
ENDBRANCH  13  14
ENDBRANCH   2  13
TORSDOF 15
ENDMDL
MODEL 3
REMARK VINA RESULT:    -5.689      2.748      7.644
REMARK INTER + INTRA:         -12.323
REMARK INTER:                 -10.817
REMARK INTRA:                  -1.506
REMARK UNBOUND:                -1.646
REMARK SMILES CCCCCCCCC=CCCCCCCCC(=O)[O-]
REMARK SMILES IDX 10 1 9 2 11 3 12 4 13 5 14 6 15 7 16 8 17 9 18 10 19 11
REMARK SMILES IDX 20 12 8 13 7 14 6 15 5 16 4 17 3 18 2 19 1 20
REMARK H PARENT
REMARK Flexibility Score: inf
ROOT
ATOM      1  C   UNL     1      -2.959   9.462 -17.651  1.00  0.00    -0.031 C 
ATOM      2  C   UNL     1      -1.888   9.497 -18.456  1.00  0.00    -0.031 C 
ENDROOT
BRANCH   1   3
ATOM      3  C   UNL     1      -4.216  10.224 -17.978  1.00  0.00     0.027 C 
BRANCH   3   4
ATOM      4  C   UNL     1      -3.992  11.297 -19.057  1.00  0.00     0.004 C 
BRANCH   4   5
ATOM      5  C   UNL     1      -4.842  11.106 -20.329  1.00  0.00     0.000 C 
BRANCH   5   6
ATOM      6  C   UNL     1      -6.199  11.839 -20.324  1.00  0.00     0.000 C 
BRANCH   6   7
ATOM      7  C   UNL     1      -7.435  10.923 -20.300  1.00  0.00     0.000 C 
BRANCH   7   8
ATOM      8  C   UNL     1      -7.972  10.682 -18.878  1.00  0.00     0.006 C 
BRANCH   8   9
ATOM      9  C   UNL     1      -7.586  11.813 -17.915  1.00  0.00     0.053 C 
BRANCH   9  10
ATOM     10  C   UNL     1      -7.681  11.383 -16.483  1.00  0.00     0.041 C 
ATOM     11  O   UNL     1      -7.087  10.342 -16.094  1.00  0.00    -0.550 OA
ATOM     12  O   UNL     1      -8.399  12.147 -15.572  1.00  0.00    -0.550 OA
ENDBRANCH   9  10
ENDBRANCH   8   9
ENDBRANCH   7   8
ENDBRANCH   6   7
ENDBRANCH   5   6
ENDBRANCH   4   5
ENDBRANCH   3   4
ENDBRANCH   1   3
BRANCH   2  13
ATOM     13  C   UNL     1      -0.614   8.776 -18.107  1.00  0.00     0.027 C 
BRANCH  13  14
ATOM     14  C   UNL     1      -0.106   7.929 -19.281  1.00  0.00     0.004 C 
BRANCH  14  15
ATOM     15  C   UNL     1       0.912   6.867 -18.830  1.00  0.00     0.000 C 
BRANCH  15  16
ATOM     16  C   UNL     1       0.262   5.501 -18.551  1.00  0.00     0.000 C 
BRANCH  16  17
ATOM     17  C   UNL     1      -0.709   5.074 -19.665  1.00  0.00    -0.000 C 
BRANCH  17  18
ATOM     18  C   UNL     1      -2.024   4.486 -19.120  1.00  0.00    -0.000 C 
BRANCH  18  19
ATOM     19  C   UNL     1      -2.188   4.567 -17.591  1.00  0.00    -0.003 C 
ATOM     20  C   UNL     1      -2.732   5.914 -17.119  1.00  0.00     0.004 C 
ENDBRANCH  18  19
ENDBRANCH  17  18
ENDBRANCH  16  17
ENDBRANCH  15  16
ENDBRANCH  14  15
ENDBRANCH  13  14
ENDBRANCH   2  13
TORSDOF 15
ENDMDL
MODEL 4
REMARK VINA RESULT:    -5.541      2.652      7.710
REMARK INTER + INTRA:         -12.046
REMARK INTER:                 -10.482
REMARK INTRA:                  -1.564
REMARK UNBOUND:                -1.646
REMARK SMILES CCCCCCCCC=CCCCCCCCC(=O)[O-]
REMARK SMILES IDX 10 1 9 2 11 3 12 4 13 5 14 6 15 7 16 8 17 9 18 10 19 11
REMARK SMILES IDX 20 12 8 13 7 14 6 15 5 16 4 17 3 18 2 19 1 20
REMARK H PARENT
REMARK Flexibility Score: inf
ROOT
ATOM      1  C   UNL     1      -2.867  10.762 -18.317  1.00  0.00    -0.031 C 
ATOM      2  C   UNL     1      -3.123   9.531 -17.851  1.00  0.00    -0.031 C 
ENDROOT
BRANCH   1   3
ATOM      3  C   UNL     1      -3.900  11.855 -18.266  1.00  0.00     0.027 C 
BRANCH   3   4
ATOM      4  C   UNL     1      -4.430  12.232 -19.660  1.00  0.00     0.004 C 
BRANCH   4   5
ATOM      5  C   UNL     1      -5.223  11.113 -20.363  1.00  0.00     0.000 C 
BRANCH   5   6
ATOM      6  C   UNL     1      -6.555  11.556 -21.000  1.00  0.00     0.000 C 
BRANCH   6   7
ATOM      7  C   UNL     1      -7.821  11.023 -20.304  1.00  0.00     0.000 C 
BRANCH   7   8
ATOM      8  C   UNL     1      -7.582  10.661 -18.828  1.00  0.00     0.006 C 
BRANCH   8   9
ATOM      9  C   UNL     1      -7.730  11.877 -17.903  1.00  0.00     0.053 C 
BRANCH   9  10
ATOM     10  C   UNL     1      -7.541  11.508 -16.463  1.00  0.00     0.041 C 
ATOM     11  O   UNL     1      -8.111  12.174 -15.559  1.00  0.00    -0.550 OA
ATOM     12  O   UNL     1      -6.761  10.410 -16.121  1.00  0.00    -0.550 OA
ENDBRANCH   9  10
ENDBRANCH   8   9
ENDBRANCH   7   8
ENDBRANCH   6   7
ENDBRANCH   5   6
ENDBRANCH   4   5
ENDBRANCH   3   4
ENDBRANCH   1   3
BRANCH   2  13
ATOM     13  C   UNL     1      -2.108   8.424 -17.946  1.00  0.00     0.027 C 
BRANCH  13  14
ATOM     14  C   UNL     1      -0.781   8.924 -18.530  1.00  0.00     0.004 C 
BRANCH  14  15
ATOM     15  C   UNL     1       0.097   7.770 -19.045  1.00  0.00     0.000 C 
BRANCH  15  16
ATOM     16  C   UNL     1       0.620   6.871 -17.912  1.00  0.00     0.000 C 
BRANCH  16  17
ATOM     17  C   UNL     1       0.208   5.399 -18.092  1.00  0.00    -0.000 C 
BRANCH  17  18
ATOM     18  C   UNL     1      -0.492   5.133 -19.437  1.00  0.00    -0.000 C 
BRANCH  18  19
ATOM     19  C   UNL     1      -1.887   4.493 -19.330  1.00  0.00    -0.003 C 
ATOM     20  C   UNL     1      -2.552   4.732 -17.975  1.00  0.00     0.004 C 
ENDBRANCH  18  19
ENDBRANCH  17  18
ENDBRANCH  16  17
ENDBRANCH  15  16
ENDBRANCH  14  15
ENDBRANCH  13  14
ENDBRANCH   2  13
TORSDOF 15
ENDMDL
MODEL 5
REMARK VINA RESULT:    -5.156      3.159      7.434
REMARK INTER + INTRA:         -11.322
REMARK INTER:                 -10.239
REMARK INTRA:                  -1.084
REMARK UNBOUND:                -1.646
REMARK SMILES CCCCCCCCC=CCCCCCCCC(=O)[O-]
REMARK SMILES IDX 10 1 9 2 11 3 12 4 13 5 14 6 15 7 16 8 17 9 18 10 19 11
REMARK SMILES IDX 20 12 8 13 7 14 6 15 5 16 4 17 3 18 2 19 1 20
REMARK H PARENT
REMARK Flexibility Score: inf
ROOT
ATOM      1  C   UNL     1      -6.008  10.373 -16.409  1.00  0.00    -0.031 C 
ATOM      2  C   UNL     1      -5.079  10.005 -17.302  1.00  0.00    -0.031 C 
ENDROOT
BRANCH   1   3
ATOM      3  C   UNL     1      -7.311  10.993 -16.837  1.00  0.00     0.027 C 
BRANCH   3   4
ATOM      4  C   UNL     1      -7.661  10.679 -18.301  1.00  0.00     0.004 C 
BRANCH   4   5
ATOM      5  C   UNL     1      -7.266  11.786 -19.300  1.00  0.00     0.000 C 
BRANCH   5   6
ATOM      6  C   UNL     1      -6.436  11.309 -20.509  1.00  0.00     0.000 C 
BRANCH   6   7
ATOM      7  C   UNL     1      -4.910  11.395 -20.327  1.00  0.00     0.000 C 
BRANCH   7   8
ATOM      8  C   UNL     1      -4.475  12.623 -19.509  1.00  0.00     0.006 C 
BRANCH   8   9
ATOM      9  C   UNL     1      -3.018  12.518 -19.039  1.00  0.00     0.053 C 
BRANCH   9  10
ATOM     10  C   UNL     1      -2.375  13.865 -18.909  1.00  0.00     0.041 C 
ATOM     11  O   UNL     1      -2.848  14.718 -18.112  1.00  0.00    -0.550 OA
ATOM     12  O   UNL     1      -1.236  14.167 -19.645  1.00  0.00    -0.550 OA
ENDBRANCH   9  10
ENDBRANCH   8   9
ENDBRANCH   7   8
ENDBRANCH   6   7
ENDBRANCH   5   6
ENDBRANCH   4   5
ENDBRANCH   3   4
ENDBRANCH   1   3
BRANCH   2  13
ATOM     13  C   UNL     1      -3.756   9.430 -16.874  1.00  0.00     0.027 C 
BRANCH  13  14
ATOM     14  C   UNL     1      -2.687   9.607 -17.960  1.00  0.00     0.004 C 
BRANCH  14  15
ATOM     15  C   UNL     1      -1.830   8.341 -18.140  1.00  0.00     0.000 C 
BRANCH  15  16
ATOM     16  C   UNL     1      -0.341   8.659 -18.355  1.00  0.00     0.000 C 
BRANCH  16  17
ATOM     17  C   UNL     1       0.413   7.506 -19.041  1.00  0.00    -0.000 C 
BRANCH  17  18
ATOM     18  C   UNL     1       0.210   6.153 -18.334  1.00  0.00    -0.000 C 
BRANCH  18  19
ATOM     19  C   UNL     1      -0.516   5.085 -19.170  1.00  0.00    -0.003 C 
ATOM     20  C   UNL     1      -1.841   4.641 -18.553  1.00  0.00     0.004 C 
ENDBRANCH  18  19
ENDBRANCH  17  18
ENDBRANCH  16  17
ENDBRANCH  15  16
ENDBRANCH  14  15
ENDBRANCH  13  14
ENDBRANCH   2  13
TORSDOF 15
ENDMDL
MODEL 6
REMARK VINA RESULT:    -5.113      4.104      6.086
REMARK INTER + INTRA:         -11.242
REMARK INTER:                 -10.265
REMARK INTRA:                  -0.977
REMARK UNBOUND:                -1.646
REMARK SMILES CCCCCCCCC=CCCCCCCCC(=O)[O-]
REMARK SMILES IDX 10 1 9 2 11 3 12 4 13 5 14 6 15 7 16 8 17 9 18 10 19 11
REMARK SMILES IDX 20 12 8 13 7 14 6 15 5 16 4 17 3 18 2 19 1 20
REMARK H PARENT
REMARK Flexibility Score: inf
ROOT
ATOM      1  C   UNL     1      -3.827  12.125 -19.118  1.00  0.00    -0.031 C 
ATOM      2  C   UNL     1      -2.759  12.753 -18.605  1.00  0.00    -0.031 C 
ENDROOT
BRANCH   1   3
ATOM      3  C   UNL     1      -4.204  10.733 -18.690  1.00  0.00     0.027 C 
BRANCH   3   4
ATOM      4  C   UNL     1      -3.267  10.175 -17.605  1.00  0.00     0.004 C 
BRANCH   4   5
ATOM      5  C   UNL     1      -2.538   8.875 -18.002  1.00  0.00     0.000 C 
BRANCH   5   6
ATOM      6  C   UNL     1      -1.024   9.025 -18.253  1.00  0.00     0.000 C 
BRANCH   6   7
ATOM      7  C   UNL     1      -0.372   7.862 -19.022  1.00  0.00     0.000 C 
BRANCH   7   8
ATOM      8  C   UNL     1       0.112   6.732 -18.096  1.00  0.00     0.006 C 
BRANCH   8   9
ATOM      9  C   UNL     1      -0.304   5.346 -18.608  1.00  0.00     0.053 C 
BRANCH   9  10
ATOM     10  C   UNL     1      -1.741   5.049 -18.307  1.00  0.00     0.041 C 
ATOM     11  O   UNL     1      -2.275   5.500 -17.259  1.00  0.00    -0.550 OA
ATOM     12  O   UNL     1      -2.499   4.300 -19.199  1.00  0.00    -0.550 OA
ENDBRANCH   9  10
ENDBRANCH   8   9
ENDBRANCH   7   8
ENDBRANCH   6   7
ENDBRANCH   5   6
ENDBRANCH   4   5
ENDBRANCH   3   4
ENDBRANCH   1   3
BRANCH   2  13
ATOM     13  C   UNL     1      -2.352  14.126 -19.067  1.00  0.00     0.027 C 
BRANCH  13  14
ATOM     14  C   UNL     1      -1.798  14.969 -17.912  1.00  0.00     0.004 C 
BRANCH  14  15
ATOM     15  C   UNL     1      -1.293  16.343 -18.387  1.00  0.00     0.000 C 
BRANCH  15  16
ATOM     16  C   UNL     1       0.214  16.349 -18.692  1.00  0.00     0.000 C 
BRANCH  16  17
ATOM     17  C   UNL     1       0.661  17.626 -19.423  1.00  0.00    -0.000 C 
BRANCH  17  18
ATOM     18  C   UNL     1       1.603  17.339 -20.608  1.00  0.00    -0.000 C 
BRANCH  18  19
ATOM     19  C   UNL     1       1.987  15.859 -20.789  1.00  0.00    -0.003 C 
ATOM     20  C   UNL     1       1.612  15.309 -22.164  1.00  0.00     0.004 C 
ENDBRANCH  18  19
ENDBRANCH  17  18
ENDBRANCH  16  17
ENDBRANCH  15  16
ENDBRANCH  14  15
ENDBRANCH  13  14
ENDBRANCH   2  13
TORSDOF 15
ENDMDL
MODEL 7
REMARK VINA RESULT:    -5.036      2.472      7.625
REMARK INTER + INTRA:         -11.098
REMARK INTER:                 -10.049
REMARK INTRA:                  -1.049
REMARK UNBOUND:                -1.646
REMARK SMILES CCCCCCCCC=CCCCCCCCC(=O)[O-]
REMARK SMILES IDX 10 1 9 2 11 3 12 4 13 5 14 6 15 7 16 8 17 9 18 10 19 11
REMARK SMILES IDX 20 12 8 13 7 14 6 15 5 16 4 17 3 18 2 19 1 20
REMARK H PARENT
REMARK Flexibility Score: inf
ROOT
ATOM      1  C   UNL     1      -4.092   9.574 -17.188  1.00  0.00    -0.031 C 
ATOM      2  C   UNL     1      -3.073   9.599 -18.059  1.00  0.00    -0.031 C 
ENDROOT
BRANCH   1   3
ATOM      3  C   UNL     1      -5.191  10.602 -17.231  1.00  0.00     0.027 C 
BRANCH   3   4
ATOM      4  C   UNL     1      -6.355  10.261 -16.284  1.00  0.00     0.004 C 
BRANCH   4   5
ATOM      5  C   UNL     1      -7.613  11.130 -16.485  1.00  0.00     0.000 C 
BRANCH   5   6
ATOM      6  C   UNL     1      -7.810  11.673 -17.914  1.00  0.00     0.000 C 
BRANCH   6   7
ATOM      7  C   UNL     1      -8.029  10.600 -18.996  1.00  0.00     0.000 C 
BRANCH   7   8
ATOM      8  C   UNL     1      -7.473  11.014 -20.369  1.00  0.00     0.006 C 
BRANCH   8   9
ATOM      9  C   UNL     1      -6.615  12.284 -20.286  1.00  0.00     0.053 C 
BRANCH   9  10
ATOM     10  C   UNL     1      -5.151  11.967 -20.250  1.00  0.00     0.041 C 
ATOM     11  O   UNL     1      -4.364  12.687 -19.581  1.00  0.00    -0.550 OA
ATOM     12  O   UNL     1      -4.661  10.859 -20.930  1.00  0.00    -0.550 OA
ENDBRANCH   9  10
ENDBRANCH   8   9
ENDBRANCH   7   8
ENDBRANCH   6   7
ENDBRANCH   5   6
ENDBRANCH   4   5
ENDBRANCH   3   4
ENDBRANCH   1   3
BRANCH   2  13
ATOM     13  C   UNL     1      -1.948   8.602 -17.986  1.00  0.00     0.027 C 
BRANCH  13  14
ATOM     14  C   UNL     1      -0.623   9.213 -18.459  1.00  0.00     0.004 C 
BRANCH  14  15
ATOM     15  C   UNL     1       0.245   8.195 -19.220  1.00  0.00     0.000 C 
BRANCH  15  16
ATOM     16  C   UNL     1       0.757   7.060 -18.318  1.00  0.00     0.000 C 
BRANCH  16  17
ATOM     17  C   UNL     1       0.298   5.673 -18.800  1.00  0.00    -0.000 C 
BRANCH  17  18
ATOM     18  C   UNL     1      -0.511   4.907 -17.737  1.00  0.00    -0.000 C 
BRANCH  18  19
ATOM     19  C   UNL     1      -2.031   4.871 -17.976  1.00  0.00    -0.003 C 
ATOM     20  C   UNL     1      -2.407   4.315 -19.348  1.00  0.00     0.004 C 
ENDBRANCH  18  19
ENDBRANCH  17  18
ENDBRANCH  16  17
ENDBRANCH  15  16
ENDBRANCH  14  15
ENDBRANCH  13  14
ENDBRANCH   2  13
TORSDOF 15
ENDMDL
MODEL 8
REMARK VINA RESULT:    -4.839      2.655      7.661
REMARK INTER + INTRA:         -10.728
REMARK INTER:                  -9.235
REMARK INTRA:                  -1.492
REMARK UNBOUND:                -1.646
REMARK SMILES CCCCCCCCC=CCCCCCCCC(=O)[O-]
REMARK SMILES IDX 10 1 9 2 11 3 12 4 13 5 14 6 15 7 16 8 17 9 18 10 19 11
REMARK SMILES IDX 20 12 8 13 7 14 6 15 5 16 4 17 3 18 2 19 1 20
REMARK H PARENT
REMARK Flexibility Score: inf
ROOT
ATOM      1  C   UNL     1      -2.768   9.825 -17.382  1.00  0.00    -0.031 C 
ATOM      2  C   UNL     1      -3.091   8.541 -17.594  1.00  0.00    -0.031 C 
ENDROOT
BRANCH   1   3
ATOM      3  C   UNL     1      -3.612  10.949 -17.918  1.00  0.00     0.027 C 
BRANCH   3   4
ATOM      4  C   UNL     1      -4.168  10.652 -19.321  1.00  0.00     0.004 C 
BRANCH   4   5
ATOM      5  C   UNL     1      -5.034  11.782 -19.914  1.00  0.00     0.000 C 
BRANCH   5   6
ATOM      6  C   UNL     1      -6.073  11.329 -20.960  1.00  0.00     0.000 C 
BRANCH   6   7
ATOM      7  C   UNL     1      -7.423  10.868 -20.381  1.00  0.00     0.000 C 
BRANCH   7   8
ATOM      8  C   UNL     1      -7.741  11.514 -19.022  1.00  0.00     0.006 C 
BRANCH   8   9
ATOM      9  C   UNL     1      -7.963  10.468 -17.922  1.00  0.00     0.053 C 
BRANCH   9  10
ATOM     10  C   UNL     1      -7.404  10.914 -16.606  1.00  0.00     0.041 C 
ATOM     11  O   UNL     1      -6.350  10.392 -16.156  1.00  0.00    -0.550 OA
ATOM     12  O   UNL     1      -8.028  11.929 -15.892  1.00  0.00    -0.550 OA
ENDBRANCH   9  10
ENDBRANCH   8   9
ENDBRANCH   7   8
ENDBRANCH   6   7
ENDBRANCH   5   6
ENDBRANCH   4   5
ENDBRANCH   3   4
ENDBRANCH   1   3
BRANCH   2  13
ATOM     13  C   UNL     1      -2.222   7.415 -17.100  1.00  0.00     0.027 C 
BRANCH  13  14
ATOM     14  C   UNL     1      -2.955   6.069 -17.162  1.00  0.00     0.004 C 
BRANCH  14  15
ATOM     15  C   UNL     1      -2.286   5.090 -18.142  1.00  0.00     0.000 C 
BRANCH  15  16
ATOM     16  C   UNL     1      -0.781   4.918 -17.875  1.00  0.00     0.000 C 
BRANCH  16  17
ATOM     17  C   UNL     1       0.082   5.352 -19.072  1.00  0.00    -0.000 C 
BRANCH  17  18
ATOM     18  C   UNL     1       0.873   6.645 -18.802  1.00  0.00    -0.000 C 
BRANCH  18  19
ATOM     19  C   UNL     1       0.236   7.927 -19.369  1.00  0.00    -0.003 C 
ATOM     20  C   UNL     1       0.605   9.179 -18.574  1.00  0.00     0.004 C 
ENDBRANCH  18  19
ENDBRANCH  17  18
ENDBRANCH  16  17
ENDBRANCH  15  16
ENDBRANCH  14  15
ENDBRANCH  13  14
ENDBRANCH   2  13
TORSDOF 15
ENDMDL
MODEL 9
REMARK VINA RESULT:    -4.646      4.429      6.095
REMARK INTER + INTRA:         -10.366
REMARK INTER:                  -9.351
REMARK INTRA:                  -1.015
REMARK UNBOUND:                -1.646
REMARK SMILES CCCCCCCCC=CCCCCCCCC(=O)[O-]
REMARK SMILES IDX 10 1 9 2 11 3 12 4 13 5 14 6 15 7 16 8 17 9 18 10 19 11
REMARK SMILES IDX 20 12 8 13 7 14 6 15 5 16 4 17 3 18 2 19 1 20
REMARK H PARENT
REMARK Flexibility Score: inf
ROOT
ATOM      1  C   UNL     1      -3.850  12.236 -19.259  1.00  0.00    -0.031 C 
ATOM      2  C   UNL     1      -2.771  12.825 -18.725  1.00  0.00    -0.031 C 
ENDROOT
BRANCH   1   3
ATOM      3  C   UNL     1      -4.210  10.810 -18.938  1.00  0.00     0.027 C 
BRANCH   3   4
ATOM      4  C   UNL     1      -3.620  10.341 -17.597  1.00  0.00     0.004 C 
BRANCH   4   5
ATOM      5  C   UNL     1      -2.682   9.122 -17.707  1.00  0.00     0.000 C 
BRANCH   5   6
ATOM      6  C   UNL     1      -1.474   9.310 -18.647  1.00  0.00     0.000 C 
BRANCH   6   7
ATOM      7  C   UNL     1      -0.125   8.835 -18.078  1.00  0.00     0.000 C 
BRANCH   7   8
ATOM      8  C   UNL     1       0.497   7.689 -18.895  1.00  0.00     0.006 C 
BRANCH   8   9
ATOM      9  C   UNL     1      -0.537   6.622 -19.277  1.00  0.00     0.053 C 
BRANCH   9  10
ATOM     10  C   UNL     1      -0.866   5.725 -18.124  1.00  0.00     0.041 C 
ATOM     11  O   UNL     1      -1.966   5.112 -18.091  1.00  0.00    -0.550 OA
ATOM     12  O   UNL     1       0.055   5.541 -17.100  1.00  0.00    -0.550 OA
ENDBRANCH   9  10
ENDBRANCH   8   9
ENDBRANCH   7   8
ENDBRANCH   6   7
ENDBRANCH   5   6
ENDBRANCH   4   5
ENDBRANCH   3   4
ENDBRANCH   1   3
BRANCH   2  13
ATOM     13  C   UNL     1      -2.382  14.234 -19.083  1.00  0.00     0.027 C 
BRANCH  13  14
ATOM     14  C   UNL     1      -1.811  14.986 -17.874  1.00  0.00     0.004 C 
BRANCH  14  15
ATOM     15  C   UNL     1      -1.297  16.386 -18.253  1.00  0.00     0.000 C 
BRANCH  15  16
ATOM     16  C   UNL     1       0.199  16.394 -18.608  1.00  0.00     0.000 C 
BRANCH  16  17
ATOM     17  C   UNL     1       0.601  17.627 -19.435  1.00  0.00    -0.000 C 
BRANCH  17  18
ATOM     18  C   UNL     1       0.441  18.947 -18.659  1.00  0.00    -0.000 C 
BRANCH  18  19
ATOM     19  C   UNL     1      -0.671  19.876 -19.179  1.00  0.00    -0.003 C 
ATOM     20  C   UNL     1      -1.801  20.078 -18.170  1.00  0.00     0.004 C 
ENDBRANCH  18  19
ENDBRANCH  17  18
ENDBRANCH  16  17
ENDBRANCH  15  16
ENDBRANCH  14  15
ENDBRANCH  13  14
ENDBRANCH   2  13
TORSDOF 15
ENDMDL
