MODEL 1
REMARK VINA RESULT:    -4.776      0.000      0.000
REMARK INTER + INTRA:         -10.178
REMARK INTER:                  -8.686
REMARK INTRA:                  -1.493
REMARK UNBOUND:                -1.493
REMARK SMILES CCCCCCCCCCCCCCCC(=O)[O-]
REMARK SMILES IDX 9 1 10 2 11 3 12 4 13 5 14 6 15 7 16 8 17 9 18 10 8 11 7 12
REMARK SMILES IDX 6 13 5 14 4 15 3 16 2 17 1 18
REMARK H PARENT
REMARK Flexibility Score: inf
ROOT
ATOM      1  C   UNL     1       4.121  51.174   1.351  1.00  0.00     0.000 C 
ENDROOT
BRANCH   1   2
ATOM      2  C   UNL     1       2.741  51.030   0.689  1.00  0.00     0.000 C 
BRANCH   2   3
ATOM      3  C   UNL     1       2.205  52.359   0.136  1.00  0.00     0.000 C 
BRANCH   3   4
ATOM      4  C   UNL     1       1.905  52.250  -1.364  1.00  0.00     0.000 C 
BRANCH   4   5
ATOM      5  C   UNL     1       2.222  50.842  -1.889  1.00  0.00     0.000 C 
BRANCH   5   6
ATOM      6  C   UNL     1       2.084  50.723  -3.417  1.00  0.00     0.006 C 
BRANCH   6   7
ATOM      7  C   UNL     1       2.349  52.036  -4.173  1.00  0.00     0.053 C 
BRANCH   7   8
ATOM      8  C   UNL     1       3.646  52.016  -4.924  1.00  0.00     0.041 C 
ATOM      9  O   UNL     1       4.593  51.283  -4.533  1.00  0.00    -0.550 OA
ATOM     10  O   UNL     1       3.800  52.781  -6.073  1.00  0.00    -0.550 OA
ENDBRANCH   7   8
ENDBRANCH   6   7
ENDBRANCH   5   6
ENDBRANCH   4   5
ENDBRANCH   3   4
ENDBRANCH   2   3
ENDBRANCH   1   2
BRANCH   1  11
ATOM     11  C   UNL     1       4.740  52.566   1.132  1.00  0.00     0.000 C 
BRANCH  11  12
ATOM     12  C   UNL     1       5.998  52.519   0.250  1.00  0.00    -0.000 C 
BRANCH  12  13
ATOM     13  C   UNL     1       5.672  52.363  -1.244  1.00  0.00    -0.000 C 
BRANCH  13  14
ATOM     14  C   UNL     1       6.950  52.112  -2.059  1.00  0.00    -0.000 C 
BRANCH  14  15
ATOM     15  C   UNL     1       8.217  52.613  -1.349  1.00  0.00    -0.000 C 
BRANCH  15  16
ATOM     16  C   UNL     1       9.329  51.551  -1.304  1.00  0.00    -0.000 C 
BRANCH  16  17
ATOM     17  C   UNL     1      10.727  52.154  -1.512  1.00  0.00    -0.003 C 
ATOM     18  C   UNL     1      10.831  53.595  -1.011  1.00  0.00     0.004 C 
ENDBRANCH  16  17
ENDBRANCH  15  16
ENDBRANCH  14  15
ENDBRANCH  13  14
ENDBRANCH  12  13
ENDBRANCH  11  12
ENDBRANCH   1  11
TORSDOF 14
ENDMDL
MODEL 2
REMARK VINA RESULT:    -4.718      2.873      5.668
REMARK INTER + INTRA:         -10.071
REMARK INTER:                  -7.789
REMARK INTRA:                  -2.282
REMARK UNBOUND:                -1.493
REMARK SMILES CCCCCCCCCCCCCCCC(=O)[O-]
REMARK SMILES IDX 9 1 10 2 11 3 12 4 13 5 14 6 15 7 16 8 17 9 18 10 8 11 7 12
REMARK SMILES IDX 6 13 5 14 4 15 3 16 2 17 1 18
REMARK H PARENT
REMARK Flexibility Score: inf
ROOT
ATOM      1  C   UNL     1       2.611  51.357  -2.053  1.00  0.00     0.000 C 
ENDROOT
BRANCH   1   2
ATOM      2  C   UNL     1       3.585  52.460  -2.498  1.00  0.00     0.000 C 
BRANCH   2   3
ATOM      3  C   UNL     1       4.464  52.034  -3.684  1.00  0.00     0.000 C 
BRANCH   3   4
ATOM      4  C   UNL     1       5.923  52.453  -3.465  1.00  0.00     0.000 C 
BRANCH   4   5
ATOM      5  C   UNL     1       6.462  51.903  -2.137  1.00  0.00     0.000 C 
BRANCH   5   6
ATOM      6  C   UNL     1       7.699  52.662  -1.626  1.00  0.00     0.006 C 
BRANCH   6   7
ATOM      7  C   UNL     1       8.928  51.767  -1.391  1.00  0.00     0.053 C 
BRANCH   7   8
ATOM      8  C   UNL     1       9.479  51.899  -0.003  1.00  0.00     0.041 C 
ATOM      9  O   UNL     1       8.711  52.163   0.960  1.00  0.00    -0.550 OA
ATOM     10  O   UNL     1      10.832  51.696   0.235  1.00  0.00    -0.550 OA
ENDBRANCH   7   8
ENDBRANCH   6   7
ENDBRANCH   5   6
ENDBRANCH   4   5
ENDBRANCH   3   4
ENDBRANCH   2   3
ENDBRANCH   1   2
BRANCH   1  11
ATOM     11  C   UNL     1       2.089  51.574  -0.621  1.00  0.00     0.000 C 
BRANCH  11  12
ATOM     12  C   UNL     1       2.698  50.583   0.385  1.00  0.00    -0.000 C 
BRANCH  12  13
ATOM     13  C   UNL     1       3.403  51.284   1.557  1.00  0.00    -0.000 C 
BRANCH  13  14
ATOM     14  C   UNL     1       4.886  51.530   1.235  1.00  0.00    -0.000 C 
BRANCH  14  15
ATOM     15  C   UNL     1       5.259  53.020   1.252  1.00  0.00    -0.000 C 
BRANCH  15  16
ATOM     16  C   UNL     1       4.037  53.933   1.458  1.00  0.00    -0.000 C 
BRANCH  16  17
ATOM     17  C   UNL     1       3.861  54.945   0.315  1.00  0.00    -0.003 C 
ATOM     18  C   UNL     1       5.151  55.180  -0.473  1.00  0.00     0.004 C 
ENDBRANCH  16  17
ENDBRANCH  15  16
ENDBRANCH  14  15
ENDBRANCH  13  14
ENDBRANCH  12  13
ENDBRANCH  11  12
ENDBRANCH   1  11
TORSDOF 14
ENDMDL
MODEL 3
REMARK VINA RESULT:    -4.713      2.363      4.891
REMARK INTER + INTRA:         -10.064
REMARK INTER:                  -7.791
REMARK INTRA:                  -2.272
REMARK UNBOUND:                -1.493
REMARK SMILES CCCCCCCCCCCCCCCC(=O)[O-]
REMARK SMILES IDX 9 1 10 2 11 3 12 4 13 5 14 6 15 7 16 8 17 9 18 10 8 11 7 12
REMARK SMILES IDX 6 13 5 14 4 15 3 16 2 17 1 18
REMARK H PARENT
REMARK Flexibility Score: inf
ROOT
ATOM      1  C   UNL     1       1.892  51.380  -0.558  1.00  0.00     0.000 C 
ENDROOT
BRANCH   1   2
ATOM      2  C   UNL     1       2.264  50.884  -1.965  1.00  0.00     0.000 C 
BRANCH   2   3
ATOM      3  C   UNL     1       2.644  52.028  -2.917  1.00  0.00     0.000 C 
BRANCH   3   4
ATOM      4  C   UNL     1       3.355  51.491  -4.165  1.00  0.00     0.000 C 
BRANCH   4   5
ATOM      5  C   UNL     1       4.871  51.403  -3.942  1.00  0.00     0.000 C 
BRANCH   5   6
ATOM      6  C   UNL     1       5.394  52.437  -2.929  1.00  0.00     0.006 C 
BRANCH   6   7
ATOM      7  C   UNL     1       6.658  51.991  -2.176  1.00  0.00     0.053 C 
BRANCH   7   8
ATOM      8  C   UNL     1       7.360  53.131  -1.501  1.00  0.00     0.041 C 
ATOM      9  O   UNL     1       7.975  52.944  -0.419  1.00  0.00    -0.550 OA
ATOM     10  O   UNL     1       7.363  54.392  -2.083  1.00  0.00    -0.550 OA
ENDBRANCH   7   8
ENDBRANCH   6   7
ENDBRANCH   5   6
ENDBRANCH   4   5
ENDBRANCH   3   4
ENDBRANCH   2   3
ENDBRANCH   1   2
BRANCH   1  11
ATOM     11  C   UNL     1       2.276  50.375   0.543  1.00  0.00     0.000 C 
BRANCH  11  12
ATOM     12  C   UNL     1       3.312  50.945   1.526  1.00  0.00    -0.000 C 
BRANCH  12  13
ATOM     13  C   UNL     1       4.532  51.554   0.818  1.00  0.00    -0.000 C 
BRANCH  13  14
ATOM     14  C   UNL     1       4.941  52.880   1.477  1.00  0.00    -0.000 C 
BRANCH  14  15
ATOM     15  C   UNL     1       3.968  54.027   1.161  1.00  0.00    -0.000 C 
BRANCH  15  16
ATOM     16  C   UNL     1       4.413  54.864  -0.051  1.00  0.00    -0.000 C 
BRANCH  16  17
ATOM     17  C   UNL     1       3.239  55.245  -0.966  1.00  0.00    -0.003 C 
ATOM     18  C   UNL     1       1.879  54.893  -0.362  1.00  0.00     0.004 C 
ENDBRANCH  16  17
ENDBRANCH  15  16
ENDBRANCH  14  15
ENDBRANCH  13  14
ENDBRANCH  12  13
ENDBRANCH  11  12
ENDBRANCH   1  11
TORSDOF 14
ENDMDL
MODEL 4
REMARK VINA RESULT:    -4.649      1.216      2.510
REMARK INTER + INTRA:          -9.947
REMARK INTER:                  -8.724
REMARK INTRA:                  -1.223
REMARK UNBOUND:                -1.493
REMARK SMILES CCCCCCCCCCCCCCCC(=O)[O-]
REMARK SMILES IDX 9 1 10 2 11 3 12 4 13 5 14 6 15 7 16 8 17 9 18 10 8 11 7 12
REMARK SMILES IDX 6 13 5 14 4 15 3 16 2 17 1 18
REMARK H PARENT
REMARK Flexibility Score: inf
ROOT
ATOM      1  C   UNL     1       6.122  52.651   0.526  1.00  0.00     0.000 C 
ENDROOT
BRANCH   1   2
ATOM      2  C   UNL     1       5.264  51.805   1.481  1.00  0.00     0.000 C 
BRANCH   2   3
ATOM      3  C   UNL     1       3.759  51.939   1.205  1.00  0.00     0.000 C 
BRANCH   3   4
ATOM      4  C   UNL     1       3.027  50.625   1.503  1.00  0.00     0.000 C 
BRANCH   4   5
ATOM      5  C   UNL     1       2.145  50.203   0.320  1.00  0.00     0.000 C 
BRANCH   5   6
ATOM      6  C   UNL     1       2.077  51.265  -0.792  1.00  0.00     0.006 C 
BRANCH   6   7
ATOM      7  C   UNL     1       2.248  50.697  -2.211  1.00  0.00     0.053 C 
BRANCH   7   8
ATOM      8  C   UNL     1       2.841  51.693  -3.162  1.00  0.00     0.041 C 
ATOM      9  O   UNL     1       3.443  51.299  -4.196  1.00  0.00    -0.550 OA
ATOM     10  O   UNL     1       2.701  53.054  -2.927  1.00  0.00    -0.550 OA
ENDBRANCH   7   8
ENDBRANCH   6   7
ENDBRANCH   5   6
ENDBRANCH   4   5
ENDBRANCH   3   4
ENDBRANCH   2   3
ENDBRANCH   1   2
BRANCH   1  11
ATOM     11  C   UNL     1       5.658  52.544  -0.937  1.00  0.00     0.000 C 
BRANCH  11  12
ATOM     12  C   UNL     1       6.752  51.991  -1.865  1.00  0.00    -0.000 C 
BRANCH  12  13
ATOM     13  C   UNL     1       8.118  52.658  -1.637  1.00  0.00    -0.000 C 
BRANCH  13  14
ATOM     14  C   UNL     1       9.188  51.610  -1.293  1.00  0.00    -0.000 C 
BRANCH  14  15
ATOM     15  C   UNL     1      10.615  52.175  -1.357  1.00  0.00    -0.000 C 
BRANCH  15  16
ATOM     16  C   UNL     1      10.668  53.684  -1.062  1.00  0.00    -0.000 C 
BRANCH  16  17
ATOM     17  C   UNL     1      11.033  53.985   0.400  1.00  0.00    -0.003 C 
ATOM     18  C   UNL     1      11.152  55.483   0.685  1.00  0.00     0.004 C 
ENDBRANCH  16  17
ENDBRANCH  15  16
ENDBRANCH  14  15
ENDBRANCH  13  14
ENDBRANCH  12  13
ENDBRANCH  11  12
ENDBRANCH   1  11
TORSDOF 14
ENDMDL
MODEL 5
REMARK VINA RESULT:    -4.612      3.496      5.138
REMARK INTER + INTRA:          -9.879
REMARK INTER:                  -7.407
REMARK INTRA:                  -2.472
REMARK UNBOUND:                -1.493
REMARK SMILES CCCCCCCCCCCCCCCC(=O)[O-]
REMARK SMILES IDX 9 1 10 2 11 3 12 4 13 5 14 6 15 7 16 8 17 9 18 10 8 11 7 12
REMARK SMILES IDX 6 13 5 14 4 15 3 16 2 17 1 18
REMARK H PARENT
REMARK Flexibility Score: inf
ROOT
ATOM      1  C   UNL     1       2.810  51.611   0.694  1.00  0.00     0.000 C 
ENDROOT
BRANCH   1   2
ATOM      2  C   UNL     1       4.024  51.140   1.511  1.00  0.00     0.000 C 
BRANCH   2   3
ATOM      3  C   UNL     1       5.293  51.953   1.214  1.00  0.00     0.000 C 
BRANCH   3   4
ATOM      4  C   UNL     1       5.385  52.304  -0.276  1.00  0.00     0.000 C 
BRANCH   4   5
ATOM      5  C   UNL     1       5.649  53.803  -0.475  1.00  0.00     0.000 C 
BRANCH   5   6
ATOM      6  C   UNL     1       4.370  54.609  -0.763  1.00  0.00     0.006 C 
BRANCH   6   7
ATOM      7  C   UNL     1       3.780  55.310   0.473  1.00  0.00     0.053 C 
BRANCH   7   8
ATOM      8  C   UNL     1       3.776  56.803   0.341  1.00  0.00     0.041 C 
ATOM      9  O   UNL     1       4.818  57.464   0.593  1.00  0.00    -0.550 OA
ATOM     10  O   UNL     1       2.634  57.463  -0.093  1.00  0.00    -0.550 OA
ENDBRANCH   7   8
ENDBRANCH   6   7
ENDBRANCH   5   6
ENDBRANCH   4   5
ENDBRANCH   3   4
ENDBRANCH   2   3
ENDBRANCH   1   2
BRANCH   1  11
ATOM     11  C   UNL     1       2.154  50.469  -0.103  1.00  0.00     0.000 C 
BRANCH  11  12
ATOM     12  C   UNL     1       2.260  50.674  -1.623  1.00  0.00    -0.000 C 
BRANCH  12  13
ATOM     13  C   UNL     1       1.965  52.121  -2.049  1.00  0.00    -0.000 C 
BRANCH  13  14
ATOM     14  C   UNL     1       2.791  52.505  -3.287  1.00  0.00    -0.000 C 
BRANCH  14  15
ATOM     15  C   UNL     1       3.794  51.414  -3.694  1.00  0.00    -0.000 C 
BRANCH  15  16
ATOM     16  C   UNL     1       5.206  51.973  -3.947  1.00  0.00    -0.000 C 
BRANCH  16  17
ATOM     17  C   UNL     1       5.181  53.416  -4.473  1.00  0.00    -0.003 C 
ATOM     18  C   UNL     1       6.377  54.242  -3.996  1.00  0.00     0.004 C 
ENDBRANCH  16  17
ENDBRANCH  15  16
ENDBRANCH  14  15
ENDBRANCH  13  14
ENDBRANCH  12  13
ENDBRANCH  11  12
ENDBRANCH   1  11
TORSDOF 14
ENDMDL
MODEL 6
REMARK VINA RESULT:    -4.611      3.093      4.643
REMARK INTER + INTRA:          -9.878
REMARK INTER:                  -8.167
REMARK INTRA:                  -1.711
REMARK UNBOUND:                -1.493
REMARK SMILES CCCCCCCCCCCCCCCC(=O)[O-]
REMARK SMILES IDX 9 1 10 2 11 3 12 4 13 5 14 6 15 7 16 8 17 9 18 10 8 11 7 12
REMARK SMILES IDX 6 13 5 14 4 15 3 16 2 17 1 18
REMARK H PARENT
REMARK Flexibility Score: inf
ROOT
ATOM      1  C   UNL     1       2.447  51.181  -3.037  1.00  0.00     0.000 C 
ENDROOT
BRANCH   1   2
ATOM      2  C   UNL     1       2.380  51.850  -1.654  1.00  0.00     0.000 C 
BRANCH   2   3
ATOM      3  C   UNL     1       1.908  50.890  -0.551  1.00  0.00     0.000 C 
BRANCH   3   4
ATOM      4  C   UNL     1       2.929  50.822   0.591  1.00  0.00     0.000 C 
BRANCH   4   5
ATOM      5  C   UNL     1       3.728  52.128   0.697  1.00  0.00     0.000 C 
BRANCH   5   6
ATOM      6  C   UNL     1       5.221  51.901   0.994  1.00  0.00     0.006 C 
BRANCH   6   7
ATOM      7  C   UNL     1       5.996  53.189   1.320  1.00  0.00     0.053 C 
BRANCH   7   8
ATOM      8  C   UNL     1       7.185  52.938   2.198  1.00  0.00     0.041 C 
ATOM      9  O   UNL     1       7.278  51.862   2.845  1.00  0.00    -0.550 OA
ATOM     10  O   UNL     1       8.206  53.876   2.276  1.00  0.00    -0.550 OA
ENDBRANCH   7   8
ENDBRANCH   6   7
ENDBRANCH   5   6
ENDBRANCH   4   5
ENDBRANCH   3   4
ENDBRANCH   2   3
ENDBRANCH   1   2
BRANCH   1  11
ATOM     11  C   UNL     1       3.776  51.458  -3.763  1.00  0.00     0.000 C 
BRANCH  11  12
ATOM     12  C   UNL     1       4.725  52.342  -2.938  1.00  0.00    -0.000 C 
BRANCH  12  13
ATOM     13  C   UNL     1       6.128  51.732  -2.790  1.00  0.00    -0.000 C 
BRANCH  13  14
ATOM     14  C   UNL     1       7.115  52.762  -2.219  1.00  0.00    -0.000 C 
BRANCH  14  15
ATOM     15  C   UNL     1       8.296  52.110  -1.484  1.00  0.00    -0.000 C 
BRANCH  15  16
ATOM     16  C   UNL     1       9.314  53.142  -0.968  1.00  0.00    -0.000 C 
BRANCH  16  17
ATOM     17  C   UNL     1      10.652  52.500  -0.569  1.00  0.00    -0.003 C 
ATOM     18  C   UNL     1      11.706  52.590  -1.673  1.00  0.00     0.004 C 
ENDBRANCH  16  17
ENDBRANCH  15  16
ENDBRANCH  14  15
ENDBRANCH  13  14
ENDBRANCH  12  13
ENDBRANCH  11  12
ENDBRANCH   1  11
TORSDOF 14
ENDMDL
MODEL 7
REMARK VINA RESULT:    -4.568      1.879      4.672
REMARK INTER + INTRA:          -9.799
REMARK INTER:                  -7.205
REMARK INTRA:                  -2.594
REMARK UNBOUND:                -1.493
REMARK SMILES CCCCCCCCCCCCCCCC(=O)[O-]
REMARK SMILES IDX 9 1 10 2 11 3 12 4 13 5 14 6 15 7 16 8 17 9 18 10 8 11 7 12
REMARK SMILES IDX 6 13 5 14 4 15 3 16 2 17 1 18
REMARK H PARENT
REMARK Flexibility Score: inf
ROOT
ATOM      1  C   UNL     1       4.831  51.506   0.997  1.00  0.00     0.000 C 
ENDROOT
BRANCH   1   2
ATOM      2  C   UNL     1       5.410  52.825   1.535  1.00  0.00     0.000 C 
BRANCH   2   3
ATOM      3  C   UNL     1       6.622  53.315   0.729  1.00  0.00     0.000 C 
BRANCH   3   4
ATOM      4  C   UNL     1       6.721  52.583  -0.615  1.00  0.00     0.000 C 
BRANCH   4   5
ATOM      5  C   UNL     1       7.209  53.526  -1.723  1.00  0.00     0.000 C 
BRANCH   5   6
ATOM      6  C   UNL     1       6.377  53.423  -3.013  1.00  0.00     0.006 C 
BRANCH   6   7
ATOM      7  C   UNL     1       5.543  52.135  -3.119  1.00  0.00     0.053 C 
BRANCH   7   8
ATOM      8  C   UNL     1       4.450  52.238  -4.140  1.00  0.00     0.041 C 
ATOM      9  O   UNL     1       4.311  53.293  -4.813  1.00  0.00    -0.550 OA
ATOM     10  O   UNL     1       3.606  51.160  -4.372  1.00  0.00    -0.550 OA
ENDBRANCH   7   8
ENDBRANCH   6   7
ENDBRANCH   5   6
ENDBRANCH   4   5
ENDBRANCH   3   4
ENDBRANCH   2   3
ENDBRANCH   1   2
BRANCH   1  11
ATOM     11  C   UNL     1       3.523  51.105   1.702  1.00  0.00     0.000 C 
BRANCH  11  12
ATOM     12  C   UNL     1       2.408  50.737   0.709  1.00  0.00    -0.000 C 
BRANCH  12  13
ATOM     13  C   UNL     1       2.775  51.066  -0.747  1.00  0.00    -0.000 C 
BRANCH  13  14
ATOM     14  C   UNL     1       1.875  52.182  -1.298  1.00  0.00    -0.000 C 
BRANCH  14  15
ATOM     15  C   UNL     1       1.974  53.482  -0.485  1.00  0.00    -0.000 C 
BRANCH  15  16
ATOM     16  C   UNL     1       3.080  54.420  -1.000  1.00  0.00    -0.000 C 
BRANCH  16  17
ATOM     17  C   UNL     1       3.442  55.515   0.015  1.00  0.00    -0.003 C 
ATOM     18  C   UNL     1       4.737  56.247  -0.339  1.00  0.00     0.004 C 
ENDBRANCH  16  17
ENDBRANCH  15  16
ENDBRANCH  14  15
ENDBRANCH  13  14
ENDBRANCH  12  13
ENDBRANCH  11  12
ENDBRANCH   1  11
TORSDOF 14
ENDMDL
MODEL 8
REMARK VINA RESULT:    -4.551      2.416      3.903
REMARK INTER + INTRA:          -9.768
REMARK INTER:                  -7.095
REMARK INTRA:                  -2.672
REMARK UNBOUND:                -1.493
REMARK SMILES CCCCCCCCCCCCCCCC(=O)[O-]
REMARK SMILES IDX 9 1 10 2 11 3 12 4 13 5 14 6 15 7 16 8 17 9 18 10 8 11 7 12
REMARK SMILES IDX 6 13 5 14 4 15 3 16 2 17 1 18
REMARK H PARENT
REMARK Flexibility Score: inf
ROOT
ATOM      1  C   UNL     1       2.051  53.643  -0.019  1.00  0.00     0.000 C 
ENDROOT
BRANCH   1   2
ATOM      2  C   UNL     1       2.373  54.883  -0.869  1.00  0.00     0.000 C 
BRANCH   2   3
ATOM      3  C   UNL     1       2.845  54.525  -2.287  1.00  0.00     0.000 C 
BRANCH   3   4
ATOM      4  C   UNL     1       4.339  54.822  -2.460  1.00  0.00     0.000 C 
BRANCH   4   5
ATOM      5  C   UNL     1       4.858  54.279  -3.800  1.00  0.00     0.000 C 
BRANCH   5   6
ATOM      6  C   UNL     1       5.905  53.164  -3.634  1.00  0.00     0.006 C 
BRANCH   6   7
ATOM      7  C   UNL     1       5.303  51.754  -3.509  1.00  0.00     0.053 C 
BRANCH   7   8
ATOM      8  C   UNL     1       4.182  51.518  -4.477  1.00  0.00     0.041 C 
ATOM      9  O   UNL     1       3.042  51.191  -4.056  1.00  0.00    -0.550 OA
ATOM     10  O   UNL     1       4.387  51.693  -5.839  1.00  0.00    -0.550 OA
ENDBRANCH   7   8
ENDBRANCH   6   7
ENDBRANCH   5   6
ENDBRANCH   4   5
ENDBRANCH   3   4
ENDBRANCH   2   3
ENDBRANCH   1   2
BRANCH   1  11
ATOM     11  C   UNL     1       1.975  52.355  -0.857  1.00  0.00     0.000 C 
BRANCH  11  12
ATOM     12  C   UNL     1       3.063  51.337  -0.474  1.00  0.00    -0.000 C 
BRANCH  12  13
ATOM     13  C   UNL     1       3.279  51.243   1.045  1.00  0.00    -0.000 C 
BRANCH  13  14
ATOM     14  C   UNL     1       4.723  51.617   1.415  1.00  0.00    -0.000 C 
BRANCH  14  15
ATOM     15  C   UNL     1       5.541  52.099   0.207  1.00  0.00    -0.000 C 
BRANCH  15  16
ATOM     16  C   UNL     1       6.060  53.537   0.380  1.00  0.00    -0.000 C 
BRANCH  16  17
ATOM     17  C   UNL     1       5.304  54.308   1.473  1.00  0.00    -0.003 C 
ATOM     18  C   UNL     1       5.289  55.818   1.232  1.00  0.00     0.004 C 
ENDBRANCH  16  17
ENDBRANCH  15  16
ENDBRANCH  14  15
ENDBRANCH  13  14
ENDBRANCH  12  13
ENDBRANCH  11  12
ENDBRANCH   1  11
TORSDOF 14
ENDMDL
MODEL 9
REMARK VINA RESULT:    -4.526      3.186      4.535
REMARK INTER + INTRA:          -9.722
REMARK INTER:                  -7.423
REMARK INTRA:                  -2.299
REMARK UNBOUND:                -1.493
REMARK SMILES CCCCCCCCCCCCCCCC(=O)[O-]
REMARK SMILES IDX 9 1 10 2 11 3 12 4 13 5 14 6 15 7 16 8 17 9 18 10 8 11 7 12
REMARK SMILES IDX 6 13 5 14 4 15 3 16 2 17 1 18
REMARK H PARENT
REMARK Flexibility Score: inf
ROOT
ATOM      1  C   UNL     1       3.252  50.810   1.008  1.00  0.00     0.000 C 
ENDROOT
BRANCH   1   2
ATOM      2  C   UNL     1       2.100  51.113   0.035  1.00  0.00     0.000 C 
BRANCH   2   3
ATOM      3  C   UNL     1       2.592  51.469  -1.376  1.00  0.00     0.000 C 
BRANCH   3   4
ATOM      4  C   UNL     1       1.875  52.715  -1.909  1.00  0.00     0.000 C 
BRANCH   4   5
ATOM      5  C   UNL     1       1.894  53.848  -0.874  1.00  0.00     0.000 C 
BRANCH   5   6
ATOM      6  C   UNL     1       3.171  54.705  -0.939  1.00  0.00     0.006 C 
BRANCH   6   7
ATOM      7  C   UNL     1       3.402  55.578   0.307  1.00  0.00     0.053 C 
BRANCH   7   8
ATOM      8  C   UNL     1       3.395  57.044  -0.008  1.00  0.00     0.041 C 
ATOM      9  O   UNL     1       2.425  57.553  -0.630  1.00  0.00    -0.550 OA
ATOM     10  O   UNL     1       4.441  57.854   0.414  1.00  0.00    -0.550 OA
ENDBRANCH   7   8
ENDBRANCH   6   7
ENDBRANCH   5   6
ENDBRANCH   4   5
ENDBRANCH   3   4
ENDBRANCH   2   3
ENDBRANCH   1   2
BRANCH   1  11
ATOM     11  C   UNL     1       3.942  52.086   1.521  1.00  0.00     0.000 C 
BRANCH  11  12
ATOM     12  C   UNL     1       5.476  51.985   1.476  1.00  0.00    -0.000 C 
BRANCH  12  13
ATOM     13  C   UNL     1       6.118  53.085   0.616  1.00  0.00    -0.000 C 
BRANCH  13  14
ATOM     14  C   UNL     1       6.849  52.478  -0.592  1.00  0.00    -0.000 C 
BRANCH  14  15
ATOM     15  C   UNL     1       5.914  52.222  -1.785  1.00  0.00    -0.000 C 
BRANCH  15  16
ATOM     16  C   UNL     1       6.434  52.852  -3.089  1.00  0.00    -0.000 C 
BRANCH  16  17
ATOM     17  C   UNL     1       5.319  53.530  -3.900  1.00  0.00    -0.003 C 
ATOM     18  C   UNL     1       4.433  52.529  -4.643  1.00  0.00     0.004 C 
ENDBRANCH  16  17
ENDBRANCH  15  16
ENDBRANCH  14  15
ENDBRANCH  13  14
ENDBRANCH  12  13
ENDBRANCH  11  12
ENDBRANCH   1  11
TORSDOF 14
ENDMDL
