MODEL 1
REMARK VINA RESULT:    -2.792      0.000      0.000
REMARK INTER + INTRA:          -2.792
REMARK INTER:                  -2.792
REMARK INTRA:                   0.000
REMARK UNBOUND:                 0.000
REMARK SMILES C=C1CCCC(C)(C)[C@]12CC=C(C)CC2
REMARK SMILES IDX 13 1 12 2 11 3 10 4 9 5 15 6 14 7 2 8 1 9 3 10 4 11 5 12
REMARK SMILES IDX 6 13 7 14 8 15
REMARK H PARENT
REMARK Flexibility Score: inf
ROOT
ATOM      1  C   UNL     1       4.071  16.575  12.187  1.00  0.00     0.039 C 
ATOM      2  C   UNL     1       4.013  15.073  12.185  1.00  0.00    -0.077 C 
ATOM      3  C   UNL     1       3.755  14.427  13.336  1.00  0.00    -0.027 C 
ATOM      4  C   UNL     1       3.746  12.928  13.406  1.00  0.00     0.039 C 
ATOM      5  C   UNL     1       3.114  12.296  12.126  1.00  0.00    -0.000 C 
ATOM      6  C   UNL     1       4.026  12.794  10.949  1.00  0.00     0.017 C 
ATOM      7  C   UNL     1       4.205  14.334  10.875  1.00  0.00     0.031 C 
ATOM      8  C   UNL     1       1.641  12.766  12.001  1.00  0.00    -0.070 C 
ATOM      9  C   UNL     1       1.106  13.292  10.880  1.00  0.00     0.008 C 
ATOM     10  C   UNL     1       0.696  12.355  13.107  1.00  0.00     0.031 C 
ATOM     11  C   UNL     1       0.664  10.830  13.196  1.00  0.00     0.005 C 
ATOM     12  C   UNL     1       2.077  10.238  13.341  1.00  0.00     0.008 C 
ATOM     13  C   UNL     1       3.080  10.698  12.229  1.00  0.00    -0.026 C 
ATOM     14  C   UNL     1       4.458  10.078  12.589  1.00  0.00     0.012 C 
ATOM     15  C   UNL     1       2.644  10.062  10.879  1.00  0.00     0.012 C 
ENDROOT
TORSDOF 0
ENDMDL
MODEL 2
REMARK VINA RESULT:    -2.185      3.626      6.505
REMARK INTER + INTRA:          -2.185
REMARK INTER:                  -2.185
REMARK INTRA:                   0.000
REMARK UNBOUND:                 0.000
REMARK SMILES C=C1CCCC(C)(C)[C@]12CC=C(C)CC2
REMARK SMILES IDX 13 1 12 2 11 3 10 4 9 5 15 6 14 7 2 8 1 9 3 10 4 11 5 12
REMARK SMILES IDX 6 13 7 14 8 15
REMARK H PARENT
REMARK Flexibility Score: inf
ROOT
ATOM      1  C   UNL     1       3.670  11.208  11.409  1.00  0.00     0.039 C 
ATOM      2  C   UNL     1       3.994   9.796  11.812  1.00  0.00    -0.077 C 
ATOM      3  C   UNL     1       4.431   8.933  10.878  1.00  0.00    -0.027 C 
ATOM      4  C   UNL     1       4.712   7.496  11.210  1.00  0.00     0.039 C 
ATOM      5  C   UNL     1       5.369   7.350  12.618  1.00  0.00    -0.000 C 
ATOM      6  C   UNL     1       4.315   7.956  13.611  1.00  0.00     0.017 C 
ATOM      7  C   UNL     1       3.860   9.400  13.269  1.00  0.00     0.031 C 
ATOM      8  C   UNL     1       6.725   8.103  12.628  1.00  0.00    -0.070 C 
ATOM      9  C   UNL     1       7.090   8.993  13.573  1.00  0.00     0.008 C 
ATOM     10  C   UNL     1       7.792   7.604  11.679  1.00  0.00     0.031 C 
ATOM     11  C   UNL     1       8.100   6.142  12.001  1.00  0.00     0.005 C 
ATOM     12  C   UNL     1       6.826   5.278  12.005  1.00  0.00     0.008 C 
ATOM     13  C   UNL     1       5.693   5.815  12.945  1.00  0.00    -0.026 C 
ATOM     14  C   UNL     1       4.472   4.876  12.750  1.00  0.00     0.012 C 
ATOM     15  C   UNL     1       6.156   5.646  14.419  1.00  0.00     0.012 C 
ENDROOT
TORSDOF 0
ENDMDL
MODEL 3
REMARK VINA RESULT:    -1.048      1.801      4.089
REMARK INTER + INTRA:          -1.048
REMARK INTER:                  -1.048
REMARK INTRA:                   0.000
REMARK UNBOUND:                 0.000
REMARK SMILES C=C1CCCC(C)(C)[C@]12CC=C(C)CC2
REMARK SMILES IDX 13 1 12 2 11 3 10 4 9 5 15 6 14 7 2 8 1 9 3 10 4 11 5 12
REMARK SMILES IDX 6 13 7 14 8 15
REMARK H PARENT
REMARK Flexibility Score: inf
ROOT
ATOM      1  C   UNL     1       5.948   8.484  12.378  1.00  0.00     0.039 C 
ATOM      2  C   UNL     1       4.605   9.114  12.134  1.00  0.00    -0.077 C 
ATOM      3  C   UNL     1       3.585   8.820  12.960  1.00  0.00    -0.027 C 
ATOM      4  C   UNL     1       2.207   9.371  12.730  1.00  0.00     0.039 C 
ATOM      5  C   UNL     1       2.256  10.846  12.222  1.00  0.00    -0.000 C 
ATOM      6  C   UNL     1       3.061  10.775  10.876  1.00  0.00     0.017 C 
ATOM      7  C   UNL     1       4.452  10.096  10.989  1.00  0.00     0.031 C 
ATOM      8  C   UNL     1       2.937  11.732  13.298  1.00  0.00    -0.070 C 
ATOM      9  C   UNL     1       3.949  12.588  13.044  1.00  0.00     0.008 C 
ATOM     10  C   UNL     1       2.245  11.835  14.638  1.00  0.00     0.031 C 
ATOM     11  C   UNL     1       0.839  12.400  14.431  1.00  0.00     0.005 C 
ATOM     12  C   UNL     1       0.048  11.590  13.389  1.00  0.00     0.008 C 
ATOM     13  C   UNL     1       0.780  11.431  12.012  1.00  0.00    -0.026 C 
ATOM     14  C   UNL     1      -0.121  10.522  11.133  1.00  0.00     0.012 C 
ATOM     15  C   UNL     1       0.825  12.821  11.317  1.00  0.00     0.012 C 
ENDROOT
TORSDOF 0
ENDMDL
MODEL 4
REMARK VINA RESULT:    -0.853      4.789      7.314
REMARK INTER + INTRA:          -0.853
REMARK INTER:                  -0.853
REMARK INTRA:                   0.000
REMARK UNBOUND:                 0.000
REMARK SMILES C=C1CCCC(C)(C)[C@]12CC=C(C)CC2
REMARK SMILES IDX 13 1 12 2 11 3 10 4 9 5 15 6 14 7 2 8 1 9 3 10 4 11 5 12
REMARK SMILES IDX 6 13 7 14 8 15
REMARK H PARENT
REMARK Flexibility Score: inf
ROOT
ATOM      1  C   UNL     1      10.521   8.011  13.866  1.00  0.00     0.039 C 
ATOM      2  C   UNL     1       9.064   8.081  13.500  1.00  0.00    -0.077 C 
ATOM      3  C   UNL     1       8.659   7.565  12.327  1.00  0.00    -0.027 C 
ATOM      4  C   UNL     1       7.228   7.660  11.882  1.00  0.00     0.039 C 
ATOM      5  C   UNL     1       6.242   7.468  13.076  1.00  0.00    -0.000 C 
ATOM      6  C   UNL     1       6.595   8.629  14.072  1.00  0.00     0.017 C 
ATOM      7  C   UNL     1       8.090   8.693  14.487  1.00  0.00     0.031 C 
ATOM      8  C   UNL     1       6.447   6.055  13.683  1.00  0.00    -0.070 C 
ATOM      9  C   UNL     1       6.626   5.815  14.999  1.00  0.00     0.008 C 
ATOM     10  C   UNL     1       6.157   4.875  12.784  1.00  0.00     0.031 C 
ATOM     11  C   UNL     1       4.702   4.946  12.321  1.00  0.00     0.005 C 
ATOM     12  C   UNL     1       4.374   6.306  11.679  1.00  0.00     0.008 C 
ATOM     13  C   UNL     1       4.719   7.539  12.582  1.00  0.00    -0.026 C 
ATOM     14  C   UNL     1       4.406   8.807  11.742  1.00  0.00     0.012 C 
ATOM     15  C   UNL     1       3.742   7.552  13.791  1.00  0.00     0.012 C 
ENDROOT
TORSDOF 0
ENDMDL
MODEL 5
REMARK VINA RESULT:    -0.843      1.127      2.963
REMARK INTER + INTRA:          -0.843
REMARK INTER:                  -0.843
REMARK INTRA:                   0.000
REMARK UNBOUND:                 0.000
REMARK SMILES C=C1CCCC(C)(C)[C@]12CC=C(C)CC2
REMARK SMILES IDX 13 1 12 2 11 3 10 4 9 5 15 6 14 7 2 8 1 9 3 10 4 11 5 12
REMARK SMILES IDX 6 13 7 14 8 15
REMARK H PARENT
REMARK Flexibility Score: inf
ROOT
ATOM      1  C   UNL     1       4.797  16.459  11.927  1.00  0.00     0.039 C 
ATOM      2  C   UNL     1       3.822  15.318  12.012  1.00  0.00    -0.077 C 
ATOM      3  C   UNL     1       3.427  14.709  10.880  1.00  0.00    -0.027 C 
ATOM      4  C   UNL     1       2.409  13.605  10.900  1.00  0.00     0.039 C 
ATOM      5  C   UNL     1       2.601  12.669  12.133  1.00  0.00    -0.000 C 
ATOM      6  C   UNL     1       2.425  13.611  13.376  1.00  0.00     0.017 C 
ATOM      7  C   UNL     1       3.347  14.860  13.377  1.00  0.00     0.031 C 
ATOM      8  C   UNL     1       4.003  12.009  12.058  1.00  0.00    -0.070 C 
ATOM      9  C   UNL     1       4.888  11.992  13.076  1.00  0.00     0.008 C 
ATOM     10  C   UNL     1       4.271  11.105  10.875  1.00  0.00     0.031 C 
ATOM     11  C   UNL     1       3.250   9.968  10.875  1.00  0.00     0.005 C 
ATOM     12  C   UNL     1       1.806  10.498  10.931  1.00  0.00     0.008 C 
ATOM     13  C   UNL     1       1.531  11.477  12.123  1.00  0.00    -0.026 C 
ATOM     14  C   UNL     1       0.067  11.970  11.964  1.00  0.00     0.012 C 
ATOM     15  C   UNL     1       1.587  10.666  13.449  1.00  0.00     0.012 C 
ENDROOT
TORSDOF 0
ENDMDL
MODEL 6
REMARK VINA RESULT:    -0.277      3.583      6.129
REMARK INTER + INTRA:          -0.277
REMARK INTER:                  -0.277
REMARK INTRA:                   0.000
REMARK UNBOUND:                 0.000
REMARK SMILES C=C1CCCC(C)(C)[C@]12CC=C(C)CC2
REMARK SMILES IDX 13 1 12 2 11 3 10 4 9 5 15 6 14 7 2 8 1 9 3 10 4 11 5 12
REMARK SMILES IDX 6 13 7 14 8 15
REMARK H PARENT
REMARK Flexibility Score: inf
ROOT
ATOM      1  C   UNL     1       2.205  10.199  11.720  1.00  0.00     0.039 C 
ATOM      2  C   UNL     1       3.537   9.572  12.025  1.00  0.00    -0.077 C 
ATOM      3  C   UNL     1       3.773   9.107  13.264  1.00  0.00    -0.027 C 
ATOM      4  C   UNL     1       5.106   8.528  13.642  1.00  0.00     0.039 C 
ATOM      5  C   UNL     1       5.714   7.681  12.481  1.00  0.00    -0.000 C 
ATOM      6  C   UNL     1       5.863   8.693  11.289  1.00  0.00     0.017 C 
ATOM      7  C   UNL     1       4.559   9.445  10.912  1.00  0.00     0.031 C 
ATOM      8  C   UNL     1       4.764   6.496  12.163  1.00  0.00    -0.070 C 
ATOM      9  C   UNL     1       4.331   6.183  10.924  1.00  0.00     0.008 C 
ATOM     10  C   UNL     1       4.539   5.486  13.265  1.00  0.00     0.031 C 
ATOM     11  C   UNL     1       5.882   4.876  13.665  1.00  0.00     0.005 C 
ATOM     12  C   UNL     1       6.916   5.958  14.023  1.00  0.00     0.008 C 
ATOM     13  C   UNL     1       7.119   7.041  12.909  1.00  0.00    -0.026 C 
ATOM     14  C   UNL     1       8.118   8.084  13.480  1.00  0.00     0.012 C 
ATOM     15  C   UNL     1       7.820   6.371  11.694  1.00  0.00     0.012 C 
ENDROOT
TORSDOF 0
ENDMDL
