MODEL 1
REMARK VINA RESULT:    -5.167      0.000      0.000
REMARK INTER + INTRA:          -5.167
REMARK INTER:                  -5.167
REMARK INTRA:                   0.000
REMARK UNBOUND:                 0.000
REMARK SMILES C=C1CCC[C@@]2(C)CC(=O)C(=C(C)C)C[C@H]12
REMARK SMILES IDX 13 1 12 2 11 3 15 4 16 5 2 6 1 7 3 8 4 9 5 10 6 11 8 12 9 13
REMARK SMILES IDX 10 14 7 15 14 16
REMARK H PARENT
REMARK Flexibility Score: inf
ROOT
ATOM      1  C   UNL     1       9.103  30.253  13.727  1.00  0.00     0.039 C 
ATOM      2  C   UNL     1      10.480  30.645  13.239  1.00  0.00    -0.070 C 
ATOM      3  C   UNL     1      11.581  29.878  13.496  1.00  0.00    -0.006 C 
ATOM      4  C   UNL     1      12.969  30.318  13.050  1.00  0.00     0.047 C 
ATOM      5  C   UNL     1      14.090  29.810  13.992  1.00  0.00     0.025 C 
ATOM      6  C   UNL     1      15.510  30.188  13.572  1.00  0.00    -0.073 C 
ATOM      7  C   UNL     1      15.807  30.899  12.467  1.00  0.00     0.008 C 
ATOM      8  C   UNL     1      16.618  29.756  14.503  1.00  0.00     0.031 C 
ATOM      9  C   UNL     1      16.524  28.254  14.784  1.00  0.00     0.005 C 
ATOM     10  C   UNL     1      15.115  27.851  15.251  1.00  0.00     0.008 C 
ATOM     11  C   UNL     1      13.996  28.274  14.253  1.00  0.00    -0.018 C 
ATOM     12  C   UNL     1      12.626  27.966  14.906  1.00  0.00     0.088 C 
ATOM     13  C   UNL     1      11.481  28.521  14.108  1.00  0.00     0.159 C 
ATOM     14  O   UNL     1      10.450  27.811  13.961  1.00  0.00    -0.295 OA
ATOM     15  C   UNL     1      14.134  27.455  12.939  1.00  0.00     0.012 C 
ATOM     16  C   UNL     1      10.591  31.950  12.484  1.00  0.00     0.039 C 
ENDROOT
TORSDOF 0
ENDMDL
MODEL 2
REMARK VINA RESULT:    -5.155     11.930     14.271
REMARK INTER + INTRA:          -5.155
REMARK INTER:                  -5.155
REMARK INTRA:                   0.000
REMARK UNBOUND:                 0.000
REMARK SMILES C=C1CCC[C@@]2(C)CC(=O)C(=C(C)C)C[C@H]12
REMARK SMILES IDX 13 1 12 2 11 3 15 4 16 5 2 6 1 7 3 8 4 9 5 10 6 11 8 12 9 13
REMARK SMILES IDX 10 14 7 15 14 16
REMARK H PARENT
REMARK Flexibility Score: inf
ROOT
ATOM      1  C   UNL     1      11.985  16.595  14.878  1.00  0.00     0.039 C 
ATOM      2  C   UNL     1      10.650  16.055  14.415  1.00  0.00    -0.070 C 
ATOM      3  C   UNL     1       9.508  16.802  14.484  1.00  0.00    -0.006 C 
ATOM      4  C   UNL     1       8.162  16.223  14.070  1.00  0.00     0.047 C 
ATOM      5  C   UNL     1       6.977  16.837  14.858  1.00  0.00     0.025 C 
ATOM      6  C   UNL     1       5.595  16.322  14.457  1.00  0.00    -0.073 C 
ATOM      7  C   UNL     1       5.381  15.410  13.488  1.00  0.00     0.008 C 
ATOM      8  C   UNL     1       4.427  16.859  15.249  1.00  0.00     0.031 C 
ATOM      9  C   UNL     1       4.447  18.391  15.257  1.00  0.00     0.005 C 
ATOM     10  C   UNL     1       5.815  18.938  15.699  1.00  0.00     0.008 C 
ATOM     11  C   UNL     1       6.997  18.398  14.840  1.00  0.00    -0.018 C 
ATOM     12  C   UNL     1       8.320  18.883  15.481  1.00  0.00     0.088 C 
ATOM     13  C   UNL     1       9.524  18.250  14.844  1.00  0.00     0.159 C 
ATOM     14  O   UNL     1      10.531  18.970  14.612  1.00  0.00    -0.295 OA
ATOM     15  C   UNL     1       6.889  18.960  13.395  1.00  0.00     0.012 C 
ATOM     16  C   UNL     1      10.628  14.632  13.906  1.00  0.00     0.039 C 
ENDROOT
TORSDOF 0
ENDMDL
MODEL 3
REMARK VINA RESULT:    -5.145      3.175      6.634
REMARK INTER + INTRA:          -5.145
REMARK INTER:                  -5.145
REMARK INTRA:                   0.000
REMARK UNBOUND:                 0.000
REMARK SMILES C=C1CCC[C@@]2(C)CC(=O)C(=C(C)C)C[C@H]12
REMARK SMILES IDX 13 1 12 2 11 3 15 4 16 5 2 6 1 7 3 8 4 9 5 10 6 11 8 12 9 13
REMARK SMILES IDX 10 14 7 15 14 16
REMARK H PARENT
REMARK Flexibility Score: inf
ROOT
ATOM      1  C   UNL     1      21.009  27.610  13.743  1.00  0.00     0.039 C 
ATOM      2  C   UNL     1      19.662  27.003  14.069  1.00  0.00    -0.070 C 
ATOM      3  C   UNL     1      18.494  27.656  13.796  1.00  0.00    -0.006 C 
ATOM      4  C   UNL     1      17.148  27.058  14.187  1.00  0.00     0.047 C 
ATOM      5  C   UNL     1      16.081  28.138  14.501  1.00  0.00     0.025 C 
ATOM      6  C   UNL     1      14.697  27.597  14.859  1.00  0.00    -0.073 C 
ATOM      7  C   UNL     1      14.386  26.286  14.901  1.00  0.00     0.008 C 
ATOM      8  C   UNL     1      13.654  28.625  15.228  1.00  0.00     0.031 C 
ATOM      9  C   UNL     1      13.545  29.690  14.133  1.00  0.00     0.005 C 
ATOM     10  C   UNL     1      14.920  30.284  13.782  1.00  0.00     0.008 C 
ATOM     11  C   UNL     1      15.965  29.205  13.367  1.00  0.00    -0.018 C 
ATOM     12  C   UNL     1      17.337  29.902  13.202  1.00  0.00     0.088 C 
ATOM     13  C   UNL     1      18.452  28.916  12.999  1.00  0.00     0.159 C 
ATOM     14  O   UNL     1      19.335  29.174  12.138  1.00  0.00    -0.295 OA
ATOM     15  C   UNL     1      15.546  28.568  12.014  1.00  0.00     0.012 C 
ATOM     16  C   UNL     1      19.667  25.653  14.749  1.00  0.00     0.039 C 
ENDROOT
TORSDOF 0
ENDMDL
MODEL 4
REMARK VINA RESULT:    -5.071     11.289     13.705
REMARK INTER + INTRA:          -5.071
REMARK INTER:                  -5.071
REMARK INTRA:                   0.000
REMARK UNBOUND:                 0.000
REMARK SMILES C=C1CCC[C@@]2(C)CC(=O)C(=C(C)C)C[C@H]12
REMARK SMILES IDX 13 1 12 2 11 3 15 4 16 5 2 6 1 7 3 8 4 9 5 10 6 11 8 12 9 13
REMARK SMILES IDX 10 14 7 15 14 16
REMARK H PARENT
REMARK Flexibility Score: inf
ROOT
ATOM      1  C   UNL     1      18.980  20.421  16.251  1.00  0.00     0.039 C 
ATOM      2  C   UNL     1      18.879  18.930  16.017  1.00  0.00    -0.070 C 
ATOM      3  C   UNL     1      17.675  18.285  15.994  1.00  0.00    -0.006 C 
ATOM      4  C   UNL     1      17.594  16.774  15.819  1.00  0.00     0.047 C 
ATOM      5  C   UNL     1      16.363  16.154  16.527  1.00  0.00     0.025 C 
ATOM      6  C   UNL     1      16.207  14.643  16.352  1.00  0.00    -0.073 C 
ATOM      7  C   UNL     1      17.050  13.875  15.635  1.00  0.00     0.008 C 
ATOM      8  C   UNL     1      15.049  14.003  17.081  1.00  0.00     0.031 C 
ATOM      9  C   UNL     1      13.741  14.721  16.736  1.00  0.00     0.005 C 
ATOM     10  C   UNL     1      13.855  16.241  16.945  1.00  0.00     0.008 C 
ATOM     11  C   UNL     1      15.033  16.880  16.151  1.00  0.00    -0.018 C 
ATOM     12  C   UNL     1      15.146  18.366  16.570  1.00  0.00     0.088 C 
ATOM     13  C   UNL     1      16.377  19.020  16.011  1.00  0.00     0.159 C 
ATOM     14  O   UNL     1      16.281  20.189  15.551  1.00  0.00    -0.295 OA
ATOM     15  C   UNL     1      14.739  16.796  14.628  1.00  0.00     0.012 C 
ATOM     16  C   UNL     1      20.178  18.174  15.849  1.00  0.00     0.039 C 
ENDROOT
TORSDOF 0
ENDMDL
MODEL 5
REMARK VINA RESULT:    -5.015     11.723     13.176
REMARK INTER + INTRA:          -5.015
REMARK INTER:                  -5.015
REMARK INTRA:                   0.000
REMARK UNBOUND:                 0.000
REMARK SMILES C=C1CCC[C@@]2(C)CC(=O)C(=C(C)C)C[C@H]12
REMARK SMILES IDX 13 1 12 2 11 3 15 4 16 5 2 6 1 7 3 8 4 9 5 10 6 11 8 12 9 13
REMARK SMILES IDX 10 14 7 15 14 16
REMARK H PARENT
REMARK Flexibility Score: inf
ROOT
ATOM      1  C   UNL     1       9.051  18.011  14.035  1.00  0.00     0.039 C 
ATOM      2  C   UNL     1      10.540  18.217  14.193  1.00  0.00    -0.070 C 
ATOM      3  C   UNL     1      11.368  17.208  14.596  1.00  0.00    -0.006 C 
ATOM      4  C   UNL     1      12.857  17.449  14.810  1.00  0.00     0.047 C 
ATOM      5  C   UNL     1      13.461  16.533  15.905  1.00  0.00     0.025 C 
ATOM      6  C   UNL     1      14.963  16.701  16.135  1.00  0.00    -0.073 C 
ATOM      7  C   UNL     1      15.740  17.563  15.450  1.00  0.00     0.008 C 
ATOM      8  C   UNL     1      15.567  15.864  17.237  1.00  0.00     0.031 C 
ATOM      9  C   UNL     1      15.218  14.387  17.037  1.00  0.00     0.005 C 
ATOM     10  C   UNL     1      13.705  14.182  16.846  1.00  0.00     0.008 C 
ATOM     11  C   UNL     1      13.116  15.028  15.678  1.00  0.00    -0.018 C 
ATOM     12  C   UNL     1      11.577  14.865  15.694  1.00  0.00     0.088 C 
ATOM     13  C   UNL     1      10.899  15.798  14.731  1.00  0.00     0.159 C 
ATOM     14  O   UNL     1       9.942  15.359  14.039  1.00  0.00    -0.295 OA
ATOM     15  C   UNL     1      13.674  14.505  14.325  1.00  0.00     0.012 C 
ATOM     16  C   UNL     1      11.071  19.607  13.921  1.00  0.00     0.039 C 
ENDROOT
TORSDOF 0
ENDMDL
MODEL 6
REMARK VINA RESULT:    -5.002     11.801     13.395
REMARK INTER + INTRA:          -5.002
REMARK INTER:                  -5.002
REMARK INTRA:                   0.000
REMARK UNBOUND:                 0.000
REMARK SMILES C=C1CCC[C@@]2(C)CC(=O)C(=C(C)C)C[C@H]12
REMARK SMILES IDX 13 1 12 2 11 3 15 4 16 5 2 6 1 7 3 8 4 9 5 10 6 11 8 12 9 13
REMARK SMILES IDX 10 14 7 15 14 16
REMARK H PARENT
REMARK Flexibility Score: inf
ROOT
ATOM      1  C   UNL     1       0.875  19.170  14.550  1.00  0.00     0.039 C 
ATOM      2  C   UNL     1       2.192  19.908  14.643  1.00  0.00    -0.070 C 
ATOM      3  C   UNL     1       3.390  19.259  14.537  1.00  0.00    -0.006 C 
ATOM      4  C   UNL     1       4.707  20.008  14.694  1.00  0.00     0.047 C 
ATOM      5  C   UNL     1       5.835  19.120  15.278  1.00  0.00     0.025 C 
ATOM      6  C   UNL     1       7.193  19.807  15.420  1.00  0.00    -0.073 C 
ATOM      7  C   UNL     1       7.434  21.085  15.066  1.00  0.00     0.008 C 
ATOM      8  C   UNL     1       8.295  18.984  16.042  1.00  0.00     0.031 C 
ATOM      9  C   UNL     1       8.445  17.649  15.306  1.00  0.00     0.005 C 
ATOM     10  C   UNL     1       7.098  16.914  15.186  1.00  0.00     0.008 C 
ATOM     11  C   UNL     1       5.991  17.773  14.505  1.00  0.00    -0.018 C 
ATOM     12  C   UNL     1       4.656  16.994  14.594  1.00  0.00     0.088 C 
ATOM     13  C   UNL     1       3.487  17.823  14.145  1.00  0.00     0.159 C 
ATOM     14  O   UNL     1       2.606  17.282  13.424  1.00  0.00    -0.295 OA
ATOM     15  C   UNL     1       6.355  18.001  13.012  1.00  0.00     0.012 C 
ATOM     16  C   UNL     1       2.125  21.397  14.896  1.00  0.00     0.039 C 
ENDROOT
TORSDOF 0
ENDMDL
MODEL 7
REMARK VINA RESULT:    -4.926      5.453      7.803
REMARK INTER + INTRA:          -4.926
REMARK INTER:                  -4.926
REMARK INTRA:                   0.000
REMARK UNBOUND:                 0.000
REMARK SMILES C=C1CCC[C@@]2(C)CC(=O)C(=C(C)C)C[C@H]12
REMARK SMILES IDX 13 1 12 2 11 3 15 4 16 5 2 6 1 7 3 8 4 9 5 10 6 11 8 12 9 13
REMARK SMILES IDX 10 14 7 15 14 16
REMARK H PARENT
REMARK Flexibility Score: inf
ROOT
ATOM      1  C   UNL     1       4.546  25.194  14.763  1.00  0.00     0.039 C 
ATOM      2  C   UNL     1       4.438  26.638  15.199  1.00  0.00    -0.070 C 
ATOM      3  C   UNL     1       5.286  27.598  14.726  1.00  0.00    -0.006 C 
ATOM      4  C   UNL     1       5.203  29.036  15.222  1.00  0.00     0.047 C 
ATOM      5  C   UNL     1       6.575  29.757  15.202  1.00  0.00     0.025 C 
ATOM      6  C   UNL     1       6.546  31.218  15.651  1.00  0.00    -0.073 C 
ATOM      7  C   UNL     1       5.429  31.869  16.033  1.00  0.00     0.008 C 
ATOM      8  C   UNL     1       7.878  31.928  15.699  1.00  0.00     0.031 C 
ATOM      9  C   UNL     1       8.601  31.794  14.356  1.00  0.00     0.005 C 
ATOM     10  C   UNL     1       8.684  30.327  13.899  1.00  0.00     0.008 C 
ATOM     11  C   UNL     1       7.292  29.632  13.821  1.00  0.00    -0.018 C 
ATOM     12  C   UNL     1       7.520  28.131  13.517  1.00  0.00     0.088 C 
ATOM     13  C   UNL     1       6.251  27.334  13.619  1.00  0.00     0.159 C 
ATOM     14  O   UNL     1       6.021  26.454  12.747  1.00  0.00    -0.295 OA
ATOM     15  C   UNL     1       6.456  30.268  12.676  1.00  0.00     0.012 C 
ATOM     16  C   UNL     1       3.368  26.967  16.216  1.00  0.00     0.039 C 
ENDROOT
TORSDOF 0
ENDMDL
MODEL 8
REMARK VINA RESULT:    -4.921     11.321     13.589
REMARK INTER + INTRA:          -4.921
REMARK INTER:                  -4.921
REMARK INTRA:                   0.000
REMARK UNBOUND:                 0.000
REMARK SMILES C=C1CCC[C@@]2(C)CC(=O)C(=C(C)C)C[C@H]12
REMARK SMILES IDX 13 1 12 2 11 3 15 4 16 5 2 6 1 7 3 8 4 9 5 10 6 11 8 12 9 13
REMARK SMILES IDX 10 14 7 15 14 16
REMARK H PARENT
REMARK Flexibility Score: inf
ROOT
ATOM      1  C   UNL     1      10.739  19.516  14.751  1.00  0.00     0.039 C 
ATOM      2  C   UNL     1       9.351  19.758  15.301  1.00  0.00    -0.070 C 
ATOM      3  C   UNL     1       8.275  19.025  14.888  1.00  0.00    -0.006 C 
ATOM      4  C   UNL     1       6.874  19.323  15.407  1.00  0.00     0.047 C 
ATOM      5  C   UNL     1       5.768  18.982  14.376  1.00  0.00     0.025 C 
ATOM      6  C   UNL     1       4.337  19.222  14.856  1.00  0.00    -0.073 C 
ATOM      7  C   UNL     1       4.019  19.685  16.081  1.00  0.00     0.008 C 
ATOM      8  C   UNL     1       3.242  18.954  13.851  1.00  0.00     0.031 C 
ATOM      9  C   UNL     1       3.383  17.543  13.272  1.00  0.00     0.005 C 
ATOM     10  C   UNL     1       4.804  17.288  12.740  1.00  0.00     0.008 C 
ATOM     11  C   UNL     1       5.910  17.534  13.809  1.00  0.00    -0.018 C 
ATOM     12  C   UNL     1       7.288  17.408  13.115  1.00  0.00     0.088 C 
ATOM     13  C   UNL     1       8.416  17.825  14.014  1.00  0.00     0.159 C 
ATOM     14  O   UNL     1       9.469  17.132  14.020  1.00  0.00    -0.295 OA
ATOM     15  C   UNL     1       5.799  16.462  14.929  1.00  0.00     0.012 C 
ATOM     16  C   UNL     1       9.200  20.880  16.304  1.00  0.00     0.039 C 
ENDROOT
TORSDOF 0
ENDMDL
MODEL 9
REMARK VINA RESULT:    -4.849     10.401     12.674
REMARK INTER + INTRA:          -4.849
REMARK INTER:                  -4.849
REMARK INTRA:                   0.000
REMARK UNBOUND:                 0.000
REMARK SMILES C=C1CCC[C@@]2(C)CC(=O)C(=C(C)C)C[C@H]12
REMARK SMILES IDX 13 1 12 2 11 3 15 4 16 5 2 6 1 7 3 8 4 9 5 10 6 11 8 12 9 13
REMARK SMILES IDX 10 14 7 15 14 16
REMARK H PARENT
REMARK Flexibility Score: inf
ROOT
ATOM      1  C   UNL     1      16.651  21.519  15.243  1.00  0.00     0.039 C 
ATOM      2  C   UNL     1      16.769  20.117  15.796  1.00  0.00    -0.070 C 
ATOM      3  C   UNL     1      15.862  19.142  15.488  1.00  0.00    -0.006 C 
ATOM      4  C   UNL     1      15.961  17.752  16.102  1.00  0.00     0.047 C 
ATOM      5  C   UNL     1      14.579  17.071  16.270  1.00  0.00     0.025 C 
ATOM      6  C   UNL     1      14.619  15.655  16.844  1.00  0.00    -0.073 C 
ATOM      7  C   UNL     1      15.753  15.009  17.181  1.00  0.00     0.008 C 
ATOM      8  C   UNL     1      13.283  14.990  17.074  1.00  0.00     0.031 C 
ATOM      9  C   UNL     1      12.443  15.025  15.794  1.00  0.00     0.005 C 
ATOM     10  C   UNL     1      12.348  16.448  15.217  1.00  0.00     0.008 C 
ATOM     11  C   UNL     1      13.741  17.094  14.953  1.00  0.00    -0.018 C 
ATOM     12  C   UNL     1      13.517  18.568  14.536  1.00  0.00     0.088 C 
ATOM     13  C   UNL     1      14.805  19.336  14.453  1.00  0.00     0.159 C 
ATOM     14  O   UNL     1      14.973  20.129  13.488  1.00  0.00    -0.295 OA
ATOM     15  C   UNL     1      14.455  16.337  13.799  1.00  0.00     0.012 C 
ATOM     16  C   UNL     1      17.920  19.848  16.739  1.00  0.00     0.039 C 
ENDROOT
TORSDOF 0
ENDMDL
