MODEL 1
REMARK VINA RESULT:    -2.606      0.000      0.000
REMARK INTER + INTRA:          -4.075
REMARK INTER:                  -3.673
REMARK INTRA:                  -0.402
REMARK UNBOUND:                -0.402
REMARK SMILES CCCCCCCCC(=O)[O-]
REMARK SMILES IDX 6 1 7 2 8 3 9 4 10 5 11 6 5 7 4 8 3 9 2 10 1 11
REMARK H PARENT
REMARK Flexibility Score: inf
ROOT
ATOM      1  C   UNL     1      -7.060  52.110  -5.015  1.00  0.00     0.000 C 
ENDROOT
BRANCH   1   2
ATOM      2  C   UNL     1      -6.448  52.125  -6.425  1.00  0.00     0.006 C 
BRANCH   2   3
ATOM      3  C   UNL     1      -7.513  52.124  -7.530  1.00  0.00     0.053 C 
BRANCH   3   4
ATOM      4  C   UNL     1      -7.207  51.072  -8.548  1.00  0.00     0.041 C 
ATOM      5  O   UNL     1      -8.129  50.584  -9.253  1.00  0.00    -0.550 OA
ATOM      6  O   UNL     1      -5.895  50.664  -8.753  1.00  0.00    -0.550 OA
ENDBRANCH   3   4
ENDBRANCH   2   3
ENDBRANCH   1   2
BRANCH   1   7
ATOM      7  C   UNL     1      -8.570  51.826  -5.028  1.00  0.00     0.000 C 
BRANCH   7   8
ATOM      8  C   UNL     1      -9.105  51.637  -3.603  1.00  0.00    -0.000 C 
BRANCH   8   9
ATOM      9  C   UNL     1      -8.702  50.269  -3.040  1.00  0.00    -0.000 C 
BRANCH   9  10
ATOM     10  C   UNL     1      -8.400  50.359  -1.539  1.00  0.00    -0.003 C 
ATOM     11  C   UNL     1      -8.319  51.812  -1.079  1.00  0.00     0.004 C 
ENDBRANCH   9  10
ENDBRANCH   8   9
ENDBRANCH   7   8
ENDBRANCH   1   7
TORSDOF 7
ENDMDL
MODEL 2
REMARK VINA RESULT:    -2.359      1.755      2.377
REMARK INTER + INTRA:          -3.727
REMARK INTER:                  -3.482
REMARK INTRA:                  -0.245
REMARK UNBOUND:                -0.402
REMARK SMILES CCCCCCCCC(=O)[O-]
REMARK SMILES IDX 6 1 7 2 8 3 9 4 10 5 11 6 5 7 4 8 3 9 2 10 1 11
REMARK H PARENT
REMARK Flexibility Score: inf
ROOT
ATOM      1  C   UNL     1      -6.514  51.960  -5.573  1.00  0.00     0.000 C 
ENDROOT
BRANCH   1   2
ATOM      2  C   UNL     1      -5.863  52.123  -6.955  1.00  0.00     0.006 C 
BRANCH   2   3
ATOM      3  C   UNL     1      -4.330  52.080  -6.894  1.00  0.00     0.053 C 
BRANCH   3   4
ATOM      4  C   UNL     1      -3.768  51.640  -8.209  1.00  0.00     0.041 C 
ATOM      5  O   UNL     1      -2.538  51.769  -8.447  1.00  0.00    -0.550 OA
ATOM      6  O   UNL     1      -4.593  51.044  -9.153  1.00  0.00    -0.550 OA
ENDBRANCH   3   4
ENDBRANCH   2   3
ENDBRANCH   1   2
BRANCH   1   7
ATOM      7  C   UNL     1      -8.049  51.955  -5.639  1.00  0.00     0.000 C 
BRANCH   7   8
ATOM      8  C   UNL     1      -8.659  51.885  -4.234  1.00  0.00    -0.000 C 
BRANCH   8   9
ATOM      9  C   UNL     1      -8.648  50.449  -3.699  1.00  0.00    -0.000 C 
BRANCH   9  10
ATOM     10  C   UNL     1      -8.932  50.420  -2.192  1.00  0.00    -0.003 C 
ATOM     11  C   UNL     1      -8.146  51.507  -1.463  1.00  0.00     0.004 C 
ENDBRANCH   9  10
ENDBRANCH   8   9
ENDBRANCH   7   8
ENDBRANCH   1   7
TORSDOF 7
ENDMDL
MODEL 3
REMARK VINA RESULT:    -2.314      5.299      5.980
REMARK INTER + INTRA:          -3.662
REMARK INTER:                  -3.409
REMARK INTRA:                  -0.253
REMARK UNBOUND:                -0.402
REMARK SMILES CCCCCCCCC(=O)[O-]
REMARK SMILES IDX 6 1 7 2 8 3 9 4 10 5 11 6 5 7 4 8 3 9 2 10 1 11
REMARK H PARENT
REMARK Flexibility Score: inf
ROOT
ATOM      1  C   UNL     1      -5.760  51.309  -8.845  1.00  0.00     0.000 C 
ENDROOT
BRANCH   1   2
ATOM      2  C   UNL     1      -4.428  52.049  -8.640  1.00  0.00     0.006 C 
BRANCH   2   3
ATOM      3  C   UNL     1      -3.660  51.551  -7.409  1.00  0.00     0.053 C 
BRANCH   3   4
ATOM      4  C   UNL     1      -2.187  51.589  -7.663  1.00  0.00     0.041 C 
ATOM      5  O   UNL     1      -1.747  51.933  -8.792  1.00  0.00    -0.550 OA
ATOM      6  O   UNL     1      -1.296  51.291  -6.640  1.00  0.00    -0.550 OA
ENDBRANCH   3   4
ENDBRANCH   2   3
ENDBRANCH   1   2
BRANCH   1   7
ATOM      7  C   UNL     1      -6.766  52.120  -9.674  1.00  0.00     0.000 C 
BRANCH   7   8
ATOM      8  C   UNL     1      -8.097  51.370  -9.811  1.00  0.00    -0.000 C 
BRANCH   8   9
ATOM      9  C   UNL     1      -7.998  49.959  -9.218  1.00  0.00    -0.000 C 
BRANCH   9  10
ATOM     10  C   UNL     1      -8.998  49.010  -9.886  1.00  0.00    -0.003 C 
ATOM     11  C   UNL     1      -9.121  47.702  -9.109  1.00  0.00     0.004 C 
ENDBRANCH   9  10
ENDBRANCH   8   9
ENDBRANCH   7   8
ENDBRANCH   1   7
TORSDOF 7
ENDMDL
MODEL 4
REMARK VINA RESULT:    -2.189      3.605      6.103
REMARK INTER + INTRA:          -3.487
REMARK INTER:                  -3.246
REMARK INTRA:                  -0.242
REMARK UNBOUND:                -0.402
REMARK SMILES CCCCCCCCC(=O)[O-]
REMARK SMILES IDX 6 1 7 2 8 3 9 4 10 5 11 6 5 7 4 8 3 9 2 10 1 11
REMARK H PARENT
REMARK Flexibility Score: inf
ROOT
ATOM      1  C   UNL     1      -7.565  51.691  -5.000  1.00  0.00     0.000 C 
ENDROOT
BRANCH   1   2
ATOM      2  C   UNL     1      -8.816  51.345  -4.177  1.00  0.00     0.006 C 
BRANCH   2   3
ATOM      3  C   UNL     1      -8.886  52.123  -2.856  1.00  0.00     0.053 C 
BRANCH   3   4
ATOM      4  C   UNL     1      -8.404  51.273  -1.724  1.00  0.00     0.041 C 
ATOM      5  O   UNL     1      -7.702  51.775  -0.807  1.00  0.00    -0.550 OA
ATOM      6  O   UNL     1      -8.769  49.934  -1.655  1.00  0.00    -0.550 OA
ENDBRANCH   3   4
ENDBRANCH   2   3
ENDBRANCH   1   2
BRANCH   1   7
ATOM      7  C   UNL     1      -7.897  52.062  -6.453  1.00  0.00     0.000 C 
BRANCH   7   8
ATOM      8  C   UNL     1      -6.626  52.125  -7.308  1.00  0.00    -0.000 C 
BRANCH   8   9
ATOM      9  C   UNL     1      -6.809  51.365  -8.627  1.00  0.00    -0.000 C 
BRANCH   9  10
ATOM     10  C   UNL     1      -5.455  50.996  -9.244  1.00  0.00    -0.003 C 
ATOM     11  C   UNL     1      -4.349  51.011  -8.192  1.00  0.00     0.004 C 
ENDBRANCH   9  10
ENDBRANCH   8   9
ENDBRANCH   7   8
ENDBRANCH   1   7
TORSDOF 7
ENDMDL
MODEL 5
REMARK VINA RESULT:    -2.139      1.900      3.304
REMARK INTER + INTRA:          -3.417
REMARK INTER:                  -2.992
REMARK INTRA:                  -0.424
REMARK UNBOUND:                -0.402
REMARK SMILES CCCCCCCCC(=O)[O-]
REMARK SMILES IDX 6 1 7 2 8 3 9 4 10 5 11 6 5 7 4 8 3 9 2 10 1 11
REMARK H PARENT
REMARK Flexibility Score: inf
ROOT
ATOM      1  C   UNL     1      -8.055  50.118  -2.921  1.00  0.00     0.000 C 
ENDROOT
BRANCH   1   2
ATOM      2  C   UNL     1      -8.982  50.342  -4.126  1.00  0.00     0.006 C 
BRANCH   2   3
ATOM      3  C   UNL     1      -8.828  51.740  -4.737  1.00  0.00     0.053 C 
BRANCH   3   4
ATOM      4  C   UNL     1      -7.712  51.754  -5.732  1.00  0.00     0.041 C 
ATOM      5  O   UNL     1      -6.550  52.088  -5.378  1.00  0.00    -0.550 OA
ATOM      6  O   UNL     1      -7.941  51.350  -7.041  1.00  0.00    -0.550 OA
ENDBRANCH   3   4
ENDBRANCH   2   3
ENDBRANCH   1   2
BRANCH   1   7
ATOM      7  C   UNL     1      -8.818  50.073  -1.588  1.00  0.00     0.000 C 
BRANCH   7   8
ATOM      8  C   UNL     1      -8.878  51.462  -0.942  1.00  0.00    -0.000 C 
BRANCH   8   9
ATOM      9  C   UNL     1      -7.493  52.120  -0.919  1.00  0.00    -0.000 C 
BRANCH   9  10
ATOM     10  C   UNL     1      -6.593  51.473   0.140  1.00  0.00    -0.003 C 
ATOM     11  C   UNL     1      -5.205  52.108   0.147  1.00  0.00     0.004 C 
ENDBRANCH   9  10
ENDBRANCH   8   9
ENDBRANCH   7   8
ENDBRANCH   1   7
TORSDOF 7
ENDMDL
MODEL 6
REMARK VINA RESULT:    -1.993      5.360      7.143
REMARK INTER + INTRA:          -3.211
REMARK INTER:                  -3.029
REMARK INTRA:                  -0.182
REMARK UNBOUND:                -0.402
REMARK SMILES CCCCCCCCC(=O)[O-]
REMARK SMILES IDX 6 1 7 2 8 3 9 4 10 5 11 6 5 7 4 8 3 9 2 10 1 11
REMARK H PARENT
REMARK Flexibility Score: inf
ROOT
ATOM      1  C   UNL     1      -5.566  51.473   0.402  1.00  0.00     0.000 C 
ENDROOT
BRANCH   1   2
ATOM      2  C   UNL     1      -4.190  52.125   0.192  1.00  0.00     0.006 C 
BRANCH   2   3
ATOM      3  C   UNL     1      -3.050  51.099   0.159  1.00  0.00     0.053 C 
BRANCH   3   4
ATOM      4  C   UNL     1      -1.726  51.792   0.107  1.00  0.00     0.041 C 
ATOM      5  O   UNL     1      -1.142  52.125   1.172  1.00  0.00    -0.550 OA
ATOM      6  O   UNL     1      -1.113  52.029  -1.116  1.00  0.00    -0.550 OA
ENDBRANCH   3   4
ENDBRANCH   2   3
ENDBRANCH   1   2
BRANCH   1   7
ATOM      7  C   UNL     1      -6.664  52.119  -0.457  1.00  0.00     0.000 C 
BRANCH   7   8
ATOM      8  C   UNL     1      -7.960  51.302  -0.397  1.00  0.00    -0.000 C 
BRANCH   8   9
ATOM      9  C   UNL     1      -8.639  51.242  -1.771  1.00  0.00    -0.000 C 
BRANCH   9  10
ATOM     10  C   UNL     1      -8.265  49.953  -2.513  1.00  0.00    -0.003 C 
ATOM     11  C   UNL     1      -8.868  49.929  -3.914  1.00  0.00     0.004 C 
ENDBRANCH   9  10
ENDBRANCH   8   9
ENDBRANCH   7   8
ENDBRANCH   1   7
TORSDOF 7
ENDMDL
MODEL 7
REMARK VINA RESULT:    -1.887      2.980      5.581
REMARK INTER + INTRA:          -3.061
REMARK INTER:                  -2.537
REMARK INTRA:                  -0.524
REMARK UNBOUND:                -0.402
REMARK SMILES CCCCCCCCC(=O)[O-]
REMARK SMILES IDX 6 1 7 2 8 3 9 4 10 5 11 6 5 7 4 8 3 9 2 10 1 11
REMARK H PARENT
REMARK Flexibility Score: inf
ROOT
ATOM      1  C   UNL     1      -7.344  51.092  -7.759  1.00  0.00     0.000 C 
ENDROOT
BRANCH   1   2
ATOM      2  C   UNL     1      -7.437  52.125  -6.625  1.00  0.00     0.006 C 
BRANCH   2   3
ATOM      3  C   UNL     1      -6.942  51.573  -5.282  1.00  0.00     0.053 C 
BRANCH   3   4
ATOM      4  C   UNL     1      -8.100  51.178  -4.422  1.00  0.00     0.041 C 
ATOM      5  O   UNL     1      -8.952  52.036  -4.071  1.00  0.00    -0.550 OA
ATOM      6  O   UNL     1      -8.266  49.851  -4.047  1.00  0.00    -0.550 OA
ENDBRANCH   3   4
ENDBRANCH   2   3
ENDBRANCH   1   2
BRANCH   1   7
ATOM      7  C   UNL     1      -6.726  51.673  -9.040  1.00  0.00     0.000 C 
BRANCH   7   8
ATOM      8  C   UNL     1      -5.328  51.094  -9.287  1.00  0.00    -0.000 C 
BRANCH   8   9
ATOM      9  C   UNL     1      -4.239  52.124  -8.964  1.00  0.00    -0.000 C 
BRANCH   9  10
ATOM     10  C   UNL     1      -3.885  52.103  -7.473  1.00  0.00    -0.003 C 
ATOM     11  C   UNL     1      -2.825  51.048  -7.173  1.00  0.00     0.004 C 
ENDBRANCH   9  10
ENDBRANCH   8   9
ENDBRANCH   7   8
ENDBRANCH   1   7
TORSDOF 7
ENDMDL
MODEL 8
REMARK VINA RESULT:    -1.289     24.479     25.558
REMARK INTER + INTRA:          -2.218
REMARK INTER:                  -2.285
REMARK INTRA:                   0.067
REMARK UNBOUND:                -0.402
REMARK SMILES CCCCCCCCC(=O)[O-]
REMARK SMILES IDX 6 1 7 2 8 3 9 4 10 5 11 6 5 7 4 8 3 9 2 10 1 11
REMARK H PARENT
REMARK Flexibility Score: inf
ROOT
ATOM      1  C   UNL     1       9.801  34.072  -8.719  1.00  0.00     0.000 C 
ENDROOT
BRANCH   1   2
ATOM      2  C   UNL     1      11.109  33.267  -8.687  1.00  0.00     0.006 C 
BRANCH   2   3
ATOM      3  C   UNL     1      11.016  32.023  -7.793  1.00  0.00     0.053 C 
BRANCH   3   4
ATOM      4  C   UNL     1      10.378  32.369  -6.485  1.00  0.00     0.041 C 
ATOM      5  O   UNL     1      10.997  33.073  -5.644  1.00  0.00    -0.550 OA
ATOM      6  O   UNL     1       9.082  31.954  -6.212  1.00  0.00    -0.550 OA
ENDBRANCH   3   4
ENDBRANCH   2   3
ENDBRANCH   1   2
BRANCH   1   7
ATOM      7  C   UNL     1       9.138  34.070 -10.105  1.00  0.00     0.000 C 
BRANCH   7   8
ATOM      8  C   UNL     1       7.909  33.153 -10.125  1.00  0.00    -0.000 C 
BRANCH   8   9
ATOM      9  C   UNL     1       7.681  32.507  -8.753  1.00  0.00    -0.000 C 
BRANCH   9  10
ATOM     10  C   UNL     1       6.286  31.876  -8.667  1.00  0.00    -0.003 C 
ATOM     11  C   UNL     1       5.532  32.023  -9.986  1.00  0.00     0.004 C 
ENDBRANCH   9  10
ENDBRANCH   8   9
ENDBRANCH   7   8
ENDBRANCH   1   7
TORSDOF 7
ENDMDL
