MODEL 1
REMARK VINA RESULT:    -4.596      0.000      0.000
REMARK INTER + INTRA:          -4.907
REMARK INTER:                  -5.671
REMARK INTRA:                   0.764
REMARK UNBOUND:                 0.764
REMARK SMILES CC1=CC=CC(C)(C)CC1=O
REMARK SMILES IDX 1 1 2 2 3 3 10 4 11 5 9 6 4 8 5 9 6 10 7 11 8 12
REMARK H PARENT
REMARK Flexibility Score: 80.00
ROOT
ATOM      1  C   UNL     1      24.250  16.007  82.121  1.00  0.00     0.048 C 
ATOM      2  C   UNL     1      25.390  15.174  81.582  1.00  0.00    -0.008 C 
ATOM      3  C   UNL     1      25.716  14.049  82.255  1.00  0.00     0.007 C 
ENDROOT
BRANCH   2   4
ATOM      4  C   UNL     1      26.109  15.701  80.395  1.00  0.00     0.159 C 
ATOM      5  O   UNL     1      25.885  16.886  80.024  1.00  0.00    -0.295 OA
BRANCH   4   6
ATOM      6  C   UNL     1      27.088  14.896  79.597  1.00  0.00     0.091 CG0
ATOM      7  G   UNL     1      28.295  14.406  80.428  1.00  0.00     0.000 G0
ENDBRANCH   4   6
ENDBRANCH   2   4
BRANCH   3   8
ATOM      8  C   UNL     1      26.786  13.059  81.989  1.00  0.00    -0.003 C 
ATOM      9  C   UNL     1      27.886  13.185  81.236  1.00  0.00    -0.020 C 
BRANCH   9  10
ATOM     10  C   UNL     1      28.289  14.399  80.433  1.00  0.00    -0.010 CG0
ATOM     11  C   UNL     1      29.410  13.982  79.453  1.00  0.00     0.016 C 
ATOM     12  C   UNL     1      28.855  15.488  81.371  1.00  0.00     0.016 C 
ATOM     13  G   UNL     1      27.085  14.896  79.601  1.00  0.00     0.000 G0
ENDBRANCH   9  10
ENDBRANCH   3   8
TORSDOF 0
ENDMDL
MODEL 2
REMARK VINA RESULT:    -4.539      1.479      1.914
REMARK INTER + INTRA:          -4.836
REMARK INTER:                  -5.587
REMARK INTRA:                   0.751
REMARK UNBOUND:                 0.764
REMARK SMILES CC1=CC=CC(C)(C)CC1=O
REMARK SMILES IDX 1 1 2 2 3 3 10 4 11 5 9 6 4 8 5 9 6 10 7 11 8 12
REMARK H PARENT
REMARK Flexibility Score: 80.00
ROOT
ATOM      1  C   UNL     1      25.652  14.771  82.447  1.00  0.00     0.048 C 
ATOM      2  C   UNL     1      26.742  14.054  81.685  1.00  0.00    -0.008 C 
ATOM      3  C   UNL     1      26.741  12.704  81.715  1.00  0.00     0.007 C 
ENDROOT
BRANCH   2   4
ATOM      4  C   UNL     1      27.772  14.895  81.027  1.00  0.00     0.159 C 
ATOM      5  O   UNL     1      27.821  16.126  81.304  1.00  0.00    -0.295 OA
BRANCH   4   6
ATOM      6  C   UNL     1      28.759  14.366  80.032  1.00  0.00     0.091 CG0
ATOM      7  G   UNL     1      29.666  13.254  80.606  1.00  0.00     0.000 G0
ENDBRANCH   4   6
ENDBRANCH   2   4
BRANCH   3   8
ATOM      8  C   UNL     1      27.681  11.739  81.098  1.00  0.00    -0.003 C 
ATOM      9  C   UNL     1      28.921  11.944  80.635  1.00  0.00    -0.020 C 
BRANCH   9  10
ATOM     10  C   UNL     1      29.662  13.261  80.609  1.00  0.00    -0.010 CG0
ATOM     11  C   UNL     1      30.875  13.115  79.662  1.00  0.00     0.016 C 
ATOM     12  C   UNL     1      30.194  13.594  82.021  1.00  0.00     0.016 C 
ATOM     13  G   UNL     1      28.740  14.365  80.043  1.00  0.00     0.000 G0
ENDBRANCH   9  10
ENDBRANCH   3   8
TORSDOF 0
ENDMDL
MODEL 3
REMARK VINA RESULT:    -4.480      1.559      2.311
REMARK INTER + INTRA:          -4.763
REMARK INTER:                  -5.529
REMARK INTRA:                   0.766
REMARK UNBOUND:                 0.764
REMARK SMILES CC1=CC=CC(C)(C)CC1=O
REMARK SMILES IDX 1 1 2 2 3 3 10 4 11 5 9 6 4 8 5 9 6 10 7 11 8 12
REMARK H PARENT
REMARK Flexibility Score: 80.00
ROOT
ATOM      1  C   UNL     1      24.670  15.494  81.778  1.00  0.00     0.048 C 
ATOM      2  C   UNL     1      26.009  15.273  81.114  1.00  0.00    -0.008 C 
ATOM      3  C   UNL     1      26.021  15.086  79.776  1.00  0.00     0.007 C 
ENDROOT
BRANCH   2   4
ATOM      4  C   UNL     1      27.199  15.203  81.999  1.00  0.00     0.159 C 
ATOM      5  O   UNL     1      27.026  15.125  83.246  1.00  0.00    -0.295 OA
BRANCH   4   6
ATOM      6  C   UNL     1      28.608  15.231  81.492  1.00  0.00     0.091 CG0
ATOM      7  G   UNL     1      28.930  14.075  80.518  1.00  0.00     0.000 G0
ENDBRANCH   4   6
ENDBRANCH   2   4
BRANCH   3   8
ATOM      8  C   UNL     1      27.158  14.824  78.863  1.00  0.00    -0.003 C 
ATOM      9  C   UNL     1      28.391  14.389  79.152  1.00  0.00    -0.020 C 
BRANCH   9  10
ATOM     10  C   UNL     1      28.935  14.082  80.527  1.00  0.00    -0.010 CG0
ATOM     11  C   UNL     1      30.473  13.967  80.426  1.00  0.00     0.016 C 
ATOM     12  C   UNL     1      28.385  12.725  81.021  1.00  0.00     0.016 C 
ATOM     13  G   UNL     1      28.602  15.245  81.489  1.00  0.00     0.000 G0
ENDBRANCH   9  10
ENDBRANCH   3   8
TORSDOF 0
ENDMDL
MODEL 4
REMARK VINA RESULT:    -4.443      1.846      2.781
REMARK INTER + INTRA:          -4.718
REMARK INTER:                  -5.480
REMARK INTRA:                   0.762
REMARK UNBOUND:                 0.764
REMARK SMILES CC1=CC=CC(C)(C)CC1=O
REMARK SMILES IDX 1 1 2 2 3 3 10 4 11 5 9 6 4 8 5 9 6 10 7 11 8 12
REMARK H PARENT
REMARK Flexibility Score: 80.00
ROOT
ATOM      1  C   UNL     1      26.172  15.433  78.138  1.00  0.00     0.048 C 
ATOM      2  C   UNL     1      26.379  14.745  79.467  1.00  0.00    -0.008 C 
ATOM      3  C   UNL     1      25.720  15.240  80.537  1.00  0.00     0.007 C 
ENDROOT
BRANCH   2   4
ATOM      4  C   UNL     1      27.350  13.624  79.503  1.00  0.00     0.159 C 
ATOM      5  O   UNL     1      28.088  13.425  78.499  1.00  0.00    -0.295 OA
BRANCH   4   6
ATOM      6  C   UNL     1      27.499  12.697  80.670  1.00  0.00     0.091 CG0
ATOM      7  G   UNL     1      27.878  13.423  81.981  1.00  0.00     0.000 G0
ENDBRANCH   4   6
ENDBRANCH   2   4
BRANCH   3   8
ATOM      8  C   UNL     1      25.741  14.802  81.953  1.00  0.00    -0.003 C 
ATOM      9  C   UNL     1      26.643  14.044  82.589  1.00  0.00    -0.020 C 
BRANCH   9  10
ATOM     10  C   UNL     1      27.874  13.414  81.982  1.00  0.00    -0.010 CG0
ATOM     11  C   UNL     1      28.414  12.354  82.969  1.00  0.00     0.016 C 
ATOM     12  C   UNL     1      28.971  14.485  81.784  1.00  0.00     0.016 C 
ATOM     13  G   UNL     1      27.497  12.698  80.666  1.00  0.00     0.000 G0
ENDBRANCH   9  10
ENDBRANCH   3   8
TORSDOF 0
ENDMDL
MODEL 5
REMARK VINA RESULT:    -4.335      2.138      3.127
REMARK INTER + INTRA:          -4.585
REMARK INTER:                  -5.329
REMARK INTRA:                   0.745
REMARK UNBOUND:                 0.764
REMARK SMILES CC1=CC=CC(C)(C)CC1=O
REMARK SMILES IDX 1 1 2 2 3 3 10 4 11 5 9 6 4 8 5 9 6 10 7 11 8 12
REMARK H PARENT
REMARK Flexibility Score: 80.00
ROOT
ATOM      1  C   UNL     1      26.106  17.129  81.215  1.00  0.00     0.048 C 
ATOM      2  C   UNL     1      27.000  16.032  81.743  1.00  0.00    -0.008 C 
ATOM      3  C   UNL     1      28.280  16.005  81.310  1.00  0.00     0.007 C 
ENDROOT
BRANCH   2   4
ATOM      4  C   UNL     1      26.379  15.027  82.641  1.00  0.00     0.159 C 
ATOM      5  O   UNL     1      25.122  15.004  82.751  1.00  0.00    -0.295 OA
BRANCH   4   6
ATOM      6  C   UNL     1      27.166  14.035  83.441  1.00  0.00     0.091 CG0
ATOM      7  G   UNL     1      28.035  13.100  82.569  1.00  0.00     0.000 G0
ENDBRANCH   4   6
ENDBRANCH   2   4
BRANCH   3   8
ATOM      8  C   UNL     1      29.370  15.052  81.625  1.00  0.00    -0.003 C 
ATOM      9  C   UNL     1      29.291  13.820  82.144  1.00  0.00    -0.020 C 
BRANCH   9  10
ATOM     10  C   UNL     1      28.031  13.105  82.570  1.00  0.00    -0.010 CG0
ATOM     11  C   UNL     1      28.433  11.894  83.444  1.00  0.00     0.016 C 
ATOM     12  C   UNL     1      27.282  12.570  81.329  1.00  0.00     0.016 C 
ATOM     13  G   UNL     1      27.161  14.050  83.430  1.00  0.00     0.000 G0
ENDBRANCH   9  10
ENDBRANCH   3   8
TORSDOF 0
ENDMDL
MODEL 6
REMARK VINA RESULT:    -4.327      1.636      3.390
REMARK INTER + INTRA:          -4.575
REMARK INTER:                  -5.326
REMARK INTRA:                   0.751
REMARK UNBOUND:                 0.764
REMARK SMILES CC1=CC=CC(C)(C)CC1=O
REMARK SMILES IDX 1 1 2 2 3 3 10 4 11 5 9 6 4 8 5 9 6 10 7 11 8 12
REMARK H PARENT
REMARK Flexibility Score: 80.00
ROOT
ATOM      1  C   UNL     1      29.354  12.421  81.607  1.00  0.00     0.048 C 
ATOM      2  C   UNL     1      28.318  13.516  81.721  1.00  0.00    -0.008 C 
ATOM      3  C   UNL     1      27.186  13.237  82.403  1.00  0.00     0.007 C 
ENDROOT
BRANCH   2   4
ATOM      4  C   UNL     1      28.598  14.787  81.008  1.00  0.00     0.159 C 
ATOM      5  O   UNL     1      29.563  14.831  80.197  1.00  0.00    -0.295 OA
BRANCH   4   6
ATOM      6  C   UNL     1      27.799  16.039  81.208  1.00  0.00     0.091 CG0
ATOM      7  G   UNL     1      26.302  15.869  80.863  1.00  0.00     0.000 G0
ENDBRANCH   4   6
ENDBRANCH   2   4
BRANCH   3   8
ATOM      8  C   UNL     1      25.997  14.084  82.658  1.00  0.00    -0.003 C 
ATOM      9  C   UNL     1      25.594  15.189  82.018  1.00  0.00    -0.020 C 
BRANCH   9  10
ATOM     10  C   UNL     1      26.299  15.867  80.867  1.00  0.00    -0.010 CG0
ATOM     11  C   UNL     1      25.695  17.279  80.693  1.00  0.00     0.016 C 
ATOM     12  C   UNL     1      26.054  15.078  79.561  1.00  0.00     0.016 C 
ATOM     13  G   UNL     1      27.801  16.023  81.195  1.00  0.00     0.000 G0
ENDBRANCH   9  10
ENDBRANCH   3   8
TORSDOF 0
ENDMDL
MODEL 7
REMARK VINA RESULT:    -4.310      1.767      3.017
REMARK INTER + INTRA:          -4.553
REMARK INTER:                  -5.319
REMARK INTRA:                   0.766
REMARK UNBOUND:                 0.764
REMARK SMILES CC1=CC=CC(C)(C)CC1=O
REMARK SMILES IDX 1 1 2 2 3 3 10 4 11 5 9 6 4 8 5 9 6 10 7 11 8 12
REMARK H PARENT
REMARK Flexibility Score: 80.00
ROOT
ATOM      1  C   UNL     1      25.995  15.224  77.977  1.00  0.00     0.048 C 
ATOM      2  C   UNL     1      27.207  14.838  78.793  1.00  0.00    -0.008 C 
ATOM      3  C   UNL     1      28.285  14.369  78.127  1.00  0.00     0.007 C 
ENDROOT
BRANCH   2   4
ATOM      4  C   UNL     1      27.087  14.936  80.269  1.00  0.00     0.159 C 
ATOM      5  O   UNL     1      25.945  15.113  80.777  1.00  0.00    -0.295 OA
BRANCH   4   6
ATOM      6  C   UNL     1      28.257  14.848  81.200  1.00  0.00     0.091 CG0
ATOM      7  G   UNL     1      29.003  13.497  81.117  1.00  0.00     0.000 G0
ENDBRANCH   4   6
ENDBRANCH   2   4
BRANCH   3   8
ATOM      8  C   UNL     1      29.589  13.894  78.646  1.00  0.00    -0.003 C 
ATOM      9  C   UNL     1      29.915  13.508  79.887  1.00  0.00    -0.020 C 
BRANCH   9  10
ATOM     10  C   UNL     1      29.004  13.496  81.091  1.00  0.00    -0.010 CG0
ATOM     11  C   UNL     1      29.876  13.327  82.357  1.00  0.00     0.016 C 
ATOM     12  C   UNL     1      28.039  12.292  81.011  1.00  0.00     0.016 C 
ATOM     13  G   UNL     1      28.262  14.848  81.196  1.00  0.00     0.000 G0
ENDBRANCH   9  10
ENDBRANCH   3   8
TORSDOF 0
ENDMDL
MODEL 8
REMARK VINA RESULT:    -4.289      2.005      3.428
REMARK INTER + INTRA:          -4.527
REMARK INTER:                  -5.297
REMARK INTRA:                   0.769
REMARK UNBOUND:                 0.764
REMARK SMILES CC1=CC=CC(C)(C)CC1=O
REMARK SMILES IDX 1 1 2 2 3 3 10 4 11 5 9 6 4 8 5 9 6 10 7 11 8 12
REMARK H PARENT
REMARK Flexibility Score: 80.00
ROOT
ATOM      1  C   UNL     1      27.878  12.363  83.321  1.00  0.00     0.048 C 
ATOM      2  C   UNL     1      27.231  13.358  82.385  1.00  0.00    -0.008 C 
ATOM      3  C   UNL     1      27.497  13.239  81.066  1.00  0.00     0.007 C 
ENDROOT
BRANCH   2   4
ATOM      4  C   UNL     1      26.414  14.432  83.001  1.00  0.00     0.159 C 
ATOM      5  O   UNL     1      26.468  14.597  84.251  1.00  0.00    -0.295 OA
BRANCH   4   6
ATOM      6  C   UNL     1      25.510  15.334  82.219  1.00  0.00     0.091 CG0
ATOM      7  G   UNL     1      26.252  16.151  81.136  1.00  0.00     0.000 G0
ENDBRANCH   4   6
ENDBRANCH   2   4
BRANCH   3   8
ATOM      8  C   UNL     1      27.038  14.068  79.926  1.00  0.00    -0.003 C 
ATOM      9  C   UNL     1      26.530  15.307  79.933  1.00  0.00    -0.020 C 
BRANCH   9  10
ATOM     10  C   UNL     1      26.271  16.164  81.149  1.00  0.00    -0.010 CG0
ATOM     11  C   UNL     1      25.371  17.348  80.726  1.00  0.00     0.016 C 
ATOM     12  C   UNL     1      27.602  16.741  81.681  1.00  0.00     0.016 C 
ATOM     13  G   UNL     1      25.511  15.340  82.214  1.00  0.00     0.000 G0
ENDBRANCH   9  10
ENDBRANCH   3   8
TORSDOF 0
ENDMDL
MODEL 9
REMARK VINA RESULT:    -4.251      2.062      3.082
REMARK INTER + INTRA:          -4.481
REMARK INTER:                  -5.239
REMARK INTRA:                   0.758
REMARK UNBOUND:                 0.764
REMARK SMILES CC1=CC=CC(C)(C)CC1=O
REMARK SMILES IDX 1 1 2 2 3 3 10 4 11 5 9 6 4 8 5 9 6 10 7 11 8 12
REMARK H PARENT
REMARK Flexibility Score: 80.00
ROOT
ATOM      1  C   UNL     1      28.039  13.047  84.029  1.00  0.00     0.048 C 
ATOM      2  C   UNL     1      27.773  13.708  82.696  1.00  0.00    -0.008 C 
ATOM      3  C   UNL     1      26.516  14.138  82.451  1.00  0.00     0.007 C 
ENDROOT
BRANCH   2   4
ATOM      4  C   UNL     1      28.901  13.765  81.733  1.00  0.00     0.159 C 
ATOM      5  O   UNL     1      29.947  13.103  81.981  1.00  0.00    -0.295 OA
BRANCH   4   6
ATOM      6  C   UNL     1      28.874  14.579  80.477  1.00  0.00     0.091 CG0
ATOM      7  G   UNL     1      27.720  14.193  79.524  1.00  0.00     0.000 G0
ENDBRANCH   4   6
ENDBRANCH   2   4
BRANCH   3   8
ATOM      8  C   UNL     1      25.953  14.790  81.245  1.00  0.00    -0.003 C 
ATOM      9  C   UNL     1      26.434  14.815  79.996  1.00  0.00    -0.020 C 
BRANCH   9  10
ATOM     10  C   UNL     1      27.722  14.188  79.518  1.00  0.00    -0.010 CG0
ATOM     11  C   UNL     1      28.052  14.762  78.120  1.00  0.00     0.016 C 
ATOM     12  C   UNL     1      27.544  12.659  79.377  1.00  0.00     0.016 C 
ATOM     13  G   UNL     1      28.874  14.568  80.476  1.00  0.00     0.000 G0
ENDBRANCH   9  10
ENDBRANCH   3   8
TORSDOF 0
ENDMDL
