MODEL 1
REMARK VINA RESULT:    -0.008      0.000      0.000
REMARK INTER + INTRA:          -0.524
REMARK INTER:                  -0.013
REMARK INTRA:                  -0.511
REMARK UNBOUND:                -0.511
REMARK SMILES CC1=CCC[C@H](C)C(=O)C[C@H](C(C)C)C(=O)C1
REMARK SMILES IDX 8 1 9 2 6 3 7 4 5 5 4 6 3 7 2 8 1 9 10 11 11 12 15 13 16 14
REMARK SMILES IDX 17 15 12 17 13 18 14 19
REMARK H PARENT
REMARK Flexibility Score: 70.00
ROOT
ATOM      1  C   UNL     1      17.702  46.482  75.667  1.00  0.00     0.136 C 
ATOM      2  O   UNL     1      17.198  47.240  74.851  1.00  0.00    -0.299 OA
ENDROOT
BRANCH   1   3
ATOM      3  C   UNL     1      17.739  44.993  75.390  1.00  0.00     0.053 C 
ATOM      4  C   UNL     1      16.322  44.496  75.088  1.00  0.00     0.016 C 
BRANCH   3   5
ATOM      5  C   UNL     1      18.690  44.634  74.223  1.00  0.00     0.015 C 
BRANCH   5   6
ATOM      6  C   UNL     1      20.122  45.161  74.403  1.00  0.00     0.028 C 
BRANCH   6   7
ATOM      7  C   UNL     1      20.927  44.266  75.313  1.00  0.00    -0.028 C 
ATOM      8  C   UNL     1      21.411  44.623  76.523  1.00  0.00    -0.070 CG0
ATOM      9  C   UNL     1      22.203  43.603  77.301  1.00  0.00     0.039 C 
ATOM     10  G   UNL     1      21.202  46.004  77.120  1.00  0.00     0.000 G0
ENDBRANCH   6   7
ENDBRANCH   5   6
ENDBRANCH   3   5
ENDBRANCH   1   3
BRANCH   1  11
ATOM     11  C   UNL     1      18.225  47.042  76.968  1.00  0.00     0.087 C 
BRANCH  11  12
ATOM     12  C   UNL     1      18.686  45.957  77.979  1.00  0.00     0.066 C 
BRANCH  12  13
ATOM     13  C   UNL     1      20.187  46.071  78.230  1.00  0.00     0.140 C 
ATOM     14  O   UNL     1      20.585  46.136  79.384  1.00  0.00    -0.299 OA
BRANCH  13  15
ATOM     15  C   UNL     1      21.220  46.007  77.123  1.00  0.00     0.106 CG0
ATOM     16  G   UNL     1      21.410  44.625  76.523  1.00  0.00     0.000 G0
ENDBRANCH  13  15
ENDBRANCH  12  13
BRANCH  12  17
ATOM     17  C   UNL     1      17.901  46.063  79.326  1.00  0.00    -0.006 C 
ATOM     18  C   UNL     1      17.085  47.366  79.424  1.00  0.00     0.008 C 
ATOM     19  C   UNL     1      16.950  44.868  79.522  1.00  0.00     0.008 C 
ENDBRANCH  12  17
ENDBRANCH  11  12
ENDBRANCH   1  11
TORSDOF 1
ENDMDL
MODEL 2
REMARK VINA RESULT:     0.003      4.893      7.320
REMARK INTER + INTRA:          -0.507
REMARK INTER:                  -0.051
REMARK INTRA:                  -0.456
REMARK UNBOUND:                -0.511
REMARK SMILES CC1=CCC[C@H](C)C(=O)C[C@H](C(C)C)C(=O)C1
REMARK SMILES IDX 8 1 9 2 6 3 7 4 5 5 4 6 3 7 2 8 1 9 10 11 11 12 15 13 16 14
REMARK SMILES IDX 17 15 12 17 13 18 14 19
REMARK H PARENT
REMARK Flexibility Score: 70.00
ROOT
ATOM      1  C   UNL     1      20.606  43.247  83.392  1.00  0.00     0.136 C 
ATOM      2  O   UNL     1      21.338  42.407  82.888  1.00  0.00    -0.299 OA
ENDROOT
BRANCH   1   3
ATOM      3  C   UNL     1      21.170  44.596  83.791  1.00  0.00     0.053 C 
ATOM      4  C   UNL     1      22.375  44.391  84.713  1.00  0.00     0.016 C 
BRANCH   3   5
ATOM      5  C   UNL     1      21.574  45.450  82.565  1.00  0.00     0.015 C 
BRANCH   5   6
ATOM      6  C   UNL     1      20.466  46.391  82.070  1.00  0.00     0.028 C 
BRANCH   6   7
ATOM      7  C   UNL     1      19.832  45.875  80.801  1.00  0.00    -0.028 C 
ATOM      8  C   UNL     1      18.529  45.546  80.663  1.00  0.00    -0.070 CG0
ATOM      9  C   UNL     1      18.062  45.040  79.323  1.00  0.00     0.039 C 
ATOM     10  G   UNL     1      17.527  45.654  81.799  1.00  0.00     0.000 G0
ENDBRANCH   6   7
ENDBRANCH   5   6
ENDBRANCH   3   5
ENDBRANCH   1   3
BRANCH   1  11
ATOM     11  C   UNL     1      19.163  42.900  83.664  1.00  0.00     0.087 C 
BRANCH  11  12
ATOM     12  C   UNL     1      18.250  44.135  83.889  1.00  0.00     0.066 C 
BRANCH  12  13
ATOM     13  C   UNL     1      17.398  44.397  82.650  1.00  0.00     0.140 C 
ATOM     14  O   UNL     1      16.517  43.599  82.365  1.00  0.00    -0.299 OA
BRANCH  13  15
ATOM     15  C   UNL     1      17.523  45.650  81.806  1.00  0.00     0.106 CG0
ATOM     16  G   UNL     1      18.527  45.543  80.673  1.00  0.00     0.000 G0
ENDBRANCH  13  15
ENDBRANCH  12  13
BRANCH  12  17
ATOM     17  C   UNL     1      17.338  43.951  85.145  1.00  0.00    -0.006 C 
ATOM     18  C   UNL     1      18.136  43.492  86.381  1.00  0.00     0.008 C 
ATOM     19  C   UNL     1      16.589  45.249  85.495  1.00  0.00     0.008 C 
ENDBRANCH  12  17
ENDBRANCH  11  12
ENDBRANCH   1  11
TORSDOF 1
ENDMDL
MODEL 3
REMARK VINA RESULT:     0.004      5.636      7.414
REMARK INTER + INTRA:          -0.505
REMARK INTER:                   0.000
REMARK INTRA:                  -0.505
REMARK UNBOUND:                -0.511
REMARK SMILES CC1=CCC[C@H](C)C(=O)C[C@H](C(C)C)C(=O)C1
REMARK SMILES IDX 8 1 9 2 6 3 7 4 5 5 4 6 3 7 2 8 1 9 10 11 11 12 15 13 16 14
REMARK SMILES IDX 17 15 12 17 13 18 14 19
REMARK H PARENT
REMARK Flexibility Score: 70.00
ROOT
ATOM      1  C   UNL     1      21.423  39.946  80.202  1.00  0.00     0.136 C 
ATOM      2  O   UNL     1      22.398  39.242  80.421  1.00  0.00    -0.299 OA
ENDROOT
BRANCH   1   3
ATOM      3  C   UNL     1      20.958  40.169  78.777  1.00  0.00     0.053 C 
ATOM      4  C   UNL     1      22.125  40.700  77.939  1.00  0.00     0.016 C 
BRANCH   3   5
ATOM      5  C   UNL     1      20.382  38.883  78.138  1.00  0.00     0.015 C 
BRANCH   5   6
ATOM      6  C   UNL     1      18.848  38.817  78.147  1.00  0.00     0.028 C 
BRANCH   6   7
ATOM      7  C   UNL     1      18.338  38.049  79.343  1.00  0.00    -0.028 C 
ATOM      8  C   UNL     1      17.655  38.588  80.377  1.00  0.00    -0.070 CG0
ATOM      9  C   UNL     1      17.223  37.675  81.496  1.00  0.00     0.039 C 
ATOM     10  G   UNL     1      17.320  40.066  80.463  1.00  0.00     0.000 G0
ENDBRANCH   6   7
ENDBRANCH   5   6
ENDBRANCH   3   5
ENDBRANCH   1   3
BRANCH   1  11
ATOM     11  C   UNL     1      20.735  40.633  81.358  1.00  0.00     0.087 C 
BRANCH  11  12
ATOM     12  C   UNL     1      19.524  41.509  80.938  1.00  0.00     0.066 C 
BRANCH  12  13
ATOM     13  C   UNL     1      18.219  40.863  81.395  1.00  0.00     0.140 C 
ATOM     14  O   UNL     1      17.838  41.057  82.541  1.00  0.00    -0.299 OA
BRANCH  13  15
ATOM     15  C   UNL     1      17.317  40.070  80.470  1.00  0.00     0.106 CG0
ATOM     16  G   UNL     1      17.660  38.594  80.375  1.00  0.00     0.000 G0
ENDBRANCH  13  15
ENDBRANCH  12  13
BRANCH  12  17
ATOM     17  C   UNL     1      19.642  42.958  81.511  1.00  0.00    -0.006 C 
ATOM     18  C   UNL     1      21.064  43.271  82.015  1.00  0.00     0.008 C 
ATOM     19  C   UNL     1      19.244  44.014  80.465  1.00  0.00     0.008 C 
ENDBRANCH  12  17
ENDBRANCH  11  12
ENDBRANCH   1  11
TORSDOF 1
ENDMDL
MODEL 4
REMARK VINA RESULT:     0.010      5.768      7.818
REMARK INTER + INTRA:          -0.496
REMARK INTER:                   0.000
REMARK INTRA:                  -0.496
REMARK UNBOUND:                -0.511
REMARK SMILES CC1=CCC[C@H](C)C(=O)C[C@H](C(C)C)C(=O)C1
REMARK SMILES IDX 8 1 9 2 6 3 7 4 5 5 4 6 3 7 2 8 1 9 10 11 11 12 15 13 16 14
REMARK SMILES IDX 17 15 12 17 13 18 14 19
REMARK H PARENT
REMARK Flexibility Score: 70.00
ROOT
ATOM      1  C   UNL     1      23.223  40.445  75.277  1.00  0.00     0.136 C 
ATOM      2  O   UNL     1      22.615  39.480  74.837  1.00  0.00    -0.299 OA
ENDROOT
BRANCH   1   3
ATOM      3  C   UNL     1      22.485  41.504  76.071  1.00  0.00     0.053 C 
ATOM      4  C   UNL     1      21.081  41.690  75.489  1.00  0.00     0.016 C 
BRANCH   3   5
ATOM      5  C   UNL     1      22.397  41.155  77.576  1.00  0.00     0.015 C 
BRANCH   5   6
ATOM      6  C   UNL     1      23.366  41.956  78.458  1.00  0.00     0.028 C 
BRANCH   6   7
ATOM      7  C   UNL     1      24.569  41.130  78.844  1.00  0.00    -0.028 C 
ATOM      8  C   UNL     1      25.836  41.368  78.437  1.00  0.00    -0.070 CG0
ATOM      9  C   UNL     1      26.922  40.438  78.914  1.00  0.00     0.039 C 
ATOM     10  G   UNL     1      26.204  42.517  77.515  1.00  0.00     0.000 G0
ENDBRANCH   6   7
ENDBRANCH   5   6
ENDBRANCH   3   5
ENDBRANCH   1   3
BRANCH   1  11
ATOM     11  C   UNL     1      24.693  40.595  74.964  1.00  0.00     0.087 C 
BRANCH  11  12
ATOM     12  C   UNL     1      25.214  42.053  75.075  1.00  0.00     0.066 C 
BRANCH  12  13
ATOM     13  C   UNL     1      26.377  42.126  76.061  1.00  0.00     0.140 C 
ATOM     14  O   UNL     1      27.511  41.938  75.645  1.00  0.00    -0.299 OA
BRANCH  13  15
ATOM     15  C   UNL     1      26.209  42.520  77.515  1.00  0.00     0.106 CG0
ATOM     16  G   UNL     1      25.829  41.372  78.433  1.00  0.00     0.000 G0
ENDBRANCH  13  15
ENDBRANCH  12  13
BRANCH  12  17
ATOM     17  C   UNL     1      25.648  42.612  73.682  1.00  0.00    -0.006 C 
ATOM     18  C   UNL     1      25.688  41.514  72.601  1.00  0.00     0.008 C 
ATOM     19  C   UNL     1      24.711  43.737  73.207  1.00  0.00     0.008 C 
ENDBRANCH  12  17
ENDBRANCH  11  12
ENDBRANCH   1  11
TORSDOF 1
ENDMDL
MODEL 5
REMARK VINA RESULT:     0.010     10.639     12.854
REMARK INTER + INTRA:          -0.495
REMARK INTER:                   0.000
REMARK INTRA:                  -0.495
REMARK UNBOUND:                -0.511
REMARK SMILES CC1=CCC[C@H](C)C(=O)C[C@H](C(C)C)C(=O)C1
REMARK SMILES IDX 8 1 9 2 6 3 7 4 5 5 4 6 3 7 2 8 1 9 10 11 11 12 15 13 16 14
REMARK SMILES IDX 17 15 12 17 13 18 14 19
REMARK H PARENT
REMARK Flexibility Score: 70.00
ROOT
ATOM      1  C   UNL     1      23.662  34.058  76.032  1.00  0.00     0.136 C 
ATOM      2  O   UNL     1      23.426  33.984  74.834  1.00  0.00    -0.299 OA
ENDROOT
BRANCH   1   3
ATOM      3  C   UNL     1      23.023  33.073  76.988  1.00  0.00     0.053 C 
ATOM      4  C   UNL     1      21.557  32.863  76.600  1.00  0.00     0.016 C 
BRANCH   3   5
ATOM      5  C   UNL     1      23.766  31.716  77.019  1.00  0.00     0.015 C 
BRANCH   5   6
ATOM      6  C   UNL     1      24.744  31.567  78.194  1.00  0.00     0.028 C 
BRANCH   6   7
ATOM      7  C   UNL     1      26.147  31.953  77.795  1.00  0.00    -0.028 C 
ATOM      8  C   UNL     1      26.830  33.012  78.284  1.00  0.00    -0.070 CG0
ATOM      9  C   UNL     1      28.225  33.256  77.770  1.00  0.00     0.039 C 
ATOM     10  G   UNL     1      26.247  33.965  79.312  1.00  0.00     0.000 G0
ENDBRANCH   6   7
ENDBRANCH   5   6
ENDBRANCH   3   5
ENDBRANCH   1   3
BRANCH   1  11
ATOM     11  C   UNL     1      24.541  35.175  76.542  1.00  0.00     0.087 C 
BRANCH  11  12
ATOM     12  C   UNL     1      24.403  35.437  78.066  1.00  0.00     0.066 C 
BRANCH  12  13
ATOM     13  C   UNL     1      25.757  35.284  78.754  1.00  0.00     0.140 C 
ATOM     14  O   UNL     1      26.443  36.281  78.930  1.00  0.00    -0.299 OA
BRANCH  13  15
ATOM     15  C   UNL     1      26.256  33.970  79.322  1.00  0.00     0.106 CG0
ATOM     16  G   UNL     1      26.836  33.022  78.288  1.00  0.00     0.000 G0
ENDBRANCH  13  15
ENDBRANCH  12  13
BRANCH  12  17
ATOM     17  C   UNL     1      23.808  36.853  78.350  1.00  0.00    -0.006 C 
ATOM     18  C   UNL     1      23.746  37.724  77.081  1.00  0.00     0.008 C 
ATOM     19  C   UNL     1      22.396  36.762  78.956  1.00  0.00     0.008 C 
ENDBRANCH  12  17
ENDBRANCH  11  12
ENDBRANCH   1  11
TORSDOF 1
ENDMDL
MODEL 6
REMARK VINA RESULT:     0.019     18.059     19.235
REMARK INTER + INTRA:          -0.483
REMARK INTER:                   0.000
REMARK INTRA:                  -0.483
REMARK UNBOUND:                -0.511
REMARK SMILES CC1=CCC[C@H](C)C(=O)C[C@H](C(C)C)C(=O)C1
REMARK SMILES IDX 8 1 9 2 6 3 7 4 5 5 4 6 3 7 2 8 1 9 10 11 11 12 15 13 16 14
REMARK SMILES IDX 17 15 12 17 13 18 14 19
REMARK H PARENT
REMARK Flexibility Score: 70.00
ROOT
ATOM      1  C   UNL     1      31.102  32.254  72.912  1.00  0.00     0.136 C 
ATOM      2  O   UNL     1      30.201  32.686  72.207  1.00  0.00    -0.299 OA
ENDROOT
BRANCH   1   3
ATOM      3  C   UNL     1      32.104  31.273  72.338  1.00  0.00     0.053 C 
ATOM      4  C   UNL     1      31.361  30.182  71.562  1.00  0.00     0.016 C 
BRANCH   3   5
ATOM      5  C   UNL     1      33.145  31.963  71.424  1.00  0.00     0.015 C 
BRANCH   5   6
ATOM      6  C   UNL     1      34.496  32.223  72.107  1.00  0.00     0.028 C 
BRANCH   6   7
ATOM      7  C   UNL     1      34.646  33.674  72.496  1.00  0.00    -0.028 C 
ATOM      8  C   UNL     1      34.747  34.130  73.764  1.00  0.00    -0.070 CG0
ATOM      9  C   UNL     1      34.886  35.616  73.975  1.00  0.00     0.039 C 
ATOM     10  G   UNL     1      34.713  33.215  74.975  1.00  0.00     0.000 G0
ENDBRANCH   6   7
ENDBRANCH   5   6
ENDBRANCH   3   5
ENDBRANCH   1   3
BRANCH   1  11
ATOM     11  C   UNL     1      31.161  32.661  74.365  1.00  0.00     0.087 C 
BRANCH  11  12
ATOM     12  C   UNL     1      32.326  32.005  75.154  1.00  0.00     0.066 C 
BRANCH  12  13
ATOM     13  C   UNL     1      33.330  33.067  75.594  1.00  0.00     0.140 C 
ATOM     14  O   UNL     1      33.047  33.786  76.541  1.00  0.00    -0.299 OA
BRANCH  13  15
ATOM     15  C   UNL     1      34.708  33.211  74.978  1.00  0.00     0.106 CG0
ATOM     16  G   UNL     1      34.760  34.129  73.770  1.00  0.00     0.000 G0
ENDBRANCH  13  15
ENDBRANCH  12  13
BRANCH  12  17
ATOM     17  C   UNL     1      31.800  31.210  76.393  1.00  0.00    -0.006 C 
ATOM     18  C   UNL     1      30.553  30.369  76.058  1.00  0.00     0.008 C 
ATOM     19  C   UNL     1      32.883  30.280  76.969  1.00  0.00     0.008 C 
ENDBRANCH  12  17
ENDBRANCH  11  12
ENDBRANCH   1  11
TORSDOF 1
ENDMDL
MODEL 7
REMARK VINA RESULT:     0.036      8.100      9.878
REMARK INTER + INTRA:          -0.457
REMARK INTER:                   0.000
REMARK INTRA:                  -0.457
REMARK UNBOUND:                -0.511
REMARK SMILES CC1=CCC[C@H](C)C(=O)C[C@H](C(C)C)C(=O)C1
REMARK SMILES IDX 8 1 9 2 6 3 7 4 5 5 4 6 3 7 2 8 1 9 10 11 11 12 15 13 16 14
REMARK SMILES IDX 17 15 12 17 13 18 14 19
REMARK H PARENT
REMARK Flexibility Score: 70.00
ROOT
ATOM      1  C   UNL     1      25.809  43.412  80.734  1.00  0.00     0.136 C 
ATOM      2  O   UNL     1      24.847  44.117  81.000  1.00  0.00    -0.299 OA
ENDROOT
BRANCH   1   3
ATOM      3  C   UNL     1      26.763  42.993  81.834  1.00  0.00     0.053 C 
ATOM      4  C   UNL     1      27.387  44.239  82.470  1.00  0.00     0.016 C 
BRANCH   3   5
ATOM      5  C   UNL     1      26.071  42.131  82.917  1.00  0.00     0.015 C 
BRANCH   5   6
ATOM      6  C   UNL     1      26.096  40.624  82.624  1.00  0.00     0.028 C 
BRANCH   6   7
ATOM      7  C   UNL     1      24.828  40.175  81.940  1.00  0.00    -0.028 C 
ATOM      8  C   UNL     1      24.762  39.648  80.697  1.00  0.00    -0.070 CG0
ATOM      9  C   UNL     1      23.408  39.256  80.163  1.00  0.00     0.039 C 
ATOM     10  G   UNL     1      25.985  39.450  79.819  1.00  0.00     0.000 G0
ENDBRANCH   6   7
ENDBRANCH   5   6
ENDBRANCH   3   5
ENDBRANCH   1   3
BRANCH   1  11
ATOM     11  C   UNL     1      26.063  43.022  79.298  1.00  0.00     0.087 C 
BRANCH  11  12
ATOM     12  C   UNL     1      27.026  41.815  79.135  1.00  0.00     0.066 C 
BRANCH  12  13
ATOM     13  C   UNL     1      26.238  40.548  78.814  1.00  0.00     0.140 C 
ATOM     14  O   UNL     1      25.851  40.373  77.667  1.00  0.00    -0.299 OA
BRANCH  13  15
ATOM     15  C   UNL     1      25.994  39.444  79.824  1.00  0.00     0.106 CG0
ATOM     16  G   UNL     1      24.767  39.652  80.693  1.00  0.00     0.000 G0
ENDBRANCH  13  15
ENDBRANCH  12  13
BRANCH  12  17
ATOM     17  C   UNL     1      28.096  42.084  78.029  1.00  0.00    -0.006 C 
ATOM     18  C   UNL     1      27.806  43.375  77.240  1.00  0.00     0.008 C 
ATOM     19  C   UNL     1      29.514  42.174  78.622  1.00  0.00     0.008 C 
ENDBRANCH  12  17
ENDBRANCH  11  12
ENDBRANCH   1  11
TORSDOF 1
ENDMDL
MODEL 8
REMARK VINA RESULT:     0.039     15.534     17.404
REMARK INTER + INTRA:          -0.451
REMARK INTER:                   0.000
REMARK INTRA:                  -0.451
REMARK UNBOUND:                -0.511
REMARK SMILES CC1=CCC[C@H](C)C(=O)C[C@H](C(C)C)C(=O)C1
REMARK SMILES IDX 8 1 9 2 6 3 7 4 5 5 4 6 3 7 2 8 1 9 10 11 11 12 15 13 16 14
REMARK SMILES IDX 17 15 12 17 13 18 14 19
REMARK H PARENT
REMARK Flexibility Score: 70.00
ROOT
ATOM      1  C   UNL     1      28.382  36.194  84.740  1.00  0.00     0.136 C 
ATOM      2  O   UNL     1      27.782  37.118  84.210  1.00  0.00    -0.299 OA
ENDROOT
BRANCH   1   3
ATOM      3  C   UNL     1      27.827  34.787  84.653  1.00  0.00     0.053 C 
ATOM      4  C   UNL     1      26.308  34.826  84.849  1.00  0.00     0.016 C 
BRANCH   3   5
ATOM      5  C   UNL     1      28.174  34.098  83.312  1.00  0.00     0.015 C 
BRANCH   5   6
ATOM      6  C   UNL     1      29.279  33.037  83.425  1.00  0.00     0.028 C 
BRANCH   6   7
ATOM      7  C   UNL     1      30.606  33.570  82.943  1.00  0.00    -0.028 C 
ATOM      8  C   UNL     1      31.680  33.803  83.729  1.00  0.00    -0.070 CG0
ATOM      9  C   UNL     1      32.930  34.343  83.083  1.00  0.00     0.039 C 
ATOM     10  G   UNL     1      31.674  33.556  85.227  1.00  0.00     0.000 G0
ENDBRANCH   6   7
ENDBRANCH   5   6
ENDBRANCH   3   5
ENDBRANCH   1   3
BRANCH   1  11
ATOM     11  C   UNL     1      29.638  36.484  85.525  1.00  0.00     0.087 C 
BRANCH  11  12
ATOM     12  C   UNL     1      30.075  35.326  86.462  1.00  0.00     0.066 C 
BRANCH  12  13
ATOM     13  C   UNL     1      31.456  34.813  86.061  1.00  0.00     0.140 C 
ATOM     14  O   UNL     1      32.444  35.388  86.494  1.00  0.00    -0.299 OA
BRANCH  13  15
ATOM     15  C   UNL     1      31.667  33.562  85.231  1.00  0.00     0.106 CG0
ATOM     16  G   UNL     1      31.673  33.801  83.731  1.00  0.00     0.000 G0
ENDBRANCH  13  15
ENDBRANCH  12  13
BRANCH  12  17
ATOM     17  C   UNL     1      30.077  35.773  87.960  1.00  0.00    -0.006 C 
ATOM     18  C   UNL     1      29.145  36.974  88.210  1.00  0.00     0.008 C 
ATOM     19  C   UNL     1      29.662  34.622  88.894  1.00  0.00     0.008 C 
ENDBRANCH  12  17
ENDBRANCH  11  12
ENDBRANCH   1  11
TORSDOF 1
ENDMDL
MODEL 9
REMARK VINA RESULT:     0.045      9.738     12.677
REMARK INTER + INTRA:          -0.442
REMARK INTER:                   0.000
REMARK INTRA:                  -0.442
REMARK UNBOUND:                -0.511
REMARK SMILES CC1=CCC[C@H](C)C(=O)C[C@H](C(C)C)C(=O)C1
REMARK SMILES IDX 8 1 9 2 6 3 7 4 5 5 4 6 3 7 2 8 1 9 10 11 11 12 15 13 16 14
REMARK SMILES IDX 17 15 12 17 13 18 14 19
REMARK H PARENT
REMARK Flexibility Score: 70.00
ROOT
ATOM      1  C   UNL     1      27.344  37.775  83.204  1.00  0.00     0.136 C 
ATOM      2  O   UNL     1      28.027  37.543  84.191  1.00  0.00    -0.299 OA
ENDROOT
BRANCH   1   3
ATOM      3  C   UNL     1      27.990  37.820  81.834  1.00  0.00     0.053 C 
ATOM      4  C   UNL     1      29.178  38.786  81.863  1.00  0.00     0.016 C 
BRANCH   3   5
ATOM      5  C   UNL     1      28.451  36.423  81.354  1.00  0.00     0.015 C 
BRANCH   5   6
ATOM      6  C   UNL     1      27.376  35.644  80.582  1.00  0.00     0.028 C 
BRANCH   6   7
ATOM      7  C   UNL     1      26.750  34.571  81.439  1.00  0.00    -0.028 C 
ATOM      8  C   UNL     1      25.434  34.480  81.731  1.00  0.00    -0.070 CG0
ATOM      9  C   UNL     1      24.977  33.344  82.610  1.00  0.00     0.039 C 
ATOM     10  G   UNL     1      24.406  35.476  81.223  1.00  0.00     0.000 G0
ENDBRANCH   6   7
ENDBRANCH   5   6
ENDBRANCH   3   5
ENDBRANCH   1   3
BRANCH   1  11
ATOM     11  C   UNL     1      25.875  38.074  83.377  1.00  0.00     0.087 C 
BRANCH  11  12
ATOM     12  C   UNL     1      25.045  37.929  82.073  1.00  0.00     0.066 C 
BRANCH  12  13
ATOM     13  C   UNL     1      24.182  36.672  82.131  1.00  0.00     0.140 C 
ATOM     14  O   UNL     1      23.221  36.653  82.887  1.00  0.00    -0.299 OA
BRANCH  13  15
ATOM     15  C   UNL     1      24.397  35.475  81.225  1.00  0.00     0.106 CG0
ATOM     16  G   UNL     1      25.430  34.485  81.732  1.00  0.00     0.000 G0
ENDBRANCH  13  15
ENDBRANCH  12  13
BRANCH  12  17
ATOM     17  C   UNL     1      24.153  39.187  81.821  1.00  0.00    -0.006 C 
ATOM     18  C   UNL     1      24.693  40.437  82.542  1.00  0.00     0.008 C 
ATOM     19  C   UNL     1      24.026  39.499  80.319  1.00  0.00     0.008 C 
ENDBRANCH  12  17
ENDBRANCH  11  12
ENDBRANCH   1  11
TORSDOF 1
ENDMDL
