MODEL 1
REMARK VINA RESULT:    -5.795      0.000      0.000
REMARK INTER + INTRA:         -10.678
REMARK INTER:                  -8.674
REMARK INTRA:                  -2.004
REMARK UNBOUND:                -2.004
REMARK SMILES C=C(CC[C@H](C(=O)[O-])[C@@H]1[C@@H](O)C[C@]2(C)C3=C(CC[C@]12C)[C@@]1(C)CC[C@H](OC(C)=O)C(C)(C)[C@H]1CC3)C(C)C
REMARK SMILES IDX 4 1 5 2 6 3 7 4 8 5 9 6 10 7 19 8 12 9 13 10 18 11 20 12
REMARK SMILES IDX 14 13 15 14 17 15 16 16 35 17 21 18 34 19 33 20 23 21 22 22
REMARK SMILES IDX 30 23 24 24 25 25 31 26 32 27 11 28 26 30 27 31 29 32 28 33
REMARK SMILES IDX 3 34 2 35 1 36 36 37 37 38 38 39
REMARK H PARENT 11 29
REMARK Flexibility Score: inf
ROOT
ATOM      1  C   UNL     1      22.081  10.039  31.085  1.00  0.00     0.014 C 
ENDROOT
BRANCH   1   2
ATOM      2  C   UNL     1      23.332  10.884  31.486  1.00  0.00     0.042 C 
BRANCH   2   3
ATOM      3  C   UNL     1      24.231  10.980  30.279  1.00  0.00     0.045 C 
ATOM      4  O   UNL     1      24.080  11.914  29.449  1.00  0.00    -0.550 OA
ATOM      5  O   UNL     1      25.198  10.010  30.045  1.00  0.00    -0.550 OA
ENDBRANCH   2   3
BRANCH   2   6
ATOM      6  C   UNL     1      24.113  10.288  32.711  1.00  0.00     0.033 C 
ATOM      7  C   UNL     1      23.784   8.803  32.962  1.00  0.00     0.119 C 
ATOM      8  C   UNL     1      23.911  10.978  34.105  1.00  0.00    -0.017 C 
ATOM      9  C   UNL     1      23.865   8.560  34.473  1.00  0.00     0.043 C 
ATOM     10  C   UNL     1      24.339   9.870  35.130  1.00  0.00    -0.003 C 
ATOM     11  C   UNL     1      22.417  11.323  34.337  1.00  0.00     0.012 C 
ATOM     12  C   UNL     1      24.766  12.273  34.239  1.00  0.00     0.013 C 
ATOM     13  C   UNL     1      25.890   9.813  35.288  1.00  0.00     0.017 C 
ATOM     14  C   UNL     1      23.699  10.010  36.532  1.00  0.00    -0.064 C 
ATOM     15  C   UNL     1      22.170  11.834  35.749  1.00  0.00     0.032 C 
ATOM     16  C   UNL     1      22.695  10.895  36.824  1.00  0.00    -0.064 C 
ATOM     17  C   UNL     1      24.137   9.036  37.608  1.00  0.00     0.032 C 
ATOM     18  C   UNL     1      22.274  11.116  38.307  1.00  0.00    -0.008 C 
ATOM     19  C   UNL     1      22.935   8.568  38.407  1.00  0.00     0.009 C 
ATOM     20  C   UNL     1      22.238   9.749  39.135  1.00  0.00     0.009 C 
ATOM     21  C   UNL     1      20.906  11.872  38.399  1.00  0.00     0.015 C 
ATOM     22  C   UNL     1      23.351  12.059  38.916  1.00  0.00     0.016 C 
ATOM     23  C   UNL     1      20.820   9.335  39.687  1.00  0.00     0.005 C 
ATOM     24  C   UNL     1      20.312  11.912  39.807  1.00  0.00     0.047 C 
ATOM     25  C   UNL     1      20.207  10.530  40.499  1.00  0.00     0.182 C 
ATOM     26  C   UNL     1      19.860   8.883  38.538  1.00  0.00     0.015 C 
ATOM     27  C   UNL     1      20.954   8.127  40.659  1.00  0.00     0.015 C 
BRANCH   7  28
ATOM     28  O   UNL     1      24.704   7.981  32.286  1.00  0.00    -0.393 OA
ATOM     29  H   UNL     1      25.477   8.557  32.043  1.00  0.00     0.210 HD
ENDBRANCH   7  28
BRANCH  25  30
ATOM     30  O   UNL     1      20.838  10.614  41.783  1.00  0.00    -0.462 OA
BRANCH  30  31
ATOM     31  C   UNL     1      20.986  11.808  42.501  1.00  0.00     0.302 C 
ATOM     32  O   UNL     1      19.995  12.352  43.060  1.00  0.00    -0.253 OA
ATOM     33  C   UNL     1      22.324  12.462  42.563  1.00  0.00     0.139 C 
ENDBRANCH  30  31
ENDBRANCH  25  30
ENDBRANCH   2   6
ENDBRANCH   1   2
BRANCH   1  34
ATOM     34  C   UNL     1      20.795  10.871  30.918  1.00  0.00     0.031 C 
BRANCH  34  35
ATOM     35  C   UNL     1      19.731  10.402  31.884  1.00  0.00    -0.075 C 
ATOM     36  C   UNL     1      20.028   9.433  32.771  1.00  0.00     0.008 C 
BRANCH  35  37
ATOM     37  C   UNL     1      18.372  11.088  31.891  1.00  0.00     0.008 C 
ATOM     38  C   UNL     1      17.283  10.148  32.423  1.00  0.00     0.012 C 
ATOM     39  C   UNL     1      18.006  11.629  30.505  1.00  0.00     0.012 C 
ENDBRANCH  35  37
ENDBRANCH  34  35
ENDBRANCH   1  34
TORSDOF 9
ENDMDL
MODEL 2
REMARK VINA RESULT:    -5.730      2.124      3.318
REMARK INTER + INTRA:         -10.581
REMARK INTER:                  -8.791
REMARK INTRA:                  -1.791
REMARK UNBOUND:                -2.004
REMARK SMILES C=C(CC[C@H](C(=O)[O-])[C@@H]1[C@@H](O)C[C@]2(C)C3=C(CC[C@]12C)[C@@]1(C)CC[C@H](OC(C)=O)C(C)(C)[C@H]1CC3)C(C)C
REMARK SMILES IDX 4 1 5 2 6 3 7 4 8 5 9 6 10 7 19 8 12 9 13 10 18 11 20 12
REMARK SMILES IDX 14 13 15 14 17 15 16 16 35 17 21 18 34 19 33 20 23 21 22 22
REMARK SMILES IDX 30 23 24 24 25 25 31 26 32 27 11 28 26 30 27 31 29 32 28 33
REMARK SMILES IDX 3 34 2 35 1 36 36 37 37 38 38 39
REMARK H PARENT 11 29
REMARK Flexibility Score: inf
ROOT
ATOM      1  C   UNL     1      24.404  11.558  28.670  1.00  0.00     0.014 C 
ENDROOT
BRANCH   1   2
ATOM      2  C   UNL     1      25.636  11.677  29.624  1.00  0.00     0.042 C 
BRANCH   2   3
ATOM      3  C   UNL     1      26.877  11.739  28.770  1.00  0.00     0.045 C 
ATOM      4  O   UNL     1      27.986  12.034  29.285  1.00  0.00    -0.550 OA
ATOM      5  O   UNL     1      26.797  11.523  27.399  1.00  0.00    -0.550 OA
ENDBRANCH   2   3
BRANCH   2   6
ATOM      6  C   UNL     1      25.734  10.497  30.657  1.00  0.00     0.033 C 
ATOM      7  C   UNL     1      24.800   9.322  30.309  1.00  0.00     0.119 C 
ATOM      8  C   UNL     1      25.418  10.821  32.158  1.00  0.00    -0.017 C 
ATOM      9  C   UNL     1      24.338   8.691  31.627  1.00  0.00     0.043 C 
ATOM     10  C   UNL     1      25.068   9.419  32.771  1.00  0.00    -0.003 C 
ATOM     11  C   UNL     1      24.176  11.742  32.274  1.00  0.00     0.012 C 
ATOM     12  C   UNL     1      26.628  11.495  32.872  1.00  0.00     0.013 C 
ATOM     13  C   UNL     1      26.358   8.618  33.126  1.00  0.00     0.017 C 
ATOM     14  C   UNL     1      24.154   9.474  34.019  1.00  0.00    -0.064 C 
ATOM     15  C   UNL     1      23.746  11.929  33.721  1.00  0.00     0.032 C 
ATOM     16  C   UNL     1      23.532  10.614  34.456  1.00  0.00    -0.064 C 
ATOM     17  C   UNL     1      23.850   8.170  34.729  1.00  0.00     0.032 C 
ATOM     18  C   UNL     1      22.818  10.616  35.840  1.00  0.00    -0.008 C 
ATOM     19  C   UNL     1      22.384   8.120  35.119  1.00  0.00     0.009 C 
ATOM     20  C   UNL     1      22.018   9.258  36.109  1.00  0.00     0.009 C 
ATOM     21  C   UNL     1      21.885  11.864  35.992  1.00  0.00     0.015 C 
ATOM     22  C   UNL     1      23.948  10.768  36.898  1.00  0.00     0.016 C 
ATOM     23  C   UNL     1      20.456   9.417  36.260  1.00  0.00     0.005 C 
ATOM     24  C   UNL     1      20.971  11.812  37.216  1.00  0.00     0.047 C 
ATOM     25  C   UNL     1      20.145  10.508  37.345  1.00  0.00     0.182 C 
ATOM     26  C   UNL     1      19.775   9.767  34.896  1.00  0.00     0.015 C 
ATOM     27  C   UNL     1      19.826   8.079  36.745  1.00  0.00     0.015 C 
BRANCH   7  28
ATOM     28  O   UNL     1      25.484   8.373  29.528  1.00  0.00    -0.393 OA
ATOM     29  H   UNL     1      26.357   8.209  29.977  1.00  0.00     0.210 HD
ENDBRANCH   7  28
BRANCH  25  30
ATOM     30  O   UNL     1      20.357   9.961  38.652  1.00  0.00    -0.462 OA
BRANCH  30  31
ATOM     31  C   UNL     1      20.956  10.667  39.704  1.00  0.00     0.302 C 
ATOM     32  O   UNL     1      22.196  10.579  39.918  1.00  0.00    -0.253 OA
ATOM     33  C   UNL     1      20.105  11.494  40.606  1.00  0.00     0.139 C 
ENDBRANCH  30  31
ENDBRANCH  25  30
ENDBRANCH   2   6
ENDBRANCH   1   2
BRANCH   1  34
ATOM     34  C   UNL     1      23.398  12.717  28.805  1.00  0.00     0.031 C 
BRANCH  34  35
ATOM     35  C   UNL     1      21.992  12.183  28.956  1.00  0.00    -0.075 C 
ATOM     36  C   UNL     1      21.754  11.192  29.835  1.00  0.00     0.008 C 
BRANCH  35  37
ATOM     37  C   UNL     1      20.859  12.829  28.172  1.00  0.00     0.008 C 
ATOM     38  C   UNL     1      19.496  12.287  28.621  1.00  0.00     0.012 C 
ATOM     39  C   UNL     1      21.049  12.658  26.660  1.00  0.00     0.012 C 
ENDBRANCH  35  37
ENDBRANCH  34  35
ENDBRANCH   1  34
TORSDOF 9
ENDMDL
MODEL 3
REMARK VINA RESULT:    -5.379      2.463      8.970
REMARK INTER + INTRA:         -10.057
REMARK INTER:                  -7.912
REMARK INTRA:                  -2.145
REMARK UNBOUND:                -2.004
REMARK SMILES C=C(CC[C@H](C(=O)[O-])[C@@H]1[C@@H](O)C[C@]2(C)C3=C(CC[C@]12C)[C@@]1(C)CC[C@H](OC(C)=O)C(C)(C)[C@H]1CC3)C(C)C
REMARK SMILES IDX 4 1 5 2 6 3 7 4 8 5 9 6 10 7 19 8 12 9 13 10 18 11 20 12
REMARK SMILES IDX 14 13 15 14 17 15 16 16 35 17 21 18 34 19 33 20 23 21 22 22
REMARK SMILES IDX 30 23 24 24 25 25 31 26 32 27 11 28 26 30 27 31 29 32 28 33
REMARK SMILES IDX 3 34 2 35 1 36 36 37 37 38 38 39
REMARK H PARENT 11 29
REMARK Flexibility Score: inf
ROOT
ATOM      1  C   UNL     1      22.253   7.945  38.371  1.00  0.00     0.014 C 
ENDROOT
BRANCH   1   2
ATOM      2  C   UNL     1      22.226   9.465  38.017  1.00  0.00     0.042 C 
BRANCH   2   3
ATOM      3  C   UNL     1      21.608  10.200  39.180  1.00  0.00     0.045 C 
ATOM      4  O   UNL     1      20.526  10.825  39.031  1.00  0.00    -0.550 OA
ATOM      5  O   UNL     1      22.253  10.235  40.410  1.00  0.00    -0.550 OA
ENDBRANCH   2   3
BRANCH   2   6
ATOM      6  C   UNL     1      21.445   9.776  36.689  1.00  0.00     0.033 C 
ATOM      7  C   UNL     1      20.823   8.516  36.055  1.00  0.00     0.119 C 
ATOM      8  C   UNL     1      22.243  10.452  35.521  1.00  0.00    -0.017 C 
ATOM      9  C   UNL     1      20.845   8.703  34.535  1.00  0.00     0.043 C 
ATOM     10  C   UNL     1      21.388  10.116  34.248  1.00  0.00    -0.003 C 
ATOM     11  C   UNL     1      23.645   9.809  35.366  1.00  0.00     0.012 C 
ATOM     12  C   UNL     1      22.402  11.986  35.741  1.00  0.00     0.013 C 
ATOM     13  C   UNL     1      20.181  11.093  34.103  1.00  0.00     0.017 C 
ATOM     14  C   UNL     1      22.186  10.108  32.922  1.00  0.00    -0.064 C 
ATOM     15  C   UNL     1      24.369  10.327  34.132  1.00  0.00     0.032 C 
ATOM     16  C   UNL     1      23.552  10.188  32.857  1.00  0.00    -0.064 C 
ATOM     17  C   UNL     1      21.415   9.889  31.636  1.00  0.00     0.032 C 
ATOM     18  C   UNL     1      24.243  10.397  31.477  1.00  0.00    -0.008 C 
ATOM     19  C   UNL     1      22.179   8.944  30.726  1.00  0.00     0.009 C 
ATOM     20  C   UNL     1      23.557   9.531  30.321  1.00  0.00     0.009 C 
ATOM     21  C   UNL     1      25.780  10.108  31.566  1.00  0.00     0.015 C 
ATOM     22  C   UNL     1      24.088  11.910  31.150  1.00  0.00     0.016 C 
ATOM     23  C   UNL     1      24.483   8.438  29.661  1.00  0.00     0.005 C 
ATOM     24  C   UNL     1      26.482  10.056  30.209  1.00  0.00     0.047 C 
ATOM     25  C   UNL     1      25.819   9.107  29.179  1.00  0.00     0.182 C 
ATOM     26  C   UNL     1      24.766   7.251  30.639  1.00  0.00     0.015 C 
ATOM     27  C   UNL     1      23.785   7.830  28.409  1.00  0.00     0.015 C 
BRANCH   7  28
ATOM     28  O   UNL     1      19.501   8.348  36.506  1.00  0.00    -0.393 OA
ATOM     29  H   UNL     1      19.422   7.406  36.813  1.00  0.00     0.210 HD
ENDBRANCH   7  28
BRANCH  25  30
ATOM     30  O   UNL     1      25.582   9.840  27.971  1.00  0.00    -0.462 OA
BRANCH  30  31
ATOM     31  C   UNL     1      26.171  11.078  27.684  1.00  0.00     0.302 C 
ATOM     32  O   UNL     1      27.394  11.159  27.386  1.00  0.00    -0.253 OA
ATOM     33  C   UNL     1      25.348  12.318  27.777  1.00  0.00     0.139 C 
ENDBRANCH  30  31
ENDBRANCH  25  30
ENDBRANCH   2   6
ENDBRANCH   1   2
BRANCH   1  34
ATOM     34  C   UNL     1      23.566   7.238  37.979  1.00  0.00     0.031 C 
BRANCH  34  35
ATOM     35  C   UNL     1      23.310   5.782  37.667  1.00  0.00    -0.075 C 
ATOM     36  C   UNL     1      23.132   4.912  38.678  1.00  0.00     0.008 C 
BRANCH  35  37
ATOM     37  C   UNL     1      23.179   5.341  36.215  1.00  0.00     0.008 C 
ATOM     38  C   UNL     1      23.982   6.258  35.285  1.00  0.00     0.012 C 
ATOM     39  C   UNL     1      21.711   5.262  35.781  1.00  0.00     0.012 C 
ENDBRANCH  35  37
ENDBRANCH  34  35
ENDBRANCH   1  34
TORSDOF 9
ENDMDL
MODEL 4
REMARK VINA RESULT:    -5.320      2.594      3.555
REMARK INTER + INTRA:          -9.968
REMARK INTER:                  -8.702
REMARK INTRA:                  -1.266
REMARK UNBOUND:                -2.004
REMARK SMILES C=C(CC[C@H](C(=O)[O-])[C@@H]1[C@@H](O)C[C@]2(C)C3=C(CC[C@]12C)[C@@]1(C)CC[C@H](OC(C)=O)C(C)(C)[C@H]1CC3)C(C)C
REMARK SMILES IDX 4 1 5 2 6 3 7 4 8 5 9 6 10 7 19 8 12 9 13 10 18 11 20 12
REMARK SMILES IDX 14 13 15 14 17 15 16 16 35 17 21 18 34 19 33 20 23 21 22 22
REMARK SMILES IDX 30 23 24 24 25 25 31 26 32 27 11 28 26 30 27 31 29 32 28 33
REMARK SMILES IDX 3 34 2 35 1 36 36 37 37 38 38 39
REMARK H PARENT 11 29
REMARK Flexibility Score: inf
ROOT
ATOM      1  C   UNL     1      21.597  10.858  30.006  1.00  0.00     0.014 C 
ENDROOT
BRANCH   1   2
ATOM      2  C   UNL     1      22.795  11.737  30.486  1.00  0.00     0.042 C 
BRANCH   2   3
ATOM      3  C   UNL     1      23.268  12.554  29.311  1.00  0.00     0.045 C 
ATOM      4  O   UNL     1      24.389  13.125  29.346  1.00  0.00    -0.550 OA
ATOM      5  O   UNL     1      22.450  12.727  28.201  1.00  0.00    -0.550 OA
ENDBRANCH   2   3
BRANCH   2   6
ATOM      6  C   UNL     1      23.978  10.894  31.085  1.00  0.00     0.033 C 
ATOM      7  C   UNL     1      23.945   9.419  30.638  1.00  0.00     0.119 C 
ATOM      8  C   UNL     1      24.103  10.830  32.647  1.00  0.00    -0.017 C 
ATOM      9  C   UNL     1      24.501   8.574  31.789  1.00  0.00     0.043 C 
ATOM     10  C   UNL     1      24.963   9.541  32.895  1.00  0.00    -0.003 C 
ATOM     11  C   UNL     1      22.712  10.637  33.304  1.00  0.00     0.012 C 
ATOM     12  C   UNL     1      24.773  12.111  33.227  1.00  0.00     0.013 C 
ATOM     13  C   UNL     1      26.484   9.828  32.699  1.00  0.00     0.017 C 
ATOM     14  C   UNL     1      24.753   8.885  34.280  1.00  0.00    -0.064 C 
ATOM     15  C   UNL     1      22.825  10.398  34.802  1.00  0.00     0.032 C 
ATOM     16  C   UNL     1      23.768   9.259  35.157  1.00  0.00    -0.064 C 
ATOM     17  C   UNL     1      25.619   7.693  34.636  1.00  0.00     0.032 C 
ATOM     18  C   UNL     1      23.778   8.695  36.608  1.00  0.00    -0.008 C 
ATOM     19  C   UNL     1      24.782   6.628  35.321  1.00  0.00     0.009 C 
ATOM     20  C   UNL     1      24.176   7.147  36.652  1.00  0.00     0.009 C 
ATOM     21  C   UNL     1      22.408   8.949  37.322  1.00  0.00     0.015 C 
ATOM     22  C   UNL     1      24.847   9.525  37.377  1.00  0.00     0.016 C 
ATOM     23  C   UNL     1      23.055   6.180  37.196  1.00  0.00     0.005 C 
ATOM     24  C   UNL     1      22.256   8.217  38.655  1.00  0.00     0.047 C 
ATOM     25  C   UNL     1      22.551   6.697  38.590  1.00  0.00     0.182 C 
ATOM     26  C   UNL     1      21.871   6.039  36.185  1.00  0.00     0.015 C 
ATOM     27  C   UNL     1      23.636   4.751  37.408  1.00  0.00     0.015 C 
BRANCH   7  28
ATOM     28  O   UNL     1      24.728   9.245  29.483  1.00  0.00    -0.393 OA
ATOM     29  H   UNL     1      24.899   8.269  29.399  1.00  0.00     0.210 HD
ENDBRANCH   7  28
BRANCH  25  30
ATOM     30  O   UNL     1      23.516   6.376  39.600  1.00  0.00    -0.462 OA
BRANCH  30  31
ATOM     31  C   UNL     1      23.179   6.009  40.909  1.00  0.00     0.302 C 
ATOM     32  O   UNL     1      23.546   6.710  41.892  1.00  0.00    -0.253 OA
ATOM     33  C   UNL     1      22.417   4.749  41.141  1.00  0.00     0.139 C 
ENDBRANCH  30  31
ENDBRANCH  25  30
ENDBRANCH   2   6
ENDBRANCH   1   2
BRANCH   1  34
ATOM     34  C   UNL     1      20.569  10.548  31.112  1.00  0.00     0.031 C 
BRANCH  34  35
ATOM     35  C   UNL     1      19.266  11.264  30.840  1.00  0.00    -0.075 C 
ATOM     36  C   UNL     1      19.114  11.942  29.687  1.00  0.00     0.008 C 
BRANCH  35  37
ATOM     37  C   UNL     1      18.122  11.139  31.836  1.00  0.00     0.008 C 
ATOM     38  C   UNL     1      18.223   9.831  32.630  1.00  0.00     0.012 C 
ATOM     39  C   UNL     1      16.758  11.264  31.148  1.00  0.00     0.012 C 
ENDBRANCH  35  37
ENDBRANCH  34  35
ENDBRANCH   1  34
TORSDOF 9
ENDMDL
MODEL 5
REMARK VINA RESULT:    -5.212      3.969      8.415
REMARK INTER + INTRA:          -9.807
REMARK INTER:                  -7.692
REMARK INTRA:                  -2.115
REMARK UNBOUND:                -2.004
REMARK SMILES C=C(CC[C@H](C(=O)[O-])[C@@H]1[C@@H](O)C[C@]2(C)C3=C(CC[C@]12C)[C@@]1(C)CC[C@H](OC(C)=O)C(C)(C)[C@H]1CC3)C(C)C
REMARK SMILES IDX 4 1 5 2 6 3 7 4 8 5 9 6 10 7 19 8 12 9 13 10 18 11 20 12
REMARK SMILES IDX 14 13 15 14 17 15 16 16 35 17 21 18 34 19 33 20 23 21 22 22
REMARK SMILES IDX 30 23 24 24 25 25 31 26 32 27 11 28 26 30 27 31 29 32 28 33
REMARK SMILES IDX 3 34 2 35 1 36 36 37 37 38 38 39
REMARK H PARENT 11 29
REMARK Flexibility Score: inf
ROOT
ATOM      1  C   UNL     1      24.207   4.241  41.268  1.00  0.00     0.014 C 
ENDROOT
BRANCH   1   2
ATOM      2  C   UNL     1      24.915   3.851  39.932  1.00  0.00     0.042 C 
BRANCH   2   3
ATOM      3  C   UNL     1      26.013   2.871  40.260  1.00  0.00     0.045 C 
ATOM      4  O   UNL     1      25.733   1.679  40.546  1.00  0.00    -0.550 OA
ATOM      5  O   UNL     1      27.338   3.289  40.300  1.00  0.00    -0.550 OA
ENDBRANCH   2   3
BRANCH   2   6
ATOM      6  C   UNL     1      25.493   5.089  39.156  1.00  0.00     0.033 C 
ATOM      7  C   UNL     1      25.501   6.374  40.006  1.00  0.00     0.119 C 
ATOM      8  C   UNL     1      24.781   5.504  37.821  1.00  0.00    -0.017 C 
ATOM      9  C   UNL     1      25.263   7.557  39.061  1.00  0.00     0.043 C 
ATOM     10  C   UNL     1      25.208   7.000  37.626  1.00  0.00    -0.003 C 
ATOM     11  C   UNL     1      23.239   5.440  37.976  1.00  0.00     0.012 C 
ATOM     12  C   UNL     1      25.217   4.601  36.629  1.00  0.00     0.013 C 
ATOM     13  C   UNL     1      26.633   7.105  36.998  1.00  0.00     0.017 C 
ATOM     14  C   UNL     1      24.226   7.843  36.778  1.00  0.00    -0.064 C 
ATOM     15  C   UNL     1      22.527   6.002  36.755  1.00  0.00     0.032 C 
ATOM     16  C   UNL     1      22.989   7.403  36.385  1.00  0.00    -0.064 C 
ATOM     17  C   UNL     1      24.616   9.273  36.459  1.00  0.00     0.032 C 
ATOM     18  C   UNL     1      22.171   8.233  35.352  1.00  0.00    -0.008 C 
ATOM     19  C   UNL     1      23.412  10.186  36.610  1.00  0.00     0.009 C 
ATOM     20  C   UNL     1      22.279   9.805  35.620  1.00  0.00     0.009 C 
ATOM     21  C   UNL     1      20.677   7.766  35.309  1.00  0.00     0.015 C 
ATOM     22  C   UNL     1      22.786   7.902  33.962  1.00  0.00     0.016 C 
ATOM     23  C   UNL     1      20.922  10.519  35.987  1.00  0.00     0.005 C 
ATOM     24  C   UNL     1      19.761   8.686  34.503  1.00  0.00     0.047 C 
ATOM     25  C   UNL     1      19.843  10.181  34.899  1.00  0.00     0.182 C 
ATOM     26  C   UNL     1      20.426  10.121  37.416  1.00  0.00     0.015 C 
ATOM     27  C   UNL     1      21.114  12.064  35.994  1.00  0.00     0.015 C 
BRANCH   7  28
ATOM     28  O   UNL     1      26.737   6.516  40.660  1.00  0.00    -0.393 OA
ATOM     29  H   UNL     1      26.936   7.490  40.689  1.00  0.00     0.210 HD
ENDBRANCH   7  28
BRANCH  25  30
ATOM     30  O   UNL     1      20.092  10.953  33.717  1.00  0.00    -0.462 OA
BRANCH  30  31
ATOM     31  C   UNL     1      19.718  10.548  32.430  1.00  0.00     0.302 C 
ATOM     32  O   UNL     1      20.517   9.900  31.699  1.00  0.00    -0.253 OA
ATOM     33  C   UNL     1      18.376  10.929  31.904  1.00  0.00     0.139 C 
ENDBRANCH  30  31
ENDBRANCH  25  30
ENDBRANCH   2   6
ENDBRANCH   1   2
BRANCH   1  34
ATOM     34  C   UNL     1      22.731   4.648  41.095  1.00  0.00     0.031 C 
BRANCH  34  35
ATOM     35  C   UNL     1      22.495   6.036  41.646  1.00  0.00    -0.075 C 
ATOM     36  C   UNL     1      23.313   6.512  42.604  1.00  0.00     0.008 C 
BRANCH  35  37
ATOM     37  C   UNL     1      21.391   6.899  41.052  1.00  0.00     0.008 C 
ATOM     38  C   UNL     1      21.951   7.867  40.003  1.00  0.00     0.012 C 
ATOM     39  C   UNL     1      20.616   7.651  42.140  1.00  0.00     0.012 C 
ENDBRANCH  35  37
ENDBRANCH  34  35
ENDBRANCH   1  34
TORSDOF 9
ENDMDL
MODEL 6
REMARK VINA RESULT:    -5.211      2.236      8.587
REMARK INTER + INTRA:          -9.805
REMARK INTER:                  -7.498
REMARK INTRA:                  -2.307
REMARK UNBOUND:                -2.004
REMARK SMILES C=C(CC[C@H](C(=O)[O-])[C@@H]1[C@@H](O)C[C@]2(C)C3=C(CC[C@]12C)[C@@]1(C)CC[C@H](OC(C)=O)C(C)(C)[C@H]1CC3)C(C)C
REMARK SMILES IDX 4 1 5 2 6 3 7 4 8 5 9 6 10 7 19 8 12 9 13 10 18 11 20 12
REMARK SMILES IDX 14 13 15 14 17 15 16 16 35 17 21 18 34 19 33 20 23 21 22 22
REMARK SMILES IDX 30 23 24 24 25 25 31 26 32 27 11 28 26 30 27 31 29 32 28 33
REMARK SMILES IDX 3 34 2 35 1 36 36 37 37 38 38 39
REMARK H PARENT 11 29
REMARK Flexibility Score: inf
ROOT
ATOM      1  C   UNL     1      21.974   6.690  39.468  1.00  0.00     0.014 C 
ENDROOT
BRANCH   1   2
ATOM      2  C   UNL     1      21.849   8.175  39.932  1.00  0.00     0.042 C 
BRANCH   2   3
ATOM      3  C   UNL     1      21.071   8.191  41.224  1.00  0.00     0.045 C 
ATOM      4  O   UNL     1      21.188   9.157  42.022  1.00  0.00    -0.550 OA
ATOM      5  O   UNL     1      20.260   7.116  41.568  1.00  0.00    -0.550 OA
ENDBRANCH   2   3
BRANCH   2   6
ATOM      6  C   UNL     1      21.164   9.101  38.863  1.00  0.00     0.033 C 
ATOM      7  C   UNL     1      20.376   8.306  37.805  1.00  0.00     0.119 C 
ATOM      8  C   UNL     1      22.090  10.055  38.032  1.00  0.00    -0.017 C 
ATOM      9  C   UNL     1      20.471   9.075  36.482  1.00  0.00     0.043 C 
ATOM     10  C   UNL     1      21.232  10.384  36.760  1.00  0.00    -0.003 C 
ATOM     11  C   UNL     1      23.381   9.321  37.587  1.00  0.00     0.012 C 
ATOM     12  C   UNL     1      22.475  11.333  38.836  1.00  0.00     0.013 C 
ATOM     13  C   UNL     1      20.193  11.510  37.054  1.00  0.00     0.017 C 
ATOM     14  C   UNL     1      22.058  10.781  35.513  1.00  0.00    -0.064 C 
ATOM     15  C   UNL     1      24.213  10.168  36.636  1.00  0.00     0.032 C 
ATOM     16  C   UNL     1      23.422  10.672  35.438  1.00  0.00    -0.064 C 
ATOM     17  C   UNL     1      21.300  11.209  34.272  1.00  0.00     0.032 C 
ATOM     18  C   UNL     1      24.177  11.303  34.231  1.00  0.00    -0.008 C 
ATOM     19  C   UNL     1      21.937  10.598  33.037  1.00  0.00     0.009 C 
ATOM     20  C   UNL     1      23.401  11.081  32.851  1.00  0.00     0.009 C 
ATOM     21  C   UNL     1      25.648  10.773  34.147  1.00  0.00     0.015 C 
ATOM     22  C   UNL     1      24.264  12.826  34.535  1.00  0.00     0.016 C 
ATOM     23  C   UNL     1      24.167  10.213  31.781  1.00  0.00     0.005 C 
ATOM     24  C   UNL     1      26.373  11.156  32.857  1.00  0.00     0.047 C 
ATOM     25  C   UNL     1      25.603  10.806  31.559  1.00  0.00     0.182 C 
ATOM     26  C   UNL     1      24.237   8.707  32.199  1.00  0.00     0.015 C 
ATOM     27  C   UNL     1      23.422  10.264  30.415  1.00  0.00     0.015 C 
BRANCH   7  28
ATOM     28  O   UNL     1      19.032   8.176  38.196  1.00  0.00    -0.393 OA
ATOM     29  H   UNL     1      18.886   8.823  38.938  1.00  0.00     0.210 HD
ENDBRANCH   7  28
BRANCH  25  30
ATOM     30  O   UNL     1      25.517  11.984  30.748  1.00  0.00    -0.462 OA
BRANCH  30  31
ATOM     31  C   UNL     1      26.448  12.316  29.755  1.00  0.00     0.302 C 
ATOM     32  O   UNL     1      27.540  12.874  30.054  1.00  0.00    -0.253 OA
ATOM     33  C   UNL     1      26.121  12.046  28.326  1.00  0.00     0.139 C 
ENDBRANCH  30  31
ENDBRANCH  25  30
ENDBRANCH   2   6
ENDBRANCH   1   2
BRANCH   1  34
ATOM     34  C   UNL     1      23.426   6.236  39.218  1.00  0.00     0.031 C 
BRANCH  34  35
ATOM     35  C   UNL     1      23.531   5.496  37.904  1.00  0.00    -0.075 C 
ATOM     36  C   UNL     1      23.937   4.212  37.901  1.00  0.00     0.008 C 
BRANCH  35  37
ATOM     37  C   UNL     1      23.098   6.188  36.619  1.00  0.00     0.008 C 
ATOM     38  C   UNL     1      21.902   5.471  35.982  1.00  0.00     0.012 C 
ATOM     39  C   UNL     1      24.260   6.313  35.627  1.00  0.00     0.012 C 
ENDBRANCH  35  37
ENDBRANCH  34  35
ENDBRANCH   1  34
TORSDOF 9
ENDMDL
MODEL 7
REMARK VINA RESULT:    -5.096      2.644      9.556
REMARK INTER + INTRA:          -9.632
REMARK INTER:                  -8.067
REMARK INTRA:                  -1.566
REMARK UNBOUND:                -2.004
REMARK SMILES C=C(CC[C@H](C(=O)[O-])[C@@H]1[C@@H](O)C[C@]2(C)C3=C(CC[C@]12C)[C@@]1(C)CC[C@H](OC(C)=O)C(C)(C)[C@H]1CC3)C(C)C
REMARK SMILES IDX 4 1 5 2 6 3 7 4 8 5 9 6 10 7 19 8 12 9 13 10 18 11 20 12
REMARK SMILES IDX 14 13 15 14 17 15 16 16 35 17 21 18 34 19 33 20 23 21 22 22
REMARK SMILES IDX 30 23 24 24 25 25 31 26 32 27 11 28 26 30 27 31 29 32 28 33
REMARK SMILES IDX 3 34 2 35 1 36 36 37 37 38 38 39
REMARK H PARENT 11 29
REMARK Flexibility Score: inf
ROOT
ATOM      1  C   UNL     1      22.530   7.489  37.949  1.00  0.00     0.014 C 
ENDROOT
BRANCH   1   2
ATOM      2  C   UNL     1      22.209   9.017  37.911  1.00  0.00     0.042 C 
BRANCH   2   3
ATOM      3  C   UNL     1      21.400   9.349  39.140  1.00  0.00     0.045 C 
ATOM      4  O   UNL     1      20.213   8.945  39.245  1.00  0.00    -0.550 OA
ATOM      5  O   UNL     1      21.941  10.146  40.141  1.00  0.00    -0.550 OA
ENDBRANCH   2   3
BRANCH   2   6
ATOM      6  C   UNL     1      21.443   9.455  36.610  1.00  0.00     0.033 C 
ATOM      7  C   UNL     1      20.796   8.268  35.872  1.00  0.00     0.119 C 
ATOM      8  C   UNL     1      22.264  10.207  35.506  1.00  0.00    -0.017 C 
ATOM      9  C   UNL     1      20.832   8.580  34.372  1.00  0.00     0.043 C 
ATOM     10  C   UNL     1      21.410   9.998  34.206  1.00  0.00    -0.003 C 
ATOM     11  C   UNL     1      23.652   9.545  35.304  1.00  0.00     0.012 C 
ATOM     12  C   UNL     1      22.458  11.713  35.853  1.00  0.00     0.013 C 
ATOM     13  C   UNL     1      20.226  11.012  34.138  1.00  0.00     0.017 C 
ATOM     14  C   UNL     1      22.215  10.081  32.888  1.00  0.00    -0.064 C 
ATOM     15  C   UNL     1      24.396  10.146  34.121  1.00  0.00     0.032 C 
ATOM     16  C   UNL     1      23.583  10.134  32.835  1.00  0.00    -0.064 C 
ATOM     17  C   UNL     1      21.447   9.988  31.584  1.00  0.00     0.032 C 
ATOM     18  C   UNL     1      24.288  10.440  31.480  1.00  0.00    -0.008 C 
ATOM     19  C   UNL     1      22.194   9.104  30.602  1.00  0.00     0.009 C 
ATOM     20  C   UNL     1      23.589   9.690  30.254  1.00  0.00     0.009 C 
ATOM     21  C   UNL     1      25.816  10.109  31.551  1.00  0.00     0.015 C 
ATOM     22  C   UNL     1      24.169  11.978  31.280  1.00  0.00     0.016 C 
ATOM     23  C   UNL     1      24.492   8.634  29.508  1.00  0.00     0.005 C 
ATOM     24  C   UNL     1      26.525  10.152  30.198  1.00  0.00     0.047 C 
ATOM     25  C   UNL     1      25.846   9.309  29.089  1.00  0.00     0.182 C 
ATOM     26  C   UNL     1      24.742   7.364  30.385  1.00  0.00     0.015 C 
ATOM     27  C   UNL     1      23.788   8.149  28.207  1.00  0.00     0.015 C 
BRANCH   7  28
ATOM     28  O   UNL     1      19.468   8.094  36.301  1.00  0.00    -0.393 OA
ATOM     29  H   UNL     1      19.099   7.328  35.785  1.00  0.00     0.210 HD
ENDBRANCH   7  28
BRANCH  25  30
ATOM     30  O   UNL     1      25.634  10.145  27.945  1.00  0.00    -0.462 OA
BRANCH  30  31
ATOM     31  C   UNL     1      26.604  10.379  26.962  1.00  0.00     0.302 C 
ATOM     32  O   UNL     1      26.907  11.555  26.620  1.00  0.00    -0.253 OA
ATOM     33  C   UNL     1      27.250   9.220  26.282  1.00  0.00     0.139 C 
ENDBRANCH  30  31
ENDBRANCH  25  30
ENDBRANCH   2   6
ENDBRANCH   1   2
BRANCH   1  34
ATOM     34  C   UNL     1      23.339   7.053  39.186  1.00  0.00     0.031 C 
BRANCH  34  35
ATOM     35  C   UNL     1      23.068   5.602  39.511  1.00  0.00    -0.075 C 
ATOM     36  C   UNL     1      23.471   4.648  38.651  1.00  0.00     0.008 C 
BRANCH  35  37
ATOM     37  C   UNL     1      22.420   5.242  40.841  1.00  0.00     0.008 C 
ATOM     38  C   UNL     1      21.494   6.364  41.325  1.00  0.00     0.012 C 
ATOM     39  C   UNL     1      23.469   4.894  41.904  1.00  0.00     0.012 C 
ENDBRANCH  35  37
ENDBRANCH  34  35
ENDBRANCH   1  34
TORSDOF 9
ENDMDL
MODEL 8
REMARK VINA RESULT:    -5.011      3.914      6.093
REMARK INTER + INTRA:          -9.505
REMARK INTER:                  -8.043
REMARK INTRA:                  -1.462
REMARK UNBOUND:                -2.004
REMARK SMILES C=C(CC[C@H](C(=O)[O-])[C@@H]1[C@@H](O)C[C@]2(C)C3=C(CC[C@]12C)[C@@]1(C)CC[C@H](OC(C)=O)C(C)(C)[C@H]1CC3)C(C)C
REMARK SMILES IDX 4 1 5 2 6 3 7 4 8 5 9 6 10 7 19 8 12 9 13 10 18 11 20 12
REMARK SMILES IDX 14 13 15 14 17 15 16 16 35 17 21 18 34 19 33 20 23 21 22 22
REMARK SMILES IDX 30 23 24 24 25 25 31 26 32 27 11 28 26 30 27 31 29 32 28 33
REMARK SMILES IDX 3 34 2 35 1 36 36 37 37 38 38 39
REMARK H PARENT 11 29
REMARK Flexibility Score: inf
ROOT
ATOM      1  C   UNL     1      22.012  10.284  32.933  1.00  0.00     0.014 C 
ENDROOT
BRANCH   1   2
ATOM      2  C   UNL     1      20.840   9.372  33.416  1.00  0.00     0.042 C 
BRANCH   2   3
ATOM      3  C   UNL     1      19.577   9.850  32.746  1.00  0.00     0.045 C 
ATOM      4  O   UNL     1      19.640  10.557  31.707  1.00  0.00    -0.550 OA
ATOM      5  O   UNL     1      18.336   9.558  33.298  1.00  0.00    -0.550 OA
ENDBRANCH   2   3
BRANCH   2   6
ATOM      6  C   UNL     1      20.668   9.363  34.978  1.00  0.00     0.033 C 
ATOM      7  C   UNL     1      21.451  10.496  35.670  1.00  0.00     0.119 C 
ATOM      8  C   UNL     1      21.094   8.063  35.745  1.00  0.00    -0.017 C 
ATOM      9  C   UNL     1      21.909   9.975  37.036  1.00  0.00     0.043 C 
ATOM     10  C   UNL     1      21.321   8.562  37.215  1.00  0.00    -0.003 C 
ATOM     11  C   UNL     1      22.432   7.509  35.192  1.00  0.00     0.012 C 
ATOM     12  C   UNL     1      20.002   6.955  35.657  1.00  0.00     0.013 C 
ATOM     13  C   UNL     1      19.972   8.680  37.989  1.00  0.00     0.017 C 
ATOM     14  C   UNL     1      22.298   7.694  38.044  1.00  0.00    -0.064 C 
ATOM     15  C   UNL     1      22.953   6.353  36.032  1.00  0.00     0.032 C 
ATOM     16  C   UNL     1      23.061   6.689  37.511  1.00  0.00    -0.064 C 
ATOM     17  C   UNL     1      22.496   8.052  39.504  1.00  0.00     0.032 C 
ATOM     18  C   UNL     1      23.841   5.731  38.460  1.00  0.00    -0.008 C 
ATOM     19  C   UNL     1      23.965   7.953  39.869  1.00  0.00     0.009 C 
ATOM     20  C   UNL     1      24.502   6.508  39.691  1.00  0.00     0.009 C 
ATOM     21  C   UNL     1      24.910   4.902  37.672  1.00  0.00     0.015 C 
ATOM     22  C   UNL     1      22.789   4.717  38.995  1.00  0.00     0.016 C 
ATOM     23  C   UNL     1      26.078   6.463  39.746  1.00  0.00     0.005 C 
ATOM     24  C   UNL     1      25.874   4.122  38.565  1.00  0.00     0.047 C 
ATOM     25  C   UNL     1      26.560   4.971  39.665  1.00  0.00     0.182 C 
ATOM     26  C   UNL     1      26.722   7.327  38.613  1.00  0.00     0.015 C 
ATOM     27  C   UNL     1      26.584   7.046  41.098  1.00  0.00     0.015 C 
BRANCH   7  28
ATOM     28  O   UNL     1      20.629  11.626  35.830  1.00  0.00    -0.393 OA
ATOM     29  H   UNL     1      19.925  11.377  36.487  1.00  0.00     0.210 HD
ENDBRANCH   7  28
BRANCH  25  30
ATOM     30  O   UNL     1      26.357   4.329  40.930  1.00  0.00    -0.462 OA
BRANCH  30  31
ATOM     31  C   UNL     1      25.483   3.252  41.124  1.00  0.00     0.302 C 
ATOM     32  O   UNL     1      25.721   2.125  40.610  1.00  0.00    -0.253 OA
ATOM     33  C   UNL     1      24.234   3.457  41.912  1.00  0.00     0.139 C 
ENDBRANCH  30  31
ENDBRANCH  25  30
ENDBRANCH   2   6
ENDBRANCH   1   2
BRANCH   1  34
ATOM     34  C   UNL     1      23.067   9.546  32.086  1.00  0.00     0.031 C 
BRANCH  34  35
ATOM     35  C   UNL     1      23.048  10.049  30.660  1.00  0.00    -0.075 C 
ATOM     36  C   UNL     1      23.234   9.177  29.651  1.00  0.00     0.008 C 
BRANCH  35  37
ATOM     37  C   UNL     1      22.737  11.514  30.388  1.00  0.00     0.008 C 
ATOM     38  C   UNL     1      21.813  11.667  29.174  1.00  0.00     0.012 C 
ATOM     39  C   UNL     1      24.018  12.339  30.215  1.00  0.00     0.012 C 
ENDBRANCH  35  37
ENDBRANCH  34  35
ENDBRANCH   1  34
TORSDOF 9
ENDMDL
MODEL 9
REMARK VINA RESULT:    -4.938      2.958      8.790
REMARK INTER + INTRA:          -9.396
REMARK INTER:                  -6.752
REMARK INTRA:                  -2.644
REMARK UNBOUND:                -2.004
REMARK SMILES C=C(CC[C@H](C(=O)[O-])[C@@H]1[C@@H](O)C[C@]2(C)C3=C(CC[C@]12C)[C@@]1(C)CC[C@H](OC(C)=O)C(C)(C)[C@H]1CC3)C(C)C
REMARK SMILES IDX 4 1 5 2 6 3 7 4 8 5 9 6 10 7 19 8 12 9 13 10 18 11 20 12
REMARK SMILES IDX 14 13 15 14 17 15 16 16 35 17 21 18 34 19 33 20 23 21 22 22
REMARK SMILES IDX 30 23 24 24 25 25 31 26 32 27 11 28 26 30 27 31 29 32 28 33
REMARK SMILES IDX 3 34 2 35 1 36 36 37 37 38 38 39
REMARK H PARENT 11 29
REMARK Flexibility Score: inf
ROOT
ATOM      1  C   UNL     1      21.434   8.115  37.234  1.00  0.00     0.014 C 
ENDROOT
BRANCH   1   2
ATOM      2  C   UNL     1      22.959   7.787  37.164  1.00  0.00     0.042 C 
BRANCH   2   3
ATOM      3  C   UNL     1      23.403   7.360  38.541  1.00  0.00     0.045 C 
ATOM      4  O   UNL     1      23.720   6.163  38.760  1.00  0.00    -0.550 OA
ATOM      5  O   UNL     1      23.417   8.273  39.589  1.00  0.00    -0.550 OA
ENDBRANCH   2   3
BRANCH   2   6
ATOM      6  C   UNL     1      23.827   8.993  36.653  1.00  0.00     0.033 C 
ATOM      7  C   UNL     1      23.038  10.315  36.600  1.00  0.00     0.119 C 
ATOM      8  C   UNL     1      24.478   8.865  35.232  1.00  0.00    -0.017 C 
ATOM      9  C   UNL     1      23.582  11.133  35.424  1.00  0.00     0.043 C 
ATOM     10  C   UNL     1      24.766  10.352  34.824  1.00  0.00    -0.003 C 
ATOM     11  C   UNL     1      23.476   8.254  34.219  1.00  0.00     0.012 C 
ATOM     12  C   UNL     1      25.771   7.996  35.264  1.00  0.00     0.013 C 
ATOM     13  C   UNL     1      26.085  10.873  35.474  1.00  0.00     0.017 C 
ATOM     14  C   UNL     1      24.832  10.598  33.297  1.00  0.00    -0.064 C 
ATOM     15  C   UNL     1      24.022   8.280  32.800  1.00  0.00     0.032 C 
ATOM     16  C   UNL     1      24.480   9.662  32.361  1.00  0.00    -0.064 C 
ATOM     17  C   UNL     1      25.204  11.989  32.822  1.00  0.00     0.032 C 
ATOM     18  C   UNL     1      24.791   9.926  30.858  1.00  0.00    -0.008 C 
ATOM     19  C   UNL     1      24.322  12.392  31.654  1.00  0.00     0.009 C 
ATOM     20  C   UNL     1      24.513  11.443  30.440  1.00  0.00     0.009 C 
ATOM     21  C   UNL     1      24.008   8.931  29.936  1.00  0.00     0.015 C 
ATOM     22  C   UNL     1      26.304   9.610  30.677  1.00  0.00     0.016 C 
ATOM     23  C   UNL     1      23.381  11.647  29.361  1.00  0.00     0.005 C 
ATOM     24  C   UNL     1      24.072   9.279  28.449  1.00  0.00     0.047 C 
ATOM     25  C   UNL     1      23.679  10.740  28.115  1.00  0.00     0.182 C 
ATOM     26  C   UNL     1      21.961  11.352  29.947  1.00  0.00     0.015 C 
ATOM     27  C   UNL     1      23.365  13.125  28.872  1.00  0.00     0.015 C 
BRANCH   7  28
ATOM     28  O   UNL     1      23.199  11.026  37.803  1.00  0.00    -0.393 OA
ATOM     29  H   UNL     1      23.968  10.611  38.279  1.00  0.00     0.210 HD
ENDBRANCH   7  28
BRANCH  25  30
ATOM     30  O   UNL     1      24.727  11.326  27.332  1.00  0.00    -0.462 OA
BRANCH  30  31
ATOM     31  C   UNL     1      24.740  11.335  25.931  1.00  0.00     0.302 C 
ATOM     32  O   UNL     1      25.826  11.238  25.295  1.00  0.00    -0.253 OA
ATOM     33  C   UNL     1      23.459  11.506  25.189  1.00  0.00     0.139 C 
ENDBRANCH  30  31
ENDBRANCH  25  30
ENDBRANCH   2   6
ENDBRANCH   1   2
BRANCH   1  34
ATOM     34  C   UNL     1      20.655   7.731  35.961  1.00  0.00     0.031 C 
BRANCH  34  35
ATOM     35  C   UNL     1      20.017   8.953  35.341  1.00  0.00    -0.075 C 
ATOM     36  C   UNL     1      19.479   9.893  36.140  1.00  0.00     0.008 C 
BRANCH  35  37
ATOM     37  C   UNL     1      20.066   9.137  33.831  1.00  0.00     0.008 C 
ATOM     38  C   UNL     1      20.698  10.484  33.459  1.00  0.00     0.012 C 
ATOM     39  C   UNL     1      18.678   8.984  33.198  1.00  0.00     0.012 C 
ENDBRANCH  35  37
ENDBRANCH  34  35
ENDBRANCH   1  34
TORSDOF 9
ENDMDL
