MODEL 1
REMARK VINA RESULT:    -4.267      0.000      0.000
REMARK INTER + INTRA:          -4.392
REMARK INTER:                  -4.392
REMARK INTRA:                   0.000
REMARK UNBOUND:                 0.000
REMARK SMILES Cc1ccccc1O
REMARK SMILES IDX 1 1 2 2 3 3 4 4 5 5 6 6 7 7 8 8
REMARK H PARENT 8 9
REMARK Flexibility Score: inf
ROOT
ATOM      1  C   UNL     1      -3.794   5.635  -3.592  1.00  0.00     0.048 C 
ATOM      2  C   UNL     1      -5.151   6.269  -3.711  1.00  0.00    -0.009 A 
ATOM      3  C   UNL     1      -6.298   5.575  -3.288  1.00  0.00     0.007 A 
ATOM      4  C   UNL     1      -7.560   6.164  -3.399  1.00  0.00     0.001 A 
ATOM      5  C   UNL     1      -7.689   7.449  -3.932  1.00  0.00     0.004 A 
ATOM      6  C   UNL     1      -6.556   8.147  -4.355  1.00  0.00     0.046 A 
ATOM      7  C   UNL     1      -5.284   7.565  -4.248  1.00  0.00     0.118 A 
ENDROOT
BRANCH   7   8
ATOM      8  O   UNL     1      -4.155   8.266  -4.672  1.00  0.00    -0.508 OA
ATOM      9  H   UNL     1      -4.173   9.270  -4.801  1.00  0.00     0.293 HD
ENDBRANCH   7   8
TORSDOF 1
ENDMDL
MODEL 2
REMARK VINA RESULT:    -4.047      1.755      3.289
REMARK INTER + INTRA:          -4.166
REMARK INTER:                  -4.166
REMARK INTRA:                   0.000
REMARK UNBOUND:                 0.000
REMARK SMILES Cc1ccccc1O
REMARK SMILES IDX 1 1 2 2 3 3 4 4 5 5 6 6 7 7 8 8
REMARK H PARENT 8 9
REMARK Flexibility Score: inf
ROOT
ATOM      1  C   UNL     1      -6.622   9.612  -4.708  1.00  0.00     0.048 C 
ATOM      2  C   UNL     1      -6.200   8.244  -4.253  1.00  0.00    -0.009 A 
ATOM      3  C   UNL     1      -4.837   7.912  -4.173  1.00  0.00     0.007 A 
ATOM      4  C   UNL     1      -4.444   6.640  -3.749  1.00  0.00     0.001 A 
ATOM      5  C   UNL     1      -5.406   5.689  -3.403  1.00  0.00     0.004 A 
ATOM      6  C   UNL     1      -6.764   6.008  -3.479  1.00  0.00     0.046 A 
ATOM      7  C   UNL     1      -7.169   7.283  -3.903  1.00  0.00     0.118 A 
ENDROOT
BRANCH   7   8
ATOM      8  O   UNL     1      -8.526   7.597  -3.978  1.00  0.00    -0.508 OA
ATOM      9  H   UNL     1      -8.863   8.533  -3.789  1.00  0.00     0.293 HD
ENDBRANCH   7   8
TORSDOF 1
ENDMDL
MODEL 3
REMARK VINA RESULT:    -4.038      0.778      2.574
REMARK INTER + INTRA:          -4.156
REMARK INTER:                  -4.156
REMARK INTRA:                   0.000
REMARK UNBOUND:                 0.000
REMARK SMILES Cc1ccccc1O
REMARK SMILES IDX 1 1 2 2 3 3 4 4 5 5 6 6 7 7 8 8
REMARK H PARENT 8 9
REMARK Flexibility Score: inf
ROOT
ATOM      1  C   UNL     1      -7.357   9.219  -4.658  1.00  0.00     0.048 C 
ATOM      2  C   UNL     1      -6.586   8.000  -4.238  1.00  0.00    -0.009 A 
ATOM      3  C   UNL     1      -7.262   6.856  -3.781  1.00  0.00     0.007 A 
ATOM      4  C   UNL     1      -6.545   5.722  -3.390  1.00  0.00     0.001 A 
ATOM      5  C   UNL     1      -5.149   5.720  -3.450  1.00  0.00     0.004 A 
ATOM      6  C   UNL     1      -4.468   6.852  -3.902  1.00  0.00     0.046 A 
ATOM      7  C   UNL     1      -5.178   7.995  -4.298  1.00  0.00     0.118 A 
ENDROOT
BRANCH   7   8
ATOM      8  O   UNL     1      -4.494   9.124  -4.749  1.00  0.00    -0.508 OA
ATOM      9  H   UNL     1      -4.472   9.981  -4.210  1.00  0.00     0.293 HD
ENDBRANCH   7   8
TORSDOF 1
ENDMDL
MODEL 4
REMARK VINA RESULT:    -3.975      1.874      2.872
REMARK INTER + INTRA:          -4.091
REMARK INTER:                  -4.091
REMARK INTRA:                   0.000
REMARK UNBOUND:                 0.000
REMARK SMILES Cc1ccccc1O
REMARK SMILES IDX 1 1 2 2 3 3 4 4 5 5 6 6 7 7 8 8
REMARK H PARENT 8 9
REMARK Flexibility Score: inf
ROOT
ATOM      1  C   UNL     1      -7.632   5.588  -3.100  1.00  0.00     0.048 C 
ATOM      2  C   UNL     1      -6.758   6.675  -3.657  1.00  0.00    -0.009 A 
ATOM      3  C   UNL     1      -5.359   6.574  -3.571  1.00  0.00     0.007 A 
ATOM      4  C   UNL     1      -4.544   7.585  -4.089  1.00  0.00     0.001 A 
ATOM      5  C   UNL     1      -5.118   8.704  -4.696  1.00  0.00     0.004 A 
ATOM      6  C   UNL     1      -6.508   8.815  -4.786  1.00  0.00     0.046 A 
ATOM      7  C   UNL     1      -7.334   7.805  -4.270  1.00  0.00     0.118 A 
ENDROOT
BRANCH   7   8
ATOM      8  O   UNL     1      -8.721   7.920  -4.362  1.00  0.00    -0.508 OA
ATOM      9  H   UNL     1      -9.313   7.862  -3.543  1.00  0.00     0.293 HD
ENDBRANCH   7   8
TORSDOF 1
ENDMDL
MODEL 5
REMARK VINA RESULT:    -3.955      1.711      2.439
REMARK INTER + INTRA:          -4.071
REMARK INTER:                  -4.071
REMARK INTRA:                   0.000
REMARK UNBOUND:                 0.000
REMARK SMILES Cc1ccccc1O
REMARK SMILES IDX 1 1 2 2 3 3 4 4 5 5 6 6 7 7 8 8
REMARK H PARENT 8 9
REMARK Flexibility Score: inf
ROOT
ATOM      1  C   UNL     1      -4.046   5.636  -3.207  1.00  0.00     0.048 C 
ATOM      2  C   UNL     1      -5.106   6.603  -3.653  1.00  0.00    -0.009 A 
ATOM      3  C   UNL     1      -4.751   7.886  -4.104  1.00  0.00     0.007 A 
ATOM      4  C   UNL     1      -5.737   8.786  -4.519  1.00  0.00     0.001 A 
ATOM      5  C   UNL     1      -7.083   8.414  -4.486  1.00  0.00     0.004 A 
ATOM      6  C   UNL     1      -7.446   7.142  -4.038  1.00  0.00     0.046 A 
ATOM      7  C   UNL     1      -6.464   6.231  -3.620  1.00  0.00     0.118 A 
ENDROOT
BRANCH   7   8
ATOM      8  O   UNL     1      -6.832   4.962  -3.174  1.00  0.00    -0.508 OA
ATOM      9  H   UNL     1      -6.314   4.486  -2.445  1.00  0.00     0.293 HD
ENDBRANCH   7   8
TORSDOF 1
ENDMDL
MODEL 6
REMARK VINA RESULT:    -3.752      1.469      2.740
REMARK INTER + INTRA:          -3.862
REMARK INTER:                  -3.862
REMARK INTRA:                   0.000
REMARK UNBOUND:                 0.000
REMARK SMILES Cc1ccccc1O
REMARK SMILES IDX 1 1 2 2 3 3 4 4 5 5 6 6 7 7 8 8
REMARK H PARENT 8 9
REMARK Flexibility Score: inf
ROOT
ATOM      1  C   UNL     1      -7.511   5.587  -3.160  1.00  0.00     0.048 C 
ATOM      2  C   UNL     1      -6.642   6.682  -3.709  1.00  0.00    -0.009 A 
ATOM      3  C   UNL     1      -7.214   7.890  -4.146  1.00  0.00     0.007 A 
ATOM      4  C   UNL     1      -6.405   8.909  -4.656  1.00  0.00     0.001 A 
ATOM      5  C   UNL     1      -5.022   8.732  -4.737  1.00  0.00     0.004 A 
ATOM      6  C   UNL     1      -4.444   7.535  -4.307  1.00  0.00     0.046 A 
ATOM      7  C   UNL     1      -5.247   6.507  -3.792  1.00  0.00     0.118 A 
ENDROOT
BRANCH   7   8
ATOM      8  O   UNL     1      -4.665   5.313  -3.363  1.00  0.00    -0.508 OA
ATOM      9  H   UNL     1      -4.593   4.509  -3.975  1.00  0.00     0.293 HD
ENDBRANCH   7   8
TORSDOF 1
ENDMDL
MODEL 7
REMARK VINA RESULT:    -3.703     18.582     19.861
REMARK INTER + INTRA:          -3.811
REMARK INTER:                  -3.811
REMARK INTRA:                   0.000
REMARK UNBOUND:                 0.000
REMARK SMILES Cc1ccccc1O
REMARK SMILES IDX 1 1 2 2 3 3 4 4 5 5 6 6 7 7 8 8
REMARK H PARENT 8 9
REMARK Flexibility Score: inf
ROOT
ATOM      1  C   UNL     1       1.000  -7.718   4.756  1.00  0.00     0.048 C 
ATOM      2  C   UNL     1       2.376  -8.174   4.359  1.00  0.00    -0.009 A 
ATOM      3  C   UNL     1       3.505  -7.419   4.722  1.00  0.00     0.007 A 
ATOM      4  C   UNL     1       4.785  -7.842   4.353  1.00  0.00     0.001 A 
ATOM      5  C   UNL     1       4.949  -9.019   3.618  1.00  0.00     0.004 A 
ATOM      6  C   UNL     1       3.833  -9.775   3.251  1.00  0.00     0.046 A 
ATOM      7  C   UNL     1       2.545  -9.359   3.617  1.00  0.00     0.118 A 
ENDROOT
BRANCH   7   8
ATOM      8  O   UNL     1       1.433 -10.118   3.249  1.00  0.00    -0.508 OA
ATOM      9  H   UNL     1       1.436 -10.691   2.414  1.00  0.00     0.293 HD
ENDBRANCH   7   8
TORSDOF 1
ENDMDL
MODEL 8
REMARK VINA RESULT:    -3.694     18.166     19.112
REMARK INTER + INTRA:          -3.802
REMARK INTER:                  -3.802
REMARK INTRA:                   0.000
REMARK UNBOUND:                 0.000
REMARK SMILES Cc1ccccc1O
REMARK SMILES IDX 1 1 2 2 3 3 4 4 5 5 6 6 7 7 8 8
REMARK H PARENT 8 9
REMARK Flexibility Score: inf
ROOT
ATOM      1  C   UNL     1       3.960  -9.555   3.546  1.00  0.00     0.048 C 
ATOM      2  C   UNL     1       2.915  -8.626   4.096  1.00  0.00    -0.009 A 
ATOM      3  C   UNL     1       3.294  -7.432   4.735  1.00  0.00     0.007 A 
ATOM      4  C   UNL     1       2.323  -6.567   5.247  1.00  0.00     0.001 A 
ATOM      5  C   UNL     1       0.968  -6.885   5.127  1.00  0.00     0.004 A 
ATOM      6  C   UNL     1       0.581  -8.069   4.494  1.00  0.00     0.046 A 
ATOM      7  C   UNL     1       1.548  -8.944   3.977  1.00  0.00     0.118 A 
ENDROOT
BRANCH   7   8
ATOM      8  O   UNL     1       1.157 -10.125   3.346  1.00  0.00    -0.508 OA
ATOM      9  H   UNL     1       0.181 -10.363   3.225  1.00  0.00     0.293 HD
ENDBRANCH   7   8
TORSDOF 1
ENDMDL
MODEL 9
REMARK VINA RESULT:    -3.488     19.234     19.946
REMARK INTER + INTRA:          -3.590
REMARK INTER:                  -3.590
REMARK INTRA:                   0.000
REMARK UNBOUND:                 0.000
REMARK SMILES Cc1ccccc1O
REMARK SMILES IDX 1 1 2 2 3 3 4 4 5 5 6 6 7 7 8 8
REMARK H PARENT 8 9
REMARK Flexibility Score: inf
ROOT
ATOM      1  C   UNL     1       5.385  -7.076   4.789  1.00  0.00     0.048 C 
ATOM      2  C   UNL     1       4.204  -7.918   4.397  1.00  0.00    -0.009 A 
ATOM      3  C   UNL     1       2.899  -7.502   4.714  1.00  0.00     0.007 A 
ATOM      4  C   UNL     1       1.800  -8.285   4.350  1.00  0.00     0.001 A 
ATOM      5  C   UNL     1       1.993  -9.489   3.668  1.00  0.00     0.004 A 
ATOM      6  C   UNL     1       3.286  -9.912   3.348  1.00  0.00     0.046 A 
ATOM      7  C   UNL     1       4.395  -9.133   3.709  1.00  0.00     0.118 A 
ENDROOT
BRANCH   7   8
ATOM      8  O   UNL     1       5.684  -9.559   3.388  1.00  0.00    -0.508 OA
ATOM      9  H   UNL     1       6.503  -9.074   3.732  1.00  0.00     0.293 HD
ENDBRANCH   7   8
TORSDOF 1
ENDMDL
