MODEL 1
REMARK VINA RESULT:    -5.059      0.000      0.000
REMARK INTER + INTRA:          -6.862
REMARK INTER:                  -6.538
REMARK INTRA:                  -0.323
REMARK UNBOUND:                -0.323
REMARK SMILES CCO[C@@H]1O[C@H](CO)[C@H](O)[C@@H](O)[C@H]1O
REMARK SMILES IDX 4 1 13 2 11 3 9 4 6 5 5 6 3 7 2 8 1 9 14 10 12 12 7 14 8 15
REMARK SMILES IDX 10 17
REMARK H PARENT 14 11 12 13 8 16 10 18
REMARK Flexibility Score: inf
ROOT
ATOM      1  C   UNL     1      40.502  38.511  24.542  1.00  0.00     0.281 C 
ATOM      2  C   UNL     1      41.683  37.800  23.855  1.00  0.00     0.202 C 
ATOM      3  C   UNL     1      41.851  38.310  22.418  1.00  0.00     0.179 C 
ATOM      4  C   UNL     1      41.965  39.837  22.427  1.00  0.00     0.177 C 
ATOM      5  C   UNL     1      40.793  40.483  23.212  1.00  0.00     0.178 C 
ATOM      6  O   UNL     1      40.634  39.930  24.516  1.00  0.00    -0.341 OA
ENDROOT
BRANCH   1   7
ATOM      7  O   UNL     1      39.279  38.091  23.959  1.00  0.00    -0.350 OA
BRANCH   7   8
ATOM      8  C   UNL     1      39.147  36.688  24.048  1.00  0.00     0.160 C 
ATOM      9  C   UNL     1      37.733  36.295  23.652  1.00  0.00     0.035 C 
ENDBRANCH   7   8
ENDBRANCH   1   7
BRANCH   2  10
ATOM     10  O   UNL     1      42.867  38.023  24.580  1.00  0.00    -0.385 OA
ATOM     11  H   UNL     1      43.451  37.235  24.430  1.00  0.00     0.211 HD
ENDBRANCH   2  10
BRANCH   3  12
ATOM     12  O   UNL     1      43.006  37.760  21.840  1.00  0.00    -0.387 OA
ATOM     13  H   UNL     1      42.709  36.996  21.279  1.00  0.00     0.211 HD
ENDBRANCH   3  12
BRANCH   5  14
ATOM     14  C   UNL     1      39.455  40.542  22.436  1.00  0.00     0.191 C 
BRANCH  14  15
ATOM     15  O   UNL     1      39.328  41.757  21.747  1.00  0.00    -0.394 OA
ATOM     16  H   UNL     1      39.006  41.537  20.834  1.00  0.00     0.210 HD
ENDBRANCH  14  15
ENDBRANCH   5  14
BRANCH   4  17
ATOM     17  O   UNL     1      42.013  40.311  21.105  1.00  0.00    -0.387 OA
ATOM     18  H   UNL     1      42.869  39.990  20.717  1.00  0.00     0.211 HD
ENDBRANCH   4  17
TORSDOF 7
ENDMDL
MODEL 2
REMARK VINA RESULT:    -4.891      1.727      3.463
REMARK INTER + INTRA:          -6.644
REMARK INTER:                  -6.237
REMARK INTRA:                  -0.406
REMARK UNBOUND:                -0.323
REMARK SMILES CCO[C@@H]1O[C@H](CO)[C@H](O)[C@@H](O)[C@H]1O
REMARK SMILES IDX 4 1 13 2 11 3 9 4 6 5 5 6 3 7 2 8 1 9 14 10 12 12 7 14 8 15
REMARK SMILES IDX 10 17
REMARK H PARENT 14 11 12 13 8 16 10 18
REMARK Flexibility Score: inf
ROOT
ATOM      1  C   UNL     1      39.434  39.951  23.680  1.00  0.00     0.281 C 
ATOM      2  C   UNL     1      40.278  41.132  23.166  1.00  0.00     0.202 C 
ATOM      3  C   UNL     1      41.759  40.737  23.090  1.00  0.00     0.179 C 
ATOM      4  C   UNL     1      41.906  39.459  22.259  1.00  0.00     0.177 C 
ATOM      5  C   UNL     1      40.961  38.341  22.777  1.00  0.00     0.178 C 
ATOM      6  O   UNL     1      39.609  38.775  22.893  1.00  0.00    -0.341 OA
ENDROOT
BRANCH   1   7
ATOM      7  O   UNL     1      39.721  39.710  25.048  1.00  0.00    -0.350 OA
BRANCH   7   8
ATOM      8  C   UNL     1      38.695  40.232  25.866  1.00  0.00     0.160 C 
ATOM      9  C   UNL     1      37.375  39.578  25.487  1.00  0.00     0.035 C 
ENDBRANCH   7   8
ENDBRANCH   1   7
BRANCH   2  10
ATOM     10  O   UNL     1      39.827  41.528  21.894  1.00  0.00    -0.385 OA
ATOM     11  H   UNL     1      40.327  40.988  21.229  1.00  0.00     0.211 HD
ENDBRANCH   2  10
BRANCH   3  12
ATOM     12  O   UNL     1      42.506  41.767  22.497  1.00  0.00    -0.387 OA
ATOM     13  H   UNL     1      41.942  42.149  21.774  1.00  0.00     0.211 HD
ENDBRANCH   3  12
BRANCH   5  14
ATOM     14  C   UNL     1      41.456  37.622  24.054  1.00  0.00     0.191 C 
BRANCH  14  15
ATOM     15  O   UNL     1      40.498  36.709  24.519  1.00  0.00    -0.394 OA
ATOM     16  H   UNL     1      39.729  36.757  23.893  1.00  0.00     0.210 HD
ENDBRANCH  14  15
ENDBRANCH   5  14
BRANCH   4  17
ATOM     17  O   UNL     1      43.247  39.040  22.279  1.00  0.00    -0.387 OA
ATOM     18  H   UNL     1      43.457  38.801  23.220  1.00  0.00     0.211 HD
ENDBRANCH   4  17
TORSDOF 7
ENDMDL
MODEL 3
REMARK VINA RESULT:    -4.886      1.163      1.238
REMARK INTER + INTRA:          -6.637
REMARK INTER:                  -6.210
REMARK INTRA:                  -0.427
REMARK UNBOUND:                -0.323
REMARK SMILES CCO[C@@H]1O[C@H](CO)[C@H](O)[C@@H](O)[C@H]1O
REMARK SMILES IDX 4 1 13 2 11 3 9 4 6 5 5 6 3 7 2 8 1 9 14 10 12 12 7 14 8 15
REMARK SMILES IDX 10 17
REMARK H PARENT 14 11 12 13 8 16 10 18
REMARK Flexibility Score: inf
ROOT
ATOM      1  C   UNL     1      39.832  38.840  24.057  1.00  0.00     0.281 C 
ATOM      2  C   UNL     1      41.234  38.387  23.608  1.00  0.00     0.202 C 
ATOM      3  C   UNL     1      41.825  39.390  22.609  1.00  0.00     0.179 C 
ATOM      4  C   UNL     1      41.792  40.796  23.214  1.00  0.00     0.177 C 
ATOM      5  C   UNL     1      40.370  41.152  23.728  1.00  0.00     0.178 C 
ATOM      6  O   UNL     1      39.837  40.159  24.599  1.00  0.00    -0.341 OA
ENDROOT
BRANCH   1   7
ATOM      7  O   UNL     1      38.917  38.723  22.980  1.00  0.00    -0.350 OA
BRANCH   7   8
ATOM      8  C   UNL     1      37.648  38.325  23.453  1.00  0.00     0.160 C 
ATOM      9  C   UNL     1      37.675  36.835  23.759  1.00  0.00     0.035 C 
ENDBRANCH   7   8
ENDBRANCH   1   7
BRANCH   2  10
ATOM     10  O   UNL     1      42.082  38.271  24.723  1.00  0.00    -0.385 OA
ATOM     11  H   UNL     1      42.454  39.174  24.899  1.00  0.00     0.211 HD
ENDBRANCH   2  10
BRANCH   3  12
ATOM     12  O   UNL     1      43.152  39.046  22.304  1.00  0.00    -0.387 OA
ATOM     13  H   UNL     1      43.674  39.147  23.143  1.00  0.00     0.211 HD
ENDBRANCH   3  12
BRANCH   5  14
ATOM     14  C   UNL     1      39.369  41.556  22.619  1.00  0.00     0.191 C 
BRANCH  14  15
ATOM     15  O   UNL     1      39.560  42.891  22.233  1.00  0.00    -0.394 OA
ATOM     16  H   UNL     1      40.521  42.988  22.002  1.00  0.00     0.210 HD
ENDBRANCH  14  15
ENDBRANCH   5  14
BRANCH   4  17
ATOM     17  O   UNL     1      42.234  41.727  22.260  1.00  0.00    -0.387 OA
ATOM     18  H   UNL     1      41.431  42.219  21.947  1.00  0.00     0.211 HD
ENDBRANCH   4  17
TORSDOF 7
ENDMDL
MODEL 4
REMARK VINA RESULT:    -4.861      1.552      3.233
REMARK INTER + INTRA:          -6.605
REMARK INTER:                  -6.349
REMARK INTRA:                  -0.255
REMARK UNBOUND:                -0.323
REMARK SMILES CCO[C@@H]1O[C@H](CO)[C@H](O)[C@@H](O)[C@H]1O
REMARK SMILES IDX 4 1 13 2 11 3 9 4 6 5 5 6 3 7 2 8 1 9 14 10 12 12 7 14 8 15
REMARK SMILES IDX 10 17
REMARK H PARENT 14 11 12 13 8 16 10 18
REMARK Flexibility Score: inf
ROOT
ATOM      1  C   UNL     1      39.254  39.633  23.547  1.00  0.00     0.281 C 
ATOM      2  C   UNL     1      39.720  41.002  24.077  1.00  0.00     0.202 C 
ATOM      3  C   UNL     1      41.225  41.181  23.843  1.00  0.00     0.179 C 
ATOM      4  C   UNL     1      41.546  40.946  22.364  1.00  0.00     0.177 C 
ATOM      5  C   UNL     1      40.969  39.591  21.874  1.00  0.00     0.178 C 
ATOM      6  O   UNL     1      39.584  39.443  22.173  1.00  0.00    -0.341 OA
ENDROOT
BRANCH   1   7
ATOM      7  O   UNL     1      39.780  38.596  24.357  1.00  0.00    -0.350 OA
BRANCH   7   8
ATOM      8  C   UNL     1      38.979  37.437  24.256  1.00  0.00     0.160 C 
ATOM      9  C   UNL     1      39.878  36.210  24.233  1.00  0.00     0.035 C 
ENDBRANCH   7   8
ENDBRANCH   1   7
BRANCH   2  10
ATOM     10  O   UNL     1      39.013  42.033  23.434  1.00  0.00    -0.385 OA
ATOM     11  H   UNL     1      39.520  42.873  23.591  1.00  0.00     0.211 HD
ENDBRANCH   2  10
BRANCH   3  12
ATOM     12  O   UNL     1      41.622  42.479  24.205  1.00  0.00    -0.387 OA
ATOM     13  H   UNL     1      42.421  42.382  24.787  1.00  0.00     0.211 HD
ENDBRANCH   3  12
BRANCH   5  14
ATOM     14  C   UNL     1      41.793  38.351  22.296  1.00  0.00     0.191 C 
BRANCH  14  15
ATOM     15  O   UNL     1      42.724  38.007  21.304  1.00  0.00    -0.394 OA
ATOM     16  H   UNL     1      43.613  37.973  21.745  1.00  0.00     0.210 HD
ENDBRANCH  14  15
ENDBRANCH   5  14
BRANCH   4  17
ATOM     17  O   UNL     1      42.935  41.006  22.171  1.00  0.00    -0.387 OA
ATOM     18  H   UNL     1      43.350  41.003  23.073  1.00  0.00     0.211 HD
ENDBRANCH   4  17
TORSDOF 7
ENDMDL
MODEL 5
REMARK VINA RESULT:    -4.632      1.609      4.361
REMARK INTER + INTRA:          -6.309
REMARK INTER:                  -5.897
REMARK INTRA:                  -0.413
REMARK UNBOUND:                -0.323
REMARK SMILES CCO[C@@H]1O[C@H](CO)[C@H](O)[C@@H](O)[C@H]1O
REMARK SMILES IDX 4 1 13 2 11 3 9 4 6 5 5 6 3 7 2 8 1 9 14 10 12 12 7 14 8 15
REMARK SMILES IDX 10 17
REMARK H PARENT 14 11 12 13 8 16 10 18
REMARK Flexibility Score: inf
ROOT
ATOM      1  C   UNL     1      39.848  39.899  24.031  1.00  0.00     0.281 C 
ATOM      2  C   UNL     1      38.554  39.109  24.299  1.00  0.00     0.202 C 
ATOM      3  C   UNL     1      38.692  37.669  23.788  1.00  0.00     0.179 C 
ATOM      4  C   UNL     1      39.946  37.029  24.389  1.00  0.00     0.177 C 
ATOM      5  C   UNL     1      41.196  37.922  24.161  1.00  0.00     0.178 C 
ATOM      6  O   UNL     1      40.997  39.266  24.590  1.00  0.00    -0.341 OA
ENDROOT
BRANCH   1   7
ATOM      7  O   UNL     1      40.001  40.119  22.638  1.00  0.00    -0.350 OA
BRANCH   7   8
ATOM      8  C   UNL     1      40.548  41.399  22.398  1.00  0.00     0.160 C 
ATOM      9  C   UNL     1      39.447  42.441  22.523  1.00  0.00     0.035 C 
ENDBRANCH   7   8
ENDBRANCH   1   7
BRANCH   2  10
ATOM     10  O   UNL     1      38.274  39.099  25.677  1.00  0.00    -0.385 OA
ATOM     11  H   UNL     1      39.100  38.797  26.138  1.00  0.00     0.211 HD
ENDBRANCH   2  10
BRANCH   3  12
ATOM     12  O   UNL     1      37.565  36.915  24.152  1.00  0.00    -0.387 OA
ATOM     13  H   UNL     1      37.446  37.032  25.131  1.00  0.00     0.211 HD
ENDBRANCH   3  12
BRANCH   5  14
ATOM     14  C   UNL     1      41.787  37.846  22.732  1.00  0.00     0.191 C 
BRANCH  14  15
ATOM     15  O   UNL     1      42.420  36.613  22.516  1.00  0.00    -0.394 OA
ATOM     16  H   UNL     1      41.710  35.969  22.257  1.00  0.00     0.210 HD
ENDBRANCH  14  15
ENDBRANCH   5  14
BRANCH   4  17
ATOM     17  O   UNL     1      40.129  35.750  23.839  1.00  0.00    -0.387 OA
ATOM     18  H   UNL     1      40.372  35.881  22.885  1.00  0.00     0.211 HD
ENDBRANCH   4  17
TORSDOF 7
ENDMDL
MODEL 6
REMARK VINA RESULT:    -4.563      1.731      2.520
REMARK INTER + INTRA:          -6.219
REMARK INTER:                  -5.782
REMARK INTRA:                  -0.437
REMARK UNBOUND:                -0.323
REMARK SMILES CCO[C@@H]1O[C@H](CO)[C@H](O)[C@@H](O)[C@H]1O
REMARK SMILES IDX 4 1 13 2 11 3 9 4 6 5 5 6 3 7 2 8 1 9 14 10 12 12 7 14 8 15
REMARK SMILES IDX 10 17
REMARK H PARENT 14 11 12 13 8 16 10 18
REMARK Flexibility Score: inf
ROOT
ATOM      1  C   UNL     1      40.343  39.153  24.447  1.00  0.00     0.281 C 
ATOM      2  C   UNL     1      41.498  40.084  24.035  1.00  0.00     0.202 C 
ATOM      3  C   UNL     1      41.157  40.813  22.730  1.00  0.00     0.179 C 
ATOM      4  C   UNL     1      39.809  41.524  22.877  1.00  0.00     0.177 C 
ATOM      5  C   UNL     1      38.712  40.548  23.381  1.00  0.00     0.178 C 
ATOM      6  O   UNL     1      39.101  39.846  24.558  1.00  0.00    -0.341 OA
ENDROOT
BRANCH   1   7
ATOM      7  O   UNL     1      40.253  38.064  23.544  1.00  0.00    -0.350 OA
BRANCH   7   8
ATOM      8  C   UNL     1      40.591  36.856  24.192  1.00  0.00     0.160 C 
ATOM      9  C   UNL     1      39.441  35.872  24.043  1.00  0.00     0.035 C 
ENDBRANCH   7   8
ENDBRANCH   1   7
BRANCH   2  10
ATOM     10  O   UNL     1      41.746  41.023  25.053  1.00  0.00    -0.385 OA
ATOM     11  H   UNL     1      42.527  40.690  25.569  1.00  0.00     0.211 HD
ENDBRANCH   2  10
BRANCH   3  12
ATOM     12  O   UNL     1      42.151  41.758  22.427  1.00  0.00    -0.387 OA
ATOM     13  H   UNL     1      41.723  42.653  22.486  1.00  0.00     0.211 HD
ENDBRANCH   3  12
BRANCH   5  14
ATOM     14  C   UNL     1      38.146  39.601  22.296  1.00  0.00     0.191 C 
BRANCH  14  15
ATOM     15  O   UNL     1      37.343  38.604  22.869  1.00  0.00    -0.394 OA
ATOM     16  H   UNL     1      37.251  38.829  23.833  1.00  0.00     0.210 HD
ENDBRANCH  14  15
ENDBRANCH   5  14
BRANCH   4  17
ATOM     17  O   UNL     1      39.447  42.102  21.649  1.00  0.00    -0.387 OA
ATOM     18  H   UNL     1      40.283  42.451  21.241  1.00  0.00     0.211 HD
ENDBRANCH   4  17
TORSDOF 7
ENDMDL
MODEL 7
REMARK VINA RESULT:    -4.524      1.623      3.725
REMARK INTER + INTRA:          -6.170
REMARK INTER:                  -5.731
REMARK INTRA:                  -0.439
REMARK UNBOUND:                -0.323
REMARK SMILES CCO[C@@H]1O[C@H](CO)[C@H](O)[C@@H](O)[C@H]1O
REMARK SMILES IDX 4 1 13 2 11 3 9 4 6 5 5 6 3 7 2 8 1 9 14 10 12 12 7 14 8 15
REMARK SMILES IDX 10 17
REMARK H PARENT 14 11 12 13 8 16 10 18
REMARK Flexibility Score: inf
ROOT
ATOM      1  C   UNL     1      38.674  40.574  23.733  1.00  0.00     0.281 C 
ATOM      2  C   UNL     1      38.518  39.136  24.261  1.00  0.00     0.202 C 
ATOM      3  C   UNL     1      39.743  38.292  23.884  1.00  0.00     0.179 C 
ATOM      4  C   UNL     1      41.016  38.995  24.363  1.00  0.00     0.177 C 
ATOM      5  C   UNL     1      41.064  40.466  23.870  1.00  0.00     0.178 C 
ATOM      6  O   UNL     1      39.878  41.190  24.185  1.00  0.00    -0.341 OA
ENDROOT
BRANCH   1   7
ATOM      7  O   UNL     1      38.584  40.583  22.318  1.00  0.00    -0.350 OA
BRANCH   7   8
ATOM      8  C   UNL     1      37.643  41.545  21.890  1.00  0.00     0.160 C 
ATOM      9  C   UNL     1      38.377  42.814  21.486  1.00  0.00     0.035 C 
ENDBRANCH   7   8
ENDBRANCH   1   7
BRANCH   2  10
ATOM     10  O   UNL     1      38.364  39.151  25.659  1.00  0.00    -0.385 OA
ATOM     11  H   UNL     1      39.240  38.894  26.049  1.00  0.00     0.211 HD
ENDBRANCH   2  10
BRANCH   3  12
ATOM     12  O   UNL     1      39.659  37.023  24.479  1.00  0.00    -0.387 OA
ATOM     13  H   UNL     1      40.220  36.413  23.931  1.00  0.00     0.211 HD
ENDBRANCH   3  12
BRANCH   5  14
ATOM     14  C   UNL     1      41.475  40.634  22.387  1.00  0.00     0.191 C 
BRANCH  14  15
ATOM     15  O   UNL     1      42.869  40.580  22.244  1.00  0.00    -0.394 OA
ATOM     16  H   UNL     1      43.053  40.463  21.275  1.00  0.00     0.210 HD
ENDBRANCH  14  15
ENDBRANCH   5  14
BRANCH   4  17
ATOM     17  O   UNL     1      42.140  38.276  23.925  1.00  0.00    -0.387 OA
ATOM     18  H   UNL     1      42.911  38.595  24.464  1.00  0.00     0.211 HD
ENDBRANCH   4  17
TORSDOF 7
ENDMDL
MODEL 8
REMARK VINA RESULT:    -4.505     11.898     13.395
REMARK INTER + INTRA:          -6.145
REMARK INTER:                  -5.722
REMARK INTRA:                  -0.423
REMARK UNBOUND:                -0.323
REMARK SMILES CCO[C@@H]1O[C@H](CO)[C@H](O)[C@@H](O)[C@H]1O
REMARK SMILES IDX 4 1 13 2 11 3 9 4 6 5 5 6 3 7 2 8 1 9 14 10 12 12 7 14 8 15
REMARK SMILES IDX 10 17
REMARK H PARENT 14 11 12 13 8 16 10 18
REMARK Flexibility Score: inf
ROOT
ATOM      1  C   UNL     1      47.972  29.465  16.647  1.00  0.00     0.281 C 
ATOM      2  C   UNL     1      48.404  30.304  17.864  1.00  0.00     0.202 C 
ATOM      3  C   UNL     1      48.979  31.651  17.406  1.00  0.00     0.179 C 
ATOM      4  C   UNL     1      47.971  32.354  16.492  1.00  0.00     0.177 C 
ATOM      5  C   UNL     1      47.511  31.420  15.341  1.00  0.00     0.178 C 
ATOM      6  O   UNL     1      47.048  30.157  15.811  1.00  0.00    -0.341 OA
ENDROOT
BRANCH   1   7
ATOM      7  O   UNL     1      49.115  29.040  15.922  1.00  0.00    -0.350 OA
BRANCH   7   8
ATOM      8  C   UNL     1      48.952  27.709  15.481  1.00  0.00     0.160 C 
ATOM      9  C   UNL     1      48.347  26.883  16.606  1.00  0.00     0.035 C 
ENDBRANCH   7   8
ENDBRANCH   1   7
BRANCH   2  10
ATOM     10  O   UNL     1      47.305  30.521  18.714  1.00  0.00    -0.385 OA
ATOM     11  H   UNL     1      46.490  30.288  18.196  1.00  0.00     0.211 HD
ENDBRANCH   2  10
BRANCH   3  12
ATOM     12  O   UNL     1      49.247  32.467  18.517  1.00  0.00    -0.387 OA
ATOM     13  H   UNL     1      48.372  32.811  18.838  1.00  0.00     0.211 HD
ENDBRANCH   3  12
BRANCH   5  14
ATOM     14  C   UNL     1      48.529  31.276  14.184  1.00  0.00     0.191 C 
BRANCH  14  15
ATOM     15  O   UNL     1      48.536  32.423  13.377  1.00  0.00    -0.394 OA
ATOM     16  H   UNL     1      49.381  32.906  13.571  1.00  0.00     0.210 HD
ENDBRANCH  14  15
ENDBRANCH   5  14
BRANCH   4  17
ATOM     17  O   UNL     1      48.540  33.536  15.990  1.00  0.00    -0.387 OA
ATOM     18  H   UNL     1      49.329  33.737  16.558  1.00  0.00     0.211 HD
ENDBRANCH   4  17
TORSDOF 7
ENDMDL
MODEL 9
REMARK VINA RESULT:    -4.267      1.895      3.928
REMARK INTER + INTRA:          -5.837
REMARK INTER:                  -5.416
REMARK INTRA:                  -0.421
REMARK UNBOUND:                -0.323
REMARK SMILES CCO[C@@H]1O[C@H](CO)[C@H](O)[C@@H](O)[C@H]1O
REMARK SMILES IDX 4 1 13 2 11 3 9 4 6 5 5 6 3 7 2 8 1 9 14 10 12 12 7 14 8 15
REMARK SMILES IDX 10 17
REMARK H PARENT 14 11 12 13 8 16 10 18
REMARK Flexibility Score: inf
ROOT
ATOM      1  C   UNL     1      40.189  38.840  23.287  1.00  0.00     0.281 C 
ATOM      2  C   UNL     1      39.081  38.549  24.316  1.00  0.00     0.202 C 
ATOM      3  C   UNL     1      38.949  39.716  25.303  1.00  0.00     0.179 C 
ATOM      4  C   UNL     1      38.752  41.022  24.530  1.00  0.00     0.177 C 
ATOM      5  C   UNL     1      39.851  41.207  23.450  1.00  0.00     0.178 C 
ATOM      6  O   UNL     1      39.981  40.071  22.599  1.00  0.00    -0.341 OA
ENDROOT
BRANCH   1   7
ATOM      7  O   UNL     1      41.458  38.805  23.920  1.00  0.00    -0.350 OA
BRANCH   7   8
ATOM      8  C   UNL     1      42.156  37.631  23.559  1.00  0.00     0.160 C 
ATOM      9  C   UNL     1      42.506  37.695  22.080  1.00  0.00     0.035 C 
ENDBRANCH   7   8
ENDBRANCH   1   7
BRANCH   2  10
ATOM     10  O   UNL     1      37.856  38.343  23.657  1.00  0.00    -0.385 OA
ATOM     11  H   UNL     1      38.016  37.661  22.954  1.00  0.00     0.211 HD
ENDBRANCH   2  10
BRANCH   3  12
ATOM     12  O   UNL     1      37.853  39.508  26.155  1.00  0.00    -0.387 OA
ATOM     13  H   UNL     1      37.061  39.904  25.704  1.00  0.00     0.211 HD
ENDBRANCH   3  12
BRANCH   5  14
ATOM     14  C   UNL     1      41.217  41.685  23.998  1.00  0.00     0.191 C 
BRANCH  14  15
ATOM     15  O   UNL     1      42.196  41.663  22.994  1.00  0.00    -0.394 OA
ATOM     16  H   UNL     1      42.972  41.162  23.361  1.00  0.00     0.210 HD
ENDBRANCH  14  15
ENDBRANCH   5  14
BRANCH   4  17
ATOM     17  O   UNL     1      38.738  42.101  25.429  1.00  0.00    -0.387 OA
ATOM     18  H   UNL     1      37.797  42.416  25.482  1.00  0.00     0.211 HD
ENDBRANCH   4  17
TORSDOF 7
ENDMDL
