MODEL 1
REMARK VINA RESULT:    -4.371      0.000      0.000
REMARK INTER + INTRA:          -6.960
REMARK INTER:                  -6.670
REMARK INTRA:                  -0.290
REMARK UNBOUND:                -0.290
REMARK SMILES CC1=CCC[C@H](C)C(=O)C[C@H](C(C)C)C(=O)C1
REMARK SMILES IDX 8 1 9 2 6 3 7 4 5 5 4 6 3 7 2 8 1 9 10 11 11 12 15 13 16 14
REMARK SMILES IDX 17 15 12 17 13 18 14 19
REMARK H PARENT
REMARK Flexibility Score: 70.00
ROOT
ATOM      1  C   UNL     1     125.024 177.337 123.387  1.00  0.00     0.136 C 
ATOM      2  O   UNL     1     124.808 177.181 124.580  1.00  0.00    -0.299 OA
ENDROOT
BRANCH   1   3
ATOM      3  C   UNL     1     123.842 177.250 122.432  1.00  0.00     0.053 C 
ATOM      4  C   UNL     1     122.482 177.479 123.109  1.00  0.00     0.016 C 
BRANCH   3   5
ATOM      5  C   UNL     1     124.053 178.110 121.166  1.00  0.00     0.015 C 
BRANCH   5   6
ATOM      6  C   UNL     1     124.338 177.298 119.888  1.00  0.00     0.028 C 
BRANCH   6   7
ATOM      7  C   UNL     1     125.439 177.895 119.046  1.00  0.00    -0.028 C 
ATOM      8  C   UNL     1     126.733 177.489 119.042  1.00  0.00    -0.070 CG0
ATOM      9  C   UNL     1     127.709 178.266 118.195  1.00  0.00     0.039 C 
ATOM     10  G   UNL     1     127.238 176.275 119.813  1.00  0.00     0.000 G0
ENDBRANCH   6   7
ENDBRANCH   5   6
ENDBRANCH   3   5
ENDBRANCH   1   3
BRANCH   1  11
ATOM     11  C   UNL     1     126.448 177.628 122.949  1.00  0.00     0.087 C 
BRANCH  11  12
ATOM     12  C   UNL     1     127.178 176.357 122.440  1.00  0.00     0.066 C 
BRANCH  12  13
ATOM     13  C   UNL     1     127.907 176.631 121.133  1.00  0.00     0.140 C 
ATOM     14  O   UNL     1     129.031 177.110 121.135  1.00  0.00    -0.299 OA
BRANCH  13  15
ATOM     15  C   UNL     1     127.247 176.291 119.820  1.00  0.00     0.106 CG0
ATOM     16  G   UNL     1     126.742 177.508 119.053  1.00  0.00     0.000 G0
ENDBRANCH  13  15
ENDBRANCH  12  13
BRANCH  12  17
ATOM     17  C   UNL     1     128.074 175.705 123.541  1.00  0.00    -0.006 C 
ATOM     18  C   UNL     1     127.455 174.472 124.224  1.00  0.00     0.008 C 
ATOM     19  C   UNL     1     128.519 176.733 124.593  1.00  0.00     0.008 C 
ENDBRANCH  12  17
ENDBRANCH  11  12
ENDBRANCH   1  11
TORSDOF 1
ENDMDL
MODEL 2
REMARK VINA RESULT:    -4.297      2.069      4.579
REMARK INTER + INTRA:          -6.848
REMARK INTER:                  -6.501
REMARK INTRA:                  -0.347
REMARK UNBOUND:                -0.290
REMARK SMILES CC1=CCC[C@H](C)C(=O)C[C@H](C(C)C)C(=O)C1
REMARK SMILES IDX 8 1 9 2 6 3 7 4 5 5 4 6 3 7 2 8 1 9 10 11 11 12 15 13 16 14
REMARK SMILES IDX 17 15 12 17 13 18 14 19
REMARK H PARENT
REMARK Flexibility Score: 70.00
ROOT
ATOM      1  C   UNL     1     125.953 176.663 122.127  1.00  0.00     0.136 C 
ATOM      2  O   UNL     1     124.802 176.762 122.525  1.00  0.00    -0.299 OA
ENDROOT
BRANCH   1   3
ATOM      3  C   UNL     1     127.072 177.052 123.081  1.00  0.00     0.053 C 
ATOM      4  C   UNL     1     127.004 178.513 123.552  1.00  0.00     0.016 C 
BRANCH   3   5
ATOM      5  C   UNL     1     127.230 176.038 124.237  1.00  0.00     0.015 C 
BRANCH   5   6
ATOM      6  C   UNL     1     127.058 174.566 123.817  1.00  0.00     0.028 C 
BRANCH   6   7
ATOM      7  C   UNL     1     128.364 173.901 123.458  1.00  0.00    -0.028 C 
ATOM      8  C   UNL     1     128.744 173.540 122.207  1.00  0.00    -0.070 CG0
ATOM      9  C   UNL     1     130.053 172.806 122.056  1.00  0.00     0.039 C 
ATOM     10  G   UNL     1     127.939 173.867 120.954  1.00  0.00     0.000 G0
ENDBRANCH   6   7
ENDBRANCH   5   6
ENDBRANCH   3   5
ENDBRANCH   1   3
BRANCH   1  11
ATOM     11  C   UNL     1     126.181 176.140 120.720  1.00  0.00     0.087 C 
BRANCH  11  12
ATOM     12  C   UNL     1     127.635 176.376 120.233  1.00  0.00     0.066 C 
BRANCH  12  13
ATOM     13  C   UNL     1     128.409 175.068 120.166  1.00  0.00     0.140 C 
ATOM     14  O   UNL     1     129.433 174.984 119.504  1.00  0.00    -0.299 OA
BRANCH  13  15
ATOM     15  C   UNL     1     127.923 173.867 120.939  1.00  0.00     0.106 CG0
ATOM     16  G   UNL     1     128.762 173.549 122.170  1.00  0.00     0.000 G0
ENDBRANCH  13  15
ENDBRANCH  12  13
BRANCH  12  17
ATOM     17  C   UNL     1     127.692 177.215 118.917  1.00  0.00    -0.006 C 
ATOM     18  C   UNL     1     128.533 178.501 119.012  1.00  0.00     0.008 C 
ATOM     19  C   UNL     1     126.286 177.534 118.385  1.00  0.00     0.008 C 
ENDBRANCH  12  17
ENDBRANCH  11  12
ENDBRANCH   1  11
TORSDOF 1
ENDMDL
MODEL 3
REMARK VINA RESULT:    -4.193      1.993      3.716
REMARK INTER + INTRA:          -6.690
REMARK INTER:                  -6.621
REMARK INTRA:                  -0.069
REMARK UNBOUND:                -0.290
REMARK SMILES CC1=CCC[C@H](C)C(=O)C[C@H](C(C)C)C(=O)C1
REMARK SMILES IDX 8 1 9 2 6 3 7 4 5 5 4 6 3 7 2 8 1 9 10 11 11 12 15 13 16 14
REMARK SMILES IDX 17 15 12 17 13 18 14 19
REMARK H PARENT
REMARK Flexibility Score: 70.00
ROOT
ATOM      1  C   UNL     1     125.535 177.968 120.273  1.00  0.00     0.136 C 
ATOM      2  O   UNL     1     124.465 178.547 120.156  1.00  0.00    -0.299 OA
ENDROOT
BRANCH   1   3
ATOM      3  C   UNL     1     126.235 177.503 119.005  1.00  0.00     0.053 C 
ATOM      4  C   UNL     1     125.303 177.398 117.787  1.00  0.00     0.016 C 
BRANCH   3   5
ATOM      5  C   UNL     1     127.527 178.303 118.725  1.00  0.00     0.015 C 
BRANCH   5   6
ATOM      6  C   UNL     1     128.760 177.807 119.503  1.00  0.00     0.028 C 
BRANCH   6   7
ATOM      7  C   UNL     1     128.879 176.303 119.518  1.00  0.00    -0.028 C 
ATOM      8  C   UNL     1     128.733 175.514 120.611  1.00  0.00    -0.070 CG0
ATOM      9  C   UNL     1     128.974 174.035 120.446  1.00  0.00     0.039 C 
ATOM     10  G   UNL     1     128.306 176.039 121.978  1.00  0.00     0.000 G0
ENDBRANCH   6   7
ENDBRANCH   5   6
ENDBRANCH   3   5
ENDBRANCH   1   3
BRANCH   1  11
ATOM     11  C   UNL     1     126.096 177.777 121.670  1.00  0.00     0.087 C 
BRANCH  11  12
ATOM     12  C   UNL     1     125.722 176.396 122.271  1.00  0.00     0.066 C 
BRANCH  12  13
ATOM     13  C   UNL     1     126.953 175.518 122.435  1.00  0.00     0.140 C 
ATOM     14  O   UNL     1     126.858 174.394 122.904  1.00  0.00    -0.299 OA
BRANCH  13  15
ATOM     15  C   UNL     1     128.304 176.029 121.998  1.00  0.00     0.106 CG0
ATOM     16  G   UNL     1     128.734 175.529 120.623  1.00  0.00     0.000 G0
ENDBRANCH  13  15
ENDBRANCH  12  13
BRANCH  12  17
ATOM     17  C   UNL     1     124.858 176.527 123.566  1.00  0.00    -0.006 C 
ATOM     18  C   UNL     1     123.406 176.979 123.326  1.00  0.00     0.008 C 
ATOM     19  C   UNL     1     125.534 177.428 124.611  1.00  0.00     0.008 C 
ENDBRANCH  12  17
ENDBRANCH  11  12
ENDBRANCH   1  11
TORSDOF 1
ENDMDL
MODEL 4
REMARK VINA RESULT:    -4.128      2.013      2.609
REMARK INTER + INTRA:          -6.590
REMARK INTER:                  -6.206
REMARK INTRA:                  -0.384
REMARK UNBOUND:                -0.290
REMARK SMILES CC1=CCC[C@H](C)C(=O)C[C@H](C(C)C)C(=O)C1
REMARK SMILES IDX 8 1 9 2 6 3 7 4 5 5 4 6 3 7 2 8 1 9 10 11 11 12 15 13 16 14
REMARK SMILES IDX 17 15 12 17 13 18 14 19
REMARK H PARENT
REMARK Flexibility Score: 70.00
ROOT
ATOM      1  C   UNL     1     126.669 175.295 123.466  1.00  0.00     0.136 C 
ATOM      2  O   UNL     1     126.208 174.313 124.029  1.00  0.00    -0.299 OA
ENDROOT
BRANCH   1   3
ATOM      3  C   UNL     1     125.830 176.565 123.450  1.00  0.00     0.053 C 
ATOM      4  C   UNL     1     126.521 177.771 124.106  1.00  0.00     0.016 C 
BRANCH   3   5
ATOM      5  C   UNL     1     125.261 176.869 122.046  1.00  0.00     0.015 C 
BRANCH   5   6
ATOM      6  C   UNL     1     125.953 178.039 121.322  1.00  0.00     0.028 C 
BRANCH   6   7
ATOM      7  C   UNL     1     126.275 177.730 119.880  1.00  0.00    -0.028 C 
ATOM      8  C   UNL     1     127.460 177.251 119.426  1.00  0.00    -0.070 CG0
ATOM      9  C   UNL     1     127.624 177.084 117.936  1.00  0.00     0.039 C 
ATOM     10  G   UNL     1     128.610 176.841 120.340  1.00  0.00     0.000 G0
ENDBRANCH   6   7
ENDBRANCH   5   6
ENDBRANCH   3   5
ENDBRANCH   1   3
BRANCH   1  11
ATOM     11  C   UNL     1     128.049 175.183 122.845  1.00  0.00     0.087 C 
BRANCH  11  12
ATOM     12  C   UNL     1     128.008 174.549 121.430  1.00  0.00     0.066 C 
BRANCH  12  13
ATOM     13  C   UNL     1     128.837 175.358 120.443  1.00  0.00     0.140 C 
ATOM     14  O   UNL     1     129.664 174.811 119.729  1.00  0.00    -0.299 OA
BRANCH  13  15
ATOM     15  C   UNL     1     128.624 176.847 120.328  1.00  0.00     0.106 CG0
ATOM     16  G   UNL     1     127.453 177.232 119.431  1.00  0.00     0.000 G0
ENDBRANCH  13  15
ENDBRANCH  12  13
BRANCH  12  17
ATOM     17  C   UNL     1     128.355 173.026 121.451  1.00  0.00    -0.006 C 
ATOM     18  C   UNL     1     127.141 172.090 121.311  1.00  0.00     0.008 C 
ATOM     19  C   UNL     1     129.182 172.649 122.690  1.00  0.00     0.008 C 
ENDBRANCH  12  17
ENDBRANCH  11  12
ENDBRANCH   1  11
TORSDOF 1
ENDMDL
MODEL 5
REMARK VINA RESULT:    -4.123      5.014      7.900
REMARK INTER + INTRA:          -6.582
REMARK INTER:                  -6.690
REMARK INTRA:                   0.108
REMARK UNBOUND:                -0.290
REMARK SMILES CC1=CCC[C@H](C)C(=O)C[C@H](C(C)C)C(=O)C1
REMARK SMILES IDX 8 1 9 2 6 3 7 4 5 5 4 6 3 7 2 8 1 9 10 11 11 12 15 13 16 14
REMARK SMILES IDX 17 15 12 17 13 18 14 19
REMARK H PARENT
REMARK Flexibility Score: 70.00
ROOT
ATOM      1  C   UNL     1     120.170 179.042 125.121  1.00  0.00     0.136 C 
ATOM      2  O   UNL     1     120.638 180.081 125.562  1.00  0.00    -0.299 OA
ENDROOT
BRANCH   1   3
ATOM      3  C   UNL     1     118.690 178.775 125.347  1.00  0.00     0.053 C 
ATOM      4  C   UNL     1     117.916 178.446 124.060  1.00  0.00     0.016 C 
BRANCH   3   5
ATOM      5  C   UNL     1     118.448 177.761 126.488  1.00  0.00     0.015 C 
BRANCH   5   6
ATOM      6  C   UNL     1     118.601 176.287 126.068  1.00  0.00     0.028 C 
BRANCH   6   7
ATOM      7  C   UNL     1     119.195 175.425 127.155  1.00  0.00    -0.028 C 
ATOM      8  C   UNL     1     120.486 175.014 127.214  1.00  0.00    -0.070 CG0
ATOM      9  C   UNL     1     120.875 174.083 128.334  1.00  0.00     0.039 C 
ATOM     10  G   UNL     1     121.562 175.471 126.235  1.00  0.00     0.000 G0
ENDBRANCH   6   7
ENDBRANCH   5   6
ENDBRANCH   3   5
ENDBRANCH   1   3
BRANCH   1  11
ATOM     11  C   UNL     1     121.094 178.106 124.363  1.00  0.00     0.087 C 
BRANCH  11  12
ATOM     12  C   UNL     1     122.363 177.743 125.177  1.00  0.00     0.066 C 
BRANCH  12  13
ATOM     13  C   UNL     1     122.009 176.912 126.402  1.00  0.00     0.140 C 
ATOM     14  O   UNL     1     122.055 177.400 127.520  1.00  0.00    -0.299 OA
BRANCH  13  15
ATOM     15  C   UNL     1     121.577 175.475 126.235  1.00  0.00     0.106 CG0
ATOM     16  G   UNL     1     120.500 175.040 127.222  1.00  0.00     0.000 G0
ENDBRANCH  13  15
ENDBRANCH  12  13
BRANCH  12  17
ATOM     17  C   UNL     1     123.482 177.115 124.286  1.00  0.00    -0.006 C 
ATOM     18  C   UNL     1     124.907 177.600 124.609  1.00  0.00     0.008 C 
ATOM     19  C   UNL     1     123.182 177.292 122.790  1.00  0.00     0.008 C 
ENDBRANCH  12  17
ENDBRANCH  11  12
ENDBRANCH   1  11
TORSDOF 1
ENDMDL
MODEL 6
REMARK VINA RESULT:    -4.099      6.195      9.032
REMARK INTER + INTRA:          -6.545
REMARK INTER:                  -6.175
REMARK INTRA:                  -0.370
REMARK UNBOUND:                -0.290
REMARK SMILES CC1=CCC[C@H](C)C(=O)C[C@H](C(C)C)C(=O)C1
REMARK SMILES IDX 8 1 9 2 6 3 7 4 5 5 4 6 3 7 2 8 1 9 10 11 11 12 15 13 16 14
REMARK SMILES IDX 17 15 12 17 13 18 14 19
REMARK H PARENT
REMARK Flexibility Score: 70.00
ROOT
ATOM      1  C   UNL     1     121.197 178.317 124.488  1.00  0.00     0.136 C 
ATOM      2  O   UNL     1     120.838 178.764 123.409  1.00  0.00    -0.299 OA
ENDROOT
BRANCH   1   3
ATOM      3  C   UNL     1     122.497 177.529 124.535  1.00  0.00     0.053 C 
ATOM      4  C   UNL     1     123.307 177.748 125.823  1.00  0.00     0.016 C 
BRANCH   3   5
ATOM      5  C   UNL     1     122.287 176.038 124.186  1.00  0.00     0.015 C 
BRANCH   5   6
ATOM      6  C   UNL     1     122.357 175.087 125.396  1.00  0.00     0.028 C 
BRANCH   6   7
ATOM      7  C   UNL     1     121.081 174.307 125.604  1.00  0.00    -0.028 C 
ATOM      8  C   UNL     1     120.074 174.658 126.441  1.00  0.00    -0.070 CG0
ATOM      9  C   UNL     1     118.914 173.705 126.580  1.00  0.00     0.039 C 
ATOM     10  G   UNL     1     120.039 175.972 127.213  1.00  0.00     0.000 G0
ENDBRANCH   6   7
ENDBRANCH   5   6
ENDBRANCH   3   5
ENDBRANCH   1   3
BRANCH   1  11
ATOM     11  C   UNL     1     120.332 178.600 125.703  1.00  0.00     0.087 C 
BRANCH  11  12
ATOM     12  C   UNL     1     118.996 177.812 125.672  1.00  0.00     0.066 C 
BRANCH  12  13
ATOM     13  C   UNL     1     118.884 176.876 126.866  1.00  0.00     0.140 C 
ATOM     14  O   UNL     1     117.859 176.835 127.530  1.00  0.00    -0.299 OA
BRANCH  13  15
ATOM     15  C   UNL     1     120.039 175.975 127.225  1.00  0.00     0.106 CG0
ATOM     16  G   UNL     1     120.061 174.665 126.445  1.00  0.00     0.000 G0
ENDBRANCH  13  15
ENDBRANCH  12  13
BRANCH  12  17
ATOM     17  C   UNL     1     117.760 178.746 125.479  1.00  0.00    -0.006 C 
ATOM     18  C   UNL     1     117.014 178.557 124.145  1.00  0.00     0.008 C 
ATOM     19  C   UNL     1     118.127 180.224 125.682  1.00  0.00     0.008 C 
ENDBRANCH  12  17
ENDBRANCH  11  12
ENDBRANCH   1  11
TORSDOF 1
ENDMDL
MODEL 7
REMARK VINA RESULT:    -4.073      2.191      5.068
REMARK INTER + INTRA:          -6.506
REMARK INTER:                  -6.619
REMARK INTRA:                   0.113
REMARK UNBOUND:                -0.290
REMARK SMILES CC1=CCC[C@H](C)C(=O)C[C@H](C(C)C)C(=O)C1
REMARK SMILES IDX 8 1 9 2 6 3 7 4 5 5 4 6 3 7 2 8 1 9 10 11 11 12 15 13 16 14
REMARK SMILES IDX 17 15 12 17 13 18 14 19
REMARK H PARENT
REMARK Flexibility Score: 70.00
ROOT
ATOM      1  C   UNL     1     127.987 175.111 120.702  1.00  0.00     0.136 C 
ATOM      2  O   UNL     1     129.107 174.810 120.317  1.00  0.00    -0.299 OA
ENDROOT
BRANCH   1   3
ATOM      3  C   UNL     1     127.369 174.277 121.814  1.00  0.00     0.053 C 
ATOM      4  C   UNL     1     126.798 172.933 121.336  1.00  0.00     0.016 C 
BRANCH   3   5
ATOM      5  C   UNL     1     128.308 174.148 123.035  1.00  0.00     0.015 C 
BRANCH   5   6
ATOM      6  C   UNL     1     128.195 175.303 124.047  1.00  0.00     0.028 C 
BRANCH   6   7
ATOM      7  C   UNL     1     126.768 175.720 124.306  1.00  0.00    -0.028 C 
ATOM      8  C   UNL     1     126.265 176.964 124.110  1.00  0.00    -0.070 CG0
ATOM      9  C   UNL     1     124.832 177.212 124.508  1.00  0.00     0.039 C 
ATOM     10  G   UNL     1     127.058 178.104 123.480  1.00  0.00     0.000 G0
ENDBRANCH   6   7
ENDBRANCH   5   6
ENDBRANCH   3   5
ENDBRANCH   1   3
BRANCH   1  11
ATOM     11  C   UNL     1     127.305 176.305 120.059  1.00  0.00     0.087 C 
BRANCH  11  12
ATOM     12  C   UNL     1     126.520 177.160 121.089  1.00  0.00     0.066 C 
BRANCH  12  13
ATOM     13  C   UNL     1     127.465 177.863 122.051  1.00  0.00     0.140 C 
ATOM     14  O   UNL     1     128.565 178.243 121.678  1.00  0.00    -0.299 OA
BRANCH  13  15
ATOM     15  C   UNL     1     127.036 178.113 123.476  1.00  0.00     0.106 CG0
ATOM     16  G   UNL     1     126.254 176.959 124.093  1.00  0.00     0.000 G0
ENDBRANCH  13  15
ENDBRANCH  12  13
BRANCH  12  17
ATOM     17  C   UNL     1     125.486 178.111 120.406  1.00  0.00    -0.006 C 
ATOM     18  C   UNL     1     124.012 177.754 120.673  1.00  0.00     0.008 C 
ATOM     19  C   UNL     1     125.741 178.237 118.896  1.00  0.00     0.008 C 
ENDBRANCH  12  17
ENDBRANCH  11  12
ENDBRANCH   1  11
TORSDOF 1
ENDMDL
MODEL 8
REMARK VINA RESULT:    -4.048      5.332      7.499
REMARK INTER + INTRA:          -6.468
REMARK INTER:                  -6.243
REMARK INTRA:                  -0.225
REMARK UNBOUND:                -0.290
REMARK SMILES CC1=CCC[C@H](C)C(=O)C[C@H](C(C)C)C(=O)C1
REMARK SMILES IDX 8 1 9 2 6 3 7 4 5 5 4 6 3 7 2 8 1 9 10 11 11 12 15 13 16 14
REMARK SMILES IDX 17 15 12 17 13 18 14 19
REMARK H PARENT
REMARK Flexibility Score: 70.00
ROOT
ATOM      1  C   UNL     1     118.554 177.613 126.165  1.00  0.00     0.136 C 
ATOM      2  O   UNL     1     117.639 176.826 125.974  1.00  0.00    -0.299 OA
ENDROOT
BRANCH   1   3
ATOM      3  C   UNL     1     118.721 178.762 125.181  1.00  0.00     0.053 C 
ATOM      4  C   UNL     1     119.375 180.011 125.794  1.00  0.00     0.016 C 
BRANCH   3   5
ATOM      5  C   UNL     1     119.381 178.306 123.861  1.00  0.00     0.015 C 
BRANCH   5   6
ATOM      6  C   UNL     1     120.765 178.928 123.596  1.00  0.00     0.028 C 
BRANCH   6   7
ATOM      7  C   UNL     1     121.889 177.927 123.699  1.00  0.00    -0.028 C 
ATOM      8  C   UNL     1     122.659 177.720 124.796  1.00  0.00    -0.070 CG0
ATOM      9  C   UNL     1     123.794 176.733 124.681  1.00  0.00     0.039 C 
ATOM     10  G   UNL     1     122.414 178.401 126.138  1.00  0.00     0.000 G0
ENDBRANCH   6   7
ENDBRANCH   5   6
ENDBRANCH   3   5
ENDBRANCH   1   3
BRANCH   1  11
ATOM     11  C   UNL     1     119.441 177.400 127.378  1.00  0.00     0.087 C 
BRANCH  11  12
ATOM     12  C   UNL     1     120.732 176.611 127.033  1.00  0.00     0.066 C 
BRANCH  12  13
ATOM     13  C   UNL     1     121.970 177.471 127.239  1.00  0.00     0.140 C 
ATOM     14  O   UNL     1     122.608 177.404 128.278  1.00  0.00    -0.299 OA
BRANCH  13  15
ATOM     15  C   UNL     1     122.429 178.401 126.143  1.00  0.00     0.106 CG0
ATOM     16  G   UNL     1     122.648 177.709 124.802  1.00  0.00     0.000 G0
ENDBRANCH  13  15
ENDBRANCH  12  13
BRANCH  12  17
ATOM     17  C   UNL     1     120.793 175.227 127.753  1.00  0.00    -0.006 C 
ATOM     18  C   UNL     1     120.658 174.011 126.819  1.00  0.00     0.008 C 
ATOM     19  C   UNL     1     119.773 175.138 128.899  1.00  0.00     0.008 C 
ENDBRANCH  12  17
ENDBRANCH  11  12
ENDBRANCH   1  11
TORSDOF 1
ENDMDL
MODEL 9
REMARK VINA RESULT:    -4.029      1.782      4.127
REMARK INTER + INTRA:          -6.440
REMARK INTER:                  -6.435
REMARK INTRA:                  -0.004
REMARK UNBOUND:                -0.290
REMARK SMILES CC1=CCC[C@H](C)C(=O)C[C@H](C(C)C)C(=O)C1
REMARK SMILES IDX 8 1 9 2 6 3 7 4 5 5 4 6 3 7 2 8 1 9 10 11 11 12 15 13 16 14
REMARK SMILES IDX 17 15 12 17 13 18 14 19
REMARK H PARENT
REMARK Flexibility Score: 70.00
ROOT
ATOM      1  C   UNL     1     124.006 177.593 121.497  1.00  0.00     0.136 C 
ATOM      2  O   UNL     1     123.341 178.457 120.943  1.00  0.00    -0.299 OA
ENDROOT
BRANCH   1   3
ATOM      3  C   UNL     1     123.866 177.445 123.005  1.00  0.00     0.053 C 
ATOM      4  C   UNL     1     122.419 177.572 123.508  1.00  0.00     0.016 C 
BRANCH   3   5
ATOM      5  C   UNL     1     124.596 176.191 123.537  1.00  0.00     0.015 C 
BRANCH   5   6
ATOM      6  C   UNL     1     125.961 176.481 124.189  1.00  0.00     0.028 C 
BRANCH   6   7
ATOM      7  C   UNL     1     126.929 175.330 124.061  1.00  0.00    -0.028 C 
ATOM      8  C   UNL     1     127.885 175.211 123.107  1.00  0.00    -0.070 CG0
ATOM      9  C   UNL     1     128.703 173.944 123.090  1.00  0.00     0.039 C 
ATOM     10  G   UNL     1     128.197 176.298 122.085  1.00  0.00     0.000 G0
ENDBRANCH   6   7
ENDBRANCH   5   6
ENDBRANCH   3   5
ENDBRANCH   1   3
BRANCH   1  11
ATOM     11  C   UNL     1     124.902 176.719 120.639  1.00  0.00     0.087 C 
BRANCH  11  12
ATOM     12  C   UNL     1     126.338 177.292 120.513  1.00  0.00     0.066 C 
BRANCH  12  13
ATOM     13  C   UNL     1     127.381 176.226 120.812  1.00  0.00     0.140 C 
ATOM     14  O   UNL     1     127.574 175.307 120.030  1.00  0.00    -0.299 OA
BRANCH  13  15
ATOM     15  C   UNL     1     128.203 176.312 122.075  1.00  0.00     0.106 CG0
ATOM     16  G   UNL     1     127.875 175.228 123.095  1.00  0.00     0.000 G0
ENDBRANCH  13  15
ENDBRANCH  12  13
BRANCH  12  17
ATOM     17  C   UNL     1     126.563 178.039 119.160  1.00  0.00    -0.006 C 
ATOM     18  C   UNL     1     125.766 177.470 117.972  1.00  0.00     0.008 C 
ATOM     19  C   UNL     1     128.055 178.137 118.807  1.00  0.00     0.008 C 
ENDBRANCH  12  17
ENDBRANCH  11  12
ENDBRANCH   1  11
TORSDOF 1
ENDMDL
