MODEL 1
REMARK VINA RESULT:    -4.621      0.000      0.000
REMARK INTER + INTRA:          -5.626
REMARK INTER:                  -5.567
REMARK INTRA:                  -0.059
REMARK UNBOUND:                -0.059
REMARK SMILES CC[C@@H](C)[C@@H]([NH3+])C(=O)[O-]
REMARK SMILES IDX 3 1 4 2 5 3 6 4 7 8 8 9 9 10 2 11 1 12
REMARK H PARENT 6 5 6 6 6 7
REMARK Flexibility Score: inf
ROOT
ATOM      1  C   UNL     1      13.800  -9.145 -44.522  1.00  0.00     0.050 C 
ATOM      2  C   UNL     1      14.378  -7.809 -44.008  1.00  0.00     0.014 C 
ENDROOT
BRANCH   1   3
ATOM      3  C   UNL     1      13.439  -9.033 -46.039  1.00  0.00     0.230 C 
BRANCH   3   4
ATOM      4  N   UNL     1      14.436  -9.690 -46.901  1.00  0.00    -0.350 N 
ATOM      5  H   UNL     1      14.996  -8.975 -47.416  1.00  0.00     0.345 HD
ATOM      6  H   UNL     1      15.072 -10.298 -46.334  1.00  0.00     0.345 HD
ATOM      7  H   UNL     1      13.959 -10.280 -47.622  1.00  0.00     0.345 HD
ENDBRANCH   3   4
BRANCH   3   8
ATOM      8  C   UNL     1      12.078  -9.625 -46.315  1.00  0.00     0.099 C 
ATOM      9  O   UNL     1      11.768 -10.755 -45.852  1.00  0.00    -0.544 OA
ATOM     10  O   UNL     1      11.157  -8.922 -47.082  1.00  0.00    -0.544 OA
ENDBRANCH   3   8
ENDBRANCH   1   3
BRANCH   1  11
ATOM     11  C   UNL     1      14.796 -10.307 -44.257  1.00  0.00     0.006 C 
ATOM     12  C   UNL     1      14.674 -10.912 -42.856  1.00  0.00     0.004 C 
ENDBRANCH   1  11
TORSDOF 4
ENDMDL
MODEL 2
REMARK VINA RESULT:    -4.406     17.330     18.372
REMARK INTER + INTRA:          -5.366
REMARK INTER:                  -5.215
REMARK INTRA:                  -0.151
REMARK UNBOUND:                -0.059
REMARK SMILES CC[C@@H](C)[C@@H]([NH3+])C(=O)[O-]
REMARK SMILES IDX 3 1 4 2 5 3 6 4 7 8 8 9 9 10 2 11 1 12
REMARK H PARENT 6 5 6 6 6 7
REMARK Flexibility Score: inf
ROOT
ATOM      1  C   UNL     1      24.538  -1.773 -32.504  1.00  0.00     0.050 C 
ATOM      2  C   UNL     1      25.551  -0.683 -32.091  1.00  0.00     0.014 C 
ENDROOT
BRANCH   1   3
ATOM      3  C   UNL     1      25.047  -3.184 -32.061  1.00  0.00     0.230 C 
BRANCH   3   4
ATOM      4  N   UNL     1      24.307  -3.704 -30.899  1.00  0.00    -0.350 N 
ATOM      5  H   UNL     1      24.817  -3.480 -30.015  1.00  0.00     0.345 HD
ATOM      6  H   UNL     1      23.342  -3.301 -30.864  1.00  0.00     0.345 HD
ATOM      7  H   UNL     1      24.236  -4.747 -30.953  1.00  0.00     0.345 HD
ENDBRANCH   3   4
BRANCH   3   8
ATOM      8  C   UNL     1      24.949  -4.175 -33.196  1.00  0.00     0.099 C 
ATOM      9  O   UNL     1      25.890  -4.286 -34.026  1.00  0.00    -0.544 OA
ATOM     10  O   UNL     1      23.820  -4.972 -33.328  1.00  0.00    -0.544 OA
ENDBRANCH   3   8
ENDBRANCH   1   3
BRANCH   1  11
ATOM     11  C   UNL     1      23.134  -1.463 -31.918  1.00  0.00     0.006 C 
ATOM     12  C   UNL     1      21.999  -1.616 -32.934  1.00  0.00     0.004 C 
ENDBRANCH   1  11
TORSDOF 4
ENDMDL
MODEL 3
REMARK VINA RESULT:    -4.400     17.155     18.099
REMARK INTER + INTRA:          -5.360
REMARK INTER:                  -5.253
REMARK INTRA:                  -0.106
REMARK UNBOUND:                -0.059
REMARK SMILES CC[C@@H](C)[C@@H]([NH3+])C(=O)[O-]
REMARK SMILES IDX 3 1 4 2 5 3 6 4 7 8 8 9 9 10 2 11 1 12
REMARK H PARENT 6 5 6 6 6 7
REMARK Flexibility Score: inf
ROOT
ATOM      1  C   UNL     1      23.548  -4.064 -33.084  1.00  0.00     0.050 C 
ATOM      2  C   UNL     1      22.486  -5.184 -33.118  1.00  0.00     0.014 C 
ENDROOT
BRANCH   1   3
ATOM      3  C   UNL     1      23.389  -3.203 -31.789  1.00  0.00     0.230 C 
BRANCH   3   4
ATOM      4  N   UNL     1      24.392  -3.542 -30.766  1.00  0.00    -0.350 N 
ATOM      5  H   UNL     1      24.042  -3.283 -29.816  1.00  0.00     0.345 HD
ATOM      6  H   UNL     1      24.619  -4.563 -30.795  1.00  0.00     0.345 HD
ATOM      7  H   UNL     1      25.270  -2.995 -30.925  1.00  0.00     0.345 HD
ENDBRANCH   3   4
BRANCH   3   8
ATOM      8  C   UNL     1      23.482  -1.729 -32.105  1.00  0.00     0.099 C 
ATOM      9  O   UNL     1      22.875  -1.252 -33.101  1.00  0.00    -0.544 OA
ATOM     10  O   UNL     1      24.237  -0.890 -31.296  1.00  0.00    -0.544 OA
ENDBRANCH   3   8
ENDBRANCH   1   3
BRANCH   1  11
ATOM     11  C   UNL     1      24.976  -4.664 -33.198  1.00  0.00     0.006 C 
ATOM     12  C   UNL     1      25.970  -3.748 -33.918  1.00  0.00     0.004 C 
ENDBRANCH   1  11
TORSDOF 4
ENDMDL
MODEL 4
REMARK VINA RESULT:    -4.395     17.168     18.166
REMARK INTER + INTRA:          -5.352
REMARK INTER:                  -5.321
REMARK INTRA:                  -0.032
REMARK UNBOUND:                -0.059
REMARK SMILES CC[C@@H](C)[C@@H]([NH3+])C(=O)[O-]
REMARK SMILES IDX 3 1 4 2 5 3 6 4 7 8 8 9 9 10 2 11 1 12
REMARK H PARENT 6 5 6 6 6 7
REMARK Flexibility Score: inf
ROOT
ATOM      1  C   UNL     1      25.415  -3.181 -33.298  1.00  0.00     0.050 C 
ATOM      2  C   UNL     1      26.246  -4.088 -34.231  1.00  0.00     0.014 C 
ENDROOT
BRANCH   1   3
ATOM      3  C   UNL     1      24.457  -4.042 -32.413  1.00  0.00     0.230 C 
BRANCH   3   4
ATOM      4  N   UNL     1      24.645  -3.789 -30.975  1.00  0.00    -0.350 N 
ATOM      5  H   UNL     1      24.086  -4.468 -30.411  1.00  0.00     0.345 HD
ATOM      6  H   UNL     1      25.657  -3.860 -30.716  1.00  0.00     0.345 HD
ATOM      7  H   UNL     1      24.300  -2.832 -30.728  1.00  0.00     0.345 HD
ENDBRANCH   3   4
BRANCH   3   8
ATOM      8  C   UNL     1      23.013  -3.790 -32.776  1.00  0.00     0.099 C 
ATOM      9  O   UNL     1      22.520  -2.636 -32.663  1.00  0.00    -0.544 OA
ATOM     10  O   UNL     1      22.221  -4.831 -33.242  1.00  0.00    -0.544 OA
ENDBRANCH   3   8
ENDBRANCH   1   3
BRANCH   1  11
ATOM     11  C   UNL     1      26.348  -2.292 -32.431  1.00  0.00     0.006 C 
ATOM     12  C   UNL     1      25.799  -0.884 -32.185  1.00  0.00     0.004 C 
ENDBRANCH   1  11
TORSDOF 4
ENDMDL
MODEL 5
REMARK VINA RESULT:    -4.335      2.610      3.656
REMARK INTER + INTRA:          -5.281
REMARK INTER:                  -5.155
REMARK INTRA:                  -0.125
REMARK UNBOUND:                -0.059
REMARK SMILES CC[C@@H](C)[C@@H]([NH3+])C(=O)[O-]
REMARK SMILES IDX 3 1 4 2 5 3 6 4 7 8 8 9 9 10 2 11 1 12
REMARK H PARENT 6 5 6 6 6 7
REMARK Flexibility Score: inf
ROOT
ATOM      1  C   UNL     1      13.784  -9.153 -44.705  1.00  0.00     0.050 C 
ATOM      2  C   UNL     1      12.784  -9.230 -45.878  1.00  0.00     0.014 C 
ENDROOT
BRANCH   1   3
ATOM      3  C   UNL     1      14.997 -10.105 -44.962  1.00  0.00     0.230 C 
BRANCH   3   4
ATOM      4  N   UNL     1      16.233  -9.364 -45.265  1.00  0.00    -0.350 N 
ATOM      5  H   UNL     1      16.599  -8.902 -44.403  1.00  0.00     0.345 HD
ATOM      6  H   UNL     1      16.961 -10.004 -45.660  1.00  0.00     0.345 HD
ATOM      7  H   UNL     1      16.039  -8.604 -45.958  1.00  0.00     0.345 HD
ENDBRANCH   3   4
BRANCH   3   8
ATOM      8  C   UNL     1      15.237 -11.006 -43.774  1.00  0.00     0.099 C 
ATOM      9  O   UNL     1      14.558 -10.869 -42.722  1.00  0.00    -0.544 OA
ATOM     10  O   UNL     1      16.210 -11.995 -43.838  1.00  0.00    -0.544 OA
ENDBRANCH   3   8
ENDBRANCH   1   3
BRANCH   1  11
ATOM     11  C   UNL     1      14.246  -7.688 -44.478  1.00  0.00     0.006 C 
ATOM     12  C   UNL     1      14.498  -7.345 -43.007  1.00  0.00     0.004 C 
ENDBRANCH   1  11
TORSDOF 4
ENDMDL
MODEL 6
REMARK VINA RESULT:    -4.252     17.817     18.583
REMARK INTER + INTRA:          -5.181
REMARK INTER:                  -5.070
REMARK INTRA:                  -0.110
REMARK UNBOUND:                -0.059
REMARK SMILES CC[C@@H](C)[C@@H]([NH3+])C(=O)[O-]
REMARK SMILES IDX 3 1 4 2 5 3 6 4 7 8 8 9 9 10 2 11 1 12
REMARK H PARENT 6 5 6 6 6 7
REMARK Flexibility Score: inf
ROOT
ATOM      1  C   UNL     1      24.393  -3.015 -33.074  1.00  0.00     0.050 C 
ATOM      2  C   UNL     1      25.112  -4.369 -33.250  1.00  0.00     0.014 C 
ENDROOT
BRANCH   1   3
ATOM      3  C   UNL     1      23.367  -3.093 -31.897  1.00  0.00     0.230 C 
BRANCH   3   4
ATOM      4  N   UNL     1      24.000  -3.500 -30.631  1.00  0.00    -0.350 N 
ATOM      5  H   UNL     1      23.410  -4.211 -30.144  1.00  0.00     0.345 HD
ATOM      6  H   UNL     1      24.956  -3.888 -30.803  1.00  0.00     0.345 HD
ATOM      7  H   UNL     1      24.079  -2.679 -29.986  1.00  0.00     0.345 HD
ENDBRANCH   3   4
BRANCH   3   8
ATOM      8  C   UNL     1      22.669  -1.770 -31.700  1.00  0.00     0.099 C 
ATOM      9  O   UNL     1      22.813  -1.126 -30.626  1.00  0.00    -0.544 OA
ATOM     10  O   UNL     1      21.863  -1.252 -32.706  1.00  0.00    -0.544 OA
ENDBRANCH   3   8
ENDBRANCH   1   3
BRANCH   1  11
ATOM     11  C   UNL     1      25.424  -1.874 -32.857  1.00  0.00     0.006 C 
ATOM     12  C   UNL     1      26.826  -2.375 -32.500  1.00  0.00     0.004 C 
ENDBRANCH   1  11
TORSDOF 4
ENDMDL
MODEL 7
REMARK VINA RESULT:    -4.215     14.256     15.180
REMARK INTER + INTRA:          -5.137
REMARK INTER:                  -5.151
REMARK INTRA:                   0.015
REMARK UNBOUND:                -0.059
REMARK SMILES CC[C@@H](C)[C@@H]([NH3+])C(=O)[O-]
REMARK SMILES IDX 3 1 4 2 5 3 6 4 7 8 8 9 9 10 2 11 1 12
REMARK H PARENT 6 5 6 6 6 7
REMARK Flexibility Score: inf
ROOT
ATOM      1  C   UNL     1      16.081  -1.148 -32.287  1.00  0.00     0.050 C 
ATOM      2  C   UNL     1      16.284   0.187 -31.539  1.00  0.00     0.014 C 
ENDROOT
BRANCH   1   3
ATOM      3  C   UNL     1      16.895  -1.152 -33.623  1.00  0.00     0.230 C 
BRANCH   3   4
ATOM      4  N   UNL     1      17.343  -2.502 -34.000  1.00  0.00    -0.350 N 
ATOM      5  H   UNL     1      17.277  -2.630 -35.035  1.00  0.00     0.345 HD
ATOM      6  H   UNL     1      18.327  -2.667 -33.683  1.00  0.00     0.345 HD
ATOM      7  H   UNL     1      16.723  -3.224 -33.565  1.00  0.00     0.345 HD
ENDBRANCH   3   4
BRANCH   3   8
ATOM      8  C   UNL     1      16.081  -0.566 -34.752  1.00  0.00     0.099 C 
ATOM      9  O   UNL     1      15.683  -1.297 -35.697  1.00  0.00    -0.544 OA
ATOM     10  O   UNL     1      15.765   0.787 -34.752  1.00  0.00    -0.544 OA
ENDBRANCH   3   8
ENDBRANCH   1   3
BRANCH   1  11
ATOM     11  C   UNL     1      16.471  -2.346 -31.380  1.00  0.00     0.006 C 
ATOM     12  C   UNL     1      15.714  -2.378 -30.049  1.00  0.00     0.004 C 
ENDBRANCH   1  11
TORSDOF 4
ENDMDL
MODEL 8
REMARK VINA RESULT:    -4.215     17.338     18.295
REMARK INTER + INTRA:          -5.136
REMARK INTER:                  -5.057
REMARK INTRA:                  -0.079
REMARK UNBOUND:                -0.059
REMARK SMILES CC[C@@H](C)[C@@H]([NH3+])C(=O)[O-]
REMARK SMILES IDX 3 1 4 2 5 3 6 4 7 8 8 9 9 10 2 11 1 12
REMARK H PARENT 6 5 6 6 6 7
REMARK Flexibility Score: inf
ROOT
ATOM      1  C   UNL     1      22.987  -2.988 -32.800  1.00  0.00     0.050 C 
ATOM      2  C   UNL     1      21.608  -2.296 -32.849  1.00  0.00     0.014 C 
ENDROOT
BRANCH   1   3
ATOM      3  C   UNL     1      23.758  -2.572 -31.504  1.00  0.00     0.230 C 
BRANCH   3   4
ATOM      4  N   UNL     1      24.654  -3.635 -31.022  1.00  0.00    -0.350 N 
ATOM      5  H   UNL     1      24.151  -4.253 -30.345  1.00  0.00     0.345 HD
ATOM      6  H   UNL     1      25.016  -4.205 -31.821  1.00  0.00     0.345 HD
ATOM      7  H   UNL     1      25.465  -3.219 -30.508  1.00  0.00     0.345 HD
ENDBRANCH   3   4
BRANCH   3   8
ATOM      8  C   UNL     1      24.559  -1.313 -31.734  1.00  0.00     0.099 C 
ATOM      9  O   UNL     1      24.342  -0.284 -31.041  1.00  0.00    -0.544 OA
ATOM     10  O   UNL     1      25.546  -1.286 -32.711  1.00  0.00    -0.544 OA
ENDBRANCH   3   8
ENDBRANCH   1   3
BRANCH   1  11
ATOM     11  C   UNL     1      22.828  -4.529 -32.898  1.00  0.00     0.006 C 
ATOM     12  C   UNL     1      21.492  -4.970 -33.501  1.00  0.00     0.004 C 
ENDBRANCH   1  11
TORSDOF 4
ENDMDL
MODEL 9
REMARK VINA RESULT:    -4.198     17.104     17.738
REMARK INTER + INTRA:          -5.115
REMARK INTER:                  -5.031
REMARK INTRA:                  -0.085
REMARK UNBOUND:                -0.059
REMARK SMILES CC[C@@H](C)[C@@H]([NH3+])C(=O)[O-]
REMARK SMILES IDX 3 1 4 2 5 3 6 4 7 8 8 9 9 10 2 11 1 12
REMARK H PARENT 6 5 6 6 6 7
REMARK Flexibility Score: inf
ROOT
ATOM      1  C   UNL     1      23.305  -2.553 -32.385  1.00  0.00     0.050 C 
ATOM      2  C   UNL     1      24.445  -1.841 -33.145  1.00  0.00     0.014 C 
ENDROOT
BRANCH   1   3
ATOM      3  C   UNL     1      21.948  -1.812 -32.623  1.00  0.00     0.230 C 
BRANCH   3   4
ATOM      4  N   UNL     1      20.898  -2.717 -33.118  1.00  0.00    -0.350 N 
ATOM      5  H   UNL     1      20.434  -2.308 -33.960  1.00  0.00     0.345 HD
ATOM      6  H   UNL     1      21.298  -3.655 -33.353  1.00  0.00     0.345 HD
ATOM      7  H   UNL     1      20.154  -2.839 -32.391  1.00  0.00     0.345 HD
ENDBRANCH   3   4
BRANCH   3   8
ATOM      8  C   UNL     1      21.471  -1.142 -31.358  1.00  0.00     0.099 C 
ATOM      9  O   UNL     1      20.284  -0.728 -31.265  1.00  0.00    -0.544 OA
ATOM     10  O   UNL     1      22.339  -0.980 -30.286  1.00  0.00    -0.544 OA
ENDBRANCH   3   8
ENDBRANCH   1   3
BRANCH   1  11
ATOM     11  C   UNL     1      23.221  -4.046 -32.803  1.00  0.00     0.006 C 
ATOM     12  C   UNL     1      24.562  -4.634 -33.249  1.00  0.00     0.004 C 
ENDBRANCH   1  11
TORSDOF 4
ENDMDL
