MODEL 1
REMARK VINA RESULT:    -3.992      0.000      0.000
REMARK INTER + INTRA:          -6.490
REMARK INTER:                  -6.093
REMARK INTRA:                  -0.397
REMARK UNBOUND:                -0.397
REMARK SMILES CC1=CCC[C@@H](C)C(=O)C[C@@H](C(C)C)C(=O)C1
REMARK SMILES IDX 8 1 9 2 6 3 7 4 5 5 4 6 3 7 2 8 1 9 10 11 11 12 15 13 16 14
REMARK SMILES IDX 17 15 12 17 13 18 14 19
REMARK H PARENT
REMARK Flexibility Score: 70.00
ROOT
ATOM      1  C   UNL     1       5.339   3.824 109.544  1.00  0.00     0.136 C 
ATOM      2  O   UNL     1       4.745   4.364 110.466  1.00  0.00    -0.299 OA
ENDROOT
BRANCH   1   3
ATOM      3  C   UNL     1       5.888   2.422 109.769  1.00  0.00     0.053 C 
ATOM      4  C   UNL     1       7.169   2.241 108.948  1.00  0.00     0.016 C 
BRANCH   3   5
ATOM      5  C   UNL     1       4.850   1.346 109.384  1.00  0.00     0.015 C 
BRANCH   5   6
ATOM      6  C   UNL     1       5.274   0.480 108.187  1.00  0.00     0.028 C 
BRANCH   6   7
ATOM      7  C   UNL     1       4.264   0.522 107.065  1.00  0.00    -0.028 C 
ATOM      8  C   UNL     1       4.333   1.282 105.946  1.00  0.00    -0.070 CG0
ATOM      9  C   UNL     1       3.225   1.133 104.931  1.00  0.00     0.039 C 
ATOM     10  G   UNL     1       5.433   2.292 105.665  1.00  0.00     0.000 G0
ENDBRANCH   6   7
ENDBRANCH   5   6
ENDBRANCH   3   5
ENDBRANCH   1   3
BRANCH   1  11
ATOM     11  C   UNL     1       5.446   4.599 108.244  1.00  0.00     0.087 C 
BRANCH  11  12
ATOM     12  C   UNL     1       4.385   4.299 107.148  1.00  0.00     0.066 C 
BRANCH  12  13
ATOM     13  C   UNL     1       4.934   3.734 105.837  1.00  0.00     0.140 C 
ATOM     14  O   UNL     1       5.017   4.498 104.887  1.00  0.00    -0.299 OA
BRANCH  13  15
ATOM     15  C   UNL     1       5.427   2.314 105.651  1.00  0.00     0.106 CG0
ATOM     16  G   UNL     1       4.320   1.310 105.925  1.00  0.00     0.000 G0
ENDBRANCH  13  15
ENDBRANCH  12  13
BRANCH  12  17
ATOM     17  C   UNL     1       3.476   5.531 106.834  1.00  0.00    -0.006 C 
ATOM     18  C   UNL     1       3.586   6.646 107.887  1.00  0.00     0.008 C 
ATOM     19  C   UNL     1       2.003   5.142 106.617  1.00  0.00     0.008 C 
ENDBRANCH  12  17
ENDBRANCH  11  12
ENDBRANCH   1  11
TORSDOF 1
ENDMDL
MODEL 2
REMARK VINA RESULT:    -3.893      1.941      2.991
REMARK INTER + INTRA:          -6.338
REMARK INTER:                  -6.161
REMARK INTRA:                  -0.177
REMARK UNBOUND:                -0.397
REMARK SMILES CC1=CCC[C@@H](C)C(=O)C[C@@H](C(C)C)C(=O)C1
REMARK SMILES IDX 8 1 9 2 6 3 7 4 5 5 4 6 3 7 2 8 1 9 10 11 11 12 15 13 16 14
REMARK SMILES IDX 17 15 12 17 13 18 14 19
REMARK H PARENT
REMARK Flexibility Score: 70.00
ROOT
ATOM      1  C   UNL     1       5.382   3.770 109.150  1.00  0.00     0.136 C 
ATOM      2  O   UNL     1       4.907   4.404 110.081  1.00  0.00    -0.299 OA
ENDROOT
BRANCH   1   3
ATOM      3  C   UNL     1       5.826   2.338 109.410  1.00  0.00     0.053 C 
ATOM      4  C   UNL     1       5.362   1.909 110.805  1.00  0.00     0.016 C 
BRANCH   3   5
ATOM      5  C   UNL     1       7.359   2.198 109.292  1.00  0.00     0.015 C 
BRANCH   5   6
ATOM      6  C   UNL     1       7.806   1.166 108.243  1.00  0.00     0.028 C 
BRANCH   6   7
ATOM      7  C   UNL     1       8.860   1.717 107.312  1.00  0.00    -0.028 C 
ATOM      8  C   UNL     1       8.657   2.214 106.068  1.00  0.00    -0.070 CG0
ATOM      9  C   UNL     1       9.856   2.752 105.327  1.00  0.00     0.039 C 
ATOM     10  G   UNL     1       7.310   2.232 105.364  1.00  0.00     0.000 G0
ENDBRANCH   6   7
ENDBRANCH   5   6
ENDBRANCH   3   5
ENDBRANCH   1   3
BRANCH   1  11
ATOM     11  C   UNL     1       5.454   4.470 107.805  1.00  0.00     0.087 C 
BRANCH  11  12
ATOM     12  C   UNL     1       5.303   3.587 106.534  1.00  0.00     0.066 C 
BRANCH  12  13
ATOM     13  C   UNL     1       6.542   3.505 105.641  1.00  0.00     0.140 C 
ATOM     14  O   UNL     1       6.956   4.548 105.157  1.00  0.00    -0.299 OA
BRANCH  13  15
ATOM     15  C   UNL     1       7.316   2.235 105.355  1.00  0.00     0.106 CG0
ATOM     16  G   UNL     1       8.647   2.229 106.090  1.00  0.00     0.000 G0
ENDBRANCH  13  15
ENDBRANCH  12  13
BRANCH  12  17
ATOM     17  C   UNL     1       4.069   3.985 105.664  1.00  0.00    -0.006 C 
ATOM     18  C   UNL     1       2.806   4.260 106.498  1.00  0.00     0.008 C 
ATOM     19  C   UNL     1       3.766   2.960 104.558  1.00  0.00     0.008 C 
ENDBRANCH  12  17
ENDBRANCH  11  12
ENDBRANCH   1  11
TORSDOF 1
ENDMDL
MODEL 3
REMARK VINA RESULT:    -3.591      2.426      4.018
REMARK INTER + INTRA:          -5.877
REMARK INTER:                  -5.506
REMARK INTRA:                  -0.371
REMARK UNBOUND:                -0.397
REMARK SMILES CC1=CCC[C@@H](C)C(=O)C[C@@H](C(C)C)C(=O)C1
REMARK SMILES IDX 8 1 9 2 6 3 7 4 5 5 4 6 3 7 2 8 1 9 10 11 11 12 15 13 16 14
REMARK SMILES IDX 17 15 12 17 13 18 14 19
REMARK H PARENT
REMARK Flexibility Score: 70.00
ROOT
ATOM      1  C   UNL     1       8.518   1.633 108.295  1.00  0.00     0.136 C 
ATOM      2  O   UNL     1       9.637   1.733 108.776  1.00  0.00    -0.299 OA
ENDROOT
BRANCH   1   3
ATOM      3  C   UNL     1       8.353   0.803 107.030  1.00  0.00     0.053 C 
ATOM      4  C   UNL     1       8.715  -0.655 107.330  1.00  0.00     0.016 C 
BRANCH   3   5
ATOM      5  C   UNL     1       9.233   1.347 105.885  1.00  0.00     0.015 C 
BRANCH   5   6
ATOM      6  C   UNL     1       8.736   2.681 105.303  1.00  0.00     0.028 C 
BRANCH   6   7
ATOM      7  C   UNL     1       7.312   2.592 104.808  1.00  0.00    -0.028 C 
ATOM      8  C   UNL     1       6.252   3.298 105.270  1.00  0.00    -0.070 CG0
ATOM      9  C   UNL     1       4.919   3.079 104.596  1.00  0.00     0.039 C 
ATOM     10  G   UNL     1       6.314   4.268 106.439  1.00  0.00     0.000 G0
ENDBRANCH   6   7
ENDBRANCH   5   6
ENDBRANCH   3   5
ENDBRANCH   1   3
BRANCH   1  11
ATOM     11  C   UNL     1       7.388   2.330 109.029  1.00  0.00     0.087 C 
BRANCH  11  12
ATOM     12  C   UNL     1       5.993   2.344 108.340  1.00  0.00     0.066 C 
BRANCH  12  13
ATOM     13  C   UNL     1       5.608   3.661 107.665  1.00  0.00     0.140 C 
ATOM     14  O   UNL     1       4.695   4.302 108.164  1.00  0.00    -0.299 OA
BRANCH  13  15
ATOM     15  C   UNL     1       6.307   4.247 106.456  1.00  0.00     0.106 CG0
ATOM     16  G   UNL     1       6.237   3.300 105.270  1.00  0.00     0.000 G0
ENDBRANCH  13  15
ENDBRANCH  12  13
BRANCH  12  17
ATOM     17  C   UNL     1       4.841   1.902 109.298  1.00  0.00    -0.006 C 
ATOM     18  C   UNL     1       5.236   1.959 110.783  1.00  0.00     0.008 C 
ATOM     19  C   UNL     1       4.277   0.515 108.947  1.00  0.00     0.008 C 
ENDBRANCH  12  17
ENDBRANCH  11  12
ENDBRANCH   1  11
TORSDOF 1
ENDMDL
MODEL 4
REMARK VINA RESULT:    -3.567      2.288      4.393
REMARK INTER + INTRA:          -5.841
REMARK INTER:                  -5.426
REMARK INTRA:                  -0.414
REMARK UNBOUND:                -0.397
REMARK SMILES CC1=CCC[C@@H](C)C(=O)C[C@@H](C(C)C)C(=O)C1
REMARK SMILES IDX 8 1 9 2 6 3 7 4 5 5 4 6 3 7 2 8 1 9 10 11 11 12 15 13 16 14
REMARK SMILES IDX 17 15 12 17 13 18 14 19
REMARK H PARENT
REMARK Flexibility Score: 70.00
ROOT
ATOM      1  C   UNL     1       5.351   1.662 108.203  1.00  0.00     0.136 C 
ATOM      2  O   UNL     1       4.319   1.037 108.402  1.00  0.00    -0.299 OA
ENDROOT
BRANCH   1   3
ATOM      3  C   UNL     1       5.625   2.886 109.064  1.00  0.00     0.053 C 
ATOM      4  C   UNL     1       5.384   2.535 110.536  1.00  0.00     0.016 C 
BRANCH   3   5
ATOM      5  C   UNL     1       4.735   4.075 108.646  1.00  0.00     0.015 C 
BRANCH   5   6
ATOM      6  C   UNL     1       5.384   4.996 107.600  1.00  0.00     0.028 C 
BRANCH   6   7
ATOM      7  C   UNL     1       4.872   4.726 106.205  1.00  0.00    -0.028 C 
ATOM      8  C   UNL     1       5.606   4.319 105.141  1.00  0.00    -0.070 CG0
ATOM      9  C   UNL     1       4.876   4.069 103.844  1.00  0.00     0.039 C 
ATOM     10  G   UNL     1       7.114   4.131 105.165  1.00  0.00     0.000 G0
ENDBRANCH   6   7
ENDBRANCH   5   6
ENDBRANCH   3   5
ENDBRANCH   1   3
BRANCH   1  11
ATOM     11  C   UNL     1       6.280   1.133 107.125  1.00  0.00     0.087 C 
BRANCH  11  12
ATOM     12  C   UNL     1       7.524   1.996 106.772  1.00  0.00     0.066 C 
BRANCH  12  13
ATOM     13  C   UNL     1       7.487   2.674 105.402  1.00  0.00     0.140 C 
ATOM     14  O   UNL     1       7.727   1.979 104.425  1.00  0.00    -0.299 OA
BRANCH  13  15
ATOM     15  C   UNL     1       7.125   4.126 105.168  1.00  0.00     0.106 CG0
ATOM     16  G   UNL     1       5.617   4.320 105.163  1.00  0.00     0.000 G0
ENDBRANCH  13  15
ENDBRANCH  12  13
BRANCH  12  17
ATOM     17  C   UNL     1       8.867   1.211 106.920  1.00  0.00    -0.006 C 
ATOM     18  C   UNL     1       8.871   0.241 108.113  1.00  0.00     0.008 C 
ATOM     19  C   UNL     1      10.093   2.137 106.979  1.00  0.00     0.008 C 
ENDBRANCH  12  17
ENDBRANCH  11  12
ENDBRANCH   1  11
TORSDOF 1
ENDMDL
MODEL 5
REMARK VINA RESULT:    -3.542      2.233      4.583
REMARK INTER + INTRA:          -5.803
REMARK INTER:                  -5.519
REMARK INTRA:                  -0.284
REMARK UNBOUND:                -0.397
REMARK SMILES CC1=CCC[C@@H](C)C(=O)C[C@@H](C(C)C)C(=O)C1
REMARK SMILES IDX 8 1 9 2 6 3 7 4 5 5 4 6 3 7 2 8 1 9 10 11 11 12 15 13 16 14
REMARK SMILES IDX 17 15 12 17 13 18 14 19
REMARK H PARENT
REMARK Flexibility Score: 70.00
ROOT
ATOM      1  C   UNL     1       3.531   2.549 106.794  1.00  0.00     0.136 C 
ATOM      2  O   UNL     1       2.717   2.387 105.897  1.00  0.00    -0.299 OA
ENDROOT
BRANCH   1   3
ATOM      3  C   UNL     1       3.838   3.973 107.235  1.00  0.00     0.053 C 
ATOM      4  C   UNL     1       2.527   4.756 107.369  1.00  0.00     0.016 C 
BRANCH   3   5
ATOM      5  C   UNL     1       4.780   4.678 106.235  1.00  0.00     0.015 C 
BRANCH   5   6
ATOM      6  C   UNL     1       6.272   4.448 106.525  1.00  0.00     0.028 C 
BRANCH   6   7
ATOM      7  C   UNL     1       6.925   3.559 105.493  1.00  0.00    -0.028 C 
ATOM      8  C   UNL     1       7.591   2.403 105.729  1.00  0.00    -0.070 CG0
ATOM      9  C   UNL     1       8.130   1.652 104.536  1.00  0.00     0.039 C 
ATOM     10  G   UNL     1       7.856   1.837 107.114  1.00  0.00     0.000 G0
ENDBRANCH   6   7
ENDBRANCH   5   6
ENDBRANCH   3   5
ENDBRANCH   1   3
BRANCH   1  11
ATOM     11  C   UNL     1       4.141   1.302 107.406  1.00  0.00     0.087 C 
BRANCH  11  12
ATOM     12  C   UNL     1       5.437   1.481 108.247  1.00  0.00     0.066 C 
BRANCH  12  13
ATOM     13  C   UNL     1       6.720   0.966 107.594  1.00  0.00     0.140 C 
ATOM     14  O   UNL     1       6.809  -0.238 107.403  1.00  0.00    -0.299 OA
BRANCH  13  15
ATOM     15  C   UNL     1       7.861   1.845 107.124  1.00  0.00     0.106 CG0
ATOM     16  G   UNL     1       7.596   2.385 105.728  1.00  0.00     0.000 G0
ENDBRANCH  13  15
ENDBRANCH  12  13
BRANCH  12  17
ATOM     17  C   UNL     1       5.314   0.879 109.683  1.00  0.00    -0.006 C 
ATOM     18  C   UNL     1       4.142  -0.106 109.826  1.00  0.00     0.008 C 
ATOM     19  C   UNL     1       5.242   1.959 110.776  1.00  0.00     0.008 C 
ENDBRANCH  12  17
ENDBRANCH  11  12
ENDBRANCH   1  11
TORSDOF 1
ENDMDL
MODEL 6
REMARK VINA RESULT:    -3.532      1.591      3.714
REMARK INTER + INTRA:          -5.788
REMARK INTER:                  -5.710
REMARK INTRA:                  -0.077
REMARK UNBOUND:                -0.397
REMARK SMILES CC1=CCC[C@@H](C)C(=O)C[C@@H](C(C)C)C(=O)C1
REMARK SMILES IDX 8 1 9 2 6 3 7 4 5 5 4 6 3 7 2 8 1 9 10 11 11 12 15 13 16 14
REMARK SMILES IDX 17 15 12 17 13 18 14 19
REMARK H PARENT
REMARK Flexibility Score: 70.00
ROOT
ATOM      1  C   UNL     1       3.932   5.054 107.617  1.00  0.00     0.136 C 
ATOM      2  O   UNL     1       4.197   6.248 107.597  1.00  0.00    -0.299 OA
ENDROOT
BRANCH   1   3
ATOM      3  C   UNL     1       2.897   4.534 106.631  1.00  0.00     0.053 C 
ATOM      4  C   UNL     1       1.714   5.505 106.578  1.00  0.00     0.016 C 
BRANCH   3   5
ATOM      5  C   UNL     1       2.411   3.122 107.024  1.00  0.00     0.015 C 
BRANCH   5   6
ATOM      6  C   UNL     1       2.928   2.010 106.095  1.00  0.00     0.028 C 
BRANCH   6   7
ATOM      7  C   UNL     1       3.637   2.563 104.882  1.00  0.00    -0.028 C 
ATOM      8  C   UNL     1       4.975   2.704 104.724  1.00  0.00    -0.070 CG0
ATOM      9  C   UNL     1       5.470   3.244 103.404  1.00  0.00     0.039 C 
ATOM     10  G   UNL     1       6.001   2.384 105.799  1.00  0.00     0.000 G0
ENDBRANCH   6   7
ENDBRANCH   5   6
ENDBRANCH   3   5
ENDBRANCH   1   3
BRANCH   1  11
ATOM     11  C   UNL     1       4.691   4.196 108.613  1.00  0.00     0.087 C 
BRANCH  11  12
ATOM     12  C   UNL     1       6.080   3.654 108.171  1.00  0.00     0.066 C 
BRANCH  12  13
ATOM     13  C   UNL     1       6.311   3.591 106.661  1.00  0.00     0.140 C 
ATOM     14  O   UNL     1       6.816   4.569 106.128  1.00  0.00    -0.299 OA
BRANCH  13  15
ATOM     15  C   UNL     1       6.006   2.389 105.791  1.00  0.00     0.106 CG0
ATOM     16  G   UNL     1       4.973   2.729 104.730  1.00  0.00     0.000 G0
ENDBRANCH  13  15
ENDBRANCH  12  13
BRANCH  12  17
ATOM     17  C   UNL     1       6.414   2.263 108.799  1.00  0.00    -0.006 C 
ATOM     18  C   UNL     1       5.645   1.990 110.103  1.00  0.00     0.008 C 
ATOM     19  C   UNL     1       7.922   2.055 109.014  1.00  0.00     0.008 C 
ENDBRANCH  12  17
ENDBRANCH  11  12
ENDBRANCH   1  11
TORSDOF 1
ENDMDL
MODEL 7
REMARK VINA RESULT:    -3.389      1.474      2.023
REMARK INTER + INTRA:          -5.570
REMARK INTER:                  -5.677
REMARK INTRA:                   0.107
REMARK UNBOUND:                -0.397
REMARK SMILES CC1=CCC[C@@H](C)C(=O)C[C@@H](C(C)C)C(=O)C1
REMARK SMILES IDX 8 1 9 2 6 3 7 4 5 5 4 6 3 7 2 8 1 9 10 11 11 12 15 13 16 14
REMARK SMILES IDX 17 15 12 17 13 18 14 19
REMARK H PARENT
REMARK Flexibility Score: 70.00
ROOT
ATOM      1  C   UNL     1       5.189   3.600 108.976  1.00  0.00     0.136 C 
ATOM      2  O   UNL     1       5.013   4.393 109.890  1.00  0.00    -0.299 OA
ENDROOT
BRANCH   1   3
ATOM      3  C   UNL     1       5.732   2.220 109.319  1.00  0.00     0.053 C 
ATOM      4  C   UNL     1       5.485   1.933 110.804  1.00  0.00     0.016 C 
BRANCH   3   5
ATOM      5  C   UNL     1       7.239   2.116 108.999  1.00  0.00     0.015 C 
BRANCH   5   6
ATOM      6  C   UNL     1       7.535   1.568 107.593  1.00  0.00     0.028 C 
BRANCH   6   7
ATOM      7  C   UNL     1       6.640   0.406 107.233  1.00  0.00    -0.028 C 
ATOM      8  C   UNL     1       5.602   0.428 106.363  1.00  0.00    -0.070 CG0
ATOM      9  C   UNL     1       4.866  -0.868 106.122  1.00  0.00     0.039 C 
ATOM     10  G   UNL     1       5.114   1.675 105.644  1.00  0.00     0.000 G0
ENDBRANCH   6   7
ENDBRANCH   5   6
ENDBRANCH   3   5
ENDBRANCH   1   3
BRANCH   1  11
ATOM     11  C   UNL     1       4.817   4.063 107.580  1.00  0.00     0.087 C 
BRANCH  11  12
ATOM     12  C   UNL     1       3.545   3.439 106.939  1.00  0.00     0.066 C 
BRANCH  12  13
ATOM     13  C   UNL     1       3.768   2.137 106.168  1.00  0.00     0.140 C 
ATOM     14  O   UNL     1       2.786   1.449 105.932  1.00  0.00    -0.299 OA
BRANCH  13  15
ATOM     15  C   UNL     1       5.106   1.669 105.636  1.00  0.00     0.106 CG0
ATOM     16  G   UNL     1       5.591   0.436 106.382  1.00  0.00     0.000 G0
ENDBRANCH  13  15
ENDBRANCH  12  13
BRANCH  12  17
ATOM     17  C   UNL     1       2.769   4.446 106.030  1.00  0.00    -0.006 C 
ATOM     18  C   UNL     1       3.574   4.889 104.796  1.00  0.00     0.008 C 
ATOM     19  C   UNL     1       2.260   5.674 106.805  1.00  0.00     0.008 C 
ENDBRANCH  12  17
ENDBRANCH  11  12
ENDBRANCH   1  11
TORSDOF 1
ENDMDL
MODEL 8
REMARK VINA RESULT:    -3.357      2.474      4.333
REMARK INTER + INTRA:          -5.520
REMARK INTER:                  -5.309
REMARK INTRA:                  -0.211
REMARK UNBOUND:                -0.397
REMARK SMILES CC1=CCC[C@@H](C)C(=O)C[C@@H](C(C)C)C(=O)C1
REMARK SMILES IDX 8 1 9 2 6 3 7 4 5 5 4 6 3 7 2 8 1 9 10 11 11 12 15 13 16 14
REMARK SMILES IDX 17 15 12 17 13 18 14 19
REMARK H PARENT
REMARK Flexibility Score: 70.00
ROOT
ATOM      1  C   UNL     1       3.538   1.786 107.219  1.00  0.00     0.136 C 
ATOM      2  O   UNL     1       2.735   2.679 107.452  1.00  0.00    -0.299 OA
ENDROOT
BRANCH   1   3
ATOM      3  C   UNL     1       3.574   1.203 105.814  1.00  0.00     0.053 C 
ATOM      4  C   UNL     1       3.664  -0.324 105.900  1.00  0.00     0.016 C 
BRANCH   3   5
ATOM      5  C   UNL     1       4.764   1.764 105.006  1.00  0.00     0.015 C 
BRANCH   5   6
ATOM      6  C   UNL     1       5.791   0.696 104.597  1.00  0.00     0.028 C 
BRANCH   6   7
ATOM      7  C   UNL     1       7.210   1.133 104.871  1.00  0.00    -0.028 C 
ATOM      8  C   UNL     1       7.874   1.029 106.048  1.00  0.00    -0.070 CG0
ATOM      9  C   UNL     1       9.308   1.496 106.084  1.00  0.00     0.039 C 
ATOM     10  G   UNL     1       7.256   0.504 107.334  1.00  0.00     0.000 G0
ENDBRANCH   6   7
ENDBRANCH   5   6
ENDBRANCH   3   5
ENDBRANCH   1   3
BRANCH   1  11
ATOM     11  C   UNL     1       4.448   1.364 108.357  1.00  0.00     0.087 C 
BRANCH  11  12
ATOM     12  C   UNL     1       5.693   2.251 108.640  1.00  0.00     0.066 C 
BRANCH  12  13
ATOM     13  C   UNL     1       7.045   1.598 108.349  1.00  0.00     0.140 C 
ATOM     14  O   UNL     1       8.002   1.968 109.015  1.00  0.00    -0.299 OA
BRANCH  13  15
ATOM     15  C   UNL     1       7.270   0.496 107.335  1.00  0.00     0.106 CG0
ATOM     16  G   UNL     1       7.871   1.046 106.052  1.00  0.00     0.000 G0
ENDBRANCH  13  15
ENDBRANCH  12  13
BRANCH  12  17
ATOM     17  C   UNL     1       5.706   2.833 110.089  1.00  0.00    -0.006 C 
ATOM     18  C   UNL     1       5.069   1.889 111.123  1.00  0.00     0.008 C 
ATOM     19  C   UNL     1       5.066   4.229 110.174  1.00  0.00     0.008 C 
ENDBRANCH  12  17
ENDBRANCH  11  12
ENDBRANCH   1  11
TORSDOF 1
ENDMDL
MODEL 9
REMARK VINA RESULT:    -3.331      2.278      4.520
REMARK INTER + INTRA:          -5.480
REMARK INTER:                  -5.100
REMARK INTRA:                  -0.381
REMARK UNBOUND:                -0.397
REMARK SMILES CC1=CCC[C@@H](C)C(=O)C[C@@H](C(C)C)C(=O)C1
REMARK SMILES IDX 8 1 9 2 6 3 7 4 5 5 4 6 3 7 2 8 1 9 10 11 11 12 15 13 16 14
REMARK SMILES IDX 17 15 12 17 13 18 14 19
REMARK H PARENT
REMARK Flexibility Score: 70.00
ROOT
ATOM      1  C   UNL     1       3.496   5.069 103.995  1.00  0.00     0.136 C 
ATOM      2  O   UNL     1       3.054   6.108 103.524  1.00  0.00    -0.299 OA
ENDROOT
BRANCH   1   3
ATOM      3  C   UNL     1       4.633   4.376 103.260  1.00  0.00     0.053 C 
ATOM      4  C   UNL     1       5.701   5.409 102.885  1.00  0.00     0.016 C 
BRANCH   3   5
ATOM      5  C   UNL     1       4.123   3.653 101.994  1.00  0.00     0.015 C 
BRANCH   5   6
ATOM      6  C   UNL     1       3.477   2.287 102.281  1.00  0.00     0.028 C 
BRANCH   6   7
ATOM      7  C   UNL     1       4.369   1.398 103.114  1.00  0.00    -0.028 C 
ATOM      8  C   UNL     1       4.115   0.946 104.366  1.00  0.00    -0.070 CG0
ATOM      9  C   UNL     1       5.134   0.029 104.997  1.00  0.00     0.039 C 
ATOM     10  G   UNL     1       2.891   1.330 105.181  1.00  0.00     0.000 G0
ENDBRANCH   6   7
ENDBRANCH   5   6
ENDBRANCH   3   5
ENDBRANCH   1   3
BRANCH   1  11
ATOM     11  C   UNL     1       2.881   4.587 105.296  1.00  0.00     0.087 C 
BRANCH  11  12
ATOM     12  C   UNL     1       3.757   3.675 106.201  1.00  0.00     0.066 C 
BRANCH  12  13
ATOM     13  C   UNL     1       3.269   2.233 106.350  1.00  0.00     0.140 C 
ATOM     14  O   UNL     1       3.136   1.799 107.485  1.00  0.00    -0.299 OA
BRANCH  13  15
ATOM     15  C   UNL     1       2.893   1.327 105.196  1.00  0.00     0.106 CG0
ATOM     16  G   UNL     1       4.114   0.960 104.368  1.00  0.00     0.000 G0
ENDBRANCH  13  15
ENDBRANCH  12  13
BRANCH  12  17
ATOM     17  C   UNL     1       3.999   4.283 107.619  1.00  0.00    -0.006 C 
ATOM     18  C   UNL     1       3.402   5.692 107.781  1.00  0.00     0.008 C 
ATOM     19  C   UNL     1       5.484   4.282 108.021  1.00  0.00     0.008 C 
ENDBRANCH  12  17
ENDBRANCH  11  12
ENDBRANCH   1  11
TORSDOF 1
ENDMDL
