MODEL 1
REMARK VINA RESULT:    -3.665      0.000      0.000
REMARK INTER + INTRA:          -7.403
REMARK INTER:                  -5.807
REMARK INTRA:                  -1.596
REMARK UNBOUND:                -1.596
REMARK SMILES CCCCCCCCCCCC(=O)[O-]
REMARK SMILES IDX 7 1 8 2 9 3 10 4 11 5 12 6 13 7 14 8 6 9 5 10 4 11 3 12 2 13
REMARK SMILES IDX 1 14
REMARK H PARENT
REMARK Flexibility Score: inf
ROOT
ATOM      1  C   UNL     1      12.783  25.402  33.555  1.00  0.00     0.000 C 
ENDROOT
BRANCH   1   2
ATOM      2  C   UNL     1      14.159  25.279  32.888  1.00  0.00     0.000 C 
BRANCH   2   3
ATOM      3  C   UNL     1      14.807  23.924  33.210  1.00  0.00     0.000 C 
BRANCH   3   4
ATOM      4  C   UNL     1      16.199  24.066  33.851  1.00  0.00     0.006 C 
BRANCH   4   5
ATOM      5  C   UNL     1      16.176  24.295  35.371  1.00  0.00     0.053 C 
BRANCH   5   6
ATOM      6  C   UNL     1      15.191  23.401  36.059  1.00  0.00     0.041 C 
ATOM      7  O   UNL     1      14.229  23.896  36.704  1.00  0.00    -0.550 OA
ATOM      8  O   UNL     1      15.356  22.023  36.020  1.00  0.00    -0.550 OA
ENDBRANCH   5   6
ENDBRANCH   4   5
ENDBRANCH   3   4
ENDBRANCH   2   3
ENDBRANCH   1   2
BRANCH   1   9
ATOM      9  C   UNL     1      12.589  26.794  34.167  1.00  0.00     0.000 C 
BRANCH   9  10
ATOM     10  C   UNL     1      13.578  27.032  35.318  1.00  0.00    -0.000 C 
BRANCH  10  11
ATOM     11  C   UNL     1      14.423  28.300  35.122  1.00  0.00    -0.000 C 
BRANCH  11  12
ATOM     12  C   UNL     1      15.870  27.991  34.709  1.00  0.00    -0.000 C 
BRANCH  12  13
ATOM     13  C   UNL     1      16.144  28.465  33.278  1.00  0.00    -0.003 C 
ATOM     14  C   UNL     1      17.088  27.511  32.552  1.00  0.00     0.004 C 
ENDBRANCH  12  13
ENDBRANCH  11  12
ENDBRANCH  10  11
ENDBRANCH   9  10
ENDBRANCH   1   9
TORSDOF 10
ENDMDL
MODEL 2
REMARK VINA RESULT:    -3.632      2.820      4.355
REMARK INTER + INTRA:          -7.351
REMARK INTER:                  -5.809
REMARK INTRA:                  -1.543
REMARK UNBOUND:                -1.596
REMARK SMILES CCCCCCCCCCCC(=O)[O-]
REMARK SMILES IDX 7 1 8 2 9 3 10 4 11 5 12 6 13 7 14 8 6 9 5 10 4 11 3 12 2 13
REMARK SMILES IDX 1 14
REMARK H PARENT
REMARK Flexibility Score: inf
ROOT
ATOM      1  C   UNL     1      13.706  25.130  32.971  1.00  0.00     0.000 C 
ENDROOT
BRANCH   1   2
ATOM      2  C   UNL     1      12.872  25.933  33.976  1.00  0.00     0.000 C 
BRANCH   2   3
ATOM      3  C   UNL     1      13.291  25.612  35.419  1.00  0.00     0.000 C 
BRANCH   3   4
ATOM      4  C   UNL     1      13.416  26.870  36.297  1.00  0.00     0.006 C 
BRANCH   4   5
ATOM      5  C   UNL     1      13.337  28.194  35.521  1.00  0.00     0.053 C 
BRANCH   5   6
ATOM      6  C   UNL     1      12.088  28.957  35.837  1.00  0.00     0.041 C 
ATOM      7  O   UNL     1      10.965  28.503  35.496  1.00  0.00    -0.550 OA
ATOM      8  O   UNL     1      12.167  30.188  36.475  1.00  0.00    -0.550 OA
ENDBRANCH   5   6
ENDBRANCH   4   5
ENDBRANCH   3   4
ENDBRANCH   2   3
ENDBRANCH   1   2
BRANCH   1   9
ATOM      9  C   UNL     1      14.587  24.098  33.684  1.00  0.00     0.000 C 
BRANCH   9  10
ATOM     10  C   UNL     1      16.069  24.306  33.339  1.00  0.00    -0.000 C 
BRANCH  10  11
ATOM     11  C   UNL     1      16.875  24.893  34.508  1.00  0.00    -0.000 C 
BRANCH  11  12
ATOM     12  C   UNL     1      16.908  26.429  34.494  1.00  0.00    -0.000 C 
BRANCH  12  13
ATOM     13  C   UNL     1      16.860  26.964  33.059  1.00  0.00    -0.003 C 
ATOM     14  C   UNL     1      16.185  28.332  33.003  1.00  0.00     0.004 C 
ENDBRANCH  12  13
ENDBRANCH  11  12
ENDBRANCH  10  11
ENDBRANCH   9  10
ENDBRANCH   1   9
TORSDOF 10
ENDMDL
MODEL 3
REMARK VINA RESULT:    -3.593      3.169      5.079
REMARK INTER + INTRA:          -7.290
REMARK INTER:                  -5.910
REMARK INTRA:                  -1.379
REMARK UNBOUND:                -1.596
REMARK SMILES CCCCCCCCCCCC(=O)[O-]
REMARK SMILES IDX 7 1 8 2 9 3 10 4 11 5 12 6 13 7 14 8 6 9 5 10 4 11 3 12 2 13
REMARK SMILES IDX 1 14
REMARK H PARENT
REMARK Flexibility Score: inf
ROOT
ATOM      1  C   UNL     1      13.175  24.960  33.225  1.00  0.00     0.000 C 
ENDROOT
BRANCH   1   2
ATOM      2  C   UNL     1      12.817  26.244  33.982  1.00  0.00     0.000 C 
BRANCH   2   3
ATOM      3  C   UNL     1      14.034  27.175  34.092  1.00  0.00     0.000 C 
BRANCH   3   4
ATOM      4  C   UNL     1      13.980  28.083  35.335  1.00  0.00     0.006 C 
BRANCH   4   5
ATOM      5  C   UNL     1      12.665  27.997  36.125  1.00  0.00     0.053 C 
BRANCH   5   6
ATOM      6  C   UNL     1      11.741  29.131  35.805  1.00  0.00     0.041 C 
ATOM      7  O   UNL     1      11.856  30.231  36.407  1.00  0.00    -0.550 OA
ATOM      8  O   UNL     1      10.730  28.962  34.868  1.00  0.00    -0.550 OA
ENDBRANCH   5   6
ENDBRANCH   4   5
ENDBRANCH   3   4
ENDBRANCH   2   3
ENDBRANCH   1   2
BRANCH   1   9
ATOM      9  C   UNL     1      14.689  24.850  33.010  1.00  0.00     0.000 C 
BRANCH   9  10
ATOM     10  C   UNL     1      15.178  23.416  33.261  1.00  0.00    -0.000 C 
BRANCH  10  11
ATOM     11  C   UNL     1      16.272  23.342  34.338  1.00  0.00    -0.000 C 
BRANCH  11  12
ATOM     12  C   UNL     1      16.344  24.612  35.198  1.00  0.00    -0.000 C 
BRANCH  12  13
ATOM     13  C   UNL     1      15.890  24.327  36.634  1.00  0.00    -0.003 C 
ATOM     14  C   UNL     1      14.368  24.341  36.744  1.00  0.00     0.004 C 
ENDBRANCH  12  13
ENDBRANCH  11  12
ENDBRANCH  10  11
ENDBRANCH   9  10
ENDBRANCH   1   9
TORSDOF 10
ENDMDL
MODEL 4
REMARK VINA RESULT:    -3.538      1.327      2.148
REMARK INTER + INTRA:          -7.201
REMARK INTER:                  -6.262
REMARK INTRA:                  -0.939
REMARK UNBOUND:                -1.596
REMARK SMILES CCCCCCCCCCCC(=O)[O-]
REMARK SMILES IDX 7 1 8 2 9 3 10 4 11 5 12 6 13 7 14 8 6 9 5 10 4 11 3 12 2 13
REMARK SMILES IDX 1 14
REMARK H PARENT
REMARK Flexibility Score: inf
ROOT
ATOM      1  C   UNL     1      12.510  26.827  34.225  1.00  0.00     0.000 C 
ENDROOT
BRANCH   1   2
ATOM      2  C   UNL     1      12.788  25.526  33.461  1.00  0.00     0.000 C 
BRANCH   2   3
ATOM      3  C   UNL     1      13.984  24.776  34.068  1.00  0.00     0.000 C 
BRANCH   3   4
ATOM      4  C   UNL     1      14.831  24.048  33.009  1.00  0.00     0.006 C 
BRANCH   4   5
ATOM      5  C   UNL     1      16.213  23.594  33.507  1.00  0.00     0.053 C 
BRANCH   5   6
ATOM      6  C   UNL     1      16.207  22.167  33.959  1.00  0.00     0.041 C 
ATOM      7  O   UNL     1      16.757  21.278  33.257  1.00  0.00    -0.550 OA
ATOM      8  O   UNL     1      15.563  21.812  35.137  1.00  0.00    -0.550 OA
ENDBRANCH   5   6
ENDBRANCH   4   5
ENDBRANCH   3   4
ENDBRANCH   2   3
ENDBRANCH   1   2
BRANCH   1   9
ATOM      9  C   UNL     1      13.632  27.129  35.225  1.00  0.00     0.000 C 
BRANCH   9  10
ATOM     10  C   UNL     1      14.538  28.258  34.711  1.00  0.00    -0.000 C 
BRANCH  10  11
ATOM     11  C   UNL     1      15.960  27.776  34.384  1.00  0.00    -0.000 C 
BRANCH  11  12
ATOM     12  C   UNL     1      16.195  27.604  32.876  1.00  0.00    -0.000 C 
BRANCH  12  13
ATOM     13  C   UNL     1      16.938  28.814  32.297  1.00  0.00    -0.003 C 
ATOM     14  C   UNL     1      17.119  28.679  30.788  1.00  0.00     0.004 C 
ENDBRANCH  12  13
ENDBRANCH  11  12
ENDBRANCH  10  11
ENDBRANCH   9  10
ENDBRANCH   1   9
TORSDOF 10
ENDMDL
MODEL 5
REMARK VINA RESULT:    -3.483      3.205      5.567
REMARK INTER + INTRA:          -7.115
REMARK INTER:                  -6.250
REMARK INTRA:                  -0.864
REMARK UNBOUND:                -1.596
REMARK SMILES CCCCCCCCCCCC(=O)[O-]
REMARK SMILES IDX 7 1 8 2 9 3 10 4 11 5 12 6 13 7 14 8 6 9 5 10 4 11 3 12 2 13
REMARK SMILES IDX 1 14
REMARK H PARENT
REMARK Flexibility Score: inf
ROOT
ATOM      1  C   UNL     1      13.744  25.131  33.058  1.00  0.00     0.000 C 
ENDROOT
BRANCH   1   2
ATOM      2  C   UNL     1      12.799  25.941  33.954  1.00  0.00     0.000 C 
BRANCH   2   3
ATOM      3  C   UNL     1      13.134  25.731  35.438  1.00  0.00     0.000 C 
BRANCH   3   4
ATOM      4  C   UNL     1      12.601  26.862  36.336  1.00  0.00     0.006 C 
BRANCH   4   5
ATOM      5  C   UNL     1      12.983  28.275  35.867  1.00  0.00     0.053 C 
BRANCH   5   6
ATOM      6  C   UNL     1      11.786  29.162  35.720  1.00  0.00     0.041 C 
ATOM      7  O   UNL     1      10.781  28.768  35.070  1.00  0.00    -0.550 OA
ATOM      8  O   UNL     1      11.793  30.438  36.269  1.00  0.00    -0.550 OA
ENDBRANCH   5   6
ENDBRANCH   4   5
ENDBRANCH   3   4
ENDBRANCH   2   3
ENDBRANCH   1   2
BRANCH   1   9
ATOM      9  C   UNL     1      15.204  25.540  33.285  1.00  0.00     0.000 C 
BRANCH   9  10
ATOM     10  C   UNL     1      16.100  24.305  33.463  1.00  0.00    -0.000 C 
BRANCH  10  11
ATOM     11  C   UNL     1      15.302  23.036  33.800  1.00  0.00    -0.000 C 
BRANCH  11  12
ATOM     12  C   UNL     1      15.442  22.622  35.272  1.00  0.00    -0.000 C 
BRANCH  12  13
ATOM     13  C   UNL     1      15.678  21.113  35.397  1.00  0.00    -0.003 C 
ATOM     14  C   UNL     1      15.818  20.461  34.024  1.00  0.00     0.004 C 
ENDBRANCH  12  13
ENDBRANCH  11  12
ENDBRANCH  10  11
ENDBRANCH   9  10
ENDBRANCH   1   9
TORSDOF 10
ENDMDL
MODEL 6
REMARK VINA RESULT:    -3.429      2.971      5.944
REMARK INTER + INTRA:          -7.029
REMARK INTER:                  -6.481
REMARK INTRA:                  -0.548
REMARK UNBOUND:                -1.596
REMARK SMILES CCCCCCCCCCCC(=O)[O-]
REMARK SMILES IDX 7 1 8 2 9 3 10 4 11 5 12 6 13 7 14 8 6 9 5 10 4 11 3 12 2 13
REMARK SMILES IDX 1 14
REMARK H PARENT
REMARK Flexibility Score: inf
ROOT
ATOM      1  C   UNL     1      14.803  23.755  33.944  1.00  0.00     0.000 C 
ENDROOT
BRANCH   1   2
ATOM      2  C   UNL     1      14.237  24.884  33.073  1.00  0.00     0.000 C 
BRANCH   2   3
ATOM      3  C   UNL     1      14.949  26.213  33.366  1.00  0.00     0.000 C 
BRANCH   3   4
ATOM      4  C   UNL     1      14.077  27.190  34.175  1.00  0.00     0.006 C 
BRANCH   4   5
ATOM      5  C   UNL     1      12.583  26.831  34.204  1.00  0.00     0.053 C 
BRANCH   5   6
ATOM      6  C   UNL     1      11.915  27.301  35.459  1.00  0.00     0.041 C 
ATOM      7  O   UNL     1      11.147  28.298  35.432  1.00  0.00    -0.550 OA
ATOM      8  O   UNL     1      12.168  26.660  36.664  1.00  0.00    -0.550 OA
ENDBRANCH   5   6
ENDBRANCH   4   5
ENDBRANCH   3   4
ENDBRANCH   2   3
ENDBRANCH   1   2
BRANCH   1   9
ATOM      9  C   UNL     1      15.998  23.078  33.262  1.00  0.00     0.000 C 
BRANCH   9  10
ATOM     10  C   UNL     1      16.187  21.644  33.779  1.00  0.00    -0.000 C 
BRANCH  10  11
ATOM     11  C   UNL     1      15.978  21.528  35.297  1.00  0.00    -0.000 C 
BRANCH  11  12
ATOM     12  C   UNL     1      15.459  20.145  35.719  1.00  0.00    -0.000 C 
BRANCH  12  13
ATOM     13  C   UNL     1      15.245  19.244  34.498  1.00  0.00    -0.003 C 
ATOM     14  C   UNL     1      16.126  18.000  34.570  1.00  0.00     0.004 C 
ENDBRANCH  12  13
ENDBRANCH  11  12
ENDBRANCH  10  11
ENDBRANCH   9  10
ENDBRANCH   1   9
TORSDOF 10
ENDMDL
MODEL 7
REMARK VINA RESULT:    -3.385      2.585      5.149
REMARK INTER + INTRA:          -6.960
REMARK INTER:                  -6.081
REMARK INTRA:                  -0.879
REMARK UNBOUND:                -1.596
REMARK SMILES CCCCCCCCCCCC(=O)[O-]
REMARK SMILES IDX 7 1 8 2 9 3 10 4 11 5 12 6 13 7 14 8 6 9 5 10 4 11 3 12 2 13
REMARK SMILES IDX 1 14
REMARK H PARENT
REMARK Flexibility Score: inf
ROOT
ATOM      1  C   UNL     1      12.590  26.290  34.633  1.00  0.00     0.000 C 
ENDROOT
BRANCH   1   2
ATOM      2  C   UNL     1      11.546  27.290  34.120  1.00  0.00     0.000 C 
BRANCH   2   3
ATOM      3  C   UNL     1      11.280  28.389  35.160  1.00  0.00     0.000 C 
BRANCH   3   4
ATOM      4  C   UNL     1      12.323  28.404  36.292  1.00  0.00     0.006 C 
BRANCH   4   5
ATOM      5  C   UNL     1      13.174  29.683  36.351  1.00  0.00     0.053 C 
BRANCH   5   6
ATOM      6  C   UNL     1      14.529  29.486  35.745  1.00  0.00     0.041 C 
ATOM      7  O   UNL     1      15.077  28.353  35.774  1.00  0.00    -0.550 OA
ATOM      8  O   UNL     1      15.202  30.562  35.180  1.00  0.00    -0.550 OA
ENDBRANCH   5   6
ENDBRANCH   4   5
ENDBRANCH   3   4
ENDBRANCH   2   3
ENDBRANCH   1   2
BRANCH   1   9
ATOM      9  C   UNL     1      13.239  25.526  33.474  1.00  0.00     0.000 C 
BRANCH   9  10
ATOM     10  C   UNL     1      14.635  26.085  33.159  1.00  0.00    -0.000 C 
BRANCH  10  11
ATOM     11  C   UNL     1      15.756  25.068  33.422  1.00  0.00    -0.000 C 
BRANCH  11  12
ATOM     12  C   UNL     1      15.390  23.650  32.955  1.00  0.00    -0.000 C 
BRANCH  12  13
ATOM     13  C   UNL     1      15.546  22.641  34.098  1.00  0.00    -0.003 C 
ATOM     14  C   UNL     1      15.645  23.347  35.448  1.00  0.00     0.004 C 
ENDBRANCH  12  13
ENDBRANCH  11  12
ENDBRANCH  10  11
ENDBRANCH   9  10
ENDBRANCH   1   9
TORSDOF 10
ENDMDL
MODEL 8
REMARK VINA RESULT:    -3.249      2.311      3.118
REMARK INTER + INTRA:          -6.744
REMARK INTER:                  -6.103
REMARK INTRA:                  -0.640
REMARK UNBOUND:                -1.596
REMARK SMILES CCCCCCCCCCCC(=O)[O-]
REMARK SMILES IDX 7 1 8 2 9 3 10 4 11 5 12 6 13 7 14 8 6 9 5 10 4 11 3 12 2 13
REMARK SMILES IDX 1 14
REMARK H PARENT
REMARK Flexibility Score: inf
ROOT
ATOM      1  C   UNL     1      14.074  25.605  33.143  1.00  0.00     0.000 C 
ENDROOT
BRANCH   1   2
ATOM      2  C   UNL     1      14.495  24.215  33.634  1.00  0.00     0.000 C 
BRANCH   2   3
ATOM      3  C   UNL     1      15.871  23.827  33.073  1.00  0.00     0.000 C 
BRANCH   3   4
ATOM      4  C   UNL     1      16.342  22.442  33.553  1.00  0.00     0.006 C 
BRANCH   4   5
ATOM      5  C   UNL     1      15.789  22.026  34.925  1.00  0.00     0.053 C 
BRANCH   5   6
ATOM      6  C   UNL     1      15.786  20.540  35.103  1.00  0.00     0.041 C 
ATOM      7  O   UNL     1      15.511  19.786  34.133  1.00  0.00    -0.550 OA
ATOM      8  O   UNL     1      16.051  19.987  36.350  1.00  0.00    -0.550 OA
ENDBRANCH   5   6
ENDBRANCH   4   5
ENDBRANCH   3   4
ENDBRANCH   2   3
ENDBRANCH   1   2
BRANCH   1   9
ATOM      9  C   UNL     1      12.821  26.095  33.879  1.00  0.00     0.000 C 
BRANCH   9  10
ATOM     10  C   UNL     1      12.916  25.800  35.383  1.00  0.00    -0.000 C 
BRANCH  10  11
ATOM     11  C   UNL     1      12.181  26.842  36.240  1.00  0.00    -0.000 C 
BRANCH  11  12
ATOM     12  C   UNL     1      11.510  27.936  35.396  1.00  0.00    -0.000 C 
BRANCH  12  13
ATOM     13  C   UNL     1      11.940  29.331  35.865  1.00  0.00    -0.003 C 
ATOM     14  C   UNL     1      13.460  29.460  35.888  1.00  0.00     0.004 C 
ENDBRANCH  12  13
ENDBRANCH  11  12
ENDBRANCH  10  11
ENDBRANCH   9  10
ENDBRANCH   1   9
TORSDOF 10
ENDMDL
MODEL 9
REMARK VINA RESULT:    -3.192      1.991      2.944
REMARK INTER + INTRA:          -6.654
REMARK INTER:                  -6.094
REMARK INTRA:                  -0.560
REMARK UNBOUND:                -1.596
REMARK SMILES CCCCCCCCCCCC(=O)[O-]
REMARK SMILES IDX 7 1 8 2 9 3 10 4 11 5 12 6 13 7 14 8 6 9 5 10 4 11 3 12 2 13
REMARK SMILES IDX 1 14
REMARK H PARENT
REMARK Flexibility Score: inf
ROOT
ATOM      1  C   UNL     1      12.205  26.440  33.727  1.00  0.00     0.000 C 
ENDROOT
BRANCH   1   2
ATOM      2  C   UNL     1      13.274  25.387  33.411  1.00  0.00     0.000 C 
BRANCH   2   3
ATOM      3  C   UNL     1      14.673  26.021  33.366  1.00  0.00     0.000 C 
BRANCH   3   4
ATOM      4  C   UNL     1      15.802  24.975  33.390  1.00  0.00     0.006 C 
BRANCH   4   5
ATOM      5  C   UNL     1      15.356  23.552  33.018  1.00  0.00     0.053 C 
BRANCH   5   6
ATOM      6  C   UNL     1      15.620  22.573  34.120  1.00  0.00     0.041 C 
ATOM      7  O   UNL     1      15.377  22.885  35.316  1.00  0.00    -0.550 OA
ATOM      8  O   UNL     1      16.167  21.330  33.831  1.00  0.00    -0.550 OA
ENDBRANCH   5   6
ENDBRANCH   4   5
ENDBRANCH   3   4
ENDBRANCH   2   3
ENDBRANCH   1   2
BRANCH   1   9
ATOM      9  C   UNL     1      12.242  26.837  35.207  1.00  0.00     0.000 C 
BRANCH   9  10
ATOM     10  C   UNL     1      11.516  28.171  35.437  1.00  0.00    -0.000 C 
BRANCH  10  11
ATOM     11  C   UNL     1      12.146  29.003  36.565  1.00  0.00    -0.000 C 
BRANCH  11  12
ATOM     12  C   UNL     1      11.971  30.515  36.355  1.00  0.00    -0.000 C 
BRANCH  12  13
ATOM     13  C   UNL     1      13.321  31.237  36.424  1.00  0.00    -0.003 C 
ATOM     14  C   UNL     1      14.472  30.284  36.115  1.00  0.00     0.004 C 
ENDBRANCH  12  13
ENDBRANCH  11  12
ENDBRANCH  10  11
ENDBRANCH   9  10
ENDBRANCH   1   9
TORSDOF 10
ENDMDL
