MODEL 1
REMARK VINA RESULT:    -6.196      0.000      0.000
REMARK INTER + INTRA:         -12.639
REMARK INTER:                 -11.266
REMARK INTRA:                  -1.373
REMARK UNBOUND:                -1.373
REMARK SMILES CCCCCCCCCCCCCC[C@H](C)C(=O)[O-]
REMARK SMILES IDX 9 1 10 2 11 3 12 4 13 5 14 6 15 7 16 8 17 9 18 10 19 11 8 12
REMARK SMILES IDX 7 13 6 14 5 15 4 16 3 17 2 18 1 19
REMARK H PARENT
REMARK Flexibility Score: inf
ROOT
ATOM      1  C   UNL     1      -6.762 -15.267  -2.626  1.00  0.00     0.000 C 
ENDROOT
BRANCH   1   2
ATOM      2  C   UNL     1      -6.244 -13.819  -2.661  1.00  0.00     0.000 C 
BRANCH   2   3
ATOM      3  C   UNL     1      -6.884 -12.983  -3.782  1.00  0.00     0.000 C 
BRANCH   3   4
ATOM      4  C   UNL     1      -7.014 -13.763  -5.100  1.00  0.00     0.000 C 
BRANCH   4   5
ATOM      5  C   UNL     1      -8.455 -13.786  -5.632  1.00  0.00     0.001 C 
BRANCH   5   6
ATOM      6  C   UNL     1      -8.944 -15.229  -5.830  1.00  0.00     0.009 C 
BRANCH   6   7
ATOM      7  C   UNL     1      -7.890 -16.112  -6.529  1.00  0.00     0.032 C 
ATOM      8  C   UNL     1      -8.310 -16.415  -7.970  1.00  0.00     0.014 C 
BRANCH   7   9
ATOM      9  C   UNL     1      -7.673 -17.400  -5.782  1.00  0.00     0.044 C 
ATOM     10  O   UNL     1      -6.580 -18.017  -5.888  1.00  0.00    -0.550 OA
ATOM     11  O   UNL     1      -8.675 -17.919  -4.970  1.00  0.00    -0.550 OA
ENDBRANCH   7   9
ENDBRANCH   6   7
ENDBRANCH   5   6
ENDBRANCH   4   5
ENDBRANCH   3   4
ENDBRANCH   2   3
ENDBRANCH   1   2
BRANCH   1  12
ATOM     12  C   UNL     1      -5.658 -16.323  -2.844  1.00  0.00     0.000 C 
BRANCH  12  13
ATOM     13  C   UNL     1      -4.415 -16.054  -1.981  1.00  0.00    -0.000 C 
BRANCH  13  14
ATOM     14  C   UNL     1      -4.281 -17.103  -0.868  1.00  0.00    -0.000 C 
BRANCH  14  15
ATOM     15  C   UNL     1      -3.131 -16.793   0.105  1.00  0.00    -0.000 C 
BRANCH  15  16
ATOM     16  C   UNL     1      -1.856 -17.592  -0.214  1.00  0.00    -0.000 C 
BRANCH  16  17
ATOM     17  C   UNL     1      -0.567 -16.786   0.037  1.00  0.00    -0.000 C 
BRANCH  17  18
ATOM     18  C   UNL     1       0.254 -16.462  -1.223  1.00  0.00    -0.003 C 
ATOM     19  C   UNL     1      -0.535 -15.667  -2.264  1.00  0.00     0.004 C 
ENDBRANCH  17  18
ENDBRANCH  16  17
ENDBRANCH  15  16
ENDBRANCH  14  15
ENDBRANCH  13  14
ENDBRANCH  12  13
ENDBRANCH   1  12
TORSDOF 14
ENDMDL
MODEL 2
REMARK VINA RESULT:    -6.061      3.398      7.767
REMARK INTER + INTRA:         -12.394
REMARK INTER:                 -11.036
REMARK INTRA:                  -1.359
REMARK UNBOUND:                -1.373
REMARK SMILES CCCCCCCCCCCCCC[C@H](C)C(=O)[O-]
REMARK SMILES IDX 9 1 10 2 11 3 12 4 13 5 14 6 15 7 16 8 17 9 18 10 19 11 8 12
REMARK SMILES IDX 7 13 6 14 5 15 4 16 3 17 2 18 1 19
REMARK H PARENT
REMARK Flexibility Score: inf
ROOT
ATOM      1  C   UNL     1      -6.185 -13.842  -2.685  1.00  0.00     0.000 C 
ENDROOT
BRANCH   1   2
ATOM      2  C   UNL     1      -6.728 -15.281  -2.677  1.00  0.00     0.000 C 
BRANCH   2   3
ATOM      3  C   UNL     1      -5.616 -16.340  -2.770  1.00  0.00     0.000 C 
BRANCH   3   4
ATOM      4  C   UNL     1      -4.431 -16.034  -1.840  1.00  0.00     0.000 C 
BRANCH   4   5
ATOM      5  C   UNL     1      -4.219 -17.121  -0.776  1.00  0.00     0.001 C 
BRANCH   5   6
ATOM      6  C   UNL     1      -3.193 -16.670   0.274  1.00  0.00     0.009 C 
BRANCH   6   7
ATOM      7  C   UNL     1      -1.746 -17.005  -0.143  1.00  0.00     0.032 C 
ATOM      8  C   UNL     1      -1.700 -18.326  -0.916  1.00  0.00     0.014 C 
BRANCH   7   9
ATOM      9  C   UNL     1      -0.836 -17.084   1.053  1.00  0.00     0.044 C 
ATOM     10  O   UNL     1       0.406 -16.929   0.915  1.00  0.00    -0.550 OA
ATOM     11  O   UNL     1      -1.358 -17.330   2.318  1.00  0.00    -0.550 OA
ENDBRANCH   7   9
ENDBRANCH   6   7
ENDBRANCH   5   6
ENDBRANCH   4   5
ENDBRANCH   3   4
ENDBRANCH   2   3
ENDBRANCH   1   2
BRANCH   1  12
ATOM     12  C   UNL     1      -6.897 -12.920  -3.698  1.00  0.00     0.000 C 
BRANCH  12  13
ATOM     13  C   UNL     1      -6.913 -13.513  -5.116  1.00  0.00    -0.000 C 
BRANCH  13  14
ATOM     14  C   UNL     1      -8.341 -13.554  -5.678  1.00  0.00    -0.000 C 
BRANCH  14  15
ATOM     15  C   UNL     1      -8.912 -14.980  -5.745  1.00  0.00    -0.000 C 
BRANCH  15  16
ATOM     16  C   UNL     1      -8.392 -15.769  -6.959  1.00  0.00    -0.000 C 
BRANCH  16  17
ATOM     17  C   UNL     1      -8.366 -17.290  -6.717  1.00  0.00    -0.000 C 
BRANCH  17  18
ATOM     18  C   UNL     1      -7.398 -17.757  -5.615  1.00  0.00    -0.003 C 
ATOM     19  C   UNL     1      -8.110 -18.405  -4.428  1.00  0.00     0.004 C 
ENDBRANCH  17  18
ENDBRANCH  16  17
ENDBRANCH  15  16
ENDBRANCH  14  15
ENDBRANCH  13  14
ENDBRANCH  12  13
ENDBRANCH   1  12
TORSDOF 14
ENDMDL
MODEL 3
REMARK VINA RESULT:    -6.037      1.626      2.702
REMARK INTER + INTRA:         -12.351
REMARK INTER:                 -11.074
REMARK INTRA:                  -1.277
REMARK UNBOUND:                -1.373
REMARK SMILES CCCCCCCCCCCCCC[C@H](C)C(=O)[O-]
REMARK SMILES IDX 9 1 10 2 11 3 12 4 13 5 14 6 15 7 16 8 17 9 18 10 19 11 8 12
REMARK SMILES IDX 7 13 6 14 5 15 4 16 3 17 2 18 1 19
REMARK H PARENT
REMARK Flexibility Score: inf
ROOT
ATOM      1  C   UNL     1      -6.742 -12.949  -3.689  1.00  0.00     0.000 C 
ENDROOT
BRANCH   1   2
ATOM      2  C   UNL     1      -6.979 -13.451  -5.124  1.00  0.00     0.000 C 
BRANCH   2   3
ATOM      3  C   UNL     1      -8.434 -13.266  -5.588  1.00  0.00     0.000 C 
BRANCH   3   4
ATOM      4  C   UNL     1      -9.122 -14.600  -5.917  1.00  0.00     0.000 C 
BRANCH   4   5
ATOM      5  C   UNL     1      -8.174 -15.605  -6.587  1.00  0.00     0.001 C 
BRANCH   5   6
ATOM      6  C   UNL     1      -8.645 -17.049  -6.349  1.00  0.00     0.009 C 
BRANCH   6   7
ATOM      7  C   UNL     1      -9.148 -17.718  -7.645  1.00  0.00     0.032 C 
ATOM      8  C   UNL     1      -8.691 -16.927  -8.874  1.00  0.00     0.014 C 
BRANCH   7   9
ATOM      9  C   UNL     1     -10.648 -17.842  -7.650  1.00  0.00     0.044 C 
ATOM     10  O   UNL     1     -11.286 -17.861  -6.564  1.00  0.00    -0.550 OA
ATOM     11  O   UNL     1     -11.341 -17.938  -8.851  1.00  0.00    -0.550 OA
ENDBRANCH   7   9
ENDBRANCH   6   7
ENDBRANCH   5   6
ENDBRANCH   4   5
ENDBRANCH   3   4
ENDBRANCH   2   3
ENDBRANCH   1   2
BRANCH   1  12
ATOM     12  C   UNL     1      -6.454 -14.080  -2.679  1.00  0.00     0.000 C 
BRANCH  12  13
ATOM     13  C   UNL     1      -6.713 -15.473  -3.275  1.00  0.00    -0.000 C 
BRANCH  13  14
ATOM     14  C   UNL     1      -5.567 -16.437  -2.933  1.00  0.00    -0.000 C 
BRANCH  14  15
ATOM     15  C   UNL     1      -4.649 -15.899  -1.823  1.00  0.00    -0.000 C 
BRANCH  15  16
ATOM     16  C   UNL     1      -4.136 -17.010  -0.891  1.00  0.00    -0.000 C 
BRANCH  16  17
ATOM     17  C   UNL     1      -2.617 -16.932  -0.648  1.00  0.00    -0.000 C 
BRANCH  17  18
ATOM     18  C   UNL     1      -1.746 -17.139  -1.899  1.00  0.00    -0.003 C 
ATOM     19  C   UNL     1      -0.739 -16.011  -2.122  1.00  0.00     0.004 C 
ENDBRANCH  17  18
ENDBRANCH  16  17
ENDBRANCH  15  16
ENDBRANCH  14  15
ENDBRANCH  13  14
ENDBRANCH  12  13
ENDBRANCH   1  12
TORSDOF 14
ENDMDL
MODEL 4
REMARK VINA RESULT:    -5.925      3.682      8.366
REMARK INTER + INTRA:         -12.148
REMARK INTER:                 -10.901
REMARK INTRA:                  -1.247
REMARK UNBOUND:                -1.373
REMARK SMILES CCCCCCCCCCCCCC[C@H](C)C(=O)[O-]
REMARK SMILES IDX 9 1 10 2 11 3 12 4 13 5 14 6 15 7 16 8 17 9 18 10 19 11 8 12
REMARK SMILES IDX 7 13 6 14 5 15 4 16 3 17 2 18 1 19
REMARK H PARENT
REMARK Flexibility Score: inf
ROOT
ATOM      1  C   UNL     1      -5.938 -16.361  -3.317  1.00  0.00     0.000 C 
ENDROOT
BRANCH   1   2
ATOM      2  C   UNL     1      -5.379 -16.358  -1.884  1.00  0.00     0.000 C 
BRANCH   2   3
ATOM      3  C   UNL     1      -3.844 -16.273  -1.842  1.00  0.00     0.000 C 
BRANCH   3   4
ATOM      4  C   UNL     1      -3.237 -17.112  -0.706  1.00  0.00     0.000 C 
BRANCH   4   5
ATOM      5  C   UNL     1      -1.950 -17.836  -1.128  1.00  0.00     0.001 C 
BRANCH   5   6
ATOM      6  C   UNL     1      -1.149 -18.296   0.100  1.00  0.00     0.009 C 
BRANCH   6   7
ATOM      7  C   UNL     1      -0.787 -17.122   1.032  1.00  0.00     0.032 C 
ATOM      8  C   UNL     1       0.641 -16.639   0.762  1.00  0.00     0.014 C 
BRANCH   7   9
ATOM      9  C   UNL     1      -0.926 -17.509   2.480  1.00  0.00     0.044 C 
ATOM     10  O   UNL     1      -0.355 -18.543   2.916  1.00  0.00    -0.550 OA
ATOM     11  O   UNL     1      -1.685 -16.730   3.346  1.00  0.00    -0.550 OA
ENDBRANCH   7   9
ENDBRANCH   6   7
ENDBRANCH   5   6
ENDBRANCH   4   5
ENDBRANCH   3   4
ENDBRANCH   2   3
ENDBRANCH   1   2
BRANCH   1  12
ATOM     12  C   UNL     1      -7.426 -16.763  -3.398  1.00  0.00     0.000 C 
BRANCH  12  13
ATOM     13  C   UNL     1      -7.791 -17.378  -4.759  1.00  0.00    -0.000 C 
BRANCH  13  14
ATOM     14  C   UNL     1      -6.792 -16.946  -5.842  1.00  0.00    -0.000 C 
BRANCH  14  15
ATOM     15  C   UNL     1      -7.351 -15.846  -6.760  1.00  0.00    -0.000 C 
BRANCH  15  16
ATOM     16  C   UNL     1      -8.721 -15.326  -6.292  1.00  0.00    -0.000 C 
BRANCH  16  17
ATOM     17  C   UNL     1      -8.646 -13.920  -5.668  1.00  0.00    -0.000 C 
BRANCH  17  18
ATOM     18  C   UNL     1      -7.227 -13.338  -5.545  1.00  0.00    -0.003 C 
ATOM     19  C   UNL     1      -6.861 -12.948  -4.113  1.00  0.00     0.004 C 
ENDBRANCH  17  18
ENDBRANCH  16  17
ENDBRANCH  15  16
ENDBRANCH  14  15
ENDBRANCH  13  14
ENDBRANCH  12  13
ENDBRANCH   1  12
TORSDOF 14
ENDMDL
MODEL 5
REMARK VINA RESULT:    -5.923      0.832      1.548
REMARK INTER + INTRA:         -12.143
REMARK INTER:                 -10.903
REMARK INTRA:                  -1.240
REMARK UNBOUND:                -1.373
REMARK SMILES CCCCCCCCCCCCCC[C@H](C)C(=O)[O-]
REMARK SMILES IDX 9 1 10 2 11 3 12 4 13 5 14 6 15 7 16 8 17 9 18 10 19 11 8 12
REMARK SMILES IDX 7 13 6 14 5 15 4 16 3 17 2 18 1 19
REMARK H PARENT
REMARK Flexibility Score: inf
ROOT
ATOM      1  C   UNL     1      -6.872 -15.468  -3.015  1.00  0.00     0.000 C 
ENDROOT
BRANCH   1   2
ATOM      2  C   UNL     1      -6.488 -13.992  -2.820  1.00  0.00     0.000 C 
BRANCH   2   3
ATOM      3  C   UNL     1      -6.831 -13.120  -4.040  1.00  0.00     0.000 C 
BRANCH   3   4
ATOM      4  C   UNL     1      -7.108 -13.952  -5.302  1.00  0.00     0.000 C 
BRANCH   4   5
ATOM      5  C   UNL     1      -8.595 -13.966  -5.685  1.00  0.00     0.001 C 
BRANCH   5   6
ATOM      6  C   UNL     1      -9.083 -15.401  -5.942  1.00  0.00     0.009 C 
BRANCH   6   7
ATOM      7  C   UNL     1      -7.976 -16.295  -6.536  1.00  0.00     0.032 C 
ATOM      8  C   UNL     1      -8.223 -16.541  -8.027  1.00  0.00     0.014 C 
BRANCH   7   9
ATOM      9  C   UNL     1      -7.889 -17.612  -5.812  1.00  0.00     0.044 C 
ATOM     10  O   UNL     1      -8.744 -17.911  -4.938  1.00  0.00    -0.550 OA
ATOM     11  O   UNL     1      -6.864 -18.506  -6.101  1.00  0.00    -0.550 OA
ENDBRANCH   7   9
ENDBRANCH   6   7
ENDBRANCH   5   6
ENDBRANCH   4   5
ENDBRANCH   3   4
ENDBRANCH   2   3
ENDBRANCH   1   2
BRANCH   1  12
ATOM     12  C   UNL     1      -5.771 -16.456  -2.572  1.00  0.00     0.000 C 
BRANCH  12  13
ATOM     13  C   UNL     1      -4.609 -15.751  -1.855  1.00  0.00    -0.000 C 
BRANCH  13  14
ATOM     14  C   UNL     1      -3.854 -16.727  -0.941  1.00  0.00    -0.000 C 
BRANCH  14  15
ATOM     15  C   UNL     1      -2.526 -17.205  -1.551  1.00  0.00    -0.000 C 
BRANCH  15  16
ATOM     16  C   UNL     1      -1.302 -16.559  -0.880  1.00  0.00    -0.000 C 
BRANCH  16  17
ATOM     17  C   UNL     1      -0.413 -17.582  -0.148  1.00  0.00    -0.000 C 
BRANCH  17  18
ATOM     18  C   UNL     1      -0.618 -17.650   1.376  1.00  0.00    -0.003 C 
ATOM     19  C   UNL     1      -1.404 -16.460   1.928  1.00  0.00     0.004 C 
ENDBRANCH  17  18
ENDBRANCH  16  17
ENDBRANCH  15  16
ENDBRANCH  14  15
ENDBRANCH  13  14
ENDBRANCH  12  13
ENDBRANCH   1  12
TORSDOF 14
ENDMDL
MODEL 6
REMARK VINA RESULT:    -5.858      3.031      7.811
REMARK INTER + INTRA:         -12.026
REMARK INTER:                 -10.779
REMARK INTRA:                  -1.247
REMARK UNBOUND:                -1.373
REMARK SMILES CCCCCCCCCCCCCC[C@H](C)C(=O)[O-]
REMARK SMILES IDX 9 1 10 2 11 3 12 4 13 5 14 6 15 7 16 8 17 9 18 10 19 11 8 12
REMARK SMILES IDX 7 13 6 14 5 15 4 16 3 17 2 18 1 19
REMARK H PARENT
REMARK Flexibility Score: inf
ROOT
ATOM      1  C   UNL     1      -6.887 -13.113  -4.091  1.00  0.00     0.000 C 
ENDROOT
BRANCH   1   2
ATOM      2  C   UNL     1      -6.168 -13.830  -2.936  1.00  0.00     0.000 C 
BRANCH   2   3
ATOM      3  C   UNL     1      -6.852 -15.146  -2.532  1.00  0.00     0.000 C 
BRANCH   3   4
ATOM      4  C   UNL     1      -5.901 -16.352  -2.603  1.00  0.00     0.000 C 
BRANCH   4   5
ATOM      5  C   UNL     1      -4.461 -15.993  -2.212  1.00  0.00     0.001 C 
BRANCH   5   6
ATOM      6  C   UNL     1      -3.985 -16.842  -1.023  1.00  0.00     0.009 C 
BRANCH   6   7
ATOM      7  C   UNL     1      -2.455 -16.779  -0.837  1.00  0.00     0.032 C 
ATOM      8  C   UNL     1      -1.746 -17.596  -1.920  1.00  0.00     0.014 C 
BRANCH   7   9
ATOM      9  C   UNL     1      -2.048 -17.278   0.523  1.00  0.00     0.044 C 
ATOM     10  O   UNL     1      -2.336 -16.614   1.554  1.00  0.00    -0.550 OA
ATOM     11  O   UNL     1      -1.352 -18.474   0.653  1.00  0.00    -0.550 OA
ENDBRANCH   7   9
ENDBRANCH   6   7
ENDBRANCH   5   6
ENDBRANCH   4   5
ENDBRANCH   3   4
ENDBRANCH   2   3
ENDBRANCH   1   2
BRANCH   1  12
ATOM     12  C   UNL     1      -7.078 -13.997  -5.342  1.00  0.00     0.000 C 
BRANCH  12  13
ATOM     13  C   UNL     1      -8.539 -14.021  -5.822  1.00  0.00    -0.000 C 
BRANCH  13  14
ATOM     14  C   UNL     1      -9.209 -15.358  -5.473  1.00  0.00    -0.000 C 
BRANCH  14  15
ATOM     15  C   UNL     1      -8.406 -16.572  -5.971  1.00  0.00    -0.000 C 
BRANCH  15  16
ATOM     16  C   UNL     1      -9.292 -17.625  -6.657  1.00  0.00    -0.000 C 
BRANCH  16  17
ATOM     17  C   UNL     1      -8.966 -17.799  -8.152  1.00  0.00    -0.000 C 
BRANCH  17  18
ATOM     18  C   UNL     1      -8.520 -16.515  -8.874  1.00  0.00    -0.003 C 
ATOM     19  C   UNL     1      -9.306 -16.246 -10.158  1.00  0.00     0.004 C 
ENDBRANCH  17  18
ENDBRANCH  16  17
ENDBRANCH  15  16
ENDBRANCH  14  15
ENDBRANCH  13  14
ENDBRANCH  12  13
ENDBRANCH   1  12
TORSDOF 14
ENDMDL
MODEL 7
REMARK VINA RESULT:    -5.840      1.622      3.411
REMARK INTER + INTRA:         -11.992
REMARK INTER:                 -10.848
REMARK INTRA:                  -1.144
REMARK UNBOUND:                -1.373
REMARK SMILES CCCCCCCCCCCCCC[C@H](C)C(=O)[O-]
REMARK SMILES IDX 9 1 10 2 11 3 12 4 13 5 14 6 15 7 16 8 17 9 18 10 19 11 8 12
REMARK SMILES IDX 7 13 6 14 5 15 4 16 3 17 2 18 1 19
REMARK H PARENT
REMARK Flexibility Score: inf
ROOT
ATOM      1  C   UNL     1      -6.949 -13.747  -5.183  1.00  0.00     0.000 C 
ENDROOT
BRANCH   1   2
ATOM      2  C   UNL     1      -8.393 -13.888  -5.693  1.00  0.00     0.000 C 
BRANCH   2   3
ATOM      3  C   UNL     1      -8.786 -15.348  -5.977  1.00  0.00     0.000 C 
BRANCH   3   4
ATOM      4  C   UNL     1      -7.811 -16.045  -6.938  1.00  0.00     0.000 C 
BRANCH   4   5
ATOM      5  C   UNL     1      -8.496 -16.538  -8.221  1.00  0.00     0.001 C 
BRANCH   5   6
ATOM      6  C   UNL     1      -8.520 -18.074  -8.277  1.00  0.00     0.009 C 
BRANCH   6   7
ATOM      7  C   UNL     1      -9.955 -18.637  -8.224  1.00  0.00     0.032 C 
ATOM      8  C   UNL     1     -10.883 -17.835  -9.142  1.00  0.00     0.014 C 
BRANCH   7   9
ATOM      9  C   UNL     1     -10.497 -18.625  -6.820  1.00  0.00     0.044 C 
ATOM     10  O   UNL     1     -11.707 -18.348  -6.610  1.00  0.00    -0.550 OA
ATOM     11  O   UNL     1      -9.666 -18.919  -5.745  1.00  0.00    -0.550 OA
ENDBRANCH   7   9
ENDBRANCH   6   7
ENDBRANCH   5   6
ENDBRANCH   4   5
ENDBRANCH   3   4
ENDBRANCH   2   3
ENDBRANCH   1   2
BRANCH   1  12
ATOM     12  C   UNL     1      -6.847 -13.084  -3.793  1.00  0.00     0.000 C 
BRANCH  12  13
ATOM     13  C   UNL     1      -6.486 -14.092  -2.691  1.00  0.00    -0.000 C 
BRANCH  13  14
ATOM     14  C   UNL     1      -6.174 -15.472  -3.290  1.00  0.00    -0.000 C 
BRANCH  14  15
ATOM     15  C   UNL     1      -5.652 -16.470  -2.243  1.00  0.00    -0.000 C 
BRANCH  15  16
ATOM     16  C   UNL     1      -4.248 -16.108  -1.730  1.00  0.00    -0.000 C 
BRANCH  16  17
ATOM     17  C   UNL     1      -3.806 -16.973  -0.535  1.00  0.00    -0.000 C 
BRANCH  17  18
ATOM     18  C   UNL     1      -2.284 -17.142  -0.381  1.00  0.00    -0.003 C 
ATOM     19  C   UNL     1      -1.706 -18.218  -1.300  1.00  0.00     0.004 C 
ENDBRANCH  17  18
ENDBRANCH  16  17
ENDBRANCH  15  16
ENDBRANCH  14  15
ENDBRANCH  13  14
ENDBRANCH  12  13
ENDBRANCH   1  12
TORSDOF 14
ENDMDL
MODEL 8
REMARK VINA RESULT:    -5.774      2.879      7.564
REMARK INTER + INTRA:         -11.872
REMARK INTER:                 -10.593
REMARK INTRA:                  -1.280
REMARK UNBOUND:                -1.373
REMARK SMILES CCCCCCCCCCCCCC[C@H](C)C(=O)[O-]
REMARK SMILES IDX 9 1 10 2 11 3 12 4 13 5 14 6 15 7 16 8 17 9 18 10 19 11 8 12
REMARK SMILES IDX 7 13 6 14 5 15 4 16 3 17 2 18 1 19
REMARK H PARENT
REMARK Flexibility Score: inf
ROOT
ATOM      1  C   UNL     1      -6.934 -12.960  -3.674  1.00  0.00     0.000 C 
ENDROOT
BRANCH   1   2
ATOM      2  C   UNL     1      -6.161 -13.873  -2.708  1.00  0.00     0.000 C 
BRANCH   2   3
ATOM      3  C   UNL     1      -6.721 -15.305  -2.663  1.00  0.00     0.000 C 
BRANCH   3   4
ATOM      4  C   UNL     1      -5.614 -16.371  -2.623  1.00  0.00     0.000 C 
BRANCH   4   5
ATOM      5  C   UNL     1      -4.375 -15.907  -1.843  1.00  0.00     0.001 C 
BRANCH   5   6
ATOM      6  C   UNL     1      -3.232 -16.927  -1.970  1.00  0.00     0.009 C 
BRANCH   6   7
ATOM      7  C   UNL     1      -2.019 -16.554  -1.092  1.00  0.00     0.032 C 
ATOM      8  C   UNL     1      -0.709 -16.875  -1.818  1.00  0.00     0.014 C 
BRANCH   7   9
ATOM      9  C   UNL     1      -2.057 -17.275   0.228  1.00  0.00     0.044 C 
ATOM     10  O   UNL     1      -2.533 -16.707   1.246  1.00  0.00    -0.550 OA
ATOM     11  O   UNL     1      -1.566 -18.571   0.335  1.00  0.00    -0.550 OA
ENDBRANCH   7   9
ENDBRANCH   6   7
ENDBRANCH   5   6
ENDBRANCH   4   5
ENDBRANCH   3   4
ENDBRANCH   2   3
ENDBRANCH   1   2
BRANCH   1  12
ATOM     12  C   UNL     1      -6.889 -13.436  -5.142  1.00  0.00     0.000 C 
BRANCH  12  13
ATOM     13  C   UNL     1      -8.285 -13.776  -5.688  1.00  0.00    -0.000 C 
BRANCH  13  14
ATOM     14  C   UNL     1      -8.503 -15.296  -5.729  1.00  0.00    -0.000 C 
BRANCH  14  15
ATOM     15  C   UNL     1      -7.320 -16.049  -6.359  1.00  0.00    -0.000 C 
BRANCH  15  16
ATOM     16  C   UNL     1      -7.330 -17.550  -6.026  1.00  0.00    -0.000 C 
BRANCH  16  17
ATOM     17  C   UNL     1      -8.750 -18.144  -5.982  1.00  0.00    -0.000 C 
BRANCH  17  18
ATOM     18  C   UNL     1      -9.447 -18.267  -7.349  1.00  0.00    -0.003 C 
ATOM     19  C   UNL     1     -10.968 -18.154  -7.258  1.00  0.00     0.004 C 
ENDBRANCH  17  18
ENDBRANCH  16  17
ENDBRANCH  15  16
ENDBRANCH  14  15
ENDBRANCH  13  14
ENDBRANCH  12  13
ENDBRANCH   1  12
TORSDOF 14
ENDMDL
MODEL 9
REMARK VINA RESULT:    -5.637      3.307      7.660
REMARK INTER + INTRA:         -11.623
REMARK INTER:                 -10.111
REMARK INTRA:                  -1.512
REMARK UNBOUND:                -1.373
REMARK SMILES CCCCCCCCCCCCCC[C@H](C)C(=O)[O-]
REMARK SMILES IDX 9 1 10 2 11 3 12 4 13 5 14 6 15 7 16 8 17 9 18 10 19 11 8 12
REMARK SMILES IDX 7 13 6 14 5 15 4 16 3 17 2 18 1 19
REMARK H PARENT
REMARK Flexibility Score: inf
ROOT
ATOM      1  C   UNL     1      -5.929 -16.466  -3.542  1.00  0.00     0.000 C 
ENDROOT
BRANCH   1   2
ATOM      2  C   UNL     1      -5.730 -15.585  -2.298  1.00  0.00     0.000 C 
BRANCH   2   3
ATOM      3  C   UNL     1      -4.341 -15.759  -1.659  1.00  0.00     0.000 C 
BRANCH   3   4
ATOM      4  C   UNL     1      -4.194 -17.100  -0.922  1.00  0.00     0.000 C 
BRANCH   4   5
ATOM      5  C   UNL     1      -2.731 -17.549  -0.799  1.00  0.00     0.001 C 
BRANCH   5   6
ATOM      6  C   UNL     1      -1.775 -16.454  -1.298  1.00  0.00     0.009 C 
BRANCH   6   7
ATOM      7  C   UNL     1      -0.508 -17.041  -1.953  1.00  0.00     0.032 C 
ATOM      8  C   UNL     1      -0.853 -18.289  -2.772  1.00  0.00     0.014 C 
BRANCH   7   9
ATOM      9  C   UNL     1       0.533 -17.382  -0.922  1.00  0.00     0.044 C 
ATOM     10  O   UNL     1       1.307 -16.490  -0.485  1.00  0.00    -0.550 OA
ATOM     11  O   UNL     1       0.651 -18.682  -0.445  1.00  0.00    -0.550 OA
ENDBRANCH   7   9
ENDBRANCH   6   7
ENDBRANCH   5   6
ENDBRANCH   4   5
ENDBRANCH   3   4
ENDBRANCH   2   3
ENDBRANCH   1   2
BRANCH   1  12
ATOM     12  C   UNL     1      -7.213 -17.323  -3.492  1.00  0.00     0.000 C 
BRANCH  12  13
ATOM     13  C   UNL     1      -8.043 -17.206  -4.781  1.00  0.00    -0.000 C 
BRANCH  13  14
ATOM     14  C   UNL     1      -7.139 -16.942  -5.994  1.00  0.00    -0.000 C 
BRANCH  14  15
ATOM     15  C   UNL     1      -7.545 -15.680  -6.773  1.00  0.00    -0.000 C 
BRANCH  15  16
ATOM     16  C   UNL     1      -8.740 -14.950  -6.134  1.00  0.00    -0.000 C 
BRANCH  16  17
ATOM     17  C   UNL     1      -8.421 -13.489  -5.768  1.00  0.00    -0.000 C 
BRANCH  17  18
ATOM     18  C   UNL     1      -6.956 -13.219  -5.383  1.00  0.00    -0.003 C 
ATOM     19  C   UNL     1      -6.789 -12.794  -3.924  1.00  0.00     0.004 C 
ENDBRANCH  17  18
ENDBRANCH  16  17
ENDBRANCH  15  16
ENDBRANCH  14  15
ENDBRANCH  13  14
ENDBRANCH  12  13
ENDBRANCH   1  12
TORSDOF 14
ENDMDL
