MODEL 1
REMARK VINA RESULT:    -4.311      0.000      0.000
REMARK INTER + INTRA:          -6.397
REMARK INTER:                  -6.075
REMARK INTRA:                  -0.322
REMARK UNBOUND:                -0.322
REMARK SMILES CCCCCCCCC(=O)[O-]
REMARK SMILES IDX 6 1 7 2 8 3 9 4 10 5 11 6 5 7 4 8 3 9 2 10 1 11
REMARK H PARENT
REMARK Flexibility Score: inf
ROOT
ATOM      1  C   UNL     1       4.344  -7.813 -21.530  1.00  0.00     0.000 C 
ENDROOT
BRANCH   1   2
ATOM      2  C   UNL     1       4.296  -7.246 -20.102  1.00  0.00     0.006 C 
BRANCH   2   3
ATOM      3  C   UNL     1       4.671  -5.759 -20.044  1.00  0.00     0.053 C 
BRANCH   3   4
ATOM      4  C   UNL     1       4.262  -5.169 -18.732  1.00  0.00     0.041 C 
ATOM      5  O   UNL     1       4.923  -4.223 -18.229  1.00  0.00    -0.550 OA
ATOM      6  O   UNL     1       3.179  -5.698 -18.040  1.00  0.00    -0.550 OA
ENDBRANCH   3   4
ENDBRANCH   2   3
ENDBRANCH   1   2
BRANCH   1   7
ATOM      7  C   UNL     1       5.723  -7.650 -22.186  1.00  0.00     0.000 C 
BRANCH   7   8
ATOM      8  C   UNL     1       6.294  -9.008 -22.609  1.00  0.00    -0.000 C 
BRANCH   8   9
ATOM      9  C   UNL     1       5.213 -10.099 -22.559  1.00  0.00    -0.000 C 
BRANCH   9  10
ATOM     10  C   UNL     1       5.542 -11.297 -23.465  1.00  0.00    -0.003 C 
ATOM     11  C   UNL     1       6.840 -11.108 -24.248  1.00  0.00     0.004 C 
ENDBRANCH   9  10
ENDBRANCH   8   9
ENDBRANCH   7   8
ENDBRANCH   1   7
TORSDOF 7
ENDMDL
MODEL 2
REMARK VINA RESULT:    -4.182      1.693      2.740
REMARK INTER + INTRA:          -6.215
REMARK INTER:                  -5.788
REMARK INTRA:                  -0.427
REMARK UNBOUND:                -0.322
REMARK SMILES CCCCCCCCC(=O)[O-]
REMARK SMILES IDX 6 1 7 2 8 3 9 4 10 5 11 6 5 7 4 8 3 9 2 10 1 11
REMARK H PARENT
REMARK Flexibility Score: inf
ROOT
ATOM      1  C   UNL     1       3.079  -6.293 -19.734  1.00  0.00     0.000 C 
ENDROOT
BRANCH   1   2
ATOM      2  C   UNL     1       3.207  -5.667 -18.337  1.00  0.00     0.006 C 
BRANCH   2   3
ATOM      3  C   UNL     1       3.232  -4.133 -18.376  1.00  0.00     0.053 C 
BRANCH   3   4
ATOM      4  C   UNL     1       4.639  -3.637 -18.489  1.00  0.00     0.041 C 
ATOM      5  O   UNL     1       5.523  -4.053 -17.695  1.00  0.00    -0.550 OA
ATOM      6  O   UNL     1       4.963  -2.678 -19.440  1.00  0.00    -0.550 OA
ENDBRANCH   3   4
ENDBRANCH   2   3
ENDBRANCH   1   2
BRANCH   1   7
ATOM      7  C   UNL     1       4.376  -6.975 -20.198  1.00  0.00     0.000 C 
BRANCH   7   8
ATOM      8  C   UNL     1       5.107  -6.117 -21.237  1.00  0.00    -0.000 C 
BRANCH   8   9
ATOM      9  C   UNL     1       5.484  -6.950 -22.471  1.00  0.00    -0.000 C 
BRANCH   9  10
ATOM     10  C   UNL     1       5.698  -8.435 -22.137  1.00  0.00    -0.003 C 
ATOM     11  C   UNL     1       6.819  -9.071 -22.958  1.00  0.00     0.004 C 
ENDBRANCH   9  10
ENDBRANCH   8   9
ENDBRANCH   7   8
ENDBRANCH   1   7
TORSDOF 7
ENDMDL
MODEL 3
REMARK VINA RESULT:    -4.110      4.563      6.710
REMARK INTER + INTRA:          -6.115
REMARK INTER:                  -5.777
REMARK INTRA:                  -0.338
REMARK UNBOUND:                -0.322
REMARK SMILES CCCCCCCCC(=O)[O-]
REMARK SMILES IDX 6 1 7 2 8 3 9 4 10 5 11 6 5 7 4 8 3 9 2 10 1 11
REMARK H PARENT
REMARK Flexibility Score: inf
ROOT
ATOM      1  C   UNL     1       5.428 -11.379 -23.353  1.00  0.00     0.000 C 
ENDROOT
BRANCH   1   2
ATOM      2  C   UNL     1       5.529 -12.856 -22.940  1.00  0.00     0.006 C 
BRANCH   2   3
ATOM      3  C   UNL     1       4.745 -13.168 -21.659  1.00  0.00     0.053 C 
BRANCH   3   4
ATOM      4  C   UNL     1       3.761 -14.267 -21.904  1.00  0.00     0.041 C 
ATOM      5  O   UNL     1       4.155 -15.457 -22.015  1.00  0.00    -0.550 OA
ATOM      6  O   UNL     1       2.412 -13.970 -22.058  1.00  0.00    -0.550 OA
ENDBRANCH   3   4
ENDBRANCH   2   3
ENDBRANCH   1   2
BRANCH   1   7
ATOM      7  C   UNL     1       6.721 -10.853 -23.993  1.00  0.00     0.000 C 
BRANCH   7   8
ATOM      8  C   UNL     1       7.076  -9.462 -23.452  1.00  0.00    -0.000 C 
BRANCH   8   9
ATOM      9  C   UNL     1       6.071  -9.017 -22.379  1.00  0.00    -0.000 C 
BRANCH   9  10
ATOM     10  C   UNL     1       5.810  -7.503 -22.407  1.00  0.00    -0.003 C 
ATOM     11  C   UNL     1       4.367  -7.144 -22.058  1.00  0.00     0.004 C 
ENDBRANCH   9  10
ENDBRANCH   8   9
ENDBRANCH   7   8
ENDBRANCH   1   7
TORSDOF 7
ENDMDL
MODEL 4
REMARK VINA RESULT:    -4.095      1.533      2.589
REMARK INTER + INTRA:          -6.093
REMARK INTER:                  -5.555
REMARK INTRA:                  -0.538
REMARK UNBOUND:                -0.322
REMARK SMILES CCCCCCCCC(=O)[O-]
REMARK SMILES IDX 6 1 7 2 8 3 9 4 10 5 11 6 5 7 4 8 3 9 2 10 1 11
REMARK H PARENT
REMARK Flexibility Score: inf
ROOT
ATOM      1  C   UNL     1       6.223  -9.129 -22.367  1.00  0.00     0.000 C 
ENDROOT
BRANCH   1   2
ATOM      2  C   UNL     1       5.850  -7.643 -22.494  1.00  0.00     0.006 C 
BRANCH   2   3
ATOM      3  C   UNL     1       4.524  -7.305 -21.800  1.00  0.00     0.053 C 
BRANCH   3   4
ATOM      4  C   UNL     1       4.734  -6.249 -20.762  1.00  0.00     0.041 C 
ATOM      5  O   UNL     1       5.281  -5.157 -21.069  1.00  0.00    -0.550 OA
ATOM      6  O   UNL     1       4.370  -6.490 -19.443  1.00  0.00    -0.550 OA
ENDBRANCH   3   4
ENDBRANCH   2   3
ENDBRANCH   1   2
BRANCH   1   7
ATOM      7  C   UNL     1       6.954  -9.664 -23.608  1.00  0.00     0.000 C 
BRANCH   7   8
ATOM      8  C   UNL     1       6.458 -11.068 -23.976  1.00  0.00    -0.000 C 
BRANCH   8   9
ATOM      9  C   UNL     1       5.312 -11.505 -23.051  1.00  0.00    -0.000 C 
BRANCH   9  10
ATOM     10  C   UNL     1       3.983 -11.685 -23.802  1.00  0.00    -0.003 C 
ATOM     11  C   UNL     1       2.878 -10.769 -23.279  1.00  0.00     0.004 C 
ENDBRANCH   9  10
ENDBRANCH   8   9
ENDBRANCH   7   8
ENDBRANCH   1   7
TORSDOF 7
ENDMDL
MODEL 5
REMARK VINA RESULT:    -4.016      3.401      6.291
REMARK INTER + INTRA:          -5.982
REMARK INTER:                  -5.667
REMARK INTRA:                  -0.315
REMARK UNBOUND:                -0.322
REMARK SMILES CCCCCCCCC(=O)[O-]
REMARK SMILES IDX 6 1 7 2 8 3 9 4 10 5 11 6 5 7 4 8 3 9 2 10 1 11
REMARK H PARENT
REMARK Flexibility Score: inf
ROOT
ATOM      1  C   UNL     1       5.462  -6.608 -21.968  1.00  0.00     0.000 C 
ENDROOT
BRANCH   1   2
ATOM      2  C   UNL     1       5.191  -8.113 -21.813  1.00  0.00     0.006 C 
BRANCH   2   3
ATOM      3  C   UNL     1       6.227  -8.978 -22.542  1.00  0.00     0.053 C 
BRANCH   3   4
ATOM      4  C   UNL     1       5.636 -10.302 -22.908  1.00  0.00     0.041 C 
ATOM      5  O   UNL     1       4.653 -10.757 -22.267  1.00  0.00    -0.550 OA
ATOM      6  O   UNL     1       6.203 -11.058 -23.927  1.00  0.00    -0.550 OA
ENDBRANCH   3   4
ENDBRANCH   2   3
ENDBRANCH   1   2
BRANCH   1   7
ATOM      7  C   UNL     1       4.662  -5.757 -20.970  1.00  0.00     0.000 C 
BRANCH   7   8
ATOM      8  C   UNL     1       4.413  -6.526 -19.667  1.00  0.00    -0.000 C 
BRANCH   8   9
ATOM      9  C   UNL     1       3.729  -5.631 -18.622  1.00  0.00    -0.000 C 
BRANCH   9  10
ATOM     10  C   UNL     1       4.238  -4.181 -18.664  1.00  0.00    -0.003 C 
ATOM     11  C   UNL     1       5.495  -3.971 -17.821  1.00  0.00     0.004 C 
ENDBRANCH   9  10
ENDBRANCH   8   9
ENDBRANCH   7   8
ENDBRANCH   1   7
TORSDOF 7
ENDMDL
MODEL 6
REMARK VINA RESULT:    -3.927     13.677     14.519
REMARK INTER + INTRA:          -5.856
REMARK INTER:                  -5.602
REMARK INTRA:                  -0.254
REMARK UNBOUND:                -0.322
REMARK SMILES CCCCCCCCC(=O)[O-]
REMARK SMILES IDX 6 1 7 2 8 3 9 4 10 5 11 6 5 7 4 8 3 9 2 10 1 11
REMARK H PARENT
REMARK Flexibility Score: inf
ROOT
ATOM      1  C   UNL     1       0.062 -10.615 -32.852  1.00  0.00     0.000 C 
ENDROOT
BRANCH   1   2
ATOM      2  C   UNL     1       1.041 -11.595 -33.517  1.00  0.00     0.006 C 
BRANCH   2   3
ATOM      3  C   UNL     1       1.442 -11.160 -34.933  1.00  0.00     0.053 C 
BRANCH   3   4
ATOM      4  C   UNL     1       2.565 -10.174 -34.878  1.00  0.00     0.041 C 
ATOM      5  O   UNL     1       3.757 -10.563 -34.999  1.00  0.00    -0.550 OA
ATOM      6  O   UNL     1       2.299  -8.831 -34.643  1.00  0.00    -0.550 OA
ENDBRANCH   3   4
ENDBRANCH   2   3
ENDBRANCH   1   2
BRANCH   1   7
ATOM      7  C   UNL     1      -1.363 -11.181 -32.748  1.00  0.00     0.000 C 
BRANCH   7   8
ATOM      8  C   UNL     1      -1.342 -12.639 -32.275  1.00  0.00    -0.000 C 
BRANCH   8   9
ATOM      9  C   UNL     1      -2.754 -13.119 -31.908  1.00  0.00    -0.000 C 
BRANCH   9  10
ATOM     10  C   UNL     1      -2.858 -14.651 -31.841  1.00  0.00    -0.003 C 
ATOM     11  C   UNL     1      -1.493 -15.337 -31.837  1.00  0.00     0.004 C 
ENDBRANCH   9  10
ENDBRANCH   8   9
ENDBRANCH   7   8
ENDBRANCH   1   7
TORSDOF 7
ENDMDL
MODEL 7
REMARK VINA RESULT:    -3.875      3.037      4.517
REMARK INTER + INTRA:          -5.783
REMARK INTER:                  -5.139
REMARK INTRA:                  -0.644
REMARK UNBOUND:                -0.322
REMARK SMILES CCCCCCCCC(=O)[O-]
REMARK SMILES IDX 6 1 7 2 8 3 9 4 10 5 11 6 5 7 4 8 3 9 2 10 1 11
REMARK H PARENT
REMARK Flexibility Score: inf
ROOT
ATOM      1  C   UNL     1       4.212 -11.649 -23.835  1.00  0.00     0.000 C 
ENDROOT
BRANCH   1   2
ATOM      2  C   UNL     1       3.058 -11.048 -23.016  1.00  0.00     0.006 C 
BRANCH   2   3
ATOM      3  C   UNL     1       3.314 -11.105 -21.504  1.00  0.00     0.053 C 
BRANCH   3   4
ATOM      4  C   UNL     1       2.612  -9.979 -20.813  1.00  0.00     0.041 C 
ATOM      5  O   UNL     1       1.932 -10.198 -19.777  1.00  0.00    -0.550 OA
ATOM      6  O   UNL     1       2.669  -8.696 -21.343  1.00  0.00    -0.550 OA
ENDBRANCH   3   4
ENDBRANCH   2   3
ENDBRANCH   1   2
BRANCH   1   7
ATOM      7  C   UNL     1       5.568 -11.533 -23.122  1.00  0.00     0.000 C 
BRANCH   7   8
ATOM      8  C   UNL     1       6.630 -10.940 -24.055  1.00  0.00    -0.000 C 
BRANCH   8   9
ATOM      9  C   UNL     1       7.006  -9.514 -23.624  1.00  0.00    -0.000 C 
BRANCH   9  10
ATOM     10  C   UNL     1       6.209  -9.039 -22.397  1.00  0.00    -0.003 C 
ATOM     11  C   UNL     1       5.801  -7.570 -22.489  1.00  0.00     0.004 C 
ENDBRANCH   9  10
ENDBRANCH   8   9
ENDBRANCH   7   8
ENDBRANCH   1   7
TORSDOF 7
ENDMDL
MODEL 8
REMARK VINA RESULT:    -3.793     15.136     16.014
REMARK INTER + INTRA:          -5.668
REMARK INTER:                  -5.310
REMARK INTRA:                  -0.358
REMARK UNBOUND:                -0.322
REMARK SMILES CCCCCCCCC(=O)[O-]
REMARK SMILES IDX 6 1 7 2 8 3 9 4 10 5 11 6 5 7 4 8 3 9 2 10 1 11
REMARK H PARENT
REMARK Flexibility Score: inf
ROOT
ATOM      1  C   UNL     1      -4.804 -12.325 -32.182  1.00  0.00     0.000 C 
ENDROOT
BRANCH   1   2
ATOM      2  C   UNL     1      -5.881 -11.283 -31.843  1.00  0.00     0.006 C 
BRANCH   2   3
ATOM      3  C   UNL     1      -7.094 -11.896 -31.131  1.00  0.00     0.053 C 
BRANCH   3   4
ATOM      4  C   UNL     1      -7.800 -12.855 -32.036  1.00  0.00     0.041 C 
ATOM      5  O   UNL     1      -8.258 -12.464 -33.141  1.00  0.00    -0.550 OA
ATOM      6  O   UNL     1      -7.995 -14.171 -31.635  1.00  0.00    -0.550 OA
ENDBRANCH   3   4
ENDBRANCH   2   3
ENDBRANCH   1   2
BRANCH   1   7
ATOM      7  C   UNL     1      -3.390 -11.727 -32.213  1.00  0.00     0.000 C 
BRANCH   7   8
ATOM      8  C   UNL     1      -2.325 -12.831 -32.177  1.00  0.00    -0.000 C 
BRANCH   8   9
ATOM      9  C   UNL     1      -2.918 -14.148 -31.654  1.00  0.00    -0.000 C 
BRANCH   9  10
ATOM     10  C   UNL     1      -1.984 -15.347 -31.886  1.00  0.00    -0.003 C 
ATOM     11  C   UNL     1      -0.522 -14.936 -32.053  1.00  0.00     0.004 C 
ENDBRANCH   9  10
ENDBRANCH   8   9
ENDBRANCH   7   8
ENDBRANCH   1   7
TORSDOF 7
ENDMDL
MODEL 9
REMARK VINA RESULT:    -3.776      1.879      2.537
REMARK INTER + INTRA:          -5.643
REMARK INTER:                  -5.353
REMARK INTRA:                  -0.291
REMARK UNBOUND:                -0.322
REMARK SMILES CCCCCCCCC(=O)[O-]
REMARK SMILES IDX 6 1 7 2 8 3 9 4 10 5 11 6 5 7 4 8 3 9 2 10 1 11
REMARK H PARENT
REMARK Flexibility Score: inf
ROOT
ATOM      1  C   UNL     1       4.748  -9.422 -22.005  1.00  0.00     0.000 C 
ENDROOT
BRANCH   1   2
ATOM      2  C   UNL     1       5.115  -7.957 -21.721  1.00  0.00     0.006 C 
BRANCH   2   3
ATOM      3  C   UNL     1       4.366  -7.383 -20.512  1.00  0.00     0.053 C 
BRANCH   3   4
ATOM      4  C   UNL     1       4.687  -5.933 -20.339  1.00  0.00     0.041 C 
ATOM      5  O   UNL     1       5.403  -5.337 -21.186  1.00  0.00    -0.550 OA
ATOM      6  O   UNL     1       4.236  -5.250 -19.216  1.00  0.00    -0.550 OA
ENDBRANCH   3   4
ENDBRANCH   2   3
ENDBRANCH   1   2
BRANCH   1   7
ATOM      7  C   UNL     1       5.778 -10.128 -22.901  1.00  0.00     0.000 C 
BRANCH   7   8
ATOM      8  C   UNL     1       5.358 -11.576 -23.185  1.00  0.00    -0.000 C 
BRANCH   8   9
ATOM      9  C   UNL     1       4.255 -12.028 -22.216  1.00  0.00    -0.000 C 
BRANCH   9  10
ATOM     10  C   UNL     1       4.261 -13.548 -21.984  1.00  0.00    -0.003 C 
ATOM     11  C   UNL     1       5.661 -14.102 -21.729  1.00  0.00     0.004 C 
ENDBRANCH   9  10
ENDBRANCH   8   9
ENDBRANCH   7   8
ENDBRANCH   1   7
TORSDOF 7
ENDMDL
