MODEL 1
REMARK VINA RESULT:    -3.670      0.000      0.000
REMARK INTER + INTRA:          -4.756
REMARK INTER:                  -4.528
REMARK INTRA:                  -0.228
REMARK UNBOUND:                -0.228
REMARK SMILES CCCCCC(=O)[O-]
REMARK SMILES IDX 4 1 5 2 6 3 7 4 8 5 3 6 2 7 1 8
REMARK H PARENT
REMARK Flexibility Score: inf
ROOT
ATOM      1  C   UNL     1      -5.639  10.357  -8.902  1.00  0.00     0.006 C 
ENDROOT
BRANCH   1   2
ATOM      2  C   UNL     1      -6.096   9.373  -7.817  1.00  0.00     0.053 C 
BRANCH   2   3
ATOM      3  C   UNL     1      -6.941  10.043  -6.778  1.00  0.00     0.041 C 
ATOM      4  O   UNL     1      -6.741  11.250  -6.481  1.00  0.00    -0.550 OA
ATOM      5  O   UNL     1      -7.971   9.345  -6.161  1.00  0.00    -0.550 OA
ENDBRANCH   2   3
ENDBRANCH   1   2
BRANCH   1   6
ATOM      6  C   UNL     1      -4.111  10.501  -8.951  1.00  0.00     0.000 C 
BRANCH   6   7
ATOM      7  C   UNL     1      -3.680  11.915  -8.547  1.00  0.00    -0.003 C 
ATOM      8  C   UNL     1      -3.335  11.983  -7.062  1.00  0.00     0.004 C 
ENDBRANCH   6   7
ENDBRANCH   1   6
TORSDOF 4
ENDMDL
MODEL 2
REMARK VINA RESULT:    -3.660      1.896      3.598
REMARK INTER + INTRA:          -4.744
REMARK INTER:                  -4.514
REMARK INTRA:                  -0.230
REMARK UNBOUND:                -0.228
REMARK SMILES CCCCCC(=O)[O-]
REMARK SMILES IDX 4 1 5 2 6 3 7 4 8 5 3 6 2 7 1 8
REMARK H PARENT
REMARK Flexibility Score: inf
ROOT
ATOM      1  C   UNL     1      -4.132  10.454  -8.919  1.00  0.00     0.006 C 
ENDROOT
BRANCH   1   2
ATOM      2  C   UNL     1      -3.706  11.862  -8.481  1.00  0.00     0.053 C 
BRANCH   2   3
ATOM      3  C   UNL     1      -3.488  11.942  -7.001  1.00  0.00     0.041 C 
ATOM      4  O   UNL     1      -2.396  11.565  -6.501  1.00  0.00    -0.550 OA
ATOM      5  O   UNL     1      -4.477  12.466  -6.178  1.00  0.00    -0.550 OA
ENDBRANCH   2   3
ENDBRANCH   1   2
BRANCH   1   6
ATOM      6  C   UNL     1      -5.658  10.301  -8.981  1.00  0.00     0.000 C 
BRANCH   6   7
ATOM      7  C   UNL     1      -6.166   9.403  -7.848  1.00  0.00    -0.003 C 
ATOM      8  C   UNL     1      -7.044  10.185  -6.875  1.00  0.00     0.004 C 
ENDBRANCH   6   7
ENDBRANCH   1   6
TORSDOF 4
ENDMDL
MODEL 3
REMARK VINA RESULT:    -3.546     16.796     17.783
REMARK INTER + INTRA:          -4.603
REMARK INTER:                  -4.509
REMARK INTRA:                  -0.094
REMARK UNBOUND:                -0.228
REMARK SMILES CCCCCC(=O)[O-]
REMARK SMILES IDX 4 1 5 2 6 3 7 4 8 5 3 6 2 7 1 8
REMARK H PARENT
REMARK Flexibility Score: inf
ROOT
ATOM      1  C   UNL     1       4.958  10.938   5.503  1.00  0.00     0.006 C 
ENDROOT
BRANCH   1   2
ATOM      2  C   UNL     1       5.711  10.420   6.736  1.00  0.00     0.053 C 
BRANCH   2   3
ATOM      3  C   UNL     1       4.785   9.789   7.729  1.00  0.00     0.041 C 
ATOM      4  O   UNL     1       5.229   9.362   8.827  1.00  0.00    -0.550 OA
ATOM      5  O   UNL     1       3.425   9.703   7.458  1.00  0.00    -0.550 OA
ENDBRANCH   2   3
ENDBRANCH   1   2
BRANCH   1   6
ATOM      6  C   UNL     1       5.896  11.192   4.314  1.00  0.00     0.000 C 
BRANCH   6   7
ATOM      7  C   UNL     1       6.825  12.379   4.592  1.00  0.00    -0.003 C 
ATOM      8  C   UNL     1       8.179  12.191   3.912  1.00  0.00     0.004 C 
ENDBRANCH   6   7
ENDBRANCH   1   6
TORSDOF 4
ENDMDL
MODEL 4
REMARK VINA RESULT:    -3.523     16.965     18.083
REMARK INTER + INTRA:          -4.575
REMARK INTER:                  -4.435
REMARK INTRA:                  -0.139
REMARK UNBOUND:                -0.228
REMARK SMILES CCCCCC(=O)[O-]
REMARK SMILES IDX 4 1 5 2 6 3 7 4 8 5 3 6 2 7 1 8
REMARK H PARENT
REMARK Flexibility Score: inf
ROOT
ATOM      1  C   UNL     1       4.842   9.689   7.493  1.00  0.00     0.006 C 
ENDROOT
BRANCH   1   2
ATOM      2  C   UNL     1       3.460  10.356   7.544  1.00  0.00     0.053 C 
BRANCH   2   3
ATOM      3  C   UNL     1       3.162  10.917   8.901  1.00  0.00     0.041 C 
ATOM      4  O   UNL     1       1.994  11.284   9.191  1.00  0.00    -0.550 OA
ATOM      5  O   UNL     1       4.167  11.002   9.856  1.00  0.00    -0.550 OA
ENDBRANCH   2   3
ENDBRANCH   1   2
BRANCH   1   6
ATOM      6  C   UNL     1       5.839  10.482   6.636  1.00  0.00     0.000 C 
BRANCH   6   7
ATOM      7  C   UNL     1       5.133  11.153   5.453  1.00  0.00    -0.003 C 
ATOM      8  C   UNL     1       6.019  11.152   4.210  1.00  0.00     0.004 C 
ENDBRANCH   6   7
ENDBRANCH   1   6
TORSDOF 4
ENDMDL
MODEL 5
REMARK VINA RESULT:    -3.506      2.018      3.795
REMARK INTER + INTRA:          -4.554
REMARK INTER:                  -4.418
REMARK INTRA:                  -0.136
REMARK UNBOUND:                -0.228
REMARK SMILES CCCCCC(=O)[O-]
REMARK SMILES IDX 4 1 5 2 6 3 7 4 8 5 3 6 2 7 1 8
REMARK H PARENT
REMARK Flexibility Score: inf
ROOT
ATOM      1  C   UNL     1      -5.644  10.365  -8.866  1.00  0.00     0.006 C 
ENDROOT
BRANCH   1   2
ATOM      2  C   UNL     1      -4.121  10.484  -8.719  1.00  0.00     0.053 C 
BRANCH   2   3
ATOM      3  C   UNL     1      -3.734  11.625  -7.829  1.00  0.00     0.041 C 
ATOM      4  O   UNL     1      -3.394  12.730  -8.328  1.00  0.00    -0.550 OA
ATOM      5  O   UNL     1      -3.782  11.479  -6.449  1.00  0.00    -0.550 OA
ENDBRANCH   2   3
ENDBRANCH   1   2
BRANCH   1   6
ATOM      6  C   UNL     1      -6.251   9.383  -7.854  1.00  0.00     0.000 C 
BRANCH   6   7
ATOM      7  C   UNL     1      -7.096  10.122  -6.810  1.00  0.00    -0.003 C 
ATOM      8  C   UNL     1      -8.110   9.186  -6.158  1.00  0.00     0.004 C 
ENDBRANCH   6   7
ENDBRANCH   1   6
TORSDOF 4
ENDMDL
MODEL 6
REMARK VINA RESULT:    -3.469     16.819     17.907
REMARK INTER + INTRA:          -4.509
REMARK INTER:                  -4.386
REMARK INTRA:                  -0.123
REMARK UNBOUND:                -0.228
REMARK SMILES CCCCCC(=O)[O-]
REMARK SMILES IDX 4 1 5 2 6 3 7 4 8 5 3 6 2 7 1 8
REMARK H PARENT
REMARK Flexibility Score: inf
ROOT
ATOM      1  C   UNL     1       4.891  10.913   5.528  1.00  0.00     0.006 C 
ENDROOT
BRANCH   1   2
ATOM      2  C   UNL     1       5.689  10.501   6.773  1.00  0.00     0.053 C 
BRANCH   2   3
ATOM      3  C   UNL     1       4.844   9.746   7.752  1.00  0.00     0.041 C 
ATOM      4  O   UNL     1       3.686   9.369   7.431  1.00  0.00    -0.550 OA
ATOM      5  O   UNL     1       5.347   9.429   9.007  1.00  0.00    -0.550 OA
ENDBRANCH   2   3
ENDBRANCH   1   2
BRANCH   1   6
ATOM      6  C   UNL     1       5.803  11.312   4.359  1.00  0.00     0.000 C 
BRANCH   6   7
ATOM      7  C   UNL     1       7.266  10.970   4.662  1.00  0.00    -0.003 C 
ATOM      8  C   UNL     1       8.208  12.038   4.112  1.00  0.00     0.004 C 
ENDBRANCH   6   7
ENDBRANCH   1   6
TORSDOF 4
ENDMDL
MODEL 7
REMARK VINA RESULT:    -3.429      1.039      1.814
REMARK INTER + INTRA:          -4.459
REMARK INTER:                  -4.360
REMARK INTRA:                  -0.099
REMARK UNBOUND:                -0.228
REMARK SMILES CCCCCC(=O)[O-]
REMARK SMILES IDX 4 1 5 2 6 3 7 4 8 5 3 6 2 7 1 8
REMARK H PARENT
REMARK Flexibility Score: inf
ROOT
ATOM      1  C   UNL     1      -6.104  10.485  -7.470  1.00  0.00     0.006 C 
ENDROOT
BRANCH   1   2
ATOM      2  C   UNL     1      -7.082   9.430  -6.935  1.00  0.00     0.053 C 
BRANCH   2   3
ATOM      3  C   UNL     1      -8.161  10.044  -6.098  1.00  0.00     0.041 C 
ATOM      4  O   UNL     1      -8.803   9.340  -5.275  1.00  0.00    -0.550 OA
ATOM      5  O   UNL     1      -8.436  11.402  -6.202  1.00  0.00    -0.550 OA
ENDBRANCH   2   3
ENDBRANCH   1   2
BRANCH   1   6
ATOM      6  C   UNL     1      -5.680  10.203  -8.919  1.00  0.00     0.000 C 
BRANCH   6   7
ATOM      7  C   UNL     1      -4.192  10.506  -9.123  1.00  0.00    -0.003 C 
ATOM      8  C   UNL     1      -3.681  11.494  -8.079  1.00  0.00     0.004 C 
ENDBRANCH   6   7
ENDBRANCH   1   6
TORSDOF 4
ENDMDL
MODEL 8
REMARK VINA RESULT:    -3.316     17.683     18.582
REMARK INTER + INTRA:          -4.319
REMARK INTER:                  -4.253
REMARK INTRA:                  -0.066
REMARK UNBOUND:                -0.228
REMARK SMILES CCCCCC(=O)[O-]
REMARK SMILES IDX 4 1 5 2 6 3 7 4 8 5 3 6 2 7 1 8
REMARK H PARENT
REMARK Flexibility Score: inf
ROOT
ATOM      1  C   UNL     1       3.612  10.436   7.776  1.00  0.00     0.006 C 
ENDROOT
BRANCH   1   2
ATOM      2  C   UNL     1       5.049   9.934   7.580  1.00  0.00     0.053 C 
BRANCH   2   3
ATOM      3  C   UNL     1       5.674  10.502   6.344  1.00  0.00     0.041 C 
ATOM      4  O   UNL     1       6.923  10.459   6.189  1.00  0.00    -0.550 OA
ATOM      5  O   UNL     1       4.876  11.048   5.347  1.00  0.00    -0.550 OA
ENDBRANCH   2   3
ENDBRANCH   1   2
BRANCH   1   6
ATOM      6  C   UNL     1       3.486  11.383   8.978  1.00  0.00     0.000 C 
BRANCH   6   7
ATOM      7  C   UNL     1       2.204  11.098   9.769  1.00  0.00    -0.003 C 
ATOM      8  C   UNL     1       1.301  12.327   9.818  1.00  0.00     0.004 C 
ENDBRANCH   6   7
ENDBRANCH   1   6
TORSDOF 4
ENDMDL
MODEL 9
REMARK VINA RESULT:    -3.307     17.179     18.288
REMARK INTER + INTRA:          -4.308
REMARK INTER:                  -4.188
REMARK INTRA:                  -0.120
REMARK UNBOUND:                -0.228
REMARK SMILES CCCCCC(=O)[O-]
REMARK SMILES IDX 4 1 5 2 6 3 7 4 8 5 3 6 2 7 1 8
REMARK H PARENT
REMARK Flexibility Score: inf
ROOT
ATOM      1  C   UNL     1       5.877  11.452   4.361  1.00  0.00     0.006 C 
ENDROOT
BRANCH   1   2
ATOM      2  C   UNL     1       6.841  12.538   4.858  1.00  0.00     0.053 C 
BRANCH   2   3
ATOM      3  C   UNL     1       8.262  12.225   4.506  1.00  0.00     0.041 C 
ATOM      4  O   UNL     1       8.686  12.432   3.338  1.00  0.00    -0.550 OA
ATOM      5  O   UNL     1       9.130  11.737   5.475  1.00  0.00    -0.550 OA
ENDBRANCH   2   3
ENDBRANCH   1   2
BRANCH   1   6
ATOM      6  C   UNL     1       4.904  10.992   5.457  1.00  0.00     0.000 C 
BRANCH   6   7
ATOM      7  C   UNL     1       5.663  10.427   6.662  1.00  0.00    -0.003 C 
ATOM      8  C   UNL     1       4.725   9.669   7.598  1.00  0.00     0.004 C 
ENDBRANCH   6   7
ENDBRANCH   1   6
TORSDOF 4
ENDMDL
