MODEL 1
REMARK VINA RESULT:    -7.753      0.000      0.000
REMARK INTER + INTRA:         -11.234
REMARK INTER:                 -10.246
REMARK INTRA:                  -0.988
REMARK UNBOUND:                -0.988
REMARK SMILES CC[C@@H](C=C[C@H](C)[C@@H]1CC[C@@H]2C3=CC[C@@H]4C[C@H](O)CC[C@@]4(C)[C@@H]3CC[C@@]21C)C(C)C
REMARK SMILES IDX 6 1 7 2 5 3 4 4 3 5 2 6 1 7 28 8 29 9 30 10 8 11 9 12 26 13
REMARK SMILES IDX 10 14 11 15 25 16 27 17 12 18 24 19 23 20 13 21 21 22 14 23
REMARK SMILES IDX 15 24 20 25 22 26 16 27 19 28 17 29 18 30
REMARK H PARENT 18 31
REMARK Flexibility Score: inf
ROOT
ATOM      1  C   UNL     1     184.934 190.015 190.668  1.00  0.00     0.012 C 
ATOM      2  C   UNL     1     185.420 191.027 191.715  1.00  0.00     0.012 C 
ENDROOT
BRANCH   1   3
ATOM      3  C   UNL     1     183.539 189.494 190.993  1.00  0.00    -0.028 C 
ATOM      4  C   UNL     1     183.090 188.218 190.998  1.00  0.00    -0.027 C 
BRANCH   4   5
ATOM      5  C   UNL     1     183.864 186.963 190.621  1.00  0.00     0.014 C 
BRANCH   5   6
ATOM      6  C   UNL     1     182.969 185.983 189.824  1.00  0.00     0.004 C 
ATOM      7  C   UNL     1     181.477 186.045 190.150  1.00  0.00     0.004 C 
ENDBRANCH   5   6
BRANCH   5   8
ATOM      8  C   UNL     1     184.597 186.293 191.838  1.00  0.00    -0.011 C 
ATOM      9  C   UNL     1     185.805 187.082 192.381  1.00  0.00     0.008 C 
ATOM     10  C   UNL     1     185.052 184.866 191.493  1.00  0.00     0.008 C 
ENDBRANCH   5   8
ENDBRANCH   4   5
ENDBRANCH   1   3
BRANCH   1  11
ATOM     11  C   UNL     1     185.056 190.480 189.178  1.00  0.00     0.002 C 
ATOM     12  C   UNL     1     184.457 189.447 188.216  1.00  0.00     0.005 C 
ATOM     13  C   UNL     1     186.458 190.803 188.567  1.00  0.00    -0.023 C 
ATOM     14  C   UNL     1     185.047 189.738 186.839  1.00  0.00     0.009 C 
ATOM     15  C   UNL     1     186.122 190.809 187.048  1.00  0.00     0.021 C 
ATOM     16  C   UNL     1     187.563 189.746 188.955  1.00  0.00     0.008 C 
ATOM     17  C   UNL     1     186.939 192.226 188.962  1.00  0.00     0.012 C 
ATOM     18  C   UNL     1     187.308 190.623 186.115  1.00  0.00    -0.067 C 
ATOM     19  C   UNL     1     188.249 189.040 187.778  1.00  0.00     0.009 C 
ATOM     20  C   UNL     1     188.601 190.027 186.652  1.00  0.00     0.021 C 
ATOM     21  C   UNL     1     187.199 191.054 184.838  1.00  0.00    -0.027 C 
ATOM     22  C   UNL     1     189.499 189.409 185.519  1.00  0.00    -0.023 C 
ATOM     23  C   UNL     1     188.269 190.855 183.797  1.00  0.00     0.031 C 
ATOM     24  C   UNL     1     189.635 190.506 184.412  1.00  0.00     0.002 C 
ATOM     25  C   UNL     1     190.922 189.092 186.077  1.00  0.00     0.010 C 
ATOM     26  C   UNL     1     188.856 188.101 184.967  1.00  0.00     0.012 C 
ATOM     27  C   UNL     1     190.655 190.147 183.312  1.00  0.00     0.036 C 
ATOM     28  C   UNL     1     191.934 188.729 184.978  1.00  0.00     0.032 C 
ATOM     29  C   UNL     1     192.032 189.841 183.922  1.00  0.00     0.114 C 
BRANCH  29  30
ATOM     30  O   UNL     1     192.953 189.492 182.919  1.00  0.00    -0.393 OA
ATOM     31  H   UNL     1     193.738 189.075 183.362  1.00  0.00     0.210 HD
ENDBRANCH  29  30
ENDBRANCH   1  11
TORSDOF 6
ENDMDL
MODEL 2
REMARK VINA RESULT:    -7.414      4.480      8.170
REMARK INTER + INTRA:         -10.786
REMARK INTER:                  -9.268
REMARK INTRA:                  -1.518
REMARK UNBOUND:                -0.988
REMARK SMILES CC[C@@H](C=C[C@H](C)[C@@H]1CC[C@@H]2C3=CC[C@@H]4C[C@H](O)CC[C@@]4(C)[C@@H]3CC[C@@]21C)C(C)C
REMARK SMILES IDX 6 1 7 2 5 3 4 4 3 5 2 6 1 7 28 8 29 9 30 10 8 11 9 12 26 13
REMARK SMILES IDX 10 14 11 15 25 16 27 17 12 18 24 19 23 20 13 21 21 22 14 23
REMARK SMILES IDX 15 24 20 25 22 26 16 27 19 28 17 29 18 30
REMARK H PARENT 18 31
REMARK Flexibility Score: inf
ROOT
ATOM      1  C   UNL     1     187.991 195.556 190.785  1.00  0.00     0.012 C 
ATOM      2  C   UNL     1     189.398 196.148 190.623  1.00  0.00     0.012 C 
ENDROOT
BRANCH   1   3
ATOM      3  C   UNL     1     186.935 196.644 190.943  1.00  0.00    -0.028 C 
ATOM      4  C   UNL     1     186.509 197.255 192.071  1.00  0.00    -0.027 C 
BRANCH   4   5
ATOM      5  C   UNL     1     186.945 196.967 193.501  1.00  0.00     0.014 C 
BRANCH   5   6
ATOM      6  C   UNL     1     186.118 195.805 194.105  1.00  0.00     0.004 C 
ATOM      7  C   UNL     1     186.923 194.575 194.521  1.00  0.00     0.004 C 
ENDBRANCH   5   6
BRANCH   5   8
ATOM      8  C   UNL     1     186.984 198.246 194.411  1.00  0.00    -0.011 C 
ATOM      9  C   UNL     1     185.938 198.268 195.544  1.00  0.00     0.008 C 
ATOM     10  C   UNL     1     186.834 199.526 193.573  1.00  0.00     0.008 C 
ENDBRANCH   5   8
ENDBRANCH   4   5
ENDBRANCH   1   3
BRANCH   1  11
ATOM     11  C   UNL     1     187.584 194.492 189.711  1.00  0.00     0.002 C 
ATOM     12  C   UNL     1     186.123 194.664 189.275  1.00  0.00     0.005 C 
ATOM     13  C   UNL     1     187.712 192.967 190.026  1.00  0.00    -0.023 C 
ATOM     14  C   UNL     1     185.697 193.343 188.642  1.00  0.00     0.009 C 
ATOM     15  C   UNL     1     186.845 192.358 188.886  1.00  0.00     0.021 C 
ATOM     16  C   UNL     1     187.197 192.586 191.468  1.00  0.00     0.008 C 
ATOM     17  C   UNL     1     189.171 192.467 189.845  1.00  0.00     0.012 C 
ATOM     18  C   UNL     1     186.346 190.942 189.128  1.00  0.00    -0.067 C 
ATOM     19  C   UNL     1     186.068 191.549 191.518  1.00  0.00     0.009 C 
ATOM     20  C   UNL     1     186.322 190.386 190.544  1.00  0.00     0.021 C 
ATOM     21  C   UNL     1     185.995 190.190 188.061  1.00  0.00    -0.027 C 
ATOM     22  C   UNL     1     185.317 189.186 190.706  1.00  0.00    -0.023 C 
ATOM     23  C   UNL     1     185.412 188.805 188.173  1.00  0.00     0.031 C 
ATOM     24  C   UNL     1     185.644 188.176 189.557  1.00  0.00     0.002 C 
ATOM     25  C   UNL     1     185.553 188.471 192.073  1.00  0.00     0.010 C 
ATOM     26  C   UNL     1     183.846 189.695 190.633  1.00  0.00     0.012 C 
ATOM     27  C   UNL     1     184.889 186.837 189.682  1.00  0.00     0.036 C 
ATOM     28  C   UNL     1     184.794 187.140 192.196  1.00  0.00     0.032 C 
ATOM     29  C   UNL     1     185.155 186.185 191.049  1.00  0.00     0.114 C 
BRANCH  29  30
ATOM     30  O   UNL     1     184.448 184.976 191.168  1.00  0.00    -0.393 OA
ATOM     31  H   UNL     1     184.532 184.669 192.109  1.00  0.00     0.210 HD
ENDBRANCH  29  30
ENDBRANCH   1  11
TORSDOF 6
ENDMDL
MODEL 3
REMARK VINA RESULT:    -7.339      4.554      7.774
REMARK INTER + INTRA:         -10.686
REMARK INTER:                  -9.275
REMARK INTRA:                  -1.412
REMARK UNBOUND:                -0.988
REMARK SMILES CC[C@@H](C=C[C@H](C)[C@@H]1CC[C@@H]2C3=CC[C@@H]4C[C@H](O)CC[C@@]4(C)[C@@H]3CC[C@@]21C)C(C)C
REMARK SMILES IDX 6 1 7 2 5 3 4 4 3 5 2 6 1 7 28 8 29 9 30 10 8 11 9 12 26 13
REMARK SMILES IDX 10 14 11 15 25 16 27 17 12 18 24 19 23 20 13 21 21 22 14 23
REMARK SMILES IDX 15 24 20 25 22 26 16 27 19 28 17 29 18 30
REMARK H PARENT 18 31
REMARK Flexibility Score: inf
ROOT
ATOM      1  C   UNL     1     188.168 195.526 192.868  1.00  0.00     0.012 C 
ATOM      2  C   UNL     1     189.627 195.886 193.182  1.00  0.00     0.012 C 
ENDROOT
BRANCH   1   3
ATOM      3  C   UNL     1     187.205 196.604 193.348  1.00  0.00    -0.028 C 
ATOM      4  C   UNL     1     186.338 196.567 194.385  1.00  0.00    -0.027 C 
BRANCH   4   5
ATOM      5  C   UNL     1     186.062 195.397 195.319  1.00  0.00     0.014 C 
BRANCH   5   6
ATOM      6  C   UNL     1     184.723 195.598 196.072  1.00  0.00     0.004 C 
ATOM      7  C   UNL     1     184.384 197.044 196.431  1.00  0.00     0.004 C 
ENDBRANCH   5   6
BRANCH   5   8
ATOM      8  C   UNL     1     187.267 195.057 196.266  1.00  0.00    -0.011 C 
ATOM      9  C   UNL     1     186.927 194.108 197.433  1.00  0.00     0.008 C 
ATOM     10  C   UNL     1     187.901 196.336 196.837  1.00  0.00     0.008 C 
ENDBRANCH   5   8
ENDBRANCH   4   5
ENDBRANCH   1   3
BRANCH   1  11
ATOM     11  C   UNL     1     187.886 195.101 191.387  1.00  0.00     0.002 C 
ATOM     12  C   UNL     1     186.573 195.703 190.870  1.00  0.00     0.005 C 
ATOM     13  C   UNL     1     187.788 193.588 191.007  1.00  0.00    -0.023 C 
ATOM     14  C   UNL     1     186.155 194.869 189.663  1.00  0.00     0.009 C 
ATOM     15  C   UNL     1     187.120 193.680 189.605  1.00  0.00     0.021 C 
ATOM     16  C   UNL     1     186.949 192.742 192.041  1.00  0.00     0.008 C 
ATOM     17  C   UNL     1     189.193 192.951 190.834  1.00  0.00     0.012 C 
ATOM     18  C   UNL     1     186.439 192.410 189.120  1.00  0.00    -0.067 C 
ATOM     19  C   UNL     1     185.733 192.006 191.465  1.00  0.00     0.009 C 
ATOM     20  C   UNL     1     186.063 191.329 190.123  1.00  0.00     0.021 C 
ATOM     21  C   UNL     1     186.242 192.250 187.792  1.00  0.00    -0.027 C 
ATOM     22  C   UNL     1     184.929 190.378 189.590  1.00  0.00    -0.023 C 
ATOM     23  C   UNL     1     185.509 191.078 187.194  1.00  0.00     0.031 C 
ATOM     24  C   UNL     1     185.382 189.898 188.172  1.00  0.00     0.002 C 
ATOM     25  C   UNL     1     184.800 189.128 190.516  1.00  0.00     0.010 C 
ATOM     26  C   UNL     1     183.565 191.131 189.542  1.00  0.00     0.012 C 
ATOM     27  C   UNL     1     184.484 188.792 187.581  1.00  0.00     0.036 C 
ATOM     28  C   UNL     1     183.900 188.031 189.927  1.00  0.00     0.032 C 
ATOM     29  C   UNL     1     184.391 187.594 188.539  1.00  0.00     0.114 C 
BRANCH  29  30
ATOM     30  O   UNL     1     183.554 186.597 188.008  1.00  0.00    -0.393 OA
ATOM     31  H   UNL     1     182.654 186.996 187.879  1.00  0.00     0.210 HD
ENDBRANCH  29  30
ENDBRANCH   1  11
TORSDOF 6
ENDMDL
MODEL 4
REMARK VINA RESULT:    -7.216      3.936      6.546
REMARK INTER + INTRA:         -10.524
REMARK INTER:                  -9.377
REMARK INTRA:                  -1.148
REMARK UNBOUND:                -0.988
REMARK SMILES CC[C@@H](C=C[C@H](C)[C@@H]1CC[C@@H]2C3=CC[C@@H]4C[C@H](O)CC[C@@]4(C)[C@@H]3CC[C@@]21C)C(C)C
REMARK SMILES IDX 6 1 7 2 5 3 4 4 3 5 2 6 1 7 28 8 29 9 30 10 8 11 9 12 26 13
REMARK SMILES IDX 10 14 11 15 25 16 27 17 12 18 24 19 23 20 13 21 21 22 14 23
REMARK SMILES IDX 15 24 20 25 22 26 16 27 19 28 17 29 18 30
REMARK H PARENT 18 31
REMARK Flexibility Score: inf
ROOT
ATOM      1  C   UNL     1     185.651 188.936 188.887  1.00  0.00     0.012 C 
ATOM      2  C   UNL     1     184.593 189.100 187.787  1.00  0.00     0.012 C 
ENDROOT
BRANCH   1   3
ATOM      3  C   UNL     1     186.044 187.476 189.078  1.00  0.00    -0.028 C 
ATOM      4  C   UNL     1     185.754 186.647 190.106  1.00  0.00    -0.027 C 
BRANCH   4   5
ATOM      5  C   UNL     1     184.993 186.984 191.381  1.00  0.00     0.014 C 
BRANCH   5   6
ATOM      6  C   UNL     1     185.462 186.089 192.555  1.00  0.00     0.004 C 
ATOM      7  C   UNL     1     185.426 184.585 192.287  1.00  0.00     0.004 C 
ENDBRANCH   5   6
BRANCH   5   8
ATOM      8  C   UNL     1     183.435 187.000 191.191  1.00  0.00    -0.011 C 
ATOM      9  C   UNL     1     182.923 186.222 189.962  1.00  0.00     0.008 C 
ATOM     10  C   UNL     1     182.900 188.439 191.123  1.00  0.00     0.008 C 
ENDBRANCH   5   8
ENDBRANCH   4   5
ENDBRANCH   1   3
BRANCH   1  11
ATOM     11  C   UNL     1     186.901 189.871 188.760  1.00  0.00     0.002 C 
ATOM     12  C   UNL     1     187.843 189.716 189.961  1.00  0.00     0.005 C 
ATOM     13  C   UNL     1     186.717 191.416 188.616  1.00  0.00    -0.023 C 
ATOM     14  C   UNL     1     188.721 190.963 189.992  1.00  0.00     0.009 C 
ATOM     15  C   UNL     1     188.157 191.914 188.931  1.00  0.00     0.021 C 
ATOM     16  C   UNL     1     185.628 192.005 189.594  1.00  0.00     0.008 C 
ATOM     17  C   UNL     1     186.374 191.816 187.155  1.00  0.00     0.012 C 
ATOM     18  C   UNL     1     188.268 193.372 189.348  1.00  0.00    -0.067 C 
ATOM     19  C   UNL     1     186.119 193.093 190.557  1.00  0.00     0.009 C 
ATOM     20  C   UNL     1     187.034 194.107 189.847  1.00  0.00     0.021 C 
ATOM     21  C   UNL     1     189.459 193.996 189.201  1.00  0.00    -0.027 C 
ATOM     22  C   UNL     1     187.392 195.365 190.721  1.00  0.00    -0.023 C 
ATOM     23  C   UNL     1     189.720 195.410 189.650  1.00  0.00     0.031 C 
ATOM     24  C   UNL     1     188.424 196.201 189.894  1.00  0.00     0.002 C 
ATOM     25  C   UNL     1     186.118 196.239 190.948  1.00  0.00     0.010 C 
ATOM     26  C   UNL     1     187.970 194.924 192.099  1.00  0.00     0.012 C 
ATOM     27  C   UNL     1     188.733 197.581 190.511  1.00  0.00     0.036 C 
ATOM     28  C   UNL     1     186.430 197.610 191.568  1.00  0.00     0.032 C 
ATOM     29  C   UNL     1     187.442 198.390 190.715  1.00  0.00     0.114 C 
BRANCH  29  30
ATOM     30  O   UNL     1     187.725 199.637 191.298  1.00  0.00    -0.393 OA
ATOM     31  H   UNL     1     186.950 200.234 191.126  1.00  0.00     0.210 HD
ENDBRANCH  29  30
ENDBRANCH   1  11
TORSDOF 6
ENDMDL
MODEL 5
REMARK VINA RESULT:    -7.202      2.082      3.860
REMARK INTER + INTRA:         -10.505
REMARK INTER:                  -8.986
REMARK INTRA:                  -1.519
REMARK UNBOUND:                -0.988
REMARK SMILES CC[C@@H](C=C[C@H](C)[C@@H]1CC[C@@H]2C3=CC[C@@H]4C[C@H](O)CC[C@@]4(C)[C@@H]3CC[C@@]21C)C(C)C
REMARK SMILES IDX 6 1 7 2 5 3 4 4 3 5 2 6 1 7 28 8 29 9 30 10 8 11 9 12 26 13
REMARK SMILES IDX 10 14 11 15 25 16 27 17 12 18 24 19 23 20 13 21 21 22 14 23
REMARK SMILES IDX 15 24 20 25 22 26 16 27 19 28 17 29 18 30
REMARK H PARENT 18 31
REMARK Flexibility Score: inf
ROOT
ATOM      1  C   UNL     1     186.321 191.008 187.356  1.00  0.00     0.012 C 
ATOM      2  C   UNL     1     185.789 192.352 187.874  1.00  0.00     0.012 C 
ENDROOT
BRANCH   1   3
ATOM      3  C   UNL     1     185.189 190.072 186.951  1.00  0.00    -0.028 C 
ATOM      4  C   UNL     1     184.567 189.124 187.688  1.00  0.00    -0.027 C 
BRANCH   4   5
ATOM      5  C   UNL     1     184.883 188.708 189.118  1.00  0.00     0.014 C 
BRANCH   5   6
ATOM      6  C   UNL     1     184.881 187.166 189.255  1.00  0.00     0.004 C 
ATOM      7  C   UNL     1     186.162 186.557 189.827  1.00  0.00     0.004 C 
ENDBRANCH   5   6
BRANCH   5   8
ATOM      8  C   UNL     1     183.993 189.433 190.189  1.00  0.00    -0.011 C 
ATOM      9  C   UNL     1     184.762 190.363 191.149  1.00  0.00     0.008 C 
ATOM     10  C   UNL     1     183.190 188.419 191.020  1.00  0.00     0.008 C 
ENDBRANCH   5   8
ENDBRANCH   4   5
ENDBRANCH   1   3
BRANCH   1  11
ATOM     11  C   UNL     1     187.428 191.106 186.252  1.00  0.00     0.002 C 
ATOM     12  C   UNL     1     186.866 190.781 184.863  1.00  0.00     0.005 C 
ATOM     13  C   UNL     1     188.721 190.234 186.355  1.00  0.00    -0.023 C 
ATOM     14  C   UNL     1     188.059 190.426 183.981  1.00  0.00     0.009 C 
ATOM     15  C   UNL     1     189.277 190.362 184.908  1.00  0.00     0.021 C 
ATOM     16  C   UNL     1     188.432 188.743 186.780  1.00  0.00     0.008 C 
ATOM     17  C   UNL     1     189.756 190.861 187.329  1.00  0.00     0.012 C 
ATOM     18  C   UNL     1     190.263 189.284 184.488  1.00  0.00    -0.067 C 
ATOM     19  C   UNL     1     188.908 187.668 185.795  1.00  0.00     0.009 C 
ATOM     20  C   UNL     1     190.317 187.974 185.260  1.00  0.00     0.021 C 
ATOM     21  C   UNL     1     191.115 189.547 183.472  1.00  0.00    -0.027 C 
ATOM     22  C   UNL     1     190.950 186.803 184.421  1.00  0.00    -0.023 C 
ATOM     23  C   UNL     1     192.081 188.538 182.910  1.00  0.00     0.031 C 
ATOM     24  C   UNL     1     192.304 187.345 183.854  1.00  0.00     0.002 C 
ATOM     25  C   UNL     1     191.255 185.585 185.347  1.00  0.00     0.010 C 
ATOM     26  C   UNL     1     189.979 186.361 183.285  1.00  0.00     0.012 C 
ATOM     27  C   UNL     1     193.163 186.260 183.173  1.00  0.00     0.036 C 
ATOM     28  C   UNL     1     192.106 184.504 184.661  1.00  0.00     0.032 C 
ATOM     29  C   UNL     1     193.424 185.087 184.130  1.00  0.00     0.114 C 
BRANCH  29  30
ATOM     30  O   UNL     1     194.188 184.090 183.498  1.00  0.00    -0.393 OA
ATOM     31  H   UNL     1     193.701 183.230 183.595  1.00  0.00     0.210 HD
ENDBRANCH  29  30
ENDBRANCH   1  11
TORSDOF 6
ENDMDL
MODEL 6
REMARK VINA RESULT:    -7.194      3.079      8.117
REMARK INTER + INTRA:         -10.495
REMARK INTER:                  -8.939
REMARK INTRA:                  -1.555
REMARK UNBOUND:                -0.988
REMARK SMILES CC[C@@H](C=C[C@H](C)[C@@H]1CC[C@@H]2C3=CC[C@@H]4C[C@H](O)CC[C@@]4(C)[C@@H]3CC[C@@]21C)C(C)C
REMARK SMILES IDX 6 1 7 2 5 3 4 4 3 5 2 6 1 7 28 8 29 9 30 10 8 11 9 12 26 13
REMARK SMILES IDX 10 14 11 15 25 16 27 17 12 18 24 19 23 20 13 21 21 22 14 23
REMARK SMILES IDX 15 24 20 25 22 26 16 27 19 28 17 29 18 30
REMARK H PARENT 18 31
REMARK Flexibility Score: inf
ROOT
ATOM      1  C   UNL     1     190.379 190.317 185.210  1.00  0.00     0.012 C 
ATOM      2  C   UNL     1     191.083 191.221 184.190  1.00  0.00     0.012 C 
ENDROOT
BRANCH   1   3
ATOM      3  C   UNL     1     191.370 189.441 185.967  1.00  0.00    -0.028 C 
ATOM      4  C   UNL     1     191.888 188.244 185.612  1.00  0.00    -0.027 C 
BRANCH   4   5
ATOM      5  C   UNL     1     191.563 187.427 184.369  1.00  0.00     0.014 C 
BRANCH   5   6
ATOM      6  C   UNL     1     190.143 186.817 184.467  1.00  0.00     0.004 C 
ATOM      7  C   UNL     1     189.126 187.360 183.464  1.00  0.00     0.004 C 
ENDBRANCH   5   6
BRANCH   5   8
ATOM      8  C   UNL     1     192.672 186.376 184.007  1.00  0.00    -0.011 C 
ATOM      9  C   UNL     1     194.035 186.981 183.614  1.00  0.00     0.008 C 
ATOM     10  C   UNL     1     192.203 185.442 182.881  1.00  0.00     0.008 C 
ENDBRANCH   5   8
ENDBRANCH   4   5
ENDBRANCH   1   3
BRANCH   1  11
ATOM     11  C   UNL     1     189.380 191.043 186.173  1.00  0.00     0.002 C 
ATOM     12  C   UNL     1     189.978 191.220 187.575  1.00  0.00     0.005 C 
ATOM     13  C   UNL     1     187.962 190.441 186.436  1.00  0.00    -0.023 C 
ATOM     14  C   UNL     1     188.808 191.465 188.522  1.00  0.00     0.009 C 
ATOM     15  C   UNL     1     187.534 191.240 187.701  1.00  0.00     0.021 C 
ATOM     16  C   UNL     1     187.983 188.881 186.665  1.00  0.00     0.008 C 
ATOM     17  C   UNL     1     186.974 190.785 185.289  1.00  0.00     0.012 C 
ATOM     18  C   UNL     1     186.422 190.612 188.526  1.00  0.00    -0.067 C 
ATOM     19  C   UNL     1     187.413 188.398 188.005  1.00  0.00     0.009 C 
ATOM     20  C   UNL     1     186.109 189.132 188.363  1.00  0.00     0.021 C 
ATOM     21  C   UNL     1     185.695 191.408 189.342  1.00  0.00    -0.027 C 
ATOM     22  C   UNL     1     185.360 188.532 189.609  1.00  0.00    -0.023 C 
ATOM     23  C   UNL     1     184.623 190.896 190.268  1.00  0.00     0.031 C 
ATOM     24  C   UNL     1     184.150 189.480 189.899  1.00  0.00     0.002 C 
ATOM     25  C   UNL     1     184.803 187.114 189.267  1.00  0.00     0.010 C 
ATOM     26  C   UNL     1     186.325 188.430 190.828  1.00  0.00     0.012 C 
ATOM     27  C   UNL     1     183.180 188.932 190.966  1.00  0.00     0.036 C 
ATOM     28  C   UNL     1     183.843 186.569 190.336  1.00  0.00     0.032 C 
ATOM     29  C   UNL     1     182.673 187.534 190.577  1.00  0.00     0.114 C 
BRANCH  29  30
ATOM     30  O   UNL     1     181.807 187.028 191.562  1.00  0.00    -0.393 OA
ATOM     31  H   UNL     1     180.892 187.006 191.177  1.00  0.00     0.210 HD
ENDBRANCH  29  30
ENDBRANCH   1  11
TORSDOF 6
ENDMDL
MODEL 7
REMARK VINA RESULT:    -7.161      4.544      7.454
REMARK INTER + INTRA:         -10.452
REMARK INTER:                  -9.213
REMARK INTRA:                  -1.239
REMARK UNBOUND:                -0.988
REMARK SMILES CC[C@@H](C=C[C@H](C)[C@@H]1CC[C@@H]2C3=CC[C@@H]4C[C@H](O)CC[C@@]4(C)[C@@H]3CC[C@@]21C)C(C)C
REMARK SMILES IDX 6 1 7 2 5 3 4 4 3 5 2 6 1 7 28 8 29 9 30 10 8 11 9 12 26 13
REMARK SMILES IDX 10 14 11 15 25 16 27 17 12 18 24 19 23 20 13 21 21 22 14 23
REMARK SMILES IDX 15 24 20 25 22 26 16 27 19 28 17 29 18 30
REMARK H PARENT 18 31
REMARK Flexibility Score: inf
ROOT
ATOM      1  C   UNL     1     188.736 195.700 192.715  1.00  0.00     0.012 C 
ATOM      2  C   UNL     1     189.012 197.109 192.173  1.00  0.00     0.012 C 
ENDROOT
BRANCH   1   3
ATOM      3  C   UNL     1     188.736 195.671 194.239  1.00  0.00    -0.028 C 
ATOM      4  C   UNL     1     187.867 196.250 195.098  1.00  0.00    -0.027 C 
BRANCH   4   5
ATOM      5  C   UNL     1     186.679 197.138 194.755  1.00  0.00     0.014 C 
BRANCH   5   6
ATOM      6  C   UNL     1     187.029 198.632 194.968  1.00  0.00     0.004 C 
ATOM      7  C   UNL     1     186.696 199.556 193.798  1.00  0.00     0.004 C 
ENDBRANCH   5   6
BRANCH   5   8
ATOM      8  C   UNL     1     185.349 196.700 195.463  1.00  0.00    -0.011 C 
ATOM      9  C   UNL     1     184.953 197.554 196.685  1.00  0.00     0.008 C 
ATOM     10  C   UNL     1     185.407 195.224 195.889  1.00  0.00     0.008 C 
ENDBRANCH   5   8
ENDBRANCH   4   5
ENDBRANCH   1   3
BRANCH   1  11
ATOM     11  C   UNL     1     187.480 194.984 192.113  1.00  0.00     0.002 C 
ATOM     12  C   UNL     1     187.200 193.652 192.820  1.00  0.00     0.005 C 
ATOM     13  C   UNL     1     187.431 194.627 190.592  1.00  0.00    -0.023 C 
ATOM     14  C   UNL     1     186.316 192.837 191.881  1.00  0.00     0.009 C 
ATOM     15  C   UNL     1     186.248 193.618 190.565  1.00  0.00     0.021 C 
ATOM     16  C   UNL     1     188.782 194.015 190.055  1.00  0.00     0.008 C 
ATOM     17  C   UNL     1     187.039 195.858 189.730  1.00  0.00     0.012 C 
ATOM     18  C   UNL     1     186.197 192.701 189.354  1.00  0.00    -0.067 C 
ATOM     19  C   UNL     1     188.676 192.617 189.431  1.00  0.00     0.009 C 
ATOM     20  C   UNL     1     187.448 192.499 188.512  1.00  0.00     0.021 C 
ATOM     21  C   UNL     1     185.015 192.136 189.020  1.00  0.00    -0.027 C 
ATOM     22  C   UNL     1     187.404 191.169 187.673  1.00  0.00    -0.023 C 
ATOM     23  C   UNL     1     184.851 191.148 187.895  1.00  0.00     0.031 C 
ATOM     24  C   UNL     1     186.036 191.167 186.915  1.00  0.00     0.002 C 
ATOM     25  C   UNL     1     188.554 191.164 186.617  1.00  0.00     0.010 C 
ATOM     26  C   UNL     1     187.554 189.931 188.607  1.00  0.00     0.012 C 
ATOM     27  C   UNL     1     185.908 190.031 185.879  1.00  0.00     0.036 C 
ATOM     28  C   UNL     1     188.425 190.027 185.591  1.00  0.00     0.032 C 
ATOM     29  C   UNL     1     187.069 190.075 184.873  1.00  0.00     0.114 C 
BRANCH  29  30
ATOM     30  O   UNL     1     186.961 189.025 183.944  1.00  0.00    -0.393 OA
ATOM     31  H   UNL     1     187.754 189.067 183.348  1.00  0.00     0.210 HD
ENDBRANCH  29  30
ENDBRANCH   1  11
TORSDOF 6
ENDMDL
MODEL 8
REMARK VINA RESULT:    -7.112      4.377      7.547
REMARK INTER + INTRA:         -10.387
REMARK INTER:                  -8.459
REMARK INTRA:                  -1.928
REMARK UNBOUND:                -0.988
REMARK SMILES CC[C@@H](C=C[C@H](C)[C@@H]1CC[C@@H]2C3=CC[C@@H]4C[C@H](O)CC[C@@]4(C)[C@@H]3CC[C@@]21C)C(C)C
REMARK SMILES IDX 6 1 7 2 5 3 4 4 3 5 2 6 1 7 28 8 29 9 30 10 8 11 9 12 26 13
REMARK SMILES IDX 10 14 11 15 25 16 27 17 12 18 24 19 23 20 13 21 21 22 14 23
REMARK SMILES IDX 15 24 20 25 22 26 16 27 19 28 17 29 18 30
REMARK H PARENT 18 31
REMARK Flexibility Score: inf
ROOT
ATOM      1  C   UNL     1     185.917 189.981 187.993  1.00  0.00     0.012 C 
ATOM      2  C   UNL     1     185.459 189.739 186.549  1.00  0.00     0.012 C 
ENDROOT
BRANCH   1   3
ATOM      3  C   UNL     1     186.515 188.724 188.615  1.00  0.00    -0.028 C 
ATOM      4  C   UNL     1     186.031 187.965 189.623  1.00  0.00    -0.027 C 
BRANCH   4   5
ATOM      5  C   UNL     1     184.773 188.208 190.445  1.00  0.00     0.014 C 
BRANCH   5   6
ATOM      6  C   UNL     1     185.119 188.372 191.945  1.00  0.00     0.004 C 
ATOM      7  C   UNL     1     186.581 188.694 192.250  1.00  0.00     0.004 C 
ENDBRANCH   5   6
BRANCH   5   8
ATOM      8  C   UNL     1     183.639 187.156 190.175  1.00  0.00    -0.011 C 
ATOM      9  C   UNL     1     183.125 187.115 188.722  1.00  0.00     0.008 C 
ATOM     10  C   UNL     1     182.445 187.375 191.117  1.00  0.00     0.008 C 
ENDBRANCH   5   8
ENDBRANCH   4   5
ENDBRANCH   1   3
BRANCH   1  11
ATOM     11  C   UNL     1     186.832 191.235 188.205  1.00  0.00     0.002 C 
ATOM     12  C   UNL     1     188.213 190.838 188.744  1.00  0.00     0.005 C 
ATOM     13  C   UNL     1     186.373 192.394 189.148  1.00  0.00    -0.023 C 
ATOM     14  C   UNL     1     188.818 192.095 189.362  1.00  0.00     0.009 C 
ATOM     15  C   UNL     1     187.714 193.157 189.350  1.00  0.00     0.021 C 
ATOM     16  C   UNL     1     185.741 191.881 190.499  1.00  0.00     0.008 C 
ATOM     17  C   UNL     1     185.375 193.347 188.436  1.00  0.00     0.012 C 
ATOM     18  C   UNL     1     187.774 194.063 190.569  1.00  0.00    -0.067 C 
ATOM     19  C   UNL     1     186.431 192.364 191.781  1.00  0.00     0.009 C 
ATOM     20  C   UNL     1     186.783 193.860 191.705  1.00  0.00     0.021 C 
ATOM     21  C   UNL     1     188.674 195.072 190.580  1.00  0.00    -0.027 C 
ATOM     22  C   UNL     1     187.290 194.467 193.066  1.00  0.00    -0.023 C 
ATOM     23  C   UNL     1     188.887 195.986 191.758  1.00  0.00     0.031 C 
ATOM     24  C   UNL     1     187.723 195.939 192.761  1.00  0.00     0.002 C 
ATOM     25  C   UNL     1     186.125 194.500 194.104  1.00  0.00     0.010 C 
ATOM     26  C   UNL     1     188.468 193.619 193.634  1.00  0.00     0.012 C 
ATOM     27  C   UNL     1     188.056 196.756 194.026  1.00  0.00     0.036 C 
ATOM     28  C   UNL     1     186.465 195.310 195.365  1.00  0.00     0.032 C 
ATOM     29  C   UNL     1     186.876 196.746 195.011  1.00  0.00     0.114 C 
BRANCH  29  30
ATOM     30  O   UNL     1     187.193 197.473 196.172  1.00  0.00    -0.393 OA
ATOM     31  H   UNL     1     186.786 196.999 196.944  1.00  0.00     0.210 HD
ENDBRANCH  29  30
ENDBRANCH   1  11
TORSDOF 6
ENDMDL
MODEL 9
REMARK VINA RESULT:    -7.100      4.144      6.447
REMARK INTER + INTRA:         -10.371
REMARK INTER:                  -9.487
REMARK INTRA:                  -0.884
REMARK UNBOUND:                -0.988
REMARK SMILES CC[C@@H](C=C[C@H](C)[C@@H]1CC[C@@H]2C3=CC[C@@H]4C[C@H](O)CC[C@@]4(C)[C@@H]3CC[C@@]21C)C(C)C
REMARK SMILES IDX 6 1 7 2 5 3 4 4 3 5 2 6 1 7 28 8 29 9 30 10 8 11 9 12 26 13
REMARK SMILES IDX 10 14 11 15 25 16 27 17 12 18 24 19 23 20 13 21 21 22 14 23
REMARK SMILES IDX 15 24 20 25 22 26 16 27 19 28 17 29 18 30
REMARK H PARENT 18 31
REMARK Flexibility Score: inf
ROOT
ATOM      1  C   UNL     1     185.329 186.452 190.789  1.00  0.00     0.012 C 
ATOM      2  C   UNL     1     184.091 185.545 190.749  1.00  0.00     0.012 C 
ENDROOT
BRANCH   1   3
ATOM      3  C   UNL     1     186.616 185.658 190.603  1.00  0.00    -0.028 C 
ATOM      4  C   UNL     1     186.964 184.468 191.143  1.00  0.00    -0.027 C 
BRANCH   4   5
ATOM      5  C   UNL     1     186.166 183.631 192.133  1.00  0.00     0.014 C 
BRANCH   5   6
ATOM      6  C   UNL     1     186.821 183.666 193.536  1.00  0.00     0.004 C 
ATOM      7  C   UNL     1     186.878 185.042 194.198  1.00  0.00     0.004 C 
ENDBRANCH   5   6
BRANCH   5   8
ATOM      8  C   UNL     1     185.863 182.178 191.620  1.00  0.00    -0.011 C 
ATOM      9  C   UNL     1     185.382 181.195 192.706  1.00  0.00     0.008 C 
ATOM     10  C   UNL     1     187.087 181.574 190.912  1.00  0.00     0.008 C 
ENDBRANCH   5   8
ENDBRANCH   4   5
ENDBRANCH   1   3
BRANCH   1  11
ATOM     11  C   UNL     1     185.271 187.707 189.854  1.00  0.00     0.002 C 
ATOM     12  C   UNL     1     186.572 187.876 189.059  1.00  0.00     0.005 C 
ATOM     13  C   UNL     1     185.003 189.124 190.455  1.00  0.00    -0.023 C 
ATOM     14  C   UNL     1     186.610 189.326 188.587  1.00  0.00     0.009 C 
ATOM     15  C   UNL     1     185.434 190.033 189.268  1.00  0.00     0.021 C 
ATOM     16  C   UNL     1     185.819 189.402 191.777  1.00  0.00     0.008 C 
ATOM     17  C   UNL     1     183.491 189.356 190.720  1.00  0.00     0.012 C 
ATOM     18  C   UNL     1     185.760 191.473 189.630  1.00  0.00    -0.067 C 
ATOM     19  C   UNL     1     186.753 190.618 191.738  1.00  0.00     0.009 C 
ATOM     20  C   UNL     1     186.076 191.831 191.075  1.00  0.00     0.021 C 
ATOM     21  C   UNL     1     185.698 192.413 188.661  1.00  0.00    -0.027 C 
ATOM     22  C   UNL     1     186.896 193.168 191.201  1.00  0.00    -0.023 C 
ATOM     23  C   UNL     1     186.075 193.856 188.873  1.00  0.00     0.031 C 
ATOM     24  C   UNL     1     186.127 194.240 190.361  1.00  0.00     0.002 C 
ATOM     25  C   UNL     1     186.927 193.637 192.690  1.00  0.00     0.010 C 
ATOM     26  C   UNL     1     188.354 192.963 190.691  1.00  0.00     0.012 C 
ATOM     27  C   UNL     1     186.678 195.670 190.538  1.00  0.00     0.036 C 
ATOM     28  C   UNL     1     187.482 195.060 192.861  1.00  0.00     0.032 C 
ATOM     29  C   UNL     1     186.690 196.072 192.021  1.00  0.00     0.114 C 
BRANCH  29  30
ATOM     30  O   UNL     1     187.214 197.367 192.180  1.00  0.00    -0.393 OA
ATOM     31  H   UNL     1     186.951 197.899 191.384  1.00  0.00     0.210 HD
ENDBRANCH  29  30
ENDBRANCH   1  11
TORSDOF 6
ENDMDL
