MODEL 1
REMARK VINA RESULT:    -6.258      0.000      0.000
REMARK INTER + INTRA:          -7.452
REMARK INTER:                  -7.173
REMARK INTRA:                  -0.279
REMARK UNBOUND:                -0.279
REMARK SMILES O=C([O-])C=Cc1ccc(O)cc1
REMARK SMILES IDX 6 1 7 2 12 3 8 4 11 5 9 6 5 7 4 8 2 9 1 10 3 11 10 12
REMARK H PARENT 10 13
REMARK Flexibility Score: inf
ROOT
ATOM      1  C   UNL     1      -1.909   4.818  -9.469  1.00  0.00    -0.025 A 
ATOM      2  C   UNL     1      -3.312   4.893  -9.439  1.00  0.00     0.012 A 
ATOM      3  C   UNL     1      -1.258   4.612 -10.695  1.00  0.00     0.012 A 
ATOM      4  C   UNL     1      -4.052   4.711 -10.611  1.00  0.00     0.047 A 
ATOM      5  C   UNL     1      -2.000   4.429 -11.866  1.00  0.00     0.047 A 
ATOM      6  C   UNL     1      -3.398   4.476 -11.828  1.00  0.00     0.115 A 
ENDROOT
BRANCH   1   7
ATOM      7  C   UNL     1      -1.102   5.060  -8.254  1.00  0.00     0.010 C 
ATOM      8  C   UNL     1      -0.656   6.258  -7.843  1.00  0.00     0.025 C 
BRANCH   8   9
ATOM      9  C   UNL     1      -1.033   7.563  -8.419  1.00  0.00     0.064 C 
ATOM     10  O   UNL     1      -2.103   8.143  -8.094  1.00  0.00    -0.545 OA
ATOM     11  O   UNL     1      -0.154   8.199  -9.286  1.00  0.00    -0.545 OA
ENDBRANCH   8   9
ENDBRANCH   1   7
BRANCH   6  12
ATOM     12  O   UNL     1      -4.125   4.291 -13.002  1.00  0.00    -0.508 OA
ATOM     13  H   UNL     1      -4.475   5.078 -13.537  1.00  0.00     0.293 HD
ENDBRANCH   6  12
TORSDOF 3
ENDMDL
MODEL 2
REMARK VINA RESULT:    -5.800      2.024      3.301
REMARK INTER + INTRA:          -6.926
REMARK INTER:                  -6.894
REMARK INTRA:                  -0.032
REMARK UNBOUND:                -0.279
REMARK SMILES O=C([O-])C=Cc1ccc(O)cc1
REMARK SMILES IDX 6 1 7 2 12 3 8 4 11 5 9 6 5 7 4 8 2 9 1 10 3 11 10 12
REMARK H PARENT 10 13
REMARK Flexibility Score: inf
ROOT
ATOM      1  C   UNL     1      -2.365   5.007  -9.535  1.00  0.00    -0.025 A 
ATOM      2  C   UNL     1      -1.984   4.683 -10.849  1.00  0.00     0.012 A 
ATOM      3  C   UNL     1      -1.399   4.998  -8.518  1.00  0.00     0.012 A 
ATOM      4  C   UNL     1      -0.668   4.304 -11.127  1.00  0.00     0.047 A 
ATOM      5  C   UNL     1      -0.082   4.618  -8.798  1.00  0.00     0.047 A 
ATOM      6  C   UNL     1       0.286   4.267 -10.101  1.00  0.00     0.115 A 
ENDROOT
BRANCH   1   7
ATOM      7  C   UNL     1      -3.737   5.463  -9.225  1.00  0.00     0.010 C 
ATOM      8  C   UNL     1      -4.125   6.744  -9.117  1.00  0.00     0.025 C 
BRANCH   8   9
ATOM      9  C   UNL     1      -3.308   7.925  -9.459  1.00  0.00     0.064 C 
ATOM     10  O   UNL     1      -3.688   8.762 -10.319  1.00  0.00    -0.545 OA
ATOM     11  O   UNL     1      -2.127   8.154  -8.765  1.00  0.00    -0.545 OA
ENDBRANCH   8   9
ENDBRANCH   1   7
BRANCH   6  12
ATOM     12  O   UNL     1       1.601   3.889 -10.366  1.00  0.00    -0.508 OA
ATOM     13  H   UNL     1       1.981   3.015 -10.020  1.00  0.00     0.293 HD
ENDBRANCH   6  12
TORSDOF 3
ENDMDL
MODEL 3
REMARK VINA RESULT:    -5.670     17.938     18.941
REMARK INTER + INTRA:          -6.778
REMARK INTER:                  -7.125
REMARK INTRA:                   0.346
REMARK UNBOUND:                -0.279
REMARK SMILES O=C([O-])C=Cc1ccc(O)cc1
REMARK SMILES IDX 6 1 7 2 12 3 8 4 11 5 9 6 5 7 4 8 2 9 1 10 3 11 10 12
REMARK H PARENT 10 13
REMARK Flexibility Score: inf
ROOT
ATOM      1  C   UNL     1      12.370  -4.572 -12.466  1.00  0.00    -0.025 A 
ATOM      2  C   UNL     1      11.774  -4.612 -11.193  1.00  0.00     0.012 A 
ATOM      3  C   UNL     1      12.272  -5.692 -13.305  1.00  0.00     0.012 A 
ATOM      4  C   UNL     1      11.138  -5.775 -10.749  1.00  0.00     0.047 A 
ATOM      5  C   UNL     1      11.636  -6.855 -12.859  1.00  0.00     0.047 A 
ATOM      6  C   UNL     1      11.070  -6.901 -11.581  1.00  0.00     0.115 A 
ENDROOT
BRANCH   1   7
ATOM      7  C   UNL     1      13.001  -3.337 -12.979  1.00  0.00     0.010 C 
ATOM      8  C   UNL     1      14.196  -3.269 -13.586  1.00  0.00     0.025 C 
BRANCH   8   9
ATOM      9  C   UNL     1      15.014  -4.421 -14.012  1.00  0.00     0.064 C 
ATOM     10  O   UNL     1      14.766  -5.048 -15.076  1.00  0.00    -0.545 OA
ATOM     11  O   UNL     1      16.124  -4.778 -13.258  1.00  0.00    -0.545 OA
ENDBRANCH   8   9
ENDBRANCH   1   7
BRANCH   6  12
ATOM     12  O   UNL     1      10.441  -8.066 -11.149  1.00  0.00    -0.508 OA
ATOM     13  H   UNL     1      10.953  -8.933 -11.031  1.00  0.00     0.293 HD
ENDBRANCH   6  12
TORSDOF 3
ENDMDL
MODEL 4
REMARK VINA RESULT:    -5.612     12.383     13.368
REMARK INTER + INTRA:          -6.711
REMARK INTER:                  -6.447
REMARK INTRA:                  -0.264
REMARK UNBOUND:                -0.279
REMARK SMILES O=C([O-])C=Cc1ccc(O)cc1
REMARK SMILES IDX 6 1 7 2 12 3 8 4 11 5 9 6 5 7 4 8 2 9 1 10 3 11 10 12
REMARK H PARENT 10 13
REMARK Flexibility Score: inf
ROOT
ATOM      1  C   UNL     1       3.293  -6.832  -9.011  1.00  0.00    -0.025 A 
ATOM      2  C   UNL     1       4.360  -6.478  -8.166  1.00  0.00     0.012 A 
ATOM      3  C   UNL     1       3.536  -7.026 -10.379  1.00  0.00     0.012 A 
ATOM      4  C   UNL     1       5.637  -6.271  -8.694  1.00  0.00     0.047 A 
ATOM      5  C   UNL     1       4.815  -6.817 -10.905  1.00  0.00     0.047 A 
ATOM      6  C   UNL     1       5.868  -6.437 -10.067  1.00  0.00     0.115 A 
ENDROOT
BRANCH   1   7
ATOM      7  C   UNL     1       1.946  -7.109  -8.469  1.00  0.00     0.010 C 
ATOM      8  C   UNL     1       1.007  -6.185  -8.211  1.00  0.00     0.025 C 
BRANCH   8   9
ATOM      9  C   UNL     1       1.075  -4.758  -8.582  1.00  0.00     0.064 C 
ATOM     10  O   UNL     1       1.766  -3.938  -7.921  1.00  0.00    -0.545 OA
ATOM     11  O   UNL     1       0.418  -4.325  -9.726  1.00  0.00    -0.545 OA
ENDBRANCH   8   9
ENDBRANCH   1   7
BRANCH   6  12
ATOM     12  O   UNL     1       7.136  -6.232 -10.604  1.00  0.00    -0.508 OA
ATOM     13  H   UNL     1       7.266  -5.754 -11.490  1.00  0.00     0.293 HD
ENDBRANCH   6  12
TORSDOF 3
ENDMDL
MODEL 5
REMARK VINA RESULT:    -5.472      1.642      1.907
REMARK INTER + INTRA:          -6.550
REMARK INTER:                  -6.314
REMARK INTRA:                  -0.237
REMARK UNBOUND:                -0.279
REMARK SMILES O=C([O-])C=Cc1ccc(O)cc1
REMARK SMILES IDX 6 1 7 2 12 3 8 4 11 5 9 6 5 7 4 8 2 9 1 10 3 11 10 12
REMARK H PARENT 10 13
REMARK Flexibility Score: inf
ROOT
ATOM      1  C   UNL     1      -2.157   6.451 -10.882  1.00  0.00    -0.025 A 
ATOM      2  C   UNL     1      -3.536   6.251 -11.066  1.00  0.00     0.012 A 
ATOM      3  C   UNL     1      -1.250   5.546 -11.454  1.00  0.00     0.012 A 
ATOM      4  C   UNL     1      -3.999   5.133 -11.766  1.00  0.00     0.047 A 
ATOM      5  C   UNL     1      -1.715   4.427 -12.153  1.00  0.00     0.047 A 
ATOM      6  C   UNL     1      -3.088   4.216 -12.309  1.00  0.00     0.115 A 
ENDROOT
BRANCH   1   7
ATOM      7  C   UNL     1      -1.642   7.653 -10.193  1.00  0.00     0.010 C 
ATOM      8  C   UNL     1      -1.518   7.794  -8.864  1.00  0.00     0.025 C 
BRANCH   8   9
ATOM      9  C   UNL     1      -1.702   6.726  -7.862  1.00  0.00     0.064 C 
ATOM     10  O   UNL     1      -2.845   6.289  -7.566  1.00  0.00    -0.545 OA
ATOM     11  O   UNL     1      -0.583   6.140  -7.285  1.00  0.00    -0.545 OA
ENDBRANCH   8   9
ENDBRANCH   1   7
BRANCH   6  12
ATOM     12  O   UNL     1      -3.538   3.097 -13.007  1.00  0.00    -0.508 OA
ATOM     13  H   UNL     1      -4.148   3.185 -13.812  1.00  0.00     0.293 HD
ENDBRANCH   6  12
TORSDOF 3
ENDMDL
MODEL 6
REMARK VINA RESULT:    -5.317      1.672      4.771
REMARK INTER + INTRA:          -6.373
REMARK INTER:                  -6.345
REMARK INTRA:                  -0.029
REMARK UNBOUND:                -0.279
REMARK SMILES O=C([O-])C=Cc1ccc(O)cc1
REMARK SMILES IDX 6 1 7 2 12 3 8 4 11 5 9 6 5 7 4 8 2 9 1 10 3 11 10 12
REMARK H PARENT 10 13
REMARK Flexibility Score: inf
ROOT
ATOM      1  C   UNL     1      -3.042   6.147  -9.378  1.00  0.00    -0.025 A 
ATOM      2  C   UNL     1      -2.497   7.411  -9.095  1.00  0.00     0.012 A 
ATOM      3  C   UNL     1      -2.623   5.037  -8.629  1.00  0.00     0.012 A 
ATOM      4  C   UNL     1      -1.510   7.550  -8.115  1.00  0.00     0.047 A 
ATOM      5  C   UNL     1      -1.635   5.177  -7.649  1.00  0.00     0.047 A 
ATOM      6  C   UNL     1      -1.074   6.432  -7.391  1.00  0.00     0.115 A 
ENDROOT
BRANCH   1   7
ATOM      7  C   UNL     1      -4.124   5.983 -10.371  1.00  0.00     0.010 C 
ATOM      8  C   UNL     1      -3.983   5.443 -11.592  1.00  0.00     0.025 C 
BRANCH   8   9
ATOM      9  C   UNL     1      -2.779   4.756 -12.098  1.00  0.00     0.064 C 
ATOM     10  O   UNL     1      -2.841   3.605 -12.606  1.00  0.00    -0.545 OA
ATOM     11  O   UNL     1      -1.561   5.423 -12.078  1.00  0.00    -0.545 OA
ENDBRANCH   8   9
ENDBRANCH   1   7
BRANCH   6  12
ATOM     12  O   UNL     1      -0.090   6.557  -6.413  1.00  0.00    -0.508 OA
ATOM     13  H   UNL     1      -0.303   6.922  -5.491  1.00  0.00     0.293 HD
ENDBRANCH   6  12
TORSDOF 3
ENDMDL
MODEL 7
REMARK VINA RESULT:    -5.286     12.425     13.369
REMARK INTER + INTRA:          -6.337
REMARK INTER:                  -6.119
REMARK INTRA:                  -0.218
REMARK UNBOUND:                -0.279
REMARK SMILES O=C([O-])C=Cc1ccc(O)cc1
REMARK SMILES IDX 6 1 7 2 12 3 8 4 11 5 9 6 5 7 4 8 2 9 1 10 3 11 10 12
REMARK H PARENT 10 13
REMARK Flexibility Score: inf
ROOT
ATOM      1  C   UNL     1       4.582  -5.934  -8.139  1.00  0.00    -0.025 A 
ATOM      2  C   UNL     1       4.516  -4.586  -7.746  1.00  0.00     0.012 A 
ATOM      3  C   UNL     1       3.415  -6.580  -8.572  1.00  0.00     0.012 A 
ATOM      4  C   UNL     1       3.291  -3.913  -7.737  1.00  0.00     0.047 A 
ATOM      5  C   UNL     1       2.189  -5.906  -8.562  1.00  0.00     0.047 A 
ATOM      6  C   UNL     1       2.122  -4.574  -8.143  1.00  0.00     0.115 A 
ENDROOT
BRANCH   1   7
ATOM      7  C   UNL     1       5.873  -6.650  -8.208  1.00  0.00     0.010 C 
ATOM      8  C   UNL     1       6.643  -6.761  -9.302  1.00  0.00     0.025 C 
BRANCH   8   9
ATOM      9  C   UNL     1       6.438  -6.047 -10.578  1.00  0.00     0.064 C 
ATOM     10  O   UNL     1       5.505  -6.359 -11.364  1.00  0.00    -0.545 OA
ATOM     11  O   UNL     1       7.248  -4.962 -10.884  1.00  0.00    -0.545 OA
ENDBRANCH   8   9
ENDBRANCH   1   7
BRANCH   6  12
ATOM     12  O   UNL     1       0.895  -3.915  -8.136  1.00  0.00    -0.508 OA
ATOM     13  H   UNL     1       0.708  -3.149  -7.498  1.00  0.00     0.293 HD
ENDBRANCH   6  12
TORSDOF 3
ENDMDL
MODEL 8
REMARK VINA RESULT:    -5.172     17.738     18.932
REMARK INTER + INTRA:          -6.207
REMARK INTER:                  -6.501
REMARK INTRA:                   0.294
REMARK UNBOUND:                -0.279
REMARK SMILES O=C([O-])C=Cc1ccc(O)cc1
REMARK SMILES IDX 6 1 7 2 12 3 8 4 11 5 9 6 5 7 4 8 2 9 1 10 3 11 10 12
REMARK H PARENT 10 13
REMARK Flexibility Score: inf
ROOT
ATOM      1  C   UNL     1      12.568  -5.411 -13.011  1.00  0.00    -0.025 A 
ATOM      2  C   UNL     1      12.602  -4.050 -12.663  1.00  0.00     0.012 A 
ATOM      3  C   UNL     1      11.887  -6.315 -12.181  1.00  0.00     0.012 A 
ATOM      4  C   UNL     1      12.011  -3.611 -11.476  1.00  0.00     0.047 A 
ATOM      5  C   UNL     1      11.296  -5.874 -10.992  1.00  0.00     0.047 A 
ATOM      6  C   UNL     1      11.358  -4.523 -10.635  1.00  0.00     0.115 A 
ENDROOT
BRANCH   1   7
ATOM      7  C   UNL     1      13.139  -5.891 -14.287  1.00  0.00     0.010 C 
ATOM      8  C   UNL     1      14.231  -5.392 -14.887  1.00  0.00     0.025 C 
BRANCH   8   9
ATOM      9  C   UNL     1      15.159  -4.403 -14.305  1.00  0.00     0.064 C 
ATOM     10  O   UNL     1      16.125  -4.754 -13.578  1.00  0.00    -0.545 OA
ATOM     11  O   UNL     1      15.004  -3.060 -14.624  1.00  0.00    -0.545 OA
ENDBRANCH   8   9
ENDBRANCH   1   7
BRANCH   6  12
ATOM     12  O   UNL     1      10.766  -4.098  -9.448  1.00  0.00    -0.508 OA
ATOM     13  H   UNL     1      11.121  -3.298  -8.936  1.00  0.00     0.293 HD
ENDBRANCH   6  12
TORSDOF 3
ENDMDL
MODEL 9
REMARK VINA RESULT:    -5.149     13.602     14.644
REMARK INTER + INTRA:          -6.180
REMARK INTER:                  -5.911
REMARK INTRA:                  -0.269
REMARK UNBOUND:                -0.279
REMARK SMILES O=C([O-])C=Cc1ccc(O)cc1
REMARK SMILES IDX 6 1 7 2 12 3 8 4 11 5 9 6 5 7 4 8 2 9 1 10 3 11 10 12
REMARK H PARENT 10 13
REMARK Flexibility Score: inf
ROOT
ATOM      1  C   UNL     1       5.884  -6.368 -10.744  1.00  0.00    -0.025 A 
ATOM      2  C   UNL     1       5.995  -5.085 -11.306  1.00  0.00     0.012 A 
ATOM      3  C   UNL     1       7.030  -6.997 -10.236  1.00  0.00     0.012 A 
ATOM      4  C   UNL     1       7.243  -4.465 -11.406  1.00  0.00     0.047 A 
ATOM      5  C   UNL     1       8.280  -6.375 -10.337  1.00  0.00     0.047 A 
ATOM      6  C   UNL     1       8.391  -5.111 -10.924  1.00  0.00     0.115 A 
ENDROOT
BRANCH   1   7
ATOM      7  C   UNL     1       4.568  -7.022 -10.578  1.00  0.00     0.010 C 
ATOM      8  C   UNL     1       3.830  -7.010  -9.457  1.00  0.00     0.025 C 
BRANCH   8   9
ATOM      9  C   UNL     1       4.104  -6.204  -8.251  1.00  0.00     0.064 C 
ATOM     10  O   UNL     1       4.911  -6.595  -7.367  1.00  0.00    -0.545 OA
ATOM     11  O   UNL     1       3.513  -4.954  -8.125  1.00  0.00    -0.545 OA
ENDBRANCH   8   9
ENDBRANCH   1   7
BRANCH   6  12
ATOM     12  O   UNL     1       9.641  -4.504 -11.019  1.00  0.00    -0.508 OA
ATOM     13  H   UNL     1      10.007  -3.925 -10.272  1.00  0.00     0.293 HD
ENDBRANCH   6  12
TORSDOF 3
ENDMDL
