MODEL 1
REMARK VINA RESULT:    -3.282      0.000      0.000
REMARK INTER + INTRA:          -5.446
REMARK INTER:                  -4.433
REMARK INTRA:                  -1.014
REMARK UNBOUND:                -1.014
REMARK SMILES CC(=O)CCC=C(C)CCC=C(C)C
REMARK SMILES IDX 7 1 6 2 8 3 9 4 10 5 11 6 13 7 12 8 14 9 5 10 4 11 2 12 3 13
REMARK SMILES IDX 1 14
REMARK H PARENT
REMARK Flexibility Score: inf
ROOT
ATOM      1  C   UNL     1      60.837   3.230  32.235  1.00  0.00    -0.077 C 
ATOM      2  C   UNL     1      60.285   2.942  31.036  1.00  0.00    -0.028 C 
ATOM      3  C   UNL     1      60.391   2.529  33.496  1.00  0.00     0.039 C 
ENDROOT
BRANCH   1   4
ATOM      4  C   UNL     1      61.919   4.285  32.314  1.00  0.00     0.034 C 
BRANCH   4   5
ATOM      5  C   UNL     1      61.585   5.478  31.412  1.00  0.00     0.032 C 
BRANCH   5   6
ATOM      6  C   UNL     1      60.593   6.396  32.083  1.00  0.00    -0.028 C 
ATOM      7  C   UNL     1      59.012   6.365  30.141  1.00  0.00     0.039 C 
ATOM      8  C   UNL     1      59.420   6.784  31.534  1.00  0.00    -0.080 C 
ATOM      9  C   UNL     1      58.510   7.675  32.339  1.00  0.00     0.039 C 
ENDBRANCH   5   6
ENDBRANCH   4   5
ENDBRANCH   1   4
BRANCH   2  10
ATOM     10  C   UNL     1      59.201   1.907  30.855  1.00  0.00     0.035 C 
BRANCH  10  11
ATOM     11  C   UNL     1      59.658   0.783  29.920  1.00  0.00     0.079 C 
BRANCH  11  12
ATOM     12  C   UNL     1      59.960  -0.471  30.701  1.00  0.00     0.130 C 
ATOM     13  O   UNL     1      60.709  -1.309  30.225  1.00  0.00    -0.300 OA
ATOM     14  C   UNL     1      59.350  -0.716  32.049  1.00  0.00     0.087 C 
ENDBRANCH  11  12
ENDBRANCH  10  11
ENDBRANCH   2  10
TORSDOF 6
ENDMDL
MODEL 2
REMARK VINA RESULT:    -3.247      2.975      6.107
REMARK INTER + INTRA:          -5.400
REMARK INTER:                  -4.316
REMARK INTRA:                  -1.084
REMARK UNBOUND:                -1.014
REMARK SMILES CC(=O)CCC=C(C)CCC=C(C)C
REMARK SMILES IDX 7 1 6 2 8 3 9 4 10 5 11 6 13 7 12 8 14 9 5 10 4 11 2 12 3 13
REMARK SMILES IDX 1 14
REMARK H PARENT
REMARK Flexibility Score: inf
ROOT
ATOM      1  C   UNL     1      59.515   4.151  31.066  1.00  0.00    -0.077 C 
ATOM      2  C   UNL     1      60.859   4.085  30.946  1.00  0.00    -0.028 C 
ATOM      3  C   UNL     1      58.863   4.784  32.271  1.00  0.00     0.039 C 
ENDROOT
BRANCH   1   4
ATOM      4  C   UNL     1      58.648   3.568  29.972  1.00  0.00     0.034 C 
BRANCH   4   5
ATOM      5  C   UNL     1      57.965   2.280  30.445  1.00  0.00     0.032 C 
BRANCH   5   6
ATOM      6  C   UNL     1      58.768   1.069  30.041  1.00  0.00    -0.028 C 
ATOM      7  C   UNL     1      59.672   0.704  32.349  1.00  0.00     0.039 C 
ATOM      8  C   UNL     1      59.521   0.335  30.891  1.00  0.00    -0.080 C 
ATOM      9  C   UNL     1      60.240  -0.874  30.352  1.00  0.00     0.039 C 
ENDBRANCH   5   6
ENDBRANCH   4   5
ENDBRANCH   1   4
BRANCH   2  10
ATOM     10  C   UNL     1      61.808   4.637  31.982  1.00  0.00     0.035 C 
BRANCH  10  11
ATOM     11  C   UNL     1      62.858   5.550  31.343  1.00  0.00     0.079 C 
BRANCH  11  12
ATOM     12  C   UNL     1      62.404   6.987  31.370  1.00  0.00     0.130 C 
ATOM     13  O   UNL     1      62.830   7.767  30.534  1.00  0.00    -0.300 OA
ATOM     14  C   UNL     1      61.446   7.483  32.411  1.00  0.00     0.087 C 
ENDBRANCH  11  12
ENDBRANCH  10  11
ENDBRANCH   2  10
TORSDOF 6
ENDMDL
MODEL 3
REMARK VINA RESULT:    -3.178      1.672      2.650
REMARK INTER + INTRA:          -5.307
REMARK INTER:                  -4.802
REMARK INTRA:                  -0.505
REMARK UNBOUND:                -1.014
REMARK SMILES CC(=O)CCC=C(C)CCC=C(C)C
REMARK SMILES IDX 7 1 6 2 8 3 9 4 10 5 11 6 13 7 12 8 14 9 5 10 4 11 2 12 3 13
REMARK SMILES IDX 1 14
REMARK H PARENT
REMARK Flexibility Score: inf
ROOT
ATOM      1  C   UNL     1      59.758   2.118  30.883  1.00  0.00    -0.077 C 
ATOM      2  C   UNL     1      59.554   1.236  29.881  1.00  0.00    -0.028 C 
ATOM      3  C   UNL     1      59.594   1.716  32.330  1.00  0.00     0.039 C 
ENDROOT
BRANCH   1   4
ATOM      4  C   UNL     1      60.148   3.540  30.546  1.00  0.00     0.034 C 
BRANCH   4   5
ATOM      5  C   UNL     1      60.542   4.313  31.809  1.00  0.00     0.032 C 
BRANCH   5   6
ATOM      6  C   UNL     1      61.005   5.706  31.462  1.00  0.00    -0.028 C 
ATOM      7  C   UNL     1      63.428   5.145  31.757  1.00  0.00     0.039 C 
ATOM      8  C   UNL     1      62.301   6.089  31.410  1.00  0.00    -0.080 C 
ATOM      9  C   UNL     1      62.615   7.507  31.011  1.00  0.00     0.039 C 
ENDBRANCH   5   6
ENDBRANCH   4   5
ENDBRANCH   1   4
BRANCH   2  10
ATOM     10  C   UNL     1      59.162  -0.204  30.116  1.00  0.00     0.035 C 
BRANCH  10  11
ATOM     11  C   UNL     1      60.394  -1.086  30.334  1.00  0.00     0.079 C 
BRANCH  11  12
ATOM     12  C   UNL     1      60.197  -1.993  31.521  1.00  0.00     0.130 C 
ATOM     13  O   UNL     1      59.094  -2.470  31.736  1.00  0.00    -0.300 OA
ATOM     14  C   UNL     1      61.328  -2.318  32.452  1.00  0.00     0.087 C 
ENDBRANCH  11  12
ENDBRANCH  10  11
ENDBRANCH   2  10
TORSDOF 6
ENDMDL
MODEL 4
REMARK VINA RESULT:    -3.173      3.485      6.267
REMARK INTER + INTRA:          -5.300
REMARK INTER:                  -4.329
REMARK INTRA:                  -0.971
REMARK UNBOUND:                -1.014
REMARK SMILES CC(=O)CCC=C(C)CCC=C(C)C
REMARK SMILES IDX 7 1 6 2 8 3 9 4 10 5 11 6 13 7 12 8 14 9 5 10 4 11 2 12 3 13
REMARK SMILES IDX 1 14
REMARK H PARENT
REMARK Flexibility Score: inf
ROOT
ATOM      1  C   UNL     1      58.784   6.770  32.422  1.00  0.00    -0.077 C 
ATOM      2  C   UNL     1      59.883   7.542  32.562  1.00  0.00    -0.028 C 
ATOM      3  C   UNL     1      58.251   5.944  33.568  1.00  0.00     0.039 C 
ENDROOT
BRANCH   1   4
ATOM      4  C   UNL     1      58.081   6.725  31.083  1.00  0.00     0.034 C 
BRANCH   4   5
ATOM      5  C   UNL     1      59.026   6.224  29.986  1.00  0.00     0.032 C 
BRANCH   5   6
ATOM      6  C   UNL     1      58.972   4.720  29.879  1.00  0.00    -0.028 C 
ATOM      7  C   UNL     1      61.122   4.397  31.123  1.00  0.00     0.039 C 
ATOM      8  C   UNL     1      59.894   3.884  30.407  1.00  0.00    -0.080 C 
ATOM      9  C   UNL     1      59.689   2.399  30.253  1.00  0.00     0.039 C 
ENDBRANCH   5   6
ENDBRANCH   4   5
ENDBRANCH   1   4
BRANCH   2  10
ATOM     10  C   UNL     1      60.654   7.653  33.856  1.00  0.00     0.035 C 
BRANCH  10  11
ATOM     11  C   UNL     1      62.113   7.225  33.672  1.00  0.00     0.079 C 
BRANCH  11  12
ATOM     12  C   UNL     1      62.799   8.097  32.652  1.00  0.00     0.130 C 
ATOM     13  O   UNL     1      63.349   9.126  33.014  1.00  0.00    -0.300 OA
ATOM     14  C   UNL     1      62.813   7.735  31.197  1.00  0.00     0.087 C 
ENDBRANCH  11  12
ENDBRANCH  10  11
ENDBRANCH   2  10
TORSDOF 6
ENDMDL
MODEL 5
REMARK VINA RESULT:    -3.166      2.942      5.106
REMARK INTER + INTRA:          -5.290
REMARK INTER:                  -3.798
REMARK INTRA:                  -1.492
REMARK UNBOUND:                -1.014
REMARK SMILES CC(=O)CCC=C(C)CCC=C(C)C
REMARK SMILES IDX 7 1 6 2 8 3 9 4 10 5 11 6 13 7 12 8 14 9 5 10 4 11 2 12 3 13
REMARK SMILES IDX 1 14
REMARK H PARENT
REMARK Flexibility Score: inf
ROOT
ATOM      1  C   UNL     1      60.154   7.074  32.050  1.00  0.00    -0.077 C 
ATOM      2  C   UNL     1      61.085   6.864  31.094  1.00  0.00    -0.028 C 
ATOM      3  C   UNL     1      60.544   7.317  33.488  1.00  0.00     0.039 C 
ENDROOT
BRANCH   1   4
ATOM      4  C   UNL     1      58.689   7.055  31.670  1.00  0.00     0.034 C 
BRANCH   4   5
ATOM      5  C   UNL     1      58.309   5.715  31.031  1.00  0.00     0.032 C 
BRANCH   5   6
ATOM      6  C   UNL     1      58.408   4.595  32.037  1.00  0.00    -0.028 C 
ATOM      7  C   UNL     1      60.107   3.332  30.699  1.00  0.00     0.039 C 
ATOM      8  C   UNL     1      59.230   3.529  31.913  1.00  0.00    -0.080 C 
ATOM      9  C   UNL     1      59.249   2.505  33.018  1.00  0.00     0.039 C 
ENDBRANCH   5   6
ENDBRANCH   4   5
ENDBRANCH   1   4
BRANCH   2  10
ATOM     10  C   UNL     1      62.569   6.863  31.373  1.00  0.00     0.035 C 
BRANCH  10  11
ATOM     11  C   UNL     1      63.116   5.436  31.459  1.00  0.00     0.079 C 
BRANCH  11  12
ATOM     12  C   UNL     1      63.317   5.027  32.895  1.00  0.00     0.130 C 
ATOM     13  O   UNL     1      63.927   5.767  33.651  1.00  0.00    -0.300 OA
ATOM     14  C   UNL     1      62.793   3.721  33.416  1.00  0.00     0.087 C 
ENDBRANCH  11  12
ENDBRANCH  10  11
ENDBRANCH   2  10
TORSDOF 6
ENDMDL
MODEL 6
REMARK VINA RESULT:    -3.088      1.554      2.276
REMARK INTER + INTRA:          -5.185
REMARK INTER:                  -4.738
REMARK INTRA:                  -0.447
REMARK UNBOUND:                -1.014
REMARK SMILES CC(=O)CCC=C(C)CCC=C(C)C
REMARK SMILES IDX 7 1 6 2 8 3 9 4 10 5 11 6 13 7 12 8 14 9 5 10 4 11 2 12 3 13
REMARK SMILES IDX 1 14
REMARK H PARENT
REMARK Flexibility Score: inf
ROOT
ATOM      1  C   UNL     1      60.144   3.415  30.968  1.00  0.00    -0.077 C 
ATOM      2  C   UNL     1      60.104   2.164  31.478  1.00  0.00    -0.028 C 
ATOM      3  C   UNL     1      59.196   3.849  29.876  1.00  0.00     0.039 C 
ENDROOT
BRANCH   1   4
ATOM      4  C   UNL     1      61.167   4.395  31.498  1.00  0.00     0.034 C 
BRANCH   4   5
ATOM      5  C   UNL     1      60.599   5.818  31.524  1.00  0.00     0.032 C 
BRANCH   5   6
ATOM      6  C   UNL     1      61.373   6.687  32.484  1.00  0.00    -0.028 C 
ATOM      7  C   UNL     1      62.660   7.826  30.661  1.00  0.00     0.039 C 
ATOM      8  C   UNL     1      62.286   7.611  32.109  1.00  0.00    -0.080 C 
ATOM      9  C   UNL     1      62.955   8.434  33.180  1.00  0.00     0.039 C 
ENDBRANCH   5   6
ENDBRANCH   4   5
ENDBRANCH   1   4
BRANCH   2  10
ATOM     10  C   UNL     1      59.121   1.116  31.015  1.00  0.00     0.035 C 
BRANCH  10  11
ATOM     11  C   UNL     1      59.742   0.205  29.951  1.00  0.00     0.079 C 
BRANCH  11  12
ATOM     12  C   UNL     1      60.039  -1.157  30.523  1.00  0.00     0.130 C 
ATOM     13  O   UNL     1      61.152  -1.638  30.384  1.00  0.00    -0.300 OA
ATOM     14  C   UNL     1      58.990  -1.943  31.253  1.00  0.00     0.087 C 
ENDBRANCH  11  12
ENDBRANCH  10  11
ENDBRANCH   2  10
TORSDOF 6
ENDMDL
MODEL 7
REMARK VINA RESULT:    -2.974     11.003     12.980
REMARK INTER + INTRA:          -5.030
REMARK INTER:                  -3.592
REMARK INTRA:                  -1.438
REMARK UNBOUND:                -1.014
REMARK SMILES CC(=O)CCC=C(C)CCC=C(C)C
REMARK SMILES IDX 7 1 6 2 8 3 9 4 10 5 11 6 13 7 12 8 14 9 5 10 4 11 2 12 3 13
REMARK SMILES IDX 1 14
REMARK H PARENT
REMARK Flexibility Score: inf
ROOT
ATOM      1  C   UNL     1      68.719  -1.646  37.066  1.00  0.00    -0.077 C 
ATOM      2  C   UNL     1      69.819  -2.018  37.755  1.00  0.00    -0.028 C 
ATOM      3  C   UNL     1      68.198  -0.230  37.120  1.00  0.00     0.039 C 
ENDROOT
BRANCH   1   4
ATOM      4  C   UNL     1      67.987  -2.676  36.233  1.00  0.00     0.034 C 
BRANCH   4   5
ATOM      5  C   UNL     1      68.055  -2.322  34.744  1.00  0.00     0.032 C 
BRANCH   5   6
ATOM      6  C   UNL     1      69.401  -2.688  34.167  1.00  0.00    -0.028 C 
ATOM      7  C   UNL     1      70.087  -0.302  33.841  1.00  0.00     0.039 C 
ATOM      8  C   UNL     1      70.335  -1.791  33.779  1.00  0.00    -0.080 C 
ATOM      9  C   UNL     1      71.651  -2.305  33.256  1.00  0.00     0.039 C 
ENDBRANCH   5   6
ENDBRANCH   4   5
ENDBRANCH   1   4
BRANCH   2  10
ATOM     10  C   UNL     1      70.616  -1.065  38.614  1.00  0.00     0.035 C 
BRANCH  10  11
ATOM     11  C   UNL     1      72.081  -1.013  38.172  1.00  0.00     0.079 C 
BRANCH  11  12
ATOM     12  C   UNL     1      72.245  -0.119  36.970  1.00  0.00     0.130 C 
ATOM     13  O   UNL     1      72.906  -0.506  36.019  1.00  0.00    -0.300 OA
ATOM     14  C   UNL     1      71.621   1.244  36.919  1.00  0.00     0.087 C 
ENDBRANCH  11  12
ENDBRANCH  10  11
ENDBRANCH   2  10
TORSDOF 6
ENDMDL
MODEL 8
REMARK VINA RESULT:    -2.957      2.969      4.745
REMARK INTER + INTRA:          -5.007
REMARK INTER:                  -3.765
REMARK INTRA:                  -1.242
REMARK UNBOUND:                -1.014
REMARK SMILES CC(=O)CCC=C(C)CCC=C(C)C
REMARK SMILES IDX 7 1 6 2 8 3 9 4 10 5 11 6 13 7 12 8 14 9 5 10 4 11 2 12 3 13
REMARK SMILES IDX 1 14
REMARK H PARENT
REMARK Flexibility Score: inf
ROOT
ATOM      1  C   UNL     1      61.232   6.891  31.955  1.00  0.00    -0.077 C 
ATOM      2  C   UNL     1      60.321   6.582  31.006  1.00  0.00    -0.028 C 
ATOM      3  C   UNL     1      60.811   7.368  33.324  1.00  0.00     0.039 C 
ENDROOT
BRANCH   1   4
ATOM      4  C   UNL     1      62.705   6.764  31.632  1.00  0.00     0.034 C 
BRANCH   4   5
ATOM      5  C   UNL     1      63.072   5.311  31.314  1.00  0.00     0.032 C 
BRANCH   5   6
ATOM      6  C   UNL     1      63.767   4.666  32.488  1.00  0.00    -0.028 C 
ATOM      7  C   UNL     1      61.713   3.438  33.230  1.00  0.00     0.039 C 
ATOM      8  C   UNL     1      63.175   3.802  33.344  1.00  0.00    -0.080 C 
ATOM      9  C   UNL     1      64.006   3.206  34.450  1.00  0.00     0.039 C 
ENDBRANCH   5   6
ENDBRANCH   4   5
ENDBRANCH   1   4
BRANCH   2  10
ATOM     10  C   UNL     1      58.831   6.676  31.231  1.00  0.00     0.035 C 
BRANCH  10  11
ATOM     11  C   UNL     1      58.129   5.369  30.853  1.00  0.00     0.079 C 
BRANCH  11  12
ATOM     12  C   UNL     1      58.253   4.357  31.963  1.00  0.00     0.130 C 
ATOM     13  O   UNL     1      58.495   3.192  31.690  1.00  0.00    -0.300 OA
ATOM     14  C   UNL     1      58.075   4.748  33.401  1.00  0.00     0.087 C 
ENDBRANCH  11  12
ENDBRANCH  10  11
ENDBRANCH   2  10
TORSDOF 6
ENDMDL
