MODEL 1
REMARK VINA RESULT:    13.237      0.000      0.000
REMARK INTER + INTRA:          33.861
REMARK INTER:                  34.905
REMARK INTRA:                  -1.045
REMARK UNBOUND:                -1.045
REMARK SMILES CCCCCCCCCCCCCCCCCCCCCCCCCCCCCC(=O)[O-]
REMARK SMILES IDX 16 1 17 2 18 3 19 4 20 5 21 6 22 7 23 8 24 9 25 10 26 11
REMARK SMILES IDX 27 12 28 13 29 14 30 15 31 16 32 17 15 18 14 19 13 20 12 21
REMARK SMILES IDX 11 22 10 23 9 24 8 25 7 26 6 27 5 28 4 29 3 30 2 31 1 32
REMARK H PARENT
REMARK Flexibility Score: inf
ROOT
ATOM      1  C   UNL     1      -6.122  37.615  23.764  1.00  0.00     0.000 C 
ENDROOT
BRANCH   1   2
ATOM      2  C   UNL     1      -5.120  36.493  24.097  1.00  0.00     0.000 C 
BRANCH   2   3
ATOM      3  C   UNL     1      -5.184  36.045  25.569  1.00  0.00     0.000 C 
BRANCH   3   4
ATOM      4  C   UNL     1      -5.527  37.158  26.576  1.00  0.00     0.000 C 
BRANCH   4   5
ATOM      5  C   UNL     1      -4.359  38.122  26.830  1.00  0.00     0.000 C 
BRANCH   5   6
ATOM      6  C   UNL     1      -3.029  37.489  26.403  1.00  0.00     0.000 C 
BRANCH   6   7
ATOM      7  C   UNL     1      -2.171  37.120  27.620  1.00  0.00     0.000 C 
BRANCH   7   8
ATOM      8  C   UNL     1      -1.803  35.629  27.597  1.00  0.00     0.000 C 
BRANCH   8   9
ATOM      9  C   UNL     1      -1.968  34.945  28.966  1.00  0.00     0.000 C 
BRANCH   9  10
ATOM     10  C   UNL     1      -0.812  34.012  29.376  1.00  0.00     0.000 C 
BRANCH  10  11
ATOM     11  C   UNL     1       0.568  34.552  28.962  1.00  0.00     0.000 C 
BRANCH  11  12
ATOM     12  C   UNL     1       1.661  33.473  29.002  1.00  0.00     0.000 C 
BRANCH  12  13
ATOM     13  C   UNL     1       2.665  33.690  30.147  1.00  0.00     0.006 C 
BRANCH  13  14
ATOM     14  C   UNL     1       3.520  32.444  30.413  1.00  0.00     0.053 C 
BRANCH  14  15
ATOM     15  C   UNL     1       2.744  31.179  30.205  1.00  0.00     0.041 C 
ATOM     16  O   UNL     1       1.487  31.209  30.144  1.00  0.00    -0.550 OA
ATOM     17  O   UNL     1       3.410  29.963  30.117  1.00  0.00    -0.550 OA
ENDBRANCH  14  15
ENDBRANCH  13  14
ENDBRANCH  12  13
ENDBRANCH  11  12
ENDBRANCH  10  11
ENDBRANCH   9  10
ENDBRANCH   8   9
ENDBRANCH   7   8
ENDBRANCH   6   7
ENDBRANCH   5   6
ENDBRANCH   4   5
ENDBRANCH   3   4
ENDBRANCH   2   3
ENDBRANCH   1   2
BRANCH   1  18
ATOM     18  C   UNL     1      -5.466  39.012  23.773  1.00  0.00     0.000 C 
BRANCH  18  19
ATOM     19  C   UNL     1      -6.007  39.958  22.686  1.00  0.00     0.000 C 
BRANCH  19  20
ATOM     20  C   UNL     1      -5.138  39.961  21.418  1.00  0.00     0.000 C 
BRANCH  20  21
ATOM     21  C   UNL     1      -5.832  39.312  20.208  1.00  0.00     0.000 C 
BRANCH  21  22
ATOM     22  C   UNL     1      -5.996  37.781  20.277  1.00  0.00     0.000 C 
BRANCH  22  23
ATOM     23  C   UNL     1      -4.715  36.986  19.942  1.00  0.00     0.000 C 
BRANCH  23  24
ATOM     24  C   UNL     1      -4.753  35.543  20.484  1.00  0.00    -0.000 C 
BRANCH  24  25
ATOM     25  C   UNL     1      -5.357  34.546  19.478  1.00  0.00    -0.000 C 
BRANCH  25  26
ATOM     26  C   UNL     1      -5.124  34.973  18.020  1.00  0.00    -0.000 C 
BRANCH  26  27
ATOM     27  C   UNL     1      -3.915  34.242  17.413  1.00  0.00    -0.000 C 
BRANCH  27  28
ATOM     28  C   UNL     1      -3.209  35.067  16.324  1.00  0.00    -0.000 C 
BRANCH  28  29
ATOM     29  C   UNL     1      -4.060  36.252  15.829  1.00  0.00    -0.000 C 
BRANCH  29  30
ATOM     30  C   UNL     1      -4.003  36.421  14.302  1.00  0.00    -0.000 C 
BRANCH  30  31
ATOM     31  C   UNL     1      -3.642  37.852  13.875  1.00  0.00    -0.003 C 
ATOM     32  C   UNL     1      -4.863  38.769  13.949  1.00  0.00     0.004 C 
ENDBRANCH  30  31
ENDBRANCH  29  30
ENDBRANCH  28  29
ENDBRANCH  27  28
ENDBRANCH  26  27
ENDBRANCH  25  26
ENDBRANCH  24  25
ENDBRANCH  23  24
ENDBRANCH  22  23
ENDBRANCH  21  22
ENDBRANCH  20  21
ENDBRANCH  19  20
ENDBRANCH  18  19
ENDBRANCH   1  18
TORSDOF 28
ENDMDL
MODEL 2
REMARK VINA RESULT:    13.313      1.946      2.516
REMARK INTER + INTRA:          34.061
REMARK INTER:                  34.519
REMARK INTRA:                  -0.459
REMARK UNBOUND:                -1.045
REMARK SMILES CCCCCCCCCCCCCCCCCCCCCCCCCCCCCC(=O)[O-]
REMARK SMILES IDX 16 1 17 2 18 3 19 4 20 5 21 6 22 7 23 8 24 9 25 10 26 11
REMARK SMILES IDX 27 12 28 13 29 14 30 15 31 16 32 17 15 18 14 19 13 20 12 21
REMARK SMILES IDX 11 22 10 23 9 24 8 25 7 26 6 27 5 28 4 29 3 30 2 31 1 32
REMARK H PARENT
REMARK Flexibility Score: inf
ROOT
ATOM      1  C   UNL     1      -6.074  36.055  23.945  1.00  0.00     0.000 C 
ENDROOT
BRANCH   1   2
ATOM      2  C   UNL     1      -5.863  36.541  25.392  1.00  0.00     0.000 C 
BRANCH   2   3
ATOM      3  C   UNL     1      -4.410  36.376  25.877  1.00  0.00     0.000 C 
BRANCH   3   4
ATOM      4  C   UNL     1      -3.598  37.681  25.959  1.00  0.00     0.000 C 
BRANCH   4   5
ATOM      5  C   UNL     1      -2.935  37.893  27.328  1.00  0.00     0.000 C 
BRANCH   5   6
ATOM      6  C   UNL     1      -1.468  37.451  27.296  1.00  0.00     0.000 C 
BRANCH   6   7
ATOM      7  C   UNL     1      -1.338  35.931  27.461  1.00  0.00     0.000 C 
BRANCH   7   8
ATOM      8  C   UNL     1      -2.131  35.444  28.683  1.00  0.00     0.000 C 
BRANCH   8   9
ATOM      9  C   UNL     1      -1.263  34.684  29.702  1.00  0.00     0.000 C 
BRANCH   9  10
ATOM     10  C   UNL     1      -0.856  33.259  29.282  1.00  0.00     0.000 C 
BRANCH  10  11
ATOM     11  C   UNL     1       0.656  33.005  29.413  1.00  0.00     0.000 C 
BRANCH  11  12
ATOM     12  C   UNL     1       1.496  34.247  29.077  1.00  0.00     0.000 C 
BRANCH  12  13
ATOM     13  C   UNL     1       2.942  33.896  28.690  1.00  0.00     0.006 C 
BRANCH  13  14
ATOM     14  C   UNL     1       3.901  35.076  28.894  1.00  0.00     0.053 C 
BRANCH  14  15
ATOM     15  C   UNL     1       4.691  35.374  27.656  1.00  0.00     0.041 C 
ATOM     16  O   UNL     1       5.411  34.484  27.134  1.00  0.00    -0.550 OA
ATOM     17  O   UNL     1       4.662  36.649  27.103  1.00  0.00    -0.550 OA
ENDBRANCH  14  15
ENDBRANCH  13  14
ENDBRANCH  12  13
ENDBRANCH  11  12
ENDBRANCH  10  11
ENDBRANCH   9  10
ENDBRANCH   8   9
ENDBRANCH   7   8
ENDBRANCH   6   7
ENDBRANCH   5   6
ENDBRANCH   4   5
ENDBRANCH   3   4
ENDBRANCH   2   3
ENDBRANCH   1   2
BRANCH   1  18
ATOM     18  C   UNL     1      -5.779  37.158  22.906  1.00  0.00     0.000 C 
BRANCH  18  19
ATOM     19  C   UNL     1      -6.125  38.577  23.392  1.00  0.00     0.000 C 
BRANCH  19  20
ATOM     20  C   UNL     1      -5.250  39.658  22.735  1.00  0.00     0.000 C 
BRANCH  20  21
ATOM     21  C   UNL     1      -5.931  40.341  21.537  1.00  0.00     0.000 C 
BRANCH  21  22
ATOM     22  C   UNL     1      -5.892  39.555  20.212  1.00  0.00     0.000 C 
BRANCH  22  23
ATOM     23  C   UNL     1      -6.048  38.027  20.370  1.00  0.00     0.000 C 
BRANCH  23  24
ATOM     24  C   UNL     1      -5.110  37.235  19.438  1.00  0.00    -0.000 C 
BRANCH  24  25
ATOM     25  C   UNL     1      -4.514  35.987  20.116  1.00  0.00    -0.000 C 
BRANCH  25  26
ATOM     26  C   UNL     1      -5.395  34.742  19.924  1.00  0.00    -0.000 C 
BRANCH  26  27
ATOM     27  C   UNL     1      -5.584  34.418  18.433  1.00  0.00    -0.000 C 
BRANCH  27  28
ATOM     28  C   UNL     1      -4.254  34.389  17.660  1.00  0.00    -0.000 C 
BRANCH  28  29
ATOM     29  C   UNL     1      -4.133  35.533  16.637  1.00  0.00    -0.000 C 
BRANCH  29  30
ATOM     30  C   UNL     1      -3.062  35.259  15.570  1.00  0.00    -0.000 C 
BRANCH  30  31
ATOM     31  C   UNL     1      -2.667  36.519  14.785  1.00  0.00    -0.003 C 
ATOM     32  C   UNL     1      -3.812  36.983  13.884  1.00  0.00     0.004 C 
ENDBRANCH  30  31
ENDBRANCH  29  30
ENDBRANCH  28  29
ENDBRANCH  27  28
ENDBRANCH  26  27
ENDBRANCH  25  26
ENDBRANCH  24  25
ENDBRANCH  23  24
ENDBRANCH  22  23
ENDBRANCH  21  22
ENDBRANCH  20  21
ENDBRANCH  19  20
ENDBRANCH  18  19
ENDBRANCH   1  18
TORSDOF 28
ENDMDL
MODEL 3
REMARK VINA RESULT:    13.695      1.294      1.711
REMARK INTER + INTRA:          35.068
REMARK INTER:                  32.776
REMARK INTRA:                   2.292
REMARK UNBOUND:                -1.045
REMARK SMILES CCCCCCCCCCCCCCCCCCCCCCCCCCCCCC(=O)[O-]
REMARK SMILES IDX 16 1 17 2 18 3 19 4 20 5 21 6 22 7 23 8 24 9 25 10 26 11
REMARK SMILES IDX 27 12 28 13 29 14 30 15 31 16 32 17 15 18 14 19 13 20 12 21
REMARK SMILES IDX 11 22 10 23 9 24 8 25 7 26 6 27 5 28 4 29 3 30 2 31 1 32
REMARK H PARENT
REMARK Flexibility Score: inf
ROOT
ATOM      1  C   UNL     1      -6.125  37.274  23.712  1.00  0.00     0.000 C 
ENDROOT
BRANCH   1   2
ATOM      2  C   UNL     1      -5.597  35.892  23.283  1.00  0.00     0.000 C 
BRANCH   2   3
ATOM      3  C   UNL     1      -5.523  34.887  24.447  1.00  0.00     0.000 C 
BRANCH   3   4
ATOM      4  C   UNL     1      -5.715  35.497  25.848  1.00  0.00     0.000 C 
BRANCH   4   5
ATOM      5  C   UNL     1      -5.349  36.987  25.911  1.00  0.00     0.000 C 
BRANCH   5   6
ATOM      6  C   UNL     1      -3.830  37.178  25.837  1.00  0.00     0.000 C 
BRANCH   6   7
ATOM      7  C   UNL     1      -3.231  37.442  27.224  1.00  0.00     0.000 C 
BRANCH   7   8
ATOM      8  C   UNL     1      -1.710  37.230  27.213  1.00  0.00     0.000 C 
BRANCH   8   9
ATOM      9  C   UNL     1      -1.282  35.893  27.843  1.00  0.00     0.000 C 
BRANCH   9  10
ATOM     10  C   UNL     1      -2.373  35.174  28.659  1.00  0.00     0.000 C 
BRANCH  10  11
ATOM     11  C   UNL     1      -1.805  34.107  29.610  1.00  0.00     0.000 C 
BRANCH  11  12
ATOM     12  C   UNL     1      -0.587  33.378  29.022  1.00  0.00     0.000 C 
BRANCH  12  13
ATOM     13  C   UNL     1       0.738  34.098  29.326  1.00  0.00     0.006 C 
BRANCH  13  14
ATOM     14  C   UNL     1       1.860  33.119  29.693  1.00  0.00     0.053 C 
BRANCH  14  15
ATOM     15  C   UNL     1       3.214  33.748  29.562  1.00  0.00     0.041 C 
ATOM     16  O   UNL     1       3.332  34.904  29.079  1.00  0.00    -0.550 OA
ATOM     17  O   UNL     1       4.349  33.038  29.936  1.00  0.00    -0.550 OA
ENDBRANCH  14  15
ENDBRANCH  13  14
ENDBRANCH  12  13
ENDBRANCH  11  12
ENDBRANCH  10  11
ENDBRANCH   9  10
ENDBRANCH   8   9
ENDBRANCH   7   8
ENDBRANCH   6   7
ENDBRANCH   5   6
ENDBRANCH   4   5
ENDBRANCH   3   4
ENDBRANCH   2   3
ENDBRANCH   1   2
BRANCH   1  18
ATOM     18  C   UNL     1      -5.086  38.395  23.489  1.00  0.00     0.000 C 
BRANCH  18  19
ATOM     19  C   UNL     1      -5.702  39.729  23.030  1.00  0.00     0.000 C 
BRANCH  19  20
ATOM     20  C   UNL     1      -5.132  40.213  21.686  1.00  0.00     0.000 C 
BRANCH  20  21
ATOM     21  C   UNL     1      -6.122  40.055  20.519  1.00  0.00     0.000 C 
BRANCH  21  22
ATOM     22  C   UNL     1      -6.060  38.709  19.770  1.00  0.00     0.000 C 
BRANCH  22  23
ATOM     23  C   UNL     1      -4.942  37.760  20.254  1.00  0.00     0.000 C 
BRANCH  23  24
ATOM     24  C   UNL     1      -5.391  36.286  20.298  1.00  0.00    -0.000 C 
BRANCH  24  25
ATOM     25  C   UNL     1      -5.437  35.637  18.902  1.00  0.00    -0.000 C 
BRANCH  25  26
ATOM     26  C   UNL     1      -4.060  35.125  18.451  1.00  0.00    -0.000 C 
BRANCH  26  27
ATOM     27  C   UNL     1      -4.107  34.605  17.005  1.00  0.00    -0.000 C 
BRANCH  27  28
ATOM     28  C   UNL     1      -2.830  34.939  16.214  1.00  0.00    -0.000 C 
BRANCH  28  29
ATOM     29  C   UNL     1      -3.120  35.338  14.755  1.00  0.00    -0.000 C 
BRANCH  29  30
ATOM     30  C   UNL     1      -2.414  36.642  14.350  1.00  0.00    -0.000 C 
BRANCH  30  31
ATOM     31  C   UNL     1      -3.399  37.758  13.972  1.00  0.00    -0.003 C 
ATOM     32  C   UNL     1      -4.839  37.345  14.279  1.00  0.00     0.004 C 
ENDBRANCH  30  31
ENDBRANCH  29  30
ENDBRANCH  28  29
ENDBRANCH  27  28
ENDBRANCH  26  27
ENDBRANCH  25  26
ENDBRANCH  24  25
ENDBRANCH  23  24
ENDBRANCH  22  23
ENDBRANCH  21  22
ENDBRANCH  20  21
ENDBRANCH  19  20
ENDBRANCH  18  19
ENDBRANCH   1  18
TORSDOF 28
ENDMDL
MODEL 4
REMARK VINA RESULT:    14.392      2.023      2.423
REMARK INTER + INTRA:          36.906
REMARK INTER:                  38.150
REMARK INTRA:                  -1.244
REMARK UNBOUND:                -1.045
REMARK SMILES CCCCCCCCCCCCCCCCCCCCCCCCCCCCCC(=O)[O-]
REMARK SMILES IDX 16 1 17 2 18 3 19 4 20 5 21 6 22 7 23 8 24 9 25 10 26 11
REMARK SMILES IDX 27 12 28 13 29 14 30 15 31 16 32 17 15 18 14 19 13 20 12 21
REMARK SMILES IDX 11 22 10 23 9 24 8 25 7 26 6 27 5 28 4 29 3 30 2 31 1 32
REMARK H PARENT
REMARK Flexibility Score: inf
ROOT
ATOM      1  C   UNL     1      -6.123  38.098  23.623  1.00  0.00     0.000 C 
ENDROOT
BRANCH   1   2
ATOM      2  C   UNL     1      -6.028  36.587  23.339  1.00  0.00     0.000 C 
BRANCH   2   3
ATOM      3  C   UNL     1      -5.134  35.839  24.346  1.00  0.00     0.000 C 
BRANCH   3   4
ATOM      4  C   UNL     1      -5.109  36.437  25.765  1.00  0.00     0.000 C 
BRANCH   4   5
ATOM      5  C   UNL     1      -4.283  37.727  25.861  1.00  0.00     0.000 C 
BRANCH   5   6
ATOM      6  C   UNL     1      -3.117  37.555  26.842  1.00  0.00     0.000 C 
BRANCH   6   7
ATOM      7  C   UNL     1      -3.168  36.188  27.536  1.00  0.00     0.000 C 
BRANCH   7   8
ATOM      8  C   UNL     1      -1.751  35.652  27.791  1.00  0.00     0.000 C 
BRANCH   8   9
ATOM      9  C   UNL     1      -1.684  34.657  28.964  1.00  0.00     0.000 C 
BRANCH   9  10
ATOM     10  C   UNL     1      -0.545  33.623  28.883  1.00  0.00     0.000 C 
BRANCH  10  11
ATOM     11  C   UNL     1       0.627  33.948  29.825  1.00  0.00     0.000 C 
BRANCH  11  12
ATOM     12  C   UNL     1       1.995  33.764  29.153  1.00  0.00     0.000 C 
BRANCH  12  13
ATOM     13  C   UNL     1       2.231  34.761  28.006  1.00  0.00     0.006 C 
BRANCH  13  14
ATOM     14  C   UNL     1       3.392  34.338  27.097  1.00  0.00     0.053 C 
BRANCH  14  15
ATOM     15  C   UNL     1       4.601  35.200  27.299  1.00  0.00     0.041 C 
ATOM     16  O   UNL     1       5.079  35.362  28.452  1.00  0.00    -0.550 OA
ATOM     17  O   UNL     1       5.175  35.856  26.216  1.00  0.00    -0.550 OA
ENDBRANCH  14  15
ENDBRANCH  13  14
ENDBRANCH  12  13
ENDBRANCH  11  12
ENDBRANCH  10  11
ENDBRANCH   9  10
ENDBRANCH   8   9
ENDBRANCH   7   8
ENDBRANCH   6   7
ENDBRANCH   5   6
ENDBRANCH   4   5
ENDBRANCH   3   4
ENDBRANCH   2   3
ENDBRANCH   1   2
BRANCH   1  18
ATOM     18  C   UNL     1      -5.259  38.934  22.655  1.00  0.00     0.000 C 
BRANCH  18  19
ATOM     19  C   UNL     1      -5.910  39.159  21.279  1.00  0.00     0.000 C 
BRANCH  19  20
ATOM     20  C   UNL     1      -5.017  38.694  20.117  1.00  0.00     0.000 C 
BRANCH  20  21
ATOM     21  C   UNL     1      -5.616  37.515  19.330  1.00  0.00     0.000 C 
BRANCH  21  22
ATOM     22  C   UNL     1      -5.670  36.171  20.082  1.00  0.00     0.000 C 
BRANCH  22  23
ATOM     23  C   UNL     1      -4.415  35.289  19.905  1.00  0.00     0.000 C 
BRANCH  23  24
ATOM     24  C   UNL     1      -4.683  34.045  19.034  1.00  0.00    -0.000 C 
BRANCH  24  25
ATOM     25  C   UNL     1      -4.458  34.310  17.534  1.00  0.00    -0.000 C 
BRANCH  25  26
ATOM     26  C   UNL     1      -3.684  35.614  17.281  1.00  0.00    -0.000 C 
BRANCH  26  27
ATOM     27  C   UNL     1      -2.586  35.413  16.223  1.00  0.00    -0.000 C 
BRANCH  27  28
ATOM     28  C   UNL     1      -2.970  35.997  14.853  1.00  0.00    -0.000 C 
BRANCH  28  29
ATOM     29  C   UNL     1      -4.474  36.307  14.737  1.00  0.00    -0.000 C 
BRANCH  29  30
ATOM     30  C   UNL     1      -4.756  37.549  13.875  1.00  0.00    -0.000 C 
BRANCH  30  31
ATOM     31  C   UNL     1      -4.237  38.846  14.513  1.00  0.00    -0.003 C 
ATOM     32  C   UNL     1      -5.044  40.052  14.033  1.00  0.00     0.004 C 
ENDBRANCH  30  31
ENDBRANCH  29  30
ENDBRANCH  28  29
ENDBRANCH  27  28
ENDBRANCH  26  27
ENDBRANCH  25  26
ENDBRANCH  24  25
ENDBRANCH  23  24
ENDBRANCH  22  23
ENDBRANCH  21  22
ENDBRANCH  20  21
ENDBRANCH  19  20
ENDBRANCH  18  19
ENDBRANCH   1  18
TORSDOF 28
ENDMDL
MODEL 5
REMARK VINA RESULT:    14.404      4.699     12.442
REMARK INTER + INTRA:          36.937
REMARK INTER:                  37.328
REMARK INTRA:                  -0.391
REMARK UNBOUND:                -1.045
REMARK SMILES CCCCCCCCCCCCCCCCCCCCCCCCCCCCCC(=O)[O-]
REMARK SMILES IDX 16 1 17 2 18 3 19 4 20 5 21 6 22 7 23 8 24 9 25 10 26 11
REMARK SMILES IDX 27 12 28 13 29 14 30 15 31 16 32 17 15 18 14 19 13 20 12 21
REMARK SMILES IDX 11 22 10 23 9 24 8 25 7 26 6 27 5 28 4 29 3 30 2 31 1 32
REMARK H PARENT
REMARK Flexibility Score: inf
ROOT
ATOM      1  C   UNL     1      -5.395  37.089  25.021  1.00  0.00     0.000 C 
ENDROOT
BRANCH   1   2
ATOM      2  C   UNL     1      -6.032  37.443  23.663  1.00  0.00     0.000 C 
BRANCH   2   3
ATOM      3  C   UNL     1      -5.996  38.952  23.357  1.00  0.00     0.000 C 
BRANCH   3   4
ATOM      4  C   UNL     1      -4.871  39.398  22.405  1.00  0.00     0.000 C 
BRANCH   4   5
ATOM      5  C   UNL     1      -5.382  39.797  21.013  1.00  0.00     0.000 C 
BRANCH   5   6
ATOM      6  C   UNL     1      -6.125  38.630  20.351  1.00  0.00     0.000 C 
BRANCH   6   7
ATOM      7  C   UNL     1      -5.165  37.489  19.991  1.00  0.00     0.000 C 
BRANCH   7   8
ATOM      8  C   UNL     1      -5.201  36.387  21.060  1.00  0.00     0.000 C 
BRANCH   8   9
ATOM      9  C   UNL     1      -4.845  34.995  20.505  1.00  0.00     0.000 C 
BRANCH   9  10
ATOM     10  C   UNL     1      -3.931  34.999  19.265  1.00  0.00     0.000 C 
BRANCH  10  11
ATOM     11  C   UNL     1      -4.705  35.199  17.951  1.00  0.00     0.000 C 
BRANCH  11  12
ATOM     12  C   UNL     1      -3.993  34.572  16.743  1.00  0.00     0.000 C 
BRANCH  12  13
ATOM     13  C   UNL     1      -3.089  35.572  16.003  1.00  0.00     0.006 C 
BRANCH  13  14
ATOM     14  C   UNL     1      -3.580  35.855  14.578  1.00  0.00     0.053 C 
BRANCH  14  15
ATOM     15  C   UNL     1      -4.079  37.261  14.429  1.00  0.00     0.041 C 
ATOM     16  O   UNL     1      -3.382  38.227  14.833  1.00  0.00    -0.550 OA
ATOM     17  O   UNL     1      -5.333  37.497  13.878  1.00  0.00    -0.550 OA
ENDBRANCH  14  15
ENDBRANCH  13  14
ENDBRANCH  12  13
ENDBRANCH  11  12
ENDBRANCH  10  11
ENDBRANCH   9  10
ENDBRANCH   8   9
ENDBRANCH   7   8
ENDBRANCH   6   7
ENDBRANCH   5   6
ENDBRANCH   4   5
ENDBRANCH   3   4
ENDBRANCH   2   3
ENDBRANCH   1   2
BRANCH   1  18
ATOM     18  C   UNL     1      -4.473  38.209  25.549  1.00  0.00     0.000 C 
BRANCH  18  19
ATOM     19  C   UNL     1      -3.826  37.891  26.908  1.00  0.00     0.000 C 
BRANCH  19  20
ATOM     20  C   UNL     1      -2.315  37.625  26.796  1.00  0.00     0.000 C 
BRANCH  20  21
ATOM     21  C   UNL     1      -1.762  36.790  27.964  1.00  0.00     0.000 C 
BRANCH  21  22
ATOM     22  C   UNL     1      -1.645  35.276  27.703  1.00  0.00     0.000 C 
BRANCH  22  23
ATOM     23  C   UNL     1      -2.358  34.391  28.749  1.00  0.00     0.000 C 
BRANCH  23  24
ATOM     24  C   UNL     1      -1.407  33.901  29.859  1.00  0.00    -0.000 C 
BRANCH  24  25
ATOM     25  C   UNL     1       0.077  34.035  29.472  1.00  0.00    -0.000 C 
BRANCH  25  26
ATOM     26  C   UNL     1       0.899  32.800  29.875  1.00  0.00    -0.000 C 
BRANCH  26  27
ATOM     27  C   UNL     1       2.370  32.949  29.452  1.00  0.00    -0.000 C 
BRANCH  27  28
ATOM     28  C   UNL     1       3.311  32.026  30.245  1.00  0.00    -0.000 C 
BRANCH  28  29
ATOM     29  C   UNL     1       2.756  30.597  30.397  1.00  0.00    -0.000 C 
BRANCH  29  30
ATOM     30  C   UNL     1       3.787  29.522  30.020  1.00  0.00    -0.000 C 
BRANCH  30  31
ATOM     31  C   UNL     1       3.442  28.800  28.708  1.00  0.00    -0.003 C 
ATOM     32  C   UNL     1       3.337  27.291  28.925  1.00  0.00     0.004 C 
ENDBRANCH  30  31
ENDBRANCH  29  30
ENDBRANCH  28  29
ENDBRANCH  27  28
ENDBRANCH  26  27
ENDBRANCH  25  26
ENDBRANCH  24  25
ENDBRANCH  23  24
ENDBRANCH  22  23
ENDBRANCH  21  22
ENDBRANCH  20  21
ENDBRANCH  19  20
ENDBRANCH  18  19
ENDBRANCH   1  18
TORSDOF 28
ENDMDL
MODEL 6
REMARK VINA RESULT:    14.758      1.209      2.235
REMARK INTER + INTRA:          37.869
REMARK INTER:                  39.426
REMARK INTRA:                  -1.556
REMARK UNBOUND:                -1.045
REMARK SMILES CCCCCCCCCCCCCCCCCCCCCCCCCCCCCC(=O)[O-]
REMARK SMILES IDX 16 1 17 2 18 3 19 4 20 5 21 6 22 7 23 8 24 9 25 10 26 11
REMARK SMILES IDX 27 12 28 13 29 14 30 15 31 16 32 17 15 18 14 19 13 20 12 21
REMARK SMILES IDX 11 22 10 23 9 24 8 25 7 26 6 27 5 28 4 29 3 30 2 31 1 32
REMARK H PARENT
REMARK Flexibility Score: inf
ROOT
ATOM      1  C   UNL     1      -5.828  36.631  24.514  1.00  0.00     0.000 C 
ENDROOT
BRANCH   1   2
ATOM      2  C   UNL     1      -5.148  37.221  25.764  1.00  0.00     0.000 C 
BRANCH   2   3
ATOM      3  C   UNL     1      -3.944  36.389  26.244  1.00  0.00     0.000 C 
BRANCH   3   4
ATOM      4  C   UNL     1      -2.726  37.210  26.706  1.00  0.00     0.000 C 
BRANCH   4   5
ATOM      5  C   UNL     1      -2.159  36.739  28.054  1.00  0.00     0.000 C 
BRANCH   5   6
ATOM      6  C   UNL     1      -1.641  35.300  27.953  1.00  0.00     0.000 C 
BRANCH   6   7
ATOM      7  C   UNL     1      -2.031  34.478  29.189  1.00  0.00     0.000 C 
BRANCH   7   8
ATOM      8  C   UNL     1      -0.838  34.327  30.143  1.00  0.00     0.000 C 
BRANCH   8   9
ATOM      9  C   UNL     1       0.511  34.210  29.410  1.00  0.00     0.000 C 
BRANCH   9  10
ATOM     10  C   UNL     1       0.863  32.797  28.907  1.00  0.00     0.000 C 
BRANCH  10  11
ATOM     11  C   UNL     1       0.491  31.694  29.913  1.00  0.00     0.000 C 
BRANCH  11  12
ATOM     12  C   UNL     1       1.691  31.229  30.751  1.00  0.00     0.000 C 
BRANCH  12  13
ATOM     13  C   UNL     1       2.873  30.762  29.885  1.00  0.00     0.006 C 
BRANCH  13  14
ATOM     14  C   UNL     1       2.586  29.432  29.178  1.00  0.00     0.053 C 
BRANCH  14  15
ATOM     15  C   UNL     1       3.689  28.438  29.389  1.00  0.00     0.041 C 
ATOM     16  O   UNL     1       4.543  28.622  30.295  1.00  0.00    -0.550 OA
ATOM     17  O   UNL     1       3.793  27.330  28.557  1.00  0.00    -0.550 OA
ENDBRANCH  14  15
ENDBRANCH  13  14
ENDBRANCH  12  13
ENDBRANCH  11  12
ENDBRANCH  10  11
ENDBRANCH   9  10
ENDBRANCH   8   9
ENDBRANCH   7   8
ENDBRANCH   6   7
ENDBRANCH   5   6
ENDBRANCH   4   5
ENDBRANCH   3   4
ENDBRANCH   2   3
ENDBRANCH   1   2
BRANCH   1  18
ATOM     18  C   UNL     1      -6.087  37.697  23.427  1.00  0.00     0.000 C 
BRANCH  18  19
ATOM     19  C   UNL     1      -5.570  39.098  23.797  1.00  0.00     0.000 C 
BRANCH  19  20
ATOM     20  C   UNL     1      -4.981  39.849  22.591  1.00  0.00     0.000 C 
BRANCH  20  21
ATOM     21  C   UNL     1      -6.054  40.365  21.617  1.00  0.00     0.000 C 
BRANCH  21  22
ATOM     22  C   UNL     1      -6.123  39.642  20.258  1.00  0.00     0.000 C 
BRANCH  22  23
ATOM     23  C   UNL     1      -6.066  38.102  20.350  1.00  0.00     0.000 C 
BRANCH  23  24
ATOM     24  C   UNL     1      -5.019  37.488  19.400  1.00  0.00    -0.000 C 
BRANCH  24  25
ATOM     25  C   UNL     1      -4.928  35.956  19.524  1.00  0.00    -0.000 C 
BRANCH  25  26
ATOM     26  C   UNL     1      -5.473  35.236  18.280  1.00  0.00    -0.000 C 
BRANCH  26  27
ATOM     27  C   UNL     1      -4.491  34.160  17.787  1.00  0.00    -0.000 C 
BRANCH  27  28
ATOM     28  C   UNL     1      -3.562  34.671  16.674  1.00  0.00    -0.000 C 
BRANCH  28  29
ATOM     29  C   UNL     1      -4.166  35.847  15.885  1.00  0.00    -0.000 C 
BRANCH  29  30
ATOM     30  C   UNL     1      -3.299  36.262  14.686  1.00  0.00    -0.000 C 
BRANCH  30  31
ATOM     31  C   UNL     1      -3.289  37.781  14.456  1.00  0.00    -0.003 C 
ATOM     32  C   UNL     1      -4.647  38.266  13.949  1.00  0.00     0.004 C 
ENDBRANCH  30  31
ENDBRANCH  29  30
ENDBRANCH  28  29
ENDBRANCH  27  28
ENDBRANCH  26  27
ENDBRANCH  25  26
ENDBRANCH  24  25
ENDBRANCH  23  24
ENDBRANCH  22  23
ENDBRANCH  21  22
ENDBRANCH  20  21
ENDBRANCH  19  20
ENDBRANCH  18  19
ENDBRANCH   1  18
TORSDOF 28
ENDMDL
MODEL 7
REMARK VINA RESULT:    14.970      5.064     12.187
REMARK INTER + INTRA:          38.430
REMARK INTER:                  39.171
REMARK INTRA:                  -0.741
REMARK UNBOUND:                -1.045
REMARK SMILES CCCCCCCCCCCCCCCCCCCCCCCCCCCCCC(=O)[O-]
REMARK SMILES IDX 16 1 17 2 18 3 19 4 20 5 21 6 22 7 23 8 24 9 25 10 26 11
REMARK SMILES IDX 27 12 28 13 29 14 30 15 31 16 32 17 15 18 14 19 13 20 12 21
REMARK SMILES IDX 11 22 10 23 9 24 8 25 7 26 6 27 5 28 4 29 3 30 2 31 1 32
REMARK H PARENT
REMARK Flexibility Score: inf
ROOT
ATOM      1  C   UNL     1      -5.667  37.620  25.554  1.00  0.00     0.000 C 
ENDROOT
BRANCH   1   2
ATOM      2  C   UNL     1      -5.326  38.609  24.424  1.00  0.00     0.000 C 
BRANCH   2   3
ATOM      3  C   UNL     1      -6.124  38.347  23.133  1.00  0.00     0.000 C 
BRANCH   3   4
ATOM      4  C   UNL     1      -5.898  39.374  22.007  1.00  0.00     0.000 C 
BRANCH   4   5
ATOM      5  C   UNL     1      -4.813  38.945  21.010  1.00  0.00     0.000 C 
BRANCH   5   6
ATOM      6  C   UNL     1      -5.384  37.978  19.966  1.00  0.00     0.000 C 
BRANCH   6   7
ATOM      7  C   UNL     1      -5.457  36.546  20.513  1.00  0.00     0.000 C 
BRANCH   7   8
ATOM      8  C   UNL     1      -4.461  35.631  19.784  1.00  0.00     0.000 C 
BRANCH   8   9
ATOM      9  C   UNL     1      -5.082  34.903  18.578  1.00  0.00     0.000 C 
BRANCH   9  10
ATOM     10  C   UNL     1      -4.074  34.383  17.536  1.00  0.00     0.000 C 
BRANCH  10  11
ATOM     11  C   UNL     1      -3.528  35.496  16.625  1.00  0.00     0.000 C 
BRANCH  11  12
ATOM     12  C   UNL     1      -3.805  35.232  15.137  1.00  0.00     0.000 C 
BRANCH  12  13
ATOM     13  C   UNL     1      -2.950  36.113  14.210  1.00  0.00     0.006 C 
BRANCH  13  14
ATOM     14  C   UNL     1      -3.001  37.593  14.606  1.00  0.00     0.053 C 
BRANCH  14  15
ATOM     15  C   UNL     1      -4.333  38.208  14.300  1.00  0.00     0.041 C 
ATOM     16  O   UNL     1      -4.512  39.443  14.456  1.00  0.00    -0.550 OA
ATOM     17  O   UNL     1      -5.387  37.406  13.879  1.00  0.00    -0.550 OA
ENDBRANCH  14  15
ENDBRANCH  13  14
ENDBRANCH  12  13
ENDBRANCH  11  12
ENDBRANCH  10  11
ENDBRANCH   9  10
ENDBRANCH   8   9
ENDBRANCH   7   8
ENDBRANCH   6   7
ENDBRANCH   5   6
ENDBRANCH   4   5
ENDBRANCH   3   4
ENDBRANCH   2   3
ENDBRANCH   1   2
BRANCH   1  18
ATOM     18  C   UNL     1      -4.411  36.938  26.139  1.00  0.00     0.000 C 
BRANCH  18  19
ATOM     19  C   UNL     1      -3.191  37.870  26.242  1.00  0.00     0.000 C 
BRANCH  19  20
ATOM     20  C   UNL     1      -2.498  37.789  27.612  1.00  0.00     0.000 C 
BRANCH  20  21
ATOM     21  C   UNL     1      -1.370  36.744  27.657  1.00  0.00     0.000 C 
BRANCH  21  22
ATOM     22  C   UNL     1      -1.825  35.272  27.617  1.00  0.00     0.000 C 
BRANCH  22  23
ATOM     23  C   UNL     1      -2.023  34.626  29.006  1.00  0.00     0.000 C 
BRANCH  23  24
ATOM     24  C   UNL     1      -0.935  33.586  29.337  1.00  0.00    -0.000 C 
BRANCH  24  25
ATOM     25  C   UNL     1       0.475  34.050  28.929  1.00  0.00    -0.000 C 
BRANCH  25  26
ATOM     26  C   UNL     1       1.567  33.483  29.852  1.00  0.00    -0.000 C 
BRANCH  26  27
ATOM     27  C   UNL     1       2.756  34.451  29.965  1.00  0.00    -0.000 C 
BRANCH  27  28
ATOM     28  C   UNL     1       3.668  34.416  28.726  1.00  0.00    -0.000 C 
BRANCH  28  29
ATOM     29  C   UNL     1       4.148  35.815  28.299  1.00  0.00    -0.000 C 
BRANCH  29  30
ATOM     30  C   UNL     1       4.644  35.850  26.845  1.00  0.00    -0.000 C 
BRANCH  30  31
ATOM     31  C   UNL     1       5.660  36.974  26.590  1.00  0.00    -0.003 C 
ATOM     32  C   UNL     1       5.054  38.342  26.904  1.00  0.00     0.004 C 
ENDBRANCH  30  31
ENDBRANCH  29  30
ENDBRANCH  28  29
ENDBRANCH  27  28
ENDBRANCH  26  27
ENDBRANCH  25  26
ENDBRANCH  24  25
ENDBRANCH  23  24
ENDBRANCH  22  23
ENDBRANCH  21  22
ENDBRANCH  20  21
ENDBRANCH  19  20
ENDBRANCH  18  19
ENDBRANCH   1  18
TORSDOF 28
ENDMDL
MODEL 8
REMARK VINA RESULT:    15.939      4.674     13.188
REMARK INTER + INTRA:          40.984
REMARK INTER:                  42.226
REMARK INTRA:                  -1.243
REMARK UNBOUND:                -1.045
REMARK SMILES CCCCCCCCCCCCCCCCCCCCCCCCCCCCCC(=O)[O-]
REMARK SMILES IDX 16 1 17 2 18 3 19 4 20 5 21 6 22 7 23 8 24 9 25 10 26 11
REMARK SMILES IDX 27 12 28 13 29 14 30 15 31 16 32 17 15 18 14 19 13 20 12 21
REMARK SMILES IDX 11 22 10 23 9 24 8 25 7 26 6 27 5 28 4 29 3 30 2 31 1 32
REMARK H PARENT
REMARK Flexibility Score: inf
ROOT
ATOM      1  C   UNL     1      -3.588  38.212  26.295  1.00  0.00     0.000 C 
ENDROOT
BRANCH   1   2
ATOM      2  C   UNL     1      -4.457  37.007  25.887  1.00  0.00     0.000 C 
BRANCH   2   3
ATOM      3  C   UNL     1      -5.458  37.339  24.764  1.00  0.00     0.000 C 
BRANCH   3   4
ATOM      4  C   UNL     1      -5.764  38.837  24.585  1.00  0.00     0.000 C 
BRANCH   4   5
ATOM      5  C   UNL     1      -5.073  39.451  23.359  1.00  0.00     0.000 C 
BRANCH   5   6
ATOM      6  C   UNL     1      -5.825  39.090  22.072  1.00  0.00     0.000 C 
BRANCH   6   7
ATOM      7  C   UNL     1      -4.855  38.711  20.946  1.00  0.00     0.000 C 
BRANCH   7   8
ATOM      8  C   UNL     1      -5.579  37.924  19.843  1.00  0.00     0.000 C 
BRANCH   8   9
ATOM      9  C   UNL     1      -5.725  36.426  20.168  1.00  0.00     0.000 C 
BRANCH   9  10
ATOM     10  C   UNL     1      -4.400  35.668  20.374  1.00  0.00     0.000 C 
BRANCH  10  11
ATOM     11  C   UNL     1      -4.346  34.336  19.606  1.00  0.00     0.000 C 
BRANCH  11  12
ATOM     12  C   UNL     1      -5.068  34.405  18.252  1.00  0.00     0.000 C 
BRANCH  12  13
ATOM     13  C   UNL     1      -4.368  35.344  17.255  1.00  0.00     0.006 C 
BRANCH  13  14
ATOM     14  C   UNL     1      -3.399  34.595  16.332  1.00  0.00     0.053 C 
BRANCH  14  15
ATOM     15  C   UNL     1      -2.662  35.529  15.421  1.00  0.00     0.041 C 
ATOM     16  O   UNL     1      -3.065  35.716  14.243  1.00  0.00    -0.550 OA
ATOM     17  O   UNL     1      -1.506  36.162  15.862  1.00  0.00    -0.550 OA
ENDBRANCH  14  15
ENDBRANCH  13  14
ENDBRANCH  12  13
ENDBRANCH  11  12
ENDBRANCH  10  11
ENDBRANCH   9  10
ENDBRANCH   8   9
ENDBRANCH   7   8
ENDBRANCH   6   7
ENDBRANCH   5   6
ENDBRANCH   4   5
ENDBRANCH   3   4
ENDBRANCH   2   3
ENDBRANCH   1   2
BRANCH   1  18
ATOM     18  C   UNL     1      -2.132  37.807  26.611  1.00  0.00     0.000 C 
BRANCH  18  19
ATOM     19  C   UNL     1      -1.971  37.066  27.950  1.00  0.00     0.000 C 
BRANCH  19  20
ATOM     20  C   UNL     1      -1.811  35.547  27.770  1.00  0.00     0.000 C 
BRANCH  20  21
ATOM     21  C   UNL     1      -1.948  34.765  29.089  1.00  0.00     0.000 C 
BRANCH  21  22
ATOM     22  C   UNL     1      -0.626  34.278  29.714  1.00  0.00     0.000 C 
BRANCH  22  23
ATOM     23  C   UNL     1      -0.418  32.749  29.658  1.00  0.00     0.000 C 
BRANCH  23  24
ATOM     24  C   UNL     1       1.009  32.359  29.225  1.00  0.00    -0.000 C 
BRANCH  24  25
ATOM     25  C   UNL     1       1.396  30.936  29.667  1.00  0.00    -0.000 C 
BRANCH  25  26
ATOM     26  C   UNL     1       2.804  30.877  30.281  1.00  0.00    -0.000 C 
BRANCH  26  27
ATOM     27  C   UNL     1       3.112  29.475  30.833  1.00  0.00    -0.000 C 
BRANCH  27  28
ATOM     28  C   UNL     1       4.350  28.840  30.178  1.00  0.00    -0.000 C 
BRANCH  28  29
ATOM     29  C   UNL     1       4.290  27.302  30.156  1.00  0.00    -0.000 C 
BRANCH  29  30
ATOM     30  C   UNL     1       4.476  26.684  31.551  1.00  0.00    -0.000 C 
BRANCH  30  31
ATOM     31  C   UNL     1       5.674  25.726  31.622  1.00  0.00    -0.003 C 
ATOM     32  C   UNL     1       6.082  25.468  33.073  1.00  0.00     0.004 C 
ENDBRANCH  30  31
ENDBRANCH  29  30
ENDBRANCH  28  29
ENDBRANCH  27  28
ENDBRANCH  26  27
ENDBRANCH  25  26
ENDBRANCH  24  25
ENDBRANCH  23  24
ENDBRANCH  22  23
ENDBRANCH  21  22
ENDBRANCH  20  21
ENDBRANCH  19  20
ENDBRANCH  18  19
ENDBRANCH   1  18
TORSDOF 28
ENDMDL
