MODEL 1
REMARK VINA RESULT:    -3.078      0.000      0.000
REMARK INTER + INTRA:         -11.836
REMARK INTER:                  -7.757
REMARK INTRA:                  -4.080
REMARK UNBOUND:                -4.080
REMARK SMILES CCCCCCCCCCCCCCCCCCCCCCCCCCCC(=O)[O-]
REMARK SMILES IDX 15 1 16 2 17 3 18 4 19 5 20 6 21 7 22 8 23 9 24 10 25 11
REMARK SMILES IDX 26 12 27 13 28 14 29 15 30 16 14 17 13 18 12 19 11 20 10 21
REMARK SMILES IDX 9 22 8 23 7 24 6 25 5 26 4 27 3 28 2 29 1 30
REMARK H PARENT
REMARK Flexibility Score: inf
ROOT
ATOM      1  C   UNL     1      27.547  47.060   9.252  1.00  0.00     0.000 C 
ENDROOT
BRANCH   1   2
ATOM      2  C   UNL     1      26.109  46.729   9.691  1.00  0.00     0.000 C 
BRANCH   2   3
ATOM      3  C   UNL     1      25.471  45.603   8.858  1.00  0.00     0.000 C 
BRANCH   3   4
ATOM      4  C   UNL     1      26.474  44.497   8.494  1.00  0.00     0.000 C 
BRANCH   4   5
ATOM      5  C   UNL     1      26.543  44.239   6.981  1.00  0.00     0.000 C 
BRANCH   5   6
ATOM      6  C   UNL     1      27.855  44.767   6.385  1.00  0.00     0.000 C 
BRANCH   6   7
ATOM      7  C   UNL     1      29.020  43.823   6.718  1.00  0.00     0.000 C 
BRANCH   7   8
ATOM      8  C   UNL     1      28.987  42.519   5.907  1.00  0.00     0.000 C 
BRANCH   8   9
ATOM      9  C   UNL     1      28.720  41.283   6.781  1.00  0.00     0.000 C 
BRANCH   9  10
ATOM     10  C   UNL     1      27.418  40.559   6.401  1.00  0.00     0.000 C 
BRANCH  10  11
ATOM     11  C   UNL     1      26.335  40.620   7.501  1.00  0.00     0.000 C 
BRANCH  11  12
ATOM     12  C   UNL     1      26.430  39.438   8.476  1.00  0.00     0.006 C 
BRANCH  12  13
ATOM     13  C   UNL     1      26.361  38.102   7.729  1.00  0.00     0.053 C 
BRANCH  13  14
ATOM     14  C   UNL     1      26.145  36.973   8.688  1.00  0.00     0.041 C 
ATOM     15  O   UNL     1      26.320  37.147   9.923  1.00  0.00    -0.550 OA
ATOM     16  O   UNL     1      25.722  35.736   8.220  1.00  0.00    -0.550 OA
ENDBRANCH  13  14
ENDBRANCH  12  13
ENDBRANCH  11  12
ENDBRANCH  10  11
ENDBRANCH   9  10
ENDBRANCH   8   9
ENDBRANCH   7   8
ENDBRANCH   6   7
ENDBRANCH   5   6
ENDBRANCH   4   5
ENDBRANCH   3   4
ENDBRANCH   2   3
ENDBRANCH   1   2
BRANCH   1  17
ATOM     17  C   UNL     1      27.713  48.411   8.533  1.00  0.00     0.000 C 
BRANCH  17  18
ATOM     18  C   UNL     1      27.339  48.352   7.041  1.00  0.00     0.000 C 
BRANCH  18  19
ATOM     19  C   UNL     1      26.155  49.271   6.698  1.00  0.00     0.000 C 
BRANCH  19  20
ATOM     20  C   UNL     1      25.605  50.000   7.938  1.00  0.00     0.000 C 
BRANCH  20  21
ATOM     21  C   UNL     1      25.733  51.535   7.826  1.00  0.00     0.000 C 
BRANCH  21  22
ATOM     22  C   UNL     1      27.145  52.067   8.144  1.00  0.00    -0.000 C 
BRANCH  22  23
ATOM     23  C   UNL     1      27.791  52.915   7.030  1.00  0.00    -0.000 C 
BRANCH  23  24
ATOM     24  C   UNL     1      29.234  52.517   6.665  1.00  0.00    -0.000 C 
BRANCH  24  25
ATOM     25  C   UNL     1      29.391  51.105   6.069  1.00  0.00    -0.000 C 
BRANCH  25  26
ATOM     26  C   UNL     1      30.824  50.542   6.167  1.00  0.00    -0.000 C 
BRANCH  26  27
ATOM     27  C   UNL     1      31.003  49.600   7.369  1.00  0.00    -0.000 C 
BRANCH  27  28
ATOM     28  C   UNL     1      31.717  48.286   7.001  1.00  0.00    -0.000 C 
BRANCH  28  29
ATOM     29  C   UNL     1      31.021  47.008   7.505  1.00  0.00    -0.003 C 
ATOM     30  C   UNL     1      31.312  46.709   8.975  1.00  0.00     0.004 C 
ENDBRANCH  28  29
ENDBRANCH  27  28
ENDBRANCH  26  27
ENDBRANCH  25  26
ENDBRANCH  24  25
ENDBRANCH  23  24
ENDBRANCH  22  23
ENDBRANCH  21  22
ENDBRANCH  20  21
ENDBRANCH  19  20
ENDBRANCH  18  19
ENDBRANCH  17  18
ENDBRANCH   1  17
TORSDOF 26
ENDMDL
MODEL 2
REMARK VINA RESULT:    -3.063      3.027      9.604
REMARK INTER + INTRA:         -11.797
REMARK INTER:                  -8.500
REMARK INTRA:                  -3.297
REMARK UNBOUND:                -4.080
REMARK SMILES CCCCCCCCCCCCCCCCCCCCCCCCCCCC(=O)[O-]
REMARK SMILES IDX 15 1 16 2 17 3 18 4 19 5 20 6 21 7 22 8 23 9 24 10 25 11
REMARK SMILES IDX 26 12 27 13 28 14 29 15 30 16 14 17 13 18 12 19 11 20 10 21
REMARK SMILES IDX 9 22 8 23 7 24 6 25 5 26 4 27 3 28 2 29 1 30
REMARK H PARENT
REMARK Flexibility Score: inf
ROOT
ATOM      1  C   UNL     1      26.089  47.550   9.290  1.00  0.00     0.000 C 
ENDROOT
BRANCH   1   2
ATOM      2  C   UNL     1      25.203  48.068   8.142  1.00  0.00     0.000 C 
BRANCH   2   3
ATOM      3  C   UNL     1      25.942  48.125   6.794  1.00  0.00     0.000 C 
BRANCH   3   4
ATOM      4  C   UNL     1      27.465  48.236   6.960  1.00  0.00     0.000 C 
BRANCH   4   5
ATOM      5  C   UNL     1      27.968  49.683   6.838  1.00  0.00     0.000 C 
BRANCH   5   6
ATOM      6  C   UNL     1      27.983  50.384   8.202  1.00  0.00     0.000 C 
BRANCH   6   7
ATOM      7  C   UNL     1      29.159  51.370   8.291  1.00  0.00     0.000 C 
BRANCH   7   8
ATOM      8  C   UNL     1      29.445  52.085   6.962  1.00  0.00     0.000 C 
BRANCH   8   9
ATOM      9  C   UNL     1      30.944  52.134   6.626  1.00  0.00     0.000 C 
BRANCH   9  10
ATOM     10  C   UNL     1      31.534  50.743   6.344  1.00  0.00     0.000 C 
BRANCH  10  11
ATOM     11  C   UNL     1      32.566  50.286   7.399  1.00  0.00     0.000 C 
BRANCH  11  12
ATOM     12  C   UNL     1      32.136  48.995   8.112  1.00  0.00     0.006 C 
BRANCH  12  13
ATOM     13  C   UNL     1      31.350  48.082   7.166  1.00  0.00     0.053 C 
BRANCH  13  14
ATOM     14  C   UNL     1      30.919  46.836   7.876  1.00  0.00     0.041 C 
ATOM     15  O   UNL     1      31.048  46.739   9.124  1.00  0.00    -0.550 OA
ATOM     16  O   UNL     1      30.347  45.792   7.159  1.00  0.00    -0.550 OA
ENDBRANCH  13  14
ENDBRANCH  12  13
ENDBRANCH  11  12
ENDBRANCH  10  11
ENDBRANCH   9  10
ENDBRANCH   8   9
ENDBRANCH   7   8
ENDBRANCH   6   7
ENDBRANCH   5   6
ENDBRANCH   4   5
ENDBRANCH   3   4
ENDBRANCH   2   3
ENDBRANCH   1   2
BRANCH   1  17
ATOM     17  C   UNL     1      25.530  46.329  10.044  1.00  0.00     0.000 C 
BRANCH  17  18
ATOM     18  C   UNL     1      25.840  44.993   9.345  1.00  0.00     0.000 C 
BRANCH  18  19
ATOM     19  C   UNL     1      27.191  45.017   8.610  1.00  0.00     0.000 C 
BRANCH  19  20
ATOM     20  C   UNL     1      27.086  44.452   7.182  1.00  0.00     0.000 C 
BRANCH  20  21
ATOM     21  C   UNL     1      25.712  43.807   6.901  1.00  0.00     0.000 C 
BRANCH  21  22
ATOM     22  C   UNL     1      25.717  42.267   6.985  1.00  0.00    -0.000 C 
BRANCH  22  23
ATOM     23  C   UNL     1      27.106  41.628   7.180  1.00  0.00    -0.000 C 
BRANCH  23  24
ATOM     24  C   UNL     1      27.157  40.493   8.222  1.00  0.00    -0.000 C 
BRANCH  24  25
ATOM     25  C   UNL     1      26.444  39.192   7.807  1.00  0.00    -0.000 C 
BRANCH  25  26
ATOM     26  C   UNL     1      25.796  38.433   8.983  1.00  0.00    -0.000 C 
BRANCH  26  27
ATOM     27  C   UNL     1      25.552  36.949   8.661  1.00  0.00    -0.000 C 
BRANCH  27  28
ATOM     28  C   UNL     1      26.465  36.003   9.462  1.00  0.00    -0.000 C 
BRANCH  28  29
ATOM     29  C   UNL     1      27.519  35.256   8.624  1.00  0.00    -0.003 C 
ATOM     30  C   UNL     1      27.442  35.585   7.134  1.00  0.00     0.004 C 
ENDBRANCH  28  29
ENDBRANCH  27  28
ENDBRANCH  26  27
ENDBRANCH  25  26
ENDBRANCH  24  25
ENDBRANCH  23  24
ENDBRANCH  22  23
ENDBRANCH  21  22
ENDBRANCH  20  21
ENDBRANCH  19  20
ENDBRANCH  18  19
ENDBRANCH  17  18
ENDBRANCH   1  17
TORSDOF 26
ENDMDL
MODEL 3
REMARK VINA RESULT:    -2.902      1.194      3.979
REMARK INTER + INTRA:         -11.392
REMARK INTER:                  -8.270
REMARK INTRA:                  -3.122
REMARK UNBOUND:                -4.080
REMARK SMILES CCCCCCCCCCCCCCCCCCCCCCCCCCCC(=O)[O-]
REMARK SMILES IDX 15 1 16 2 17 3 18 4 19 5 20 6 21 7 22 8 23 9 24 10 25 11
REMARK SMILES IDX 26 12 27 13 28 14 29 15 30 16 14 17 13 18 12 19 11 20 10 21
REMARK SMILES IDX 9 22 8 23 7 24 6 25 5 26 4 27 3 28 2 29 1 30
REMARK H PARENT
REMARK Flexibility Score: inf
ROOT
ATOM      1  C   UNL     1      32.002  48.142   7.560  1.00  0.00     0.000 C 
ENDROOT
BRANCH   1   2
ATOM      2  C   UNL     1      31.674  47.114   8.659  1.00  0.00     0.000 C 
BRANCH   2   3
ATOM      3  C   UNL     1      31.279  45.738   8.094  1.00  0.00     0.000 C 
BRANCH   3   4
ATOM      4  C   UNL     1      29.983  45.789   7.269  1.00  0.00     0.000 C 
BRANCH   4   5
ATOM      5  C   UNL     1      29.919  44.683   6.204  1.00  0.00     0.000 C 
BRANCH   5   6
ATOM      6  C   UNL     1      28.986  43.545   6.638  1.00  0.00     0.000 C 
BRANCH   6   7
ATOM      7  C   UNL     1      27.749  44.104   7.358  1.00  0.00     0.000 C 
BRANCH   7   8
ATOM      8  C   UNL     1      26.437  43.808   6.615  1.00  0.00     0.000 C 
BRANCH   8   9
ATOM      9  C   UNL     1      25.376  43.160   7.519  1.00  0.00     0.000 C 
BRANCH   9  10
ATOM     10  C   UNL     1      25.051  41.714   7.107  1.00  0.00     0.000 C 
BRANCH  10  11
ATOM     11  C   UNL     1      26.265  40.949   6.534  1.00  0.00     0.000 C 
BRANCH  11  12
ATOM     12  C   UNL     1      26.849  39.948   7.542  1.00  0.00     0.006 C 
BRANCH  12  13
ATOM     13  C   UNL     1      25.738  39.272   8.352  1.00  0.00     0.053 C 
BRANCH  13  14
ATOM     14  C   UNL     1      26.017  37.810   8.512  1.00  0.00     0.041 C 
ATOM     15  O   UNL     1      25.985  37.045   7.512  1.00  0.00    -0.550 OA
ATOM     16  O   UNL     1      26.342  37.298   9.762  1.00  0.00    -0.550 OA
ENDBRANCH  13  14
ENDBRANCH  12  13
ENDBRANCH  11  12
ENDBRANCH  10  11
ENDBRANCH   9  10
ENDBRANCH   8   9
ENDBRANCH   7   8
ENDBRANCH   6   7
ENDBRANCH   5   6
ENDBRANCH   4   5
ENDBRANCH   3   4
ENDBRANCH   2   3
ENDBRANCH   1   2
BRANCH   1  17
ATOM     17  C   UNL     1      31.376  49.534   7.764  1.00  0.00     0.000 C 
BRANCH  17  18
ATOM     18  C   UNL     1      32.253  50.676   7.219  1.00  0.00     0.000 C 
BRANCH  18  19
ATOM     19  C   UNL     1      31.595  51.407   6.037  1.00  0.00     0.000 C 
BRANCH  19  20
ATOM     20  C   UNL     1      31.287  52.879   6.362  1.00  0.00     0.000 C 
BRANCH  20  21
ATOM     21  C   UNL     1      29.773  53.185   6.341  1.00  0.00     0.000 C 
BRANCH  21  22
ATOM     22  C   UNL     1      28.883  51.933   6.473  1.00  0.00    -0.000 C 
BRANCH  22  23
ATOM     23  C   UNL     1      28.175  51.775   7.833  1.00  0.00    -0.000 C 
BRANCH  23  24
ATOM     24  C   UNL     1      26.877  52.593   7.988  1.00  0.00    -0.000 C 
BRANCH  24  25
ATOM     25  C   UNL     1      25.575  51.775   7.891  1.00  0.00    -0.000 C 
BRANCH  25  26
ATOM     26  C   UNL     1      25.748  50.407   7.201  1.00  0.00    -0.000 C 
BRANCH  26  27
ATOM     27  C   UNL     1      24.986  49.284   7.925  1.00  0.00    -0.000 C 
BRANCH  27  28
ATOM     28  C   UNL     1      25.843  48.025   8.149  1.00  0.00    -0.000 C 
BRANCH  28  29
ATOM     29  C   UNL     1      27.352  48.218   7.912  1.00  0.00    -0.003 C 
ATOM     30  C   UNL     1      28.157  48.294   9.209  1.00  0.00     0.004 C 
ENDBRANCH  28  29
ENDBRANCH  27  28
ENDBRANCH  26  27
ENDBRANCH  25  26
ENDBRANCH  24  25
ENDBRANCH  23  24
ENDBRANCH  22  23
ENDBRANCH  21  22
ENDBRANCH  20  21
ENDBRANCH  19  20
ENDBRANCH  18  19
ENDBRANCH  17  18
ENDBRANCH   1  17
TORSDOF 26
ENDMDL
MODEL 4
REMARK VINA RESULT:    -2.862      4.630     10.324
REMARK INTER + INTRA:         -11.293
REMARK INTER:                  -8.284
REMARK INTRA:                  -3.009
REMARK UNBOUND:                -4.080
REMARK SMILES CCCCCCCCCCCCCCCCCCCCCCCCCCCC(=O)[O-]
REMARK SMILES IDX 15 1 16 2 17 3 18 4 19 5 20 6 21 7 22 8 23 9 24 10 25 11
REMARK SMILES IDX 26 12 27 13 28 14 29 15 30 16 14 17 13 18 12 19 11 20 10 21
REMARK SMILES IDX 9 22 8 23 7 24 6 25 5 26 4 27 3 28 2 29 1 30
REMARK H PARENT
REMARK Flexibility Score: inf
ROOT
ATOM      1  C   UNL     1      27.925  47.397   9.044  1.00  0.00     0.000 C 
ENDROOT
BRANCH   1   2
ATOM      2  C   UNL     1      28.299  47.346   7.551  1.00  0.00     0.000 C 
BRANCH   2   3
ATOM      3  C   UNL     1      29.483  46.406   7.261  1.00  0.00     0.000 C 
BRANCH   3   4
ATOM      4  C   UNL     1      30.650  46.608   8.240  1.00  0.00     0.000 C 
BRANCH   4   5
ATOM      5  C   UNL     1      31.209  48.039   8.204  1.00  0.00     0.000 C 
BRANCH   5   6
ATOM      6  C   UNL     1      32.018  48.288   6.925  1.00  0.00     0.000 C 
BRANCH   6   7
ATOM      7  C   UNL     1      31.421  49.457   6.126  1.00  0.00     0.000 C 
BRANCH   7   8
ATOM      8  C   UNL     1      31.806  50.832   6.693  1.00  0.00     0.000 C 
BRANCH   8   9
ATOM      9  C   UNL     1      30.595  51.761   6.872  1.00  0.00     0.000 C 
BRANCH   9  10
ATOM     10  C   UNL     1      29.259  51.002   6.859  1.00  0.00     0.000 C 
BRANCH  10  11
ATOM     11  C   UNL     1      28.539  50.997   8.227  1.00  0.00     0.000 C 
BRANCH  11  12
ATOM     12  C   UNL     1      27.011  51.036   8.079  1.00  0.00     0.006 C 
BRANCH  12  13
ATOM     13  C   UNL     1      26.585  52.091   7.054  1.00  0.00     0.053 C 
BRANCH  13  14
ATOM     14  C   UNL     1      26.531  53.447   7.686  1.00  0.00     0.041 C 
ATOM     15  O   UNL     1      26.381  53.562   8.931  1.00  0.00    -0.550 OA
ATOM     16  O   UNL     1      26.676  54.585   6.901  1.00  0.00    -0.550 OA
ENDBRANCH  13  14
ENDBRANCH  12  13
ENDBRANCH  11  12
ENDBRANCH  10  11
ENDBRANCH   9  10
ENDBRANCH   8   9
ENDBRANCH   7   8
ENDBRANCH   6   7
ENDBRANCH   5   6
ENDBRANCH   4   5
ENDBRANCH   3   4
ENDBRANCH   2   3
ENDBRANCH   1   2
BRANCH   1  17
ATOM     17  C   UNL     1      26.432  47.635   9.333  1.00  0.00     0.000 C 
BRANCH  17  18
ATOM     18  C   UNL     1      25.743  46.423   9.987  1.00  0.00     0.000 C 
BRANCH  18  19
ATOM     19  C   UNL     1      25.281  45.383   8.952  1.00  0.00     0.000 C 
BRANCH  19  20
ATOM     20  C   UNL     1      26.340  44.292   8.712  1.00  0.00     0.000 C 
BRANCH  20  21
ATOM     21  C   UNL     1      26.181  43.606   7.338  1.00  0.00     0.000 C 
BRANCH  21  22
ATOM     22  C   UNL     1      26.117  42.067   7.412  1.00  0.00    -0.000 C 
BRANCH  22  23
ATOM     23  C   UNL     1      27.298  41.399   8.143  1.00  0.00    -0.000 C 
BRANCH  23  24
ATOM     24  C   UNL     1      28.194  40.513   7.254  1.00  0.00    -0.000 C 
BRANCH  24  25
ATOM     25  C   UNL     1      27.439  39.638   6.235  1.00  0.00    -0.000 C 
BRANCH  25  26
ATOM     26  C   UNL     1      27.028  38.255   6.783  1.00  0.00    -0.000 C 
BRANCH  26  27
ATOM     27  C   UNL     1      25.588  38.242   7.319  1.00  0.00    -0.000 C 
BRANCH  27  28
ATOM     28  C   UNL     1      25.520  38.292   8.857  1.00  0.00    -0.000 C 
BRANCH  28  29
ATOM     29  C   UNL     1      25.269  36.934   9.538  1.00  0.00    -0.003 C 
ATOM     30  C   UNL     1      26.555  36.152   9.805  1.00  0.00     0.004 C 
ENDBRANCH  28  29
ENDBRANCH  27  28
ENDBRANCH  26  27
ENDBRANCH  25  26
ENDBRANCH  24  25
ENDBRANCH  23  24
ENDBRANCH  22  23
ENDBRANCH  21  22
ENDBRANCH  20  21
ENDBRANCH  19  20
ENDBRANCH  18  19
ENDBRANCH  17  18
ENDBRANCH   1  17
TORSDOF 26
ENDMDL
MODEL 5
REMARK VINA RESULT:    -2.821      1.702      4.107
REMARK INTER + INTRA:         -11.189
REMARK INTER:                  -8.473
REMARK INTRA:                  -2.716
REMARK UNBOUND:                -4.080
REMARK SMILES CCCCCCCCCCCCCCCCCCCCCCCCCCCC(=O)[O-]
REMARK SMILES IDX 15 1 16 2 17 3 18 4 19 5 20 6 21 7 22 8 23 9 24 10 25 11
REMARK SMILES IDX 26 12 27 13 28 14 29 15 30 16 14 17 13 18 12 19 11 20 10 21
REMARK SMILES IDX 9 22 8 23 7 24 6 25 5 26 4 27 3 28 2 29 1 30
REMARK H PARENT
REMARK Flexibility Score: inf
ROOT
ATOM      1  C   UNL     1      30.435  46.412   8.512  1.00  0.00     0.000 C 
ENDROOT
BRANCH   1   2
ATOM      2  C   UNL     1      29.620  45.862   7.327  1.00  0.00     0.000 C 
BRANCH   2   3
ATOM      3  C   UNL     1      30.243  44.600   6.704  1.00  0.00     0.000 C 
BRANCH   3   4
ATOM      4  C   UNL     1      29.191  43.543   6.334  1.00  0.00     0.000 C 
BRANCH   4   5
ATOM      5  C   UNL     1      29.815  42.175   6.017  1.00  0.00     0.000 C 
BRANCH   5   6
ATOM      6  C   UNL     1      29.003  41.033   6.641  1.00  0.00     0.000 C 
BRANCH   6   7
ATOM      7  C   UNL     1      27.716  41.574   7.284  1.00  0.00     0.000 C 
BRANCH   7   8
ATOM      8  C   UNL     1      27.132  40.628   8.345  1.00  0.00     0.000 C 
BRANCH   8   9
ATOM      9  C   UNL     1      26.132  39.620   7.757  1.00  0.00     0.000 C 
BRANCH   9  10
ATOM     10  C   UNL     1      25.655  38.587   8.791  1.00  0.00     0.000 C 
BRANCH  10  11
ATOM     11  C   UNL     1      26.319  37.201   8.628  1.00  0.00     0.000 C 
BRANCH  11  12
ATOM     12  C   UNL     1      26.825  36.963   7.198  1.00  0.00     0.006 C 
BRANCH  12  13
ATOM     13  C   UNL     1      27.620  35.656   7.108  1.00  0.00     0.053 C 
BRANCH  13  14
ATOM     14  C   UNL     1      29.000  35.915   6.588  1.00  0.00     0.041 C 
ATOM     15  O   UNL     1      29.826  34.971   6.482  1.00  0.00    -0.550 OA
ATOM     16  O   UNL     1      29.364  37.197   6.194  1.00  0.00    -0.550 OA
ENDBRANCH  13  14
ENDBRANCH  12  13
ENDBRANCH  11  12
ENDBRANCH  10  11
ENDBRANCH   9  10
ENDBRANCH   8   9
ENDBRANCH   7   8
ENDBRANCH   6   7
ENDBRANCH   5   6
ENDBRANCH   4   5
ENDBRANCH   3   4
ENDBRANCH   2   3
ENDBRANCH   1   2
BRANCH   1  17
ATOM     17  C   UNL     1      31.422  47.539   8.156  1.00  0.00     0.000 C 
BRANCH  17  18
ATOM     18  C   UNL     1      30.741  48.753   7.498  1.00  0.00     0.000 C 
BRANCH  18  19
ATOM     19  C   UNL     1      31.716  49.922   7.276  1.00  0.00     0.000 C 
BRANCH  19  20
ATOM     20  C   UNL     1      31.043  51.289   7.491  1.00  0.00     0.000 C 
BRANCH  20  21
ATOM     21  C   UNL     1      29.583  51.159   7.979  1.00  0.00     0.000 C 
BRANCH  21  22
ATOM     22  C   UNL     1      28.657  52.287   7.481  1.00  0.00    -0.000 C 
BRANCH  22  23
ATOM     23  C   UNL     1      27.295  52.379   8.196  1.00  0.00    -0.000 C 
BRANCH  23  24
ATOM     24  C   UNL     1      26.127  51.696   7.457  1.00  0.00    -0.000 C 
BRANCH  24  25
ATOM     25  C   UNL     1      25.720  50.317   8.011  1.00  0.00    -0.000 C 
BRANCH  25  26
ATOM     26  C   UNL     1      26.622  49.162   7.529  1.00  0.00    -0.000 C 
BRANCH  26  27
ATOM     27  C   UNL     1      27.144  48.301   8.691  1.00  0.00    -0.000 C 
BRANCH  27  28
ATOM     28  C   UNL     1      26.100  47.294   9.208  1.00  0.00    -0.000 C 
BRANCH  28  29
ATOM     29  C   UNL     1      26.648  45.885   9.500  1.00  0.00    -0.003 C 
ATOM     30  C   UNL     1      26.014  44.804   8.625  1.00  0.00     0.004 C 
ENDBRANCH  28  29
ENDBRANCH  27  28
ENDBRANCH  26  27
ENDBRANCH  25  26
ENDBRANCH  24  25
ENDBRANCH  23  24
ENDBRANCH  22  23
ENDBRANCH  21  22
ENDBRANCH  20  21
ENDBRANCH  19  20
ENDBRANCH  18  19
ENDBRANCH  17  18
ENDBRANCH   1  17
TORSDOF 26
ENDMDL
MODEL 6
REMARK VINA RESULT:    -2.687      2.710      9.686
REMARK INTER + INTRA:         -10.850
REMARK INTER:                  -8.301
REMARK INTRA:                  -2.550
REMARK UNBOUND:                -4.080
REMARK SMILES CCCCCCCCCCCCCCCCCCCCCCCCCCCC(=O)[O-]
REMARK SMILES IDX 15 1 16 2 17 3 18 4 19 5 20 6 21 7 22 8 23 9 24 10 25 11
REMARK SMILES IDX 26 12 27 13 28 14 29 15 30 16 14 17 13 18 12 19 11 20 10 21
REMARK SMILES IDX 9 22 8 23 7 24 6 25 5 26 4 27 3 28 2 29 1 30
REMARK H PARENT
REMARK Flexibility Score: inf
ROOT
ATOM      1  C   UNL     1      31.323  47.003   8.790  1.00  0.00     0.000 C 
ENDROOT
BRANCH   1   2
ATOM      2  C   UNL     1      32.053  48.185   8.128  1.00  0.00     0.000 C 
BRANCH   2   3
ATOM      3  C   UNL     1      31.655  48.388   6.655  1.00  0.00     0.000 C 
BRANCH   3   4
ATOM      4  C   UNL     1      30.751  49.613   6.451  1.00  0.00     0.000 C 
BRANCH   4   5
ATOM      5  C   UNL     1      29.324  49.387   6.975  1.00  0.00     0.000 C 
BRANCH   5   6
ATOM      6  C   UNL     1      29.060  50.206   8.245  1.00  0.00     0.000 C 
BRANCH   6   7
ATOM      7  C   UNL     1      28.923  51.699   7.908  1.00  0.00     0.000 C 
BRANCH   7   8
ATOM      8  C   UNL     1      27.728  52.000   6.991  1.00  0.00     0.000 C 
BRANCH   8   9
ATOM      9  C   UNL     1      26.382  51.952   7.732  1.00  0.00     0.000 C 
BRANCH   9  10
ATOM     10  C   UNL     1      25.487  50.795   7.258  1.00  0.00     0.000 C 
BRANCH  10  11
ATOM     11  C   UNL     1      25.426  49.615   8.253  1.00  0.00     0.000 C 
BRANCH  11  12
ATOM     12  C   UNL     1      25.083  48.288   7.561  1.00  0.00     0.006 C 
BRANCH  12  13
ATOM     13  C   UNL     1      26.336  47.426   7.373  1.00  0.00     0.053 C 
BRANCH  13  14
ATOM     14  C   UNL     1      26.668  46.698   8.638  1.00  0.00     0.041 C 
ATOM     15  O   UNL     1      27.572  47.131   9.401  1.00  0.00    -0.550 OA
ATOM     16  O   UNL     1      25.959  45.556   8.988  1.00  0.00    -0.550 OA
ENDBRANCH  13  14
ENDBRANCH  12  13
ENDBRANCH  11  12
ENDBRANCH  10  11
ENDBRANCH   9  10
ENDBRANCH   8   9
ENDBRANCH   7   8
ENDBRANCH   6   7
ENDBRANCH   5   6
ENDBRANCH   4   5
ENDBRANCH   3   4
ENDBRANCH   2   3
ENDBRANCH   1   2
BRANCH   1  17
ATOM     17  C   UNL     1      31.276  45.713   7.949  1.00  0.00     0.000 C 
BRANCH  17  18
ATOM     18  C   UNL     1      29.880  45.421   7.369  1.00  0.00     0.000 C 
BRANCH  18  19
ATOM     19  C   UNL     1      29.937  44.480   6.154  1.00  0.00     0.000 C 
BRANCH  19  20
ATOM     20  C   UNL     1      28.916  43.333   6.259  1.00  0.00     0.000 C 
BRANCH  20  21
ATOM     21  C   UNL     1      29.584  41.941   6.217  1.00  0.00     0.000 C 
BRANCH  21  22
ATOM     22  C   UNL     1      28.632  40.782   6.575  1.00  0.00    -0.000 C 
BRANCH  22  23
ATOM     23  C   UNL     1      27.381  41.188   7.377  1.00  0.00    -0.000 C 
BRANCH  23  24
ATOM     24  C   UNL     1      26.870  40.122   8.366  1.00  0.00    -0.000 C 
BRANCH  24  25
ATOM     25  C   UNL     1      25.440  39.614   8.098  1.00  0.00    -0.000 C 
BRANCH  25  26
ATOM     26  C   UNL     1      25.319  38.076   8.071  1.00  0.00    -0.000 C 
BRANCH  26  27
ATOM     27  C   UNL     1      26.096  37.407   9.217  1.00  0.00    -0.000 C 
BRANCH  27  28
ATOM     28  C   UNL     1      26.095  35.870   9.124  1.00  0.00    -0.000 C 
BRANCH  28  29
ATOM     29  C   UNL     1      27.388  35.254   8.558  1.00  0.00    -0.003 C 
ATOM     30  C   UNL     1      27.892  35.970   7.305  1.00  0.00     0.004 C 
ENDBRANCH  28  29
ENDBRANCH  27  28
ENDBRANCH  26  27
ENDBRANCH  25  26
ENDBRANCH  24  25
ENDBRANCH  23  24
ENDBRANCH  22  23
ENDBRANCH  21  22
ENDBRANCH  20  21
ENDBRANCH  19  20
ENDBRANCH  18  19
ENDBRANCH  17  18
ENDBRANCH   1  17
TORSDOF 26
ENDMDL
MODEL 7
REMARK VINA RESULT:    -2.616      2.996      9.765
REMARK INTER + INTRA:         -10.672
REMARK INTER:                  -7.854
REMARK INTRA:                  -2.819
REMARK UNBOUND:                -4.080
REMARK SMILES CCCCCCCCCCCCCCCCCCCCCCCCCCCC(=O)[O-]
REMARK SMILES IDX 15 1 16 2 17 3 18 4 19 5 20 6 21 7 22 8 23 9 24 10 25 11
REMARK SMILES IDX 26 12 27 13 28 14 29 15 30 16 14 17 13 18 12 19 11 20 10 21
REMARK SMILES IDX 9 22 8 23 7 24 6 25 5 26 4 27 3 28 2 29 1 30
REMARK H PARENT
REMARK Flexibility Score: inf
ROOT
ATOM      1  C   UNL     1      30.599  46.077   7.993  1.00  0.00     0.000 C 
ENDROOT
BRANCH   1   2
ATOM      2  C   UNL     1      30.204  47.468   7.464  1.00  0.00     0.000 C 
BRANCH   2   3
ATOM      3  C   UNL     1      30.715  47.734   6.036  1.00  0.00     0.000 C 
BRANCH   3   4
ATOM      4  C   UNL     1      31.707  48.905   5.974  1.00  0.00     0.000 C 
BRANCH   4   5
ATOM      5  C   UNL     1      32.099  49.421   7.367  1.00  0.00     0.000 C 
BRANCH   5   6
ATOM      6  C   UNL     1      32.538  50.890   7.314  1.00  0.00     0.000 C 
BRANCH   6   7
ATOM      7  C   UNL     1      31.351  51.797   6.954  1.00  0.00     0.000 C 
BRANCH   7   8
ATOM      8  C   UNL     1      30.063  51.429   7.707  1.00  0.00     0.000 C 
BRANCH   8   9
ATOM      9  C   UNL     1      28.801  51.999   7.040  1.00  0.00     0.000 C 
BRANCH   9  10
ATOM     10  C   UNL     1      27.542  51.176   7.356  1.00  0.00     0.000 C 
BRANCH  10  11
ATOM     11  C   UNL     1      27.538  49.777   6.699  1.00  0.00     0.000 C 
BRANCH  11  12
ATOM     12  C   UNL     1      26.216  49.031   6.928  1.00  0.00     0.006 C 
BRANCH  12  13
ATOM     13  C   UNL     1      26.469  47.568   7.305  1.00  0.00     0.053 C 
BRANCH  13  14
ATOM     14  C   UNL     1      26.555  47.416   8.792  1.00  0.00     0.041 C 
ATOM     15  O   UNL     1      25.683  46.754   9.414  1.00  0.00    -0.550 OA
ATOM     16  O   UNL     1      27.617  47.981   9.487  1.00  0.00    -0.550 OA
ENDBRANCH  13  14
ENDBRANCH  12  13
ENDBRANCH  11  12
ENDBRANCH  10  11
ENDBRANCH   9  10
ENDBRANCH   8   9
ENDBRANCH   7   8
ENDBRANCH   6   7
ENDBRANCH   5   6
ENDBRANCH   4   5
ENDBRANCH   3   4
ENDBRANCH   2   3
ENDBRANCH   1   2
BRANCH   1  17
ATOM     17  C   UNL     1      30.325  44.911   7.027  1.00  0.00     0.000 C 
BRANCH  17  18
ATOM     18  C   UNL     1      28.876  44.885   6.506  1.00  0.00     0.000 C 
BRANCH  18  19
ATOM     19  C   UNL     1      28.133  43.599   6.905  1.00  0.00     0.000 C 
BRANCH  19  20
ATOM     20  C   UNL     1      27.078  43.852   7.997  1.00  0.00     0.000 C 
BRANCH  20  21
ATOM     21  C   UNL     1      25.772  43.067   7.750  1.00  0.00     0.000 C 
BRANCH  21  22
ATOM     22  C   UNL     1      25.850  42.084   6.564  1.00  0.00    -0.000 C 
BRANCH  22  23
ATOM     23  C   UNL     1      24.948  40.840   6.685  1.00  0.00    -0.000 C 
BRANCH  23  24
ATOM     24  C   UNL     1      25.610  39.514   6.262  1.00  0.00    -0.000 C 
BRANCH  24  25
ATOM     25  C   UNL     1      26.624  38.940   7.270  1.00  0.00    -0.000 C 
BRANCH  25  26
ATOM     26  C   UNL     1      26.117  38.927   8.727  1.00  0.00    -0.000 C 
BRANCH  26  27
ATOM     27  C   UNL     1      25.400  37.614   9.085  1.00  0.00    -0.000 C 
BRANCH  27  28
ATOM     28  C   UNL     1      26.295  36.638   9.871  1.00  0.00    -0.000 C 
BRANCH  28  29
ATOM     29  C   UNL     1      27.011  35.580   9.011  1.00  0.00    -0.003 C 
ATOM     30  C   UNL     1      26.198  35.150   7.791  1.00  0.00     0.004 C 
ENDBRANCH  28  29
ENDBRANCH  27  28
ENDBRANCH  26  27
ENDBRANCH  25  26
ENDBRANCH  24  25
ENDBRANCH  23  24
ENDBRANCH  22  23
ENDBRANCH  21  22
ENDBRANCH  20  21
ENDBRANCH  19  20
ENDBRANCH  18  19
ENDBRANCH  17  18
ENDBRANCH   1  17
TORSDOF 26
ENDMDL
MODEL 8
REMARK VINA RESULT:    -2.490      4.240     10.364
REMARK INTER + INTRA:         -10.355
REMARK INTER:                  -7.584
REMARK INTRA:                  -2.771
REMARK UNBOUND:                -4.080
REMARK SMILES CCCCCCCCCCCCCCCCCCCCCCCCCCCC(=O)[O-]
REMARK SMILES IDX 15 1 16 2 17 3 18 4 19 5 20 6 21 7 22 8 23 9 24 10 25 11
REMARK SMILES IDX 26 12 27 13 28 14 29 15 30 16 14 17 13 18 12 19 11 20 10 21
REMARK SMILES IDX 9 22 8 23 7 24 6 25 5 26 4 27 3 28 2 29 1 30
REMARK H PARENT
REMARK Flexibility Score: inf
ROOT
ATOM      1  C   UNL     1      30.725  45.887   6.990  1.00  0.00     0.000 C 
ENDROOT
BRANCH   1   2
ATOM      2  C   UNL     1      30.638  46.528   8.388  1.00  0.00     0.000 C 
BRANCH   2   3
ATOM      3  C   UNL     1      29.970  47.914   8.371  1.00  0.00     0.000 C 
BRANCH   3   4
ATOM      4  C   UNL     1      28.981  48.107   9.531  1.00  0.00     0.000 C 
BRANCH   4   5
ATOM      5  C   UNL     1      27.554  47.664   9.169  1.00  0.00     0.000 C 
BRANCH   5   6
ATOM      6  C   UNL     1      27.025  48.432   7.951  1.00  0.00     0.000 C 
BRANCH   6   7
ATOM      7  C   UNL     1      25.695  49.126   8.284  1.00  0.00     0.000 C 
BRANCH   7   8
ATOM      8  C   UNL     1      25.718  50.636   8.003  1.00  0.00     0.000 C 
BRANCH   8   9
ATOM      9  C   UNL     1      27.139  51.220   8.013  1.00  0.00     0.000 C 
BRANCH   9  10
ATOM     10  C   UNL     1      27.354  52.274   6.914  1.00  0.00     0.000 C 
BRANCH  10  11
ATOM     11  C   UNL     1      28.832  52.437   6.496  1.00  0.00     0.000 C 
BRANCH  11  12
ATOM     12  C   UNL     1      29.734  51.362   7.119  1.00  0.00     0.006 C 
BRANCH  12  13
ATOM     13  C   UNL     1      30.994  51.145   6.275  1.00  0.00     0.053 C 
BRANCH  13  14
ATOM     14  C   UNL     1      32.220  51.208   7.132  1.00  0.00     0.041 C 
ATOM     15  O   UNL     1      32.417  50.340   8.023  1.00  0.00    -0.550 OA
ATOM     16  O   UNL     1      33.159  52.211   6.928  1.00  0.00    -0.550 OA
ENDBRANCH  13  14
ENDBRANCH  12  13
ENDBRANCH  11  12
ENDBRANCH  10  11
ENDBRANCH   9  10
ENDBRANCH   8   9
ENDBRANCH   7   8
ENDBRANCH   6   7
ENDBRANCH   5   6
ENDBRANCH   4   5
ENDBRANCH   3   4
ENDBRANCH   2   3
ENDBRANCH   1   2
BRANCH   1  17
ATOM     17  C   UNL     1      29.816  44.662   6.778  1.00  0.00     0.000 C 
BRANCH  17  18
ATOM     18  C   UNL     1      28.317  45.004   6.848  1.00  0.00     0.000 C 
BRANCH  18  19
ATOM     19  C   UNL     1      27.574  44.166   7.903  1.00  0.00     0.000 C 
BRANCH  19  20
ATOM     20  C   UNL     1      26.072  44.496   7.955  1.00  0.00     0.000 C 
BRANCH  20  21
ATOM     21  C   UNL     1      25.385  44.344   6.581  1.00  0.00     0.000 C 
BRANCH  21  22
ATOM     22  C   UNL     1      24.881  42.916   6.290  1.00  0.00    -0.000 C 
BRANCH  22  23
ATOM     23  C   UNL     1      25.971  41.826   6.290  1.00  0.00    -0.000 C 
BRANCH  23  24
ATOM     24  C   UNL     1      25.832  40.770   7.405  1.00  0.00    -0.000 C 
BRANCH  24  25
ATOM     25  C   UNL     1      26.796  39.573   7.293  1.00  0.00    -0.000 C 
BRANCH  25  26
ATOM     26  C   UNL     1      26.138  38.294   6.732  1.00  0.00    -0.000 C 
BRANCH  26  27
ATOM     27  C   UNL     1      26.831  37.014   7.227  1.00  0.00    -0.000 C 
BRANCH  27  28
ATOM     28  C   UNL     1      26.052  36.305   8.350  1.00  0.00    -0.000 C 
BRANCH  28  29
ATOM     29  C   UNL     1      25.873  37.133   9.636  1.00  0.00    -0.003 C 
ATOM     30  C   UNL     1      24.875  36.512  10.613  1.00  0.00     0.004 C 
ENDBRANCH  28  29
ENDBRANCH  27  28
ENDBRANCH  26  27
ENDBRANCH  25  26
ENDBRANCH  24  25
ENDBRANCH  23  24
ENDBRANCH  22  23
ENDBRANCH  21  22
ENDBRANCH  20  21
ENDBRANCH  19  20
ENDBRANCH  18  19
ENDBRANCH  17  18
ENDBRANCH   1  17
TORSDOF 26
ENDMDL
MODEL 9
REMARK VINA RESULT:    -2.485      3.291     10.065
REMARK INTER + INTRA:         -10.342
REMARK INTER:                  -7.247
REMARK INTRA:                  -3.095
REMARK UNBOUND:                -4.080
REMARK SMILES CCCCCCCCCCCCCCCCCCCCCCCCCCCC(=O)[O-]
REMARK SMILES IDX 15 1 16 2 17 3 18 4 19 5 20 6 21 7 22 8 23 9 24 10 25 11
REMARK SMILES IDX 26 12 27 13 28 14 29 15 30 16 14 17 13 18 12 19 11 20 10 21
REMARK SMILES IDX 9 22 8 23 7 24 6 25 5 26 4 27 3 28 2 29 1 30
REMARK H PARENT
REMARK Flexibility Score: inf
ROOT
ATOM      1  C   UNL     1      26.745  43.950   8.346  1.00  0.00     0.000 C 
ENDROOT
BRANCH   1   2
ATOM      2  C   UNL     1      25.619  44.915   8.760  1.00  0.00     0.000 C 
BRANCH   2   3
ATOM      3  C   UNL     1      26.095  46.008   9.734  1.00  0.00     0.000 C 
BRANCH   3   4
ATOM      4  C   UNL     1      26.095  47.406   9.097  1.00  0.00     0.000 C 
BRANCH   4   5
ATOM      5  C   UNL     1      25.308  47.454   7.778  1.00  0.00     0.000 C 
BRANCH   5   6
ATOM      6  C   UNL     1      25.073  48.899   7.320  1.00  0.00     0.000 C 
BRANCH   6   7
ATOM      7  C   UNL     1      25.932  49.873   8.142  1.00  0.00     0.000 C 
BRANCH   7   8
ATOM      8  C   UNL     1      26.755  50.832   7.269  1.00  0.00     0.000 C 
BRANCH   8   9
ATOM      9  C   UNL     1      27.388  50.134   6.054  1.00  0.00     0.000 C 
BRANCH   9  10
ATOM     10  C   UNL     1      28.916  50.006   6.175  1.00  0.00     0.000 C 
BRANCH  10  11
ATOM     11  C   UNL     1      29.376  48.656   6.770  1.00  0.00     0.000 C 
BRANCH  11  12
ATOM     12  C   UNL     1      29.786  48.781   8.245  1.00  0.00     0.006 C 
BRANCH  12  13
ATOM     13  C   UNL     1      29.666  47.434   8.964  1.00  0.00     0.053 C 
BRANCH  13  14
ATOM     14  C   UNL     1      30.886  46.599   8.725  1.00  0.00     0.041 C 
ATOM     15  O   UNL     1      31.860  46.658   9.520  1.00  0.00    -0.550 OA
ATOM     16  O   UNL     1      30.933  45.735   7.639  1.00  0.00    -0.550 OA
ENDBRANCH  13  14
ENDBRANCH  12  13
ENDBRANCH  11  12
ENDBRANCH  10  11
ENDBRANCH   9  10
ENDBRANCH   8   9
ENDBRANCH   7   8
ENDBRANCH   6   7
ENDBRANCH   5   6
ENDBRANCH   4   5
ENDBRANCH   3   4
ENDBRANCH   2   3
ENDBRANCH   1   2
BRANCH   1  17
ATOM     17  C   UNL     1      27.645  44.451   7.201  1.00  0.00     0.000 C 
BRANCH  17  18
ATOM     18  C   UNL     1      28.578  43.360   6.645  1.00  0.00     0.000 C 
BRANCH  18  19
ATOM     19  C   UNL     1      27.803  42.209   5.981  1.00  0.00     0.000 C 
BRANCH  19  20
ATOM     20  C   UNL     1      28.463  40.842   6.234  1.00  0.00     0.000 C 
BRANCH  20  21
ATOM     21  C   UNL     1      27.457  39.785   6.740  1.00  0.00     0.000 C 
BRANCH  21  22
ATOM     22  C   UNL     1      26.779  40.158   8.074  1.00  0.00    -0.000 C 
BRANCH  22  23
ATOM     23  C   UNL     1      26.132  38.981   8.830  1.00  0.00    -0.000 C 
BRANCH  23  24
ATOM     24  C   UNL     1      25.268  38.047   7.959  1.00  0.00    -0.000 C 
BRANCH  24  25
ATOM     25  C   UNL     1      25.759  36.588   7.882  1.00  0.00    -0.000 C 
BRANCH  25  26
ATOM     26  C   UNL     1      25.659  35.970   6.472  1.00  0.00    -0.000 C 
BRANCH  26  27
ATOM     27  C   UNL     1      26.957  35.262   6.049  1.00  0.00    -0.000 C 
BRANCH  27  28
ATOM     28  C   UNL     1      28.222  35.958   6.585  1.00  0.00    -0.000 C 
BRANCH  28  29
ATOM     29  C   UNL     1      29.550  35.302   6.162  1.00  0.00    -0.003 C 
ATOM     30  C   UNL     1      30.411  34.875   7.350  1.00  0.00     0.004 C 
ENDBRANCH  28  29
ENDBRANCH  27  28
ENDBRANCH  26  27
ENDBRANCH  25  26
ENDBRANCH  24  25
ENDBRANCH  23  24
ENDBRANCH  22  23
ENDBRANCH  21  22
ENDBRANCH  20  21
ENDBRANCH  19  20
ENDBRANCH  18  19
ENDBRANCH  17  18
ENDBRANCH   1  17
TORSDOF 26
ENDMDL
