MODEL 1
REMARK VINA RESULT:    -4.700      0.000      0.000
REMARK INTER + INTRA:          -9.588
REMARK INTER:                  -8.546
REMARK INTRA:                  -1.042
REMARK UNBOUND:                -1.042
REMARK SMILES CCCCCCCCCCCCCCCC(=O)[O-]
REMARK SMILES IDX 9 1 10 2 11 3 12 4 13 5 14 6 15 7 16 8 17 9 18 10 8 11 7 12
REMARK SMILES IDX 6 13 5 14 4 15 3 16 2 17 1 18
REMARK H PARENT
REMARK Flexibility Score: inf
ROOT
ATOM      1  C   UNL     1       9.828  11.359  19.155  1.00  0.00     0.000 C 
ENDROOT
BRANCH   1   2
ATOM      2  C   UNL     1      11.196  10.867  19.655  1.00  0.00     0.000 C 
BRANCH   2   3
ATOM      3  C   UNL     1      11.568  11.442  21.030  1.00  0.00     0.000 C 
BRANCH   3   4
ATOM      4  C   UNL     1      10.816  12.752  21.299  1.00  0.00     0.000 C 
BRANCH   4   5
ATOM      5  C   UNL     1      10.910  13.146  22.781  1.00  0.00     0.000 C 
BRANCH   5   6
ATOM      6  C   UNL     1      12.218  12.673  23.442  1.00  0.00     0.006 C 
BRANCH   6   7
ATOM      7  C   UNL     1      13.324  13.741  23.489  1.00  0.00     0.053 C 
BRANCH   7   8
ATOM      8  C   UNL     1      14.625  13.224  22.956  1.00  0.00     0.041 C 
ATOM      9  O   UNL     1      15.024  12.072  23.267  1.00  0.00    -0.550 OA
ATOM     10  O   UNL     1      15.411  14.029  22.142  1.00  0.00    -0.550 OA
ENDBRANCH   7   8
ENDBRANCH   6   7
ENDBRANCH   5   6
ENDBRANCH   4   5
ENDBRANCH   3   4
ENDBRANCH   2   3
ENDBRANCH   1   2
BRANCH   1  11
ATOM     11  C   UNL     1       8.802  10.218  19.028  1.00  0.00     0.000 C 
BRANCH  11  12
ATOM     12  C   UNL     1       9.414   8.834  19.307  1.00  0.00    -0.000 C 
BRANCH  12  13
ATOM     13  C   UNL     1       8.563   7.632  18.846  1.00  0.00    -0.000 C 
BRANCH  13  14
ATOM     14  C   UNL     1       9.357   6.431  18.299  1.00  0.00    -0.000 C 
BRANCH  14  15
ATOM     15  C   UNL     1      10.368   5.871  19.313  1.00  0.00    -0.000 C 
BRANCH  15  16
ATOM     16  C   UNL     1      11.830   6.108  18.893  1.00  0.00    -0.000 C 
BRANCH  16  17
ATOM     17  C   UNL     1      12.014   6.769  17.515  1.00  0.00    -0.003 C 
ATOM     18  C   UNL     1      13.117   6.119  16.681  1.00  0.00     0.004 C 
ENDBRANCH  16  17
ENDBRANCH  15  16
ENDBRANCH  14  15
ENDBRANCH  13  14
ENDBRANCH  12  13
ENDBRANCH  11  12
ENDBRANCH   1  11
TORSDOF 14
ENDMDL
MODEL 2
REMARK VINA RESULT:    -4.631      4.241      5.610
REMARK INTER + INTRA:          -9.463
REMARK INTER:                  -7.619
REMARK INTRA:                  -1.844
REMARK UNBOUND:                -1.042
REMARK SMILES CCCCCCCCCCCCCCCC(=O)[O-]
REMARK SMILES IDX 9 1 10 2 11 3 12 4 13 5 14 6 15 7 16 8 17 9 18 10 8 11 7 12
REMARK SMILES IDX 6 13 5 14 4 15 3 16 2 17 1 18
REMARK H PARENT
REMARK Flexibility Score: inf
ROOT
ATOM      1  C   UNL     1      11.320  10.282  19.097  1.00  0.00     0.000 C 
ENDROOT
BRANCH   1   2
ATOM      2  C   UNL     1      12.356  10.580  20.193  1.00  0.00     0.000 C 
BRANCH   2   3
ATOM      3  C   UNL     1      12.223   9.646  21.406  1.00  0.00     0.000 C 
BRANCH   3   4
ATOM      4  C   UNL     1      12.558   8.199  21.023  1.00  0.00     0.000 C 
BRANCH   4   5
ATOM      5  C   UNL     1      12.071   7.218  22.100  1.00  0.00     0.000 C 
BRANCH   5   6
ATOM      6  C   UNL     1      12.078   5.754  21.621  1.00  0.00     0.006 C 
BRANCH   6   7
ATOM      7  C   UNL     1      11.987   4.719  22.754  1.00  0.00     0.053 C 
BRANCH   7   8
ATOM      8  C   UNL     1      12.054   3.314  22.236  1.00  0.00     0.041 C 
ATOM      9  O   UNL     1      11.371   2.975  21.236  1.00  0.00    -0.550 OA
ATOM     10  O   UNL     1      12.848   2.374  22.880  1.00  0.00    -0.550 OA
ENDBRANCH   7   8
ENDBRANCH   6   7
ENDBRANCH   5   6
ENDBRANCH   4   5
ENDBRANCH   3   4
ENDBRANCH   2   3
ENDBRANCH   1   2
BRANCH   1  11
ATOM     11  C   UNL     1      10.000  11.045  19.309  1.00  0.00     0.000 C 
BRANCH  11  12
ATOM     12  C   UNL     1       8.762  10.140  19.183  1.00  0.00    -0.000 C 
BRANCH  12  13
ATOM     13  C   UNL     1       8.891   8.751  19.841  1.00  0.00    -0.000 C 
BRANCH  13  14
ATOM     14  C   UNL     1       8.568   7.554  18.927  1.00  0.00    -0.000 C 
BRANCH  14  15
ATOM     15  C   UNL     1       9.546   6.382  19.110  1.00  0.00    -0.000 C 
BRANCH  15  16
ATOM     16  C   UNL     1      10.423   6.135  17.868  1.00  0.00    -0.000 C 
BRANCH  16  17
ATOM     17  C   UNL     1      11.691   7.004  17.783  1.00  0.00    -0.003 C 
ATOM     18  C   UNL     1      12.822   6.338  16.999  1.00  0.00     0.004 C 
ENDBRANCH  16  17
ENDBRANCH  15  16
ENDBRANCH  14  15
ENDBRANCH  13  14
ENDBRANCH  12  13
ENDBRANCH  11  12
ENDBRANCH   1  11
TORSDOF 14
ENDMDL
MODEL 3
REMARK VINA RESULT:    -4.604      3.365      6.670
REMARK INTER + INTRA:          -9.415
REMARK INTER:                  -7.399
REMARK INTRA:                  -2.016
REMARK UNBOUND:                -1.042
REMARK SMILES CCCCCCCCCCCCCCCC(=O)[O-]
REMARK SMILES IDX 9 1 10 2 11 3 12 4 13 5 14 6 15 7 16 8 17 9 18 10 8 11 7 12
REMARK SMILES IDX 6 13 5 14 4 15 3 16 2 17 1 18
REMARK H PARENT
REMARK Flexibility Score: inf
ROOT
ATOM      1  C   UNL     1      10.663  11.515  20.540  1.00  0.00     0.000 C 
ENDROOT
BRANCH   1   2
ATOM      2  C   UNL     1      11.788  10.724  19.854  1.00  0.00     0.000 C 
BRANCH   2   3
ATOM      3  C   UNL     1      12.785  10.120  20.855  1.00  0.00     0.000 C 
BRANCH   3   4
ATOM      4  C   UNL     1      14.231  10.417  20.437  1.00  0.00     0.000 C 
BRANCH   4   5
ATOM      5  C   UNL     1      15.085  10.812  21.651  1.00  0.00     0.000 C 
BRANCH   5   6
ATOM      6  C   UNL     1      14.832   9.912  22.876  1.00  0.00     0.006 C 
BRANCH   6   7
ATOM      7  C   UNL     1      15.813  10.138  24.038  1.00  0.00     0.053 C 
BRANCH   7   8
ATOM      8  C   UNL     1      17.198   9.679  23.699  1.00  0.00     0.041 C 
ATOM      9  O   UNL     1      17.542   8.488  23.918  1.00  0.00    -0.550 OA
ATOM     10  O   UNL     1      18.118  10.575  23.171  1.00  0.00    -0.550 OA
ENDBRANCH   7   8
ENDBRANCH   6   7
ENDBRANCH   5   6
ENDBRANCH   4   5
ENDBRANCH   3   4
ENDBRANCH   2   3
ENDBRANCH   1   2
BRANCH   1  11
ATOM     11  C   UNL     1      11.183  12.762  21.277  1.00  0.00     0.000 C 
BRANCH  11  12
ATOM     12  C   UNL     1      11.013  12.666  22.804  1.00  0.00    -0.000 C 
BRANCH  12  13
ATOM     13  C   UNL     1      12.215  13.161  23.634  1.00  0.00    -0.000 C 
BRANCH  13  14
ATOM     14  C   UNL     1      13.396  13.719  22.819  1.00  0.00    -0.000 C 
BRANCH  14  15
ATOM     15  C   UNL     1      14.688  13.840  23.644  1.00  0.00    -0.000 C 
BRANCH  15  16
ATOM     16  C   UNL     1      15.920  14.171  22.782  1.00  0.00    -0.000 C 
BRANCH  16  17
ATOM     17  C   UNL     1      17.264  14.149  23.531  1.00  0.00    -0.003 C 
ATOM     18  C   UNL     1      17.165  13.524  24.923  1.00  0.00     0.004 C 
ENDBRANCH  16  17
ENDBRANCH  15  16
ENDBRANCH  14  15
ENDBRANCH  13  14
ENDBRANCH  12  13
ENDBRANCH  11  12
ENDBRANCH   1  11
TORSDOF 14
ENDMDL
MODEL 4
REMARK VINA RESULT:    -4.550      3.257      5.359
REMARK INTER + INTRA:          -9.316
REMARK INTER:                  -7.290
REMARK INTRA:                  -2.026
REMARK UNBOUND:                -1.042
REMARK SMILES CCCCCCCCCCCCCCCC(=O)[O-]
REMARK SMILES IDX 9 1 10 2 11 3 12 4 13 5 14 6 15 7 16 8 17 9 18 10 8 11 7 12
REMARK SMILES IDX 6 13 5 14 4 15 3 16 2 17 1 18
REMARK H PARENT
REMARK Flexibility Score: inf
ROOT
ATOM      1  C   UNL     1      12.592  13.894  23.389  1.00  0.00     0.000 C 
ENDROOT
BRANCH   1   2
ATOM      2  C   UNL     1      13.974  13.222  23.435  1.00  0.00     0.000 C 
BRANCH   2   3
ATOM      3  C   UNL     1      14.988  13.884  22.489  1.00  0.00     0.000 C 
BRANCH   3   4
ATOM      4  C   UNL     1      16.385  13.921  23.121  1.00  0.00     0.000 C 
BRANCH   4   5
ATOM      5  C   UNL     1      16.300  13.816  24.651  1.00  0.00     0.000 C 
BRANCH   5   6
ATOM      6  C   UNL     1      17.371  12.882  25.245  1.00  0.00     0.006 C 
BRANCH   6   7
ATOM      7  C   UNL     1      17.100  11.386  25.019  1.00  0.00     0.053 C 
BRANCH   7   8
ATOM      8  C   UNL     1      18.220  10.719  24.279  1.00  0.00     0.041 C 
ATOM      9  O   UNL     1      18.174  10.608  23.027  1.00  0.00    -0.550 OA
ATOM     10  O   UNL     1      19.297  10.191  24.979  1.00  0.00    -0.550 OA
ENDBRANCH   7   8
ENDBRANCH   6   7
ENDBRANCH   5   6
ENDBRANCH   4   5
ENDBRANCH   3   4
ENDBRANCH   2   3
ENDBRANCH   1   2
BRANCH   1  11
ATOM     11  C   UNL     1      11.462  12.896  23.077  1.00  0.00     0.000 C 
BRANCH  11  12
ATOM     12  C   UNL     1      11.224  12.721  21.566  1.00  0.00    -0.000 C 
BRANCH  12  13
ATOM     13  C   UNL     1      10.924  11.278  21.109  1.00  0.00    -0.000 C 
BRANCH  13  14
ATOM     14  C   UNL     1      11.705  10.801  19.870  1.00  0.00    -0.000 C 
BRANCH  14  15
ATOM     15  C   UNL     1      12.866   9.856  20.222  1.00  0.00    -0.000 C 
BRANCH  15  16
ATOM     16  C   UNL     1      14.181  10.604  20.510  1.00  0.00    -0.000 C 
BRANCH  16  17
ATOM     17  C   UNL     1      14.955  10.109  21.744  1.00  0.00    -0.003 C 
ATOM     18  C   UNL     1      14.041   9.651  22.881  1.00  0.00     0.004 C 
ENDBRANCH  16  17
ENDBRANCH  15  16
ENDBRANCH  14  15
ENDBRANCH  13  14
ENDBRANCH  12  13
ENDBRANCH  11  12
ENDBRANCH   1  11
TORSDOF 14
ENDMDL
MODEL 5
REMARK VINA RESULT:    -4.530      4.490      7.256
REMARK INTER + INTRA:          -9.279
REMARK INTER:                  -7.978
REMARK INTRA:                  -1.302
REMARK UNBOUND:                -1.042
REMARK SMILES CCCCCCCCCCCCCCCC(=O)[O-]
REMARK SMILES IDX 9 1 10 2 11 3 12 4 13 5 14 6 15 7 16 8 17 9 18 10 8 11 7 12
REMARK SMILES IDX 6 13 5 14 4 15 3 16 2 17 1 18
REMARK H PARENT
REMARK Flexibility Score: inf
ROOT
ATOM      1  C   UNL     1      14.941  13.697  23.558  1.00  0.00     0.000 C 
ENDROOT
BRANCH   1   2
ATOM      2  C   UNL     1      16.257  14.305  23.047  1.00  0.00     0.000 C 
BRANCH   2   3
ATOM      3  C   UNL     1      17.468  13.906  23.904  1.00  0.00     0.000 C 
BRANCH   3   4
ATOM      4  C   UNL     1      17.019  13.292  25.236  1.00  0.00     0.000 C 
BRANCH   4   5
ATOM      5  C   UNL     1      18.216  13.084  26.177  1.00  0.00     0.000 C 
BRANCH   5   6
ATOM      6  C   UNL     1      19.033  14.371  26.397  1.00  0.00     0.006 C 
BRANCH   6   7
ATOM      7  C   UNL     1      19.413  14.634  27.863  1.00  0.00     0.053 C 
BRANCH   7   8
ATOM      8  C   UNL     1      20.666  13.912  28.256  1.00  0.00     0.041 C 
ATOM      9  O   UNL     1      20.867  13.601  29.458  1.00  0.00    -0.550 OA
ATOM     10  O   UNL     1      21.624  13.611  27.296  1.00  0.00    -0.550 OA
ENDBRANCH   7   8
ENDBRANCH   6   7
ENDBRANCH   5   6
ENDBRANCH   4   5
ENDBRANCH   3   4
ENDBRANCH   2   3
ENDBRANCH   1   2
BRANCH   1  11
ATOM     11  C   UNL     1      14.382  12.619  22.612  1.00  0.00     0.000 C 
BRANCH  11  12
ATOM     12  C   UNL     1      14.756  11.191  23.050  1.00  0.00    -0.000 C 
BRANCH  12  13
ATOM     13  C   UNL     1      15.136  10.229  21.905  1.00  0.00    -0.000 C 
BRANCH  13  14
ATOM     14  C   UNL     1      14.480  10.529  20.544  1.00  0.00    -0.000 C 
BRANCH  14  15
ATOM     15  C   UNL     1      13.117   9.837  20.372  1.00  0.00    -0.000 C 
BRANCH  15  16
ATOM     16  C   UNL     1      11.975  10.830  20.087  1.00  0.00    -0.000 C 
BRANCH  16  17
ATOM     17  C   UNL     1      11.116  11.203  21.308  1.00  0.00    -0.003 C 
ATOM     18  C   UNL     1      10.872  12.707  21.431  1.00  0.00     0.004 C 
ENDBRANCH  16  17
ENDBRANCH  15  16
ENDBRANCH  14  15
ENDBRANCH  13  14
ENDBRANCH  12  13
ENDBRANCH  11  12
ENDBRANCH   1  11
TORSDOF 14
ENDMDL
MODEL 6
REMARK VINA RESULT:    -4.507      3.924      6.572
REMARK INTER + INTRA:          -9.238
REMARK INTER:                  -6.874
REMARK INTRA:                  -2.364
REMARK UNBOUND:                -1.042
REMARK SMILES CCCCCCCCCCCCCCCC(=O)[O-]
REMARK SMILES IDX 9 1 10 2 11 3 12 4 13 5 14 6 15 7 16 8 17 9 18 10 8 11 7 12
REMARK SMILES IDX 6 13 5 14 4 15 3 16 2 17 1 18
REMARK H PARENT
REMARK Flexibility Score: inf
ROOT
ATOM      1  C   UNL     1       8.949   8.487  19.540  1.00  0.00     0.000 C 
ENDROOT
BRANCH   1   2
ATOM      2  C   UNL     1       8.418   7.488  18.499  1.00  0.00     0.000 C 
BRANCH   2   3
ATOM      3  C   UNL     1       9.121   6.124  18.572  1.00  0.00     0.000 C 
BRANCH   3   4
ATOM      4  C   UNL     1      10.623   6.294  18.834  1.00  0.00     0.000 C 
BRANCH   4   5
ATOM      5  C   UNL     1      11.067   5.465  20.049  1.00  0.00     0.000 C 
BRANCH   5   6
ATOM      6  C   UNL     1      12.523   4.977  19.939  1.00  0.00     0.006 C 
BRANCH   6   7
ATOM      7  C   UNL     1      13.247   4.841  21.288  1.00  0.00     0.053 C 
BRANCH   7   8
ATOM      8  C   UNL     1      12.446   4.049  22.277  1.00  0.00     0.041 C 
ATOM      9  O   UNL     1      12.188   2.837  22.056  1.00  0.00    -0.550 OA
ATOM     10  O   UNL     1      11.960   4.659  23.425  1.00  0.00    -0.550 OA
ENDBRANCH   7   8
ENDBRANCH   6   7
ENDBRANCH   5   6
ENDBRANCH   4   5
ENDBRANCH   3   4
ENDBRANCH   2   3
ENDBRANCH   1   2
BRANCH   1  11
ATOM     11  C   UNL     1       8.536   9.937  19.230  1.00  0.00     0.000 C 
BRANCH  11  12
ATOM     12  C   UNL     1       9.718  10.920  19.302  1.00  0.00    -0.000 C 
BRANCH  12  13
ATOM     13  C   UNL     1      11.090  10.333  18.909  1.00  0.00    -0.000 C 
BRANCH  13  14
ATOM     14  C   UNL     1      12.148  10.319  20.028  1.00  0.00    -0.000 C 
BRANCH  14  15
ATOM     15  C   UNL     1      12.719   8.917  20.294  1.00  0.00    -0.000 C 
BRANCH  15  16
ATOM     16  C   UNL     1      12.524   8.457  21.750  1.00  0.00    -0.000 C 
BRANCH  16  17
ATOM     17  C   UNL     1      11.210   8.913  22.407  1.00  0.00    -0.003 C 
ATOM     18  C   UNL     1      10.335   7.747  22.870  1.00  0.00     0.004 C 
ENDBRANCH  16  17
ENDBRANCH  15  16
ENDBRANCH  14  15
ENDBRANCH  13  14
ENDBRANCH  12  13
ENDBRANCH  11  12
ENDBRANCH   1  11
TORSDOF 14
ENDMDL
MODEL 7
REMARK VINA RESULT:    -4.495      3.570      7.517
REMARK INTER + INTRA:          -9.215
REMARK INTER:                  -7.245
REMARK INTRA:                  -1.971
REMARK UNBOUND:                -1.042
REMARK SMILES CCCCCCCCCCCCCCCC(=O)[O-]
REMARK SMILES IDX 9 1 10 2 11 3 12 4 13 5 14 6 15 7 16 8 17 9 18 10 8 11 7 12
REMARK SMILES IDX 6 13 5 14 4 15 3 16 2 17 1 18
REMARK H PARENT
REMARK Flexibility Score: inf
ROOT
ATOM      1  C   UNL     1      15.098  10.642  23.212  1.00  0.00     0.000 C 
ENDROOT
BRANCH   1   2
ATOM      2  C   UNL     1      14.902   9.820  21.929  1.00  0.00     0.000 C 
BRANCH   2   3
ATOM      3  C   UNL     1      14.075  10.562  20.868  1.00  0.00     0.000 C 
BRANCH   3   4
ATOM      4  C   UNL     1      12.622  10.070  20.861  1.00  0.00     0.000 C 
BRANCH   4   5
ATOM      5  C   UNL     1      11.807  10.774  19.767  1.00  0.00     0.000 C 
BRANCH   5   6
ATOM      6  C   UNL     1      10.621  11.579  20.330  1.00  0.00     0.006 C 
BRANCH   6   7
ATOM      7  C   UNL     1      11.023  12.686  21.319  1.00  0.00     0.053 C 
BRANCH   7   8
ATOM      8  C   UNL     1      10.318  12.545  22.634  1.00  0.00     0.041 C 
ATOM      9  O   UNL     1       9.851  13.560  23.214  1.00  0.00    -0.550 OA
ATOM     10  O   UNL     1      10.206  11.297  23.233  1.00  0.00    -0.550 OA
ENDBRANCH   7   8
ENDBRANCH   6   7
ENDBRANCH   5   6
ENDBRANCH   4   5
ENDBRANCH   3   4
ENDBRANCH   2   3
ENDBRANCH   1   2
BRANCH   1  11
ATOM     11  C   UNL     1      13.822  10.708  24.070  1.00  0.00     0.000 C 
BRANCH  11  12
ATOM     12  C   UNL     1      13.525  12.127  24.588  1.00  0.00    -0.000 C 
BRANCH  12  13
ATOM     13  C   UNL     1      13.821  13.268  23.592  1.00  0.00    -0.000 C 
BRANCH  13  14
ATOM     14  C   UNL     1      14.942  14.236  24.010  1.00  0.00    -0.000 C 
BRANCH  14  15
ATOM     15  C   UNL     1      16.114  14.259  23.015  1.00  0.00    -0.000 C 
BRANCH  15  16
ATOM     16  C   UNL     1      17.472  13.971  23.683  1.00  0.00    -0.000 C 
BRANCH  16  17
ATOM     17  C   UNL     1      17.393  13.510  25.148  1.00  0.00    -0.003 C 
ATOM     18  C   UNL     1      17.752  12.035  25.333  1.00  0.00     0.004 C 
ENDBRANCH  16  17
ENDBRANCH  15  16
ENDBRANCH  14  15
ENDBRANCH  13  14
ENDBRANCH  12  13
ENDBRANCH  11  12
ENDBRANCH   1  11
TORSDOF 14
ENDMDL
MODEL 8
REMARK VINA RESULT:    -4.489      4.657      7.567
REMARK INTER + INTRA:          -9.205
REMARK INTER:                  -7.866
REMARK INTRA:                  -1.338
REMARK UNBOUND:                -1.042
REMARK SMILES CCCCCCCCCCCCCCCC(=O)[O-]
REMARK SMILES IDX 9 1 10 2 11 3 12 4 13 5 14 6 15 7 16 8 17 9 18 10 8 11 7 12
REMARK SMILES IDX 6 13 5 14 4 15 3 16 2 17 1 18
REMARK H PARENT
REMARK Flexibility Score: inf
ROOT
ATOM      1  C   UNL     1      11.542   5.265  20.104  1.00  0.00     0.000 C 
ENDROOT
BRANCH   1   2
ATOM      2  C   UNL     1      12.506   4.142  20.521  1.00  0.00     0.000 C 
BRANCH   2   3
ATOM      3  C   UNL     1      13.251   4.454  21.828  1.00  0.00     0.000 C 
BRANCH   3   4
ATOM      4  C   UNL     1      13.799   3.171  22.466  1.00  0.00     0.000 C 
BRANCH   4   5
ATOM      5  C   UNL     1      15.334   3.144  22.413  1.00  0.00     0.000 C 
BRANCH   5   6
ATOM      6  C   UNL     1      15.926   4.333  21.633  1.00  0.00     0.006 C 
BRANCH   6   7
ATOM      7  C   UNL     1      17.199   3.997  20.839  1.00  0.00     0.053 C 
BRANCH   7   8
ATOM      8  C   UNL     1      16.884   3.397  19.502  1.00  0.00     0.041 C 
ATOM      9  O   UNL     1      15.738   3.536  19.001  1.00  0.00    -0.550 OA
ATOM     10  O   UNL     1      17.848   2.659  18.828  1.00  0.00    -0.550 OA
ENDBRANCH   7   8
ENDBRANCH   6   7
ENDBRANCH   5   6
ENDBRANCH   4   5
ENDBRANCH   3   4
ENDBRANCH   2   3
ENDBRANCH   1   2
BRANCH   1  11
ATOM     11  C   UNL     1      12.037   6.039  18.870  1.00  0.00     0.000 C 
BRANCH  11  12
ATOM     12  C   UNL     1      10.905   6.373  17.882  1.00  0.00    -0.000 C 
BRANCH  12  13
ATOM     13  C   UNL     1       9.489   5.968  18.341  1.00  0.00    -0.000 C 
BRANCH  13  14
ATOM     14  C   UNL     1       8.535   7.136  18.653  1.00  0.00    -0.000 C 
BRANCH  14  15
ATOM     15  C   UNL     1       8.632   7.614  20.111  1.00  0.00    -0.000 C 
BRANCH  15  16
ATOM     16  C   UNL     1       8.776   9.142  20.232  1.00  0.00    -0.000 C 
BRANCH  16  17
ATOM     17  C   UNL     1       9.599   9.810  19.116  1.00  0.00    -0.003 C 
ATOM     18  C   UNL     1      11.102   9.805  19.395  1.00  0.00     0.004 C 
ENDBRANCH  16  17
ENDBRANCH  15  16
ENDBRANCH  14  15
ENDBRANCH  13  14
ENDBRANCH  12  13
ENDBRANCH  11  12
ENDBRANCH   1  11
TORSDOF 14
ENDMDL
MODEL 9
REMARK VINA RESULT:    -4.472      3.110      6.449
REMARK INTER + INTRA:          -9.174
REMARK INTER:                  -7.571
REMARK INTRA:                  -1.603
REMARK UNBOUND:                -1.042
REMARK SMILES CCCCCCCCCCCCCCCC(=O)[O-]
REMARK SMILES IDX 9 1 10 2 11 3 12 4 13 5 14 6 15 7 16 8 17 9 18 10 8 11 7 12
REMARK SMILES IDX 6 13 5 14 4 15 3 16 2 17 1 18
REMARK H PARENT
REMARK Flexibility Score: inf
ROOT
ATOM      1  C   UNL     1       8.965   9.079  20.247  1.00  0.00     0.000 C 
ENDROOT
BRANCH   1   2
ATOM      2  C   UNL     1       8.580   7.600  20.080  1.00  0.00     0.000 C 
BRANCH   2   3
ATOM      3  C   UNL     1       8.550   7.157  18.609  1.00  0.00     0.000 C 
BRANCH   3   4
ATOM      4  C   UNL     1       9.539   6.010  18.361  1.00  0.00     0.000 C 
BRANCH   4   5
ATOM      5  C   UNL     1      10.907   6.550  17.918  1.00  0.00     0.000 C 
BRANCH   5   6
ATOM      6  C   UNL     1      12.063   6.039  18.799  1.00  0.00     0.006 C 
BRANCH   6   7
ATOM      7  C   UNL     1      12.031   6.557  20.246  1.00  0.00     0.053 C 
BRANCH   7   8
ATOM      8  C   UNL     1      11.858   5.446  21.235  1.00  0.00     0.041 C 
ATOM      9  O   UNL     1      11.691   4.264  20.837  1.00  0.00    -0.550 OA
ATOM     10  O   UNL     1      11.849   5.722  22.596  1.00  0.00    -0.550 OA
ENDBRANCH   7   8
ENDBRANCH   6   7
ENDBRANCH   5   6
ENDBRANCH   4   5
ENDBRANCH   3   4
ENDBRANCH   2   3
ENDBRANCH   1   2
BRANCH   1  11
ATOM     11  C   UNL     1       8.576   9.931  19.026  1.00  0.00     0.000 C 
BRANCH  11  12
ATOM     12  C   UNL     1       9.210  11.333  19.052  1.00  0.00    -0.000 C 
BRANCH  12  13
ATOM     13  C   UNL     1       9.385  11.953  20.454  1.00  0.00    -0.000 C 
BRANCH  13  14
ATOM     14  C   UNL     1      10.822  12.371  20.817  1.00  0.00    -0.000 C 
BRANCH  14  15
ATOM     15  C   UNL     1      11.682  11.192  21.303  1.00  0.00    -0.000 C 
BRANCH  15  16
ATOM     16  C   UNL     1      12.510  10.550  20.174  1.00  0.00    -0.000 C 
BRANCH  16  17
ATOM     17  C   UNL     1      14.018  10.440  20.454  1.00  0.00    -0.003 C 
ATOM     18  C   UNL     1      14.464  11.256  21.668  1.00  0.00     0.004 C 
ENDBRANCH  16  17
ENDBRANCH  15  16
ENDBRANCH  14  15
ENDBRANCH  13  14
ENDBRANCH  12  13
ENDBRANCH  11  12
ENDBRANCH   1  11
TORSDOF 14
ENDMDL
