MODEL 1
REMARK VINA RESULT:    -5.391      0.000      0.000
REMARK INTER + INTRA:          -6.224
REMARK INTER:                  -6.179
REMARK INTRA:                  -0.045
REMARK UNBOUND:                -0.045
REMARK SMILES O=C([O-])c1cc(O)c(O)c(O)c1
REMARK SMILES IDX 4 1 5 2 12 3 6 4 10 5 8 6 2 7 1 8 3 9 7 10 11 12 9 14
REMARK H PARENT 7 11 11 13 9 15
REMARK Flexibility Score: inf
ROOT
ATOM      1  C   UNL     1       4.451   9.675   4.028  1.00  0.00     0.005 A 
ATOM      2  C   UNL     1       5.526   9.883   3.149  1.00  0.00     0.060 A 
ATOM      3  C   UNL     1       3.866  10.781   4.662  1.00  0.00     0.060 A 
ATOM      4  C   UNL     1       6.017  11.170   2.902  1.00  0.00     0.162 A 
ATOM      5  C   UNL     1       4.343  12.073   4.426  1.00  0.00     0.162 A 
ATOM      6  C   UNL     1       5.421  12.281   3.546  1.00  0.00     0.200 A 
ENDROOT
BRANCH   1   7
ATOM      7  C   UNL     1       3.938   8.310   4.284  1.00  0.00     0.072 C 
ATOM      8  O   UNL     1       2.815   7.953   3.840  1.00  0.00    -0.545 OA
ATOM      9  O   UNL     1       4.691   7.401   5.019  1.00  0.00    -0.545 OA
ENDBRANCH   1   7
BRANCH   4  10
ATOM     10  O   UNL     1       7.089  11.296   2.016  1.00  0.00    -0.504 OA
ATOM     11  H   UNL     1       8.060  11.285   2.296  1.00  0.00     0.293 HD
ENDBRANCH   4  10
BRANCH   5  12
ATOM     12  O   UNL     1       3.730  13.142   5.079  1.00  0.00    -0.504 OA
ATOM     13  H   UNL     1       2.728  13.186   5.225  1.00  0.00     0.293 HD
ENDBRANCH   5  12
BRANCH   6  14
ATOM     14  O   UNL     1       5.867  13.590   3.339  1.00  0.00    -0.502 OA
ATOM     15  H   UNL     1       6.127  14.224   4.080  1.00  0.00     0.293 HD
ENDBRANCH   6  14
TORSDOF 4
ENDMDL
MODEL 2
REMARK VINA RESULT:    -5.372      0.056      2.445
REMARK INTER + INTRA:          -6.202
REMARK INTER:                  -6.157
REMARK INTRA:                  -0.046
REMARK UNBOUND:                -0.045
REMARK SMILES O=C([O-])c1cc(O)c(O)c(O)c1
REMARK SMILES IDX 4 1 5 2 12 3 6 4 10 5 8 6 2 7 1 8 3 9 7 10 11 12 9 14
REMARK H PARENT 7 11 11 13 9 15
REMARK Flexibility Score: inf
ROOT
ATOM      1  C   UNL     1       4.425   9.679   4.026  1.00  0.00     0.005 A 
ATOM      2  C   UNL     1       3.826  10.778   4.663  1.00  0.00     0.060 A 
ATOM      3  C   UNL     1       5.503   9.900   3.156  1.00  0.00     0.060 A 
ATOM      4  C   UNL     1       4.289  12.080   4.440  1.00  0.00     0.162 A 
ATOM      5  C   UNL     1       5.977  11.194   2.924  1.00  0.00     0.162 A 
ATOM      6  C   UNL     1       5.378  12.295   3.561  1.00  0.00     0.200 A 
ENDROOT
BRANCH   1   7
ATOM      7  C   UNL     1       3.929   8.305   4.266  1.00  0.00     0.072 C 
ATOM      8  O   UNL     1       2.790   7.954   3.858  1.00  0.00    -0.545 OA
ATOM      9  O   UNL     1       4.714   7.381   4.947  1.00  0.00    -0.545 OA
ENDBRANCH   1   7
BRANCH   4  10
ATOM     10  O   UNL     1       3.642  13.121   5.110  1.00  0.00    -0.504 OA
ATOM     11  H   UNL     1       3.308  13.962   4.662  1.00  0.00     0.293 HD
ENDBRANCH   4  10
BRANCH   5  12
ATOM     12  O   UNL     1       7.051  11.365   2.050  1.00  0.00    -0.504 OA
ATOM     13  H   UNL     1       7.307  10.667   1.361  1.00  0.00     0.293 HD
ENDBRANCH   5  12
BRANCH   6  14
ATOM     14  O   UNL     1       5.884  13.572   3.300  1.00  0.00    -0.502 OA
ATOM     15  H   UNL     1       6.248  13.865   2.405  1.00  0.00     0.293 HD
ENDBRANCH   6  14
TORSDOF 4
ENDMDL
MODEL 3
REMARK VINA RESULT:    -5.198      1.464      2.586
REMARK INTER + INTRA:          -6.003
REMARK INTER:                  -5.953
REMARK INTRA:                  -0.050
REMARK UNBOUND:                -0.045
REMARK SMILES O=C([O-])c1cc(O)c(O)c(O)c1
REMARK SMILES IDX 4 1 5 2 12 3 6 4 10 5 8 6 2 7 1 8 3 9 7 10 11 12 9 14
REMARK H PARENT 7 11 11 13 9 15
REMARK Flexibility Score: inf
ROOT
ATOM      1  C   UNL     1       3.818  10.905   4.765  1.00  0.00     0.005 A 
ATOM      2  C   UNL     1       4.341   9.777   4.113  1.00  0.00     0.060 A 
ATOM      3  C   UNL     1       4.372  12.165   4.495  1.00  0.00     0.060 A 
ATOM      4  C   UNL     1       5.401   9.894   3.207  1.00  0.00     0.162 A 
ATOM      5  C   UNL     1       5.430  12.300   3.592  1.00  0.00     0.162 A 
ATOM      6  C   UNL     1       5.954  11.169   2.939  1.00  0.00     0.200 A 
ENDROOT
BRANCH   1   7
ATOM      7  C   UNL     1       2.697  10.771   5.723  1.00  0.00     0.072 C 
ATOM      8  O   UNL     1       1.819   9.883   5.562  1.00  0.00    -0.545 OA
ATOM      9  O   UNL     1       2.598  11.626   6.815  1.00  0.00    -0.545 OA
ENDBRANCH   1   7
BRANCH   4  10
ATOM     10  O   UNL     1       5.867   8.726   2.599  1.00  0.00    -0.504 OA
ATOM     11  H   UNL     1       6.336   7.980   3.091  1.00  0.00     0.293 HD
ENDBRANCH   4  10
BRANCH   5  12
ATOM     12  O   UNL     1       5.949  13.573   3.356  1.00  0.00    -0.504 OA
ATOM     13  H   UNL     1       6.826  13.884   3.758  1.00  0.00     0.293 HD
ENDBRANCH   5  12
BRANCH   6  14
ATOM     14  O   UNL     1       7.013  11.350   2.044  1.00  0.00    -0.502 OA
ATOM     15  H   UNL     1       7.115  10.843   1.177  1.00  0.00     0.293 HD
ENDBRANCH   6  14
TORSDOF 4
ENDMDL
MODEL 4
REMARK VINA RESULT:    -5.192      1.437      3.069
REMARK INTER + INTRA:          -5.996
REMARK INTER:                  -5.943
REMARK INTRA:                  -0.053
REMARK UNBOUND:                -0.045
REMARK SMILES O=C([O-])c1cc(O)c(O)c(O)c1
REMARK SMILES IDX 4 1 5 2 12 3 6 4 10 5 8 6 2 7 1 8 3 9 7 10 11 12 9 14
REMARK H PARENT 7 11 11 13 9 15
REMARK Flexibility Score: inf
ROOT
ATOM      1  C   UNL     1       3.827  10.842   4.689  1.00  0.00     0.005 A 
ATOM      2  C   UNL     1       4.372  12.116   4.464  1.00  0.00     0.060 A 
ATOM      3  C   UNL     1       4.373   9.739   4.016  1.00  0.00     0.060 A 
ATOM      4  C   UNL     1       5.445  12.296   3.583  1.00  0.00     0.162 A 
ATOM      5  C   UNL     1       5.444   9.901   3.134  1.00  0.00     0.162 A 
ATOM      6  C   UNL     1       5.991  11.178   2.908  1.00  0.00     0.200 A 
ENDROOT
BRANCH   1   7
ATOM      7  C   UNL     1       2.692  10.661   5.623  1.00  0.00     0.072 C 
ATOM      8  O   UNL     1       2.077   9.563   5.677  1.00  0.00    -0.545 OA
ATOM      9  O   UNL     1       2.289  11.701   6.452  1.00  0.00    -0.545 OA
ENDBRANCH   1   7
BRANCH   4  10
ATOM     10  O   UNL     1       5.932  13.594   3.412  1.00  0.00    -0.504 OA
ATOM     11  H   UNL     1       6.034  14.047   2.515  1.00  0.00     0.293 HD
ENDBRANCH   4  10
BRANCH   5  12
ATOM     12  O   UNL     1       5.954   8.775   2.487  1.00  0.00    -0.504 OA
ATOM     13  H   UNL     1       6.895   8.435   2.651  1.00  0.00     0.293 HD
ENDBRANCH   5  12
BRANCH   6  14
ATOM     14  O   UNL     1       7.062  11.294   2.017  1.00  0.00    -0.502 OA
ATOM     15  H   UNL     1       6.979  11.649   1.075  1.00  0.00     0.293 HD
ENDBRANCH   6  14
TORSDOF 4
ENDMDL
MODEL 5
REMARK VINA RESULT:    -4.646      2.662      3.921
REMARK INTER + INTRA:          -5.370
REMARK INTER:                  -5.318
REMARK INTRA:                  -0.052
REMARK UNBOUND:                -0.045
REMARK SMILES O=C([O-])c1cc(O)c(O)c(O)c1
REMARK SMILES IDX 4 1 5 2 12 3 6 4 10 5 8 6 2 7 1 8 3 9 7 10 11 12 9 14
REMARK H PARENT 7 11 11 13 9 15
REMARK Flexibility Score: inf
ROOT
ATOM      1  C   UNL     1       6.194   7.794   1.968  1.00  0.00     0.005 A 
ATOM      2  C   UNL     1       5.056   7.767   2.789  1.00  0.00     0.060 A 
ATOM      3  C   UNL     1       6.838   9.018   1.736  1.00  0.00     0.060 A 
ATOM      4  C   UNL     1       4.560   8.939   3.373  1.00  0.00     0.162 A 
ATOM      5  C   UNL     1       6.357  10.197   2.312  1.00  0.00     0.162 A 
ATOM      6  C   UNL     1       5.216  10.171   3.134  1.00  0.00     0.200 A 
ENDROOT
BRANCH   1   7
ATOM      7  C   UNL     1       6.711   6.550   1.354  1.00  0.00     0.072 C 
ATOM      8  O   UNL     1       5.965   5.545   1.216  1.00  0.00    -0.545 OA
ATOM      9  O   UNL     1       8.030   6.474   0.920  1.00  0.00    -0.545 OA
ENDBRANCH   1   7
BRANCH   4  10
ATOM     10  O   UNL     1       3.423   8.832   4.176  1.00  0.00    -0.504 OA
ATOM     11  H   UNL     1       2.696   9.531   4.226  1.00  0.00     0.293 HD
ENDBRANCH   4  10
BRANCH   5  12
ATOM     12  O   UNL     1       7.030  11.391   2.053  1.00  0.00    -0.504 OA
ATOM     13  H   UNL     1       7.567  11.876   2.763  1.00  0.00     0.293 HD
ENDBRANCH   5  12
BRANCH   6  14
ATOM     14  O   UNL     1       4.768  11.373   3.689  1.00  0.00    -0.502 OA
ATOM     15  H   UNL     1       3.802  11.665   3.706  1.00  0.00     0.293 HD
ENDBRANCH   6  14
TORSDOF 4
ENDMDL
MODEL 6
REMARK VINA RESULT:    -4.638      1.907      3.388
REMARK INTER + INTRA:          -5.361
REMARK INTER:                  -5.311
REMARK INTRA:                  -0.050
REMARK UNBOUND:                -0.045
REMARK SMILES O=C([O-])c1cc(O)c(O)c(O)c1
REMARK SMILES IDX 4 1 5 2 12 3 6 4 10 5 8 6 2 7 1 8 3 9 7 10 11 12 9 14
REMARK H PARENT 7 11 11 13 9 15
REMARK Flexibility Score: inf
ROOT
ATOM      1  C   UNL     1       4.552   9.451   3.851  1.00  0.00     0.005 A 
ATOM      2  C   UNL     1       4.664   8.202   3.219  1.00  0.00     0.060 A 
ATOM      3  C   UNL     1       5.377  10.503   3.427  1.00  0.00     0.060 A 
ATOM      4  C   UNL     1       5.580   7.998   2.182  1.00  0.00     0.162 A 
ATOM      5  C   UNL     1       6.297  10.317   2.392  1.00  0.00     0.162 A 
ATOM      6  C   UNL     1       6.409   9.065   1.759  1.00  0.00     0.200 A 
ENDROOT
BRANCH   1   7
ATOM      7  C   UNL     1       3.580   9.658   4.948  1.00  0.00     0.072 C 
ATOM      8  O   UNL     1       2.453   9.097   4.920  1.00  0.00    -0.545 OA
ATOM      9  O   UNL     1       3.899  10.476   6.026  1.00  0.00    -0.545 OA
ENDBRANCH   1   7
BRANCH   4  10
ATOM     10  O   UNL     1       5.632   6.727   1.603  1.00  0.00    -0.504 OA
ATOM     11  H   UNL     1       5.175   5.911   1.985  1.00  0.00     0.293 HD
ENDBRANCH   4  10
BRANCH   5  12
ATOM     12  O   UNL     1       7.096  11.393   2.005  1.00  0.00    -0.504 OA
ATOM     13  H   UNL     1       7.159  11.703   1.042  1.00  0.00     0.293 HD
ENDBRANCH   5  12
BRANCH   6  14
ATOM     14  O   UNL     1       7.343   8.922   0.729  1.00  0.00    -0.502 OA
ATOM     15  H   UNL     1       7.119   8.991  -0.253  1.00  0.00     0.293 HD
ENDBRANCH   6  14
TORSDOF 4
ENDMDL
MODEL 7
REMARK VINA RESULT:    -4.552      1.571      3.010
REMARK INTER + INTRA:          -5.263
REMARK INTER:                  -5.218
REMARK INTRA:                  -0.045
REMARK UNBOUND:                -0.045
REMARK SMILES O=C([O-])c1cc(O)c(O)c(O)c1
REMARK SMILES IDX 4 1 5 2 12 3 6 4 10 5 8 6 2 7 1 8 3 9 7 10 11 12 9 14
REMARK H PARENT 7 11 11 13 9 15
REMARK Flexibility Score: inf
ROOT
ATOM      1  C   UNL     1       5.203   9.694   3.360  1.00  0.00     0.005 A 
ATOM      2  C   UNL     1       4.093   9.625   4.217  1.00  0.00     0.060 A 
ATOM      3  C   UNL     1       5.776  10.945   3.088  1.00  0.00     0.060 A 
ATOM      4  C   UNL     1       3.557  10.780   4.797  1.00  0.00     0.162 A 
ATOM      5  C   UNL     1       5.254  12.108   3.659  1.00  0.00     0.162 A 
ATOM      6  C   UNL     1       4.141  12.039   4.518  1.00  0.00     0.200 A 
ENDROOT
BRANCH   1   7
ATOM      7  C   UNL     1       5.764   8.467   2.750  1.00  0.00     0.072 C 
ATOM      8  O   UNL     1       6.747   7.882   3.276  1.00  0.00    -0.545 OA
ATOM      9  O   UNL     1       5.212   7.943   1.586  1.00  0.00    -0.545 OA
ENDBRANCH   1   7
BRANCH   4  10
ATOM     10  O   UNL     1       2.452  10.630   5.638  1.00  0.00    -0.504 OA
ATOM     11  H   UNL     1       2.504  10.280   6.585  1.00  0.00     0.293 HD
ENDBRANCH   4  10
BRANCH   5  12
ATOM     12  O   UNL     1       5.856  13.330   3.359  1.00  0.00    -0.504 OA
ATOM     13  H   UNL     1       6.791  13.393   2.974  1.00  0.00     0.293 HD
ENDBRANCH   5  12
BRANCH   6  14
ATOM     14  O   UNL     1       3.650  13.227   5.067  1.00  0.00    -0.502 OA
ATOM     15  H   UNL     1       3.872  13.557   5.995  1.00  0.00     0.293 HD
ENDBRANCH   6  14
TORSDOF 4
ENDMDL
MODEL 8
REMARK VINA RESULT:    -4.543      1.361      3.650
REMARK INTER + INTRA:          -5.252
REMARK INTER:                  -5.200
REMARK INTRA:                  -0.051
REMARK UNBOUND:                -0.045
REMARK SMILES O=C([O-])c1cc(O)c(O)c(O)c1
REMARK SMILES IDX 4 1 5 2 12 3 6 4 10 5 8 6 2 7 1 8 3 9 7 10 11 12 9 14
REMARK H PARENT 7 11 11 13 9 15
REMARK Flexibility Score: inf
ROOT
ATOM      1  C   UNL     1       4.220  10.983   4.369  1.00  0.00     0.005 A 
ATOM      2  C   UNL     1       5.285  11.507   3.619  1.00  0.00     0.060 A 
ATOM      3  C   UNL     1       3.891   9.627   4.229  1.00  0.00     0.060 A 
ATOM      4  C   UNL     1       6.015  10.698   2.741  1.00  0.00     0.162 A 
ATOM      5  C   UNL     1       4.611   8.805   3.358  1.00  0.00     0.162 A 
ATOM      6  C   UNL     1       5.678   9.330   2.606  1.00  0.00     0.200 A 
ENDROOT
BRANCH   1   7
ATOM      7  C   UNL     1       3.452  11.846   5.295  1.00  0.00     0.072 C 
ATOM      8  O   UNL     1       3.961  12.901   5.759  1.00  0.00    -0.545 OA
ATOM      9  O   UNL     1       2.156  11.504   5.666  1.00  0.00    -0.545 OA
ENDBRANCH   1   7
BRANCH   4  10
ATOM     10  O   UNL     1       7.060  11.292   2.030  1.00  0.00    -0.504 OA
ATOM     11  H   UNL     1       7.301  11.061   1.077  1.00  0.00     0.293 HD
ENDBRANCH   4  10
BRANCH   5  12
ATOM     12  O   UNL     1       4.247   7.462   3.251  1.00  0.00    -0.504 OA
ATOM     13  H   UNL     1       4.933   6.720   3.171  1.00  0.00     0.293 HD
ENDBRANCH   5  12
BRANCH   6  14
ATOM     14  O   UNL     1       6.370   8.472   1.746  1.00  0.00    -0.502 OA
ATOM     15  H   UNL     1       6.995   8.784   1.016  1.00  0.00     0.293 HD
ENDBRANCH   6  14
TORSDOF 4
ENDMDL
MODEL 9
REMARK VINA RESULT:    -4.481      2.678      3.443
REMARK INTER + INTRA:          -5.181
REMARK INTER:                  -5.136
REMARK INTRA:                  -0.045
REMARK UNBOUND:                -0.045
REMARK SMILES O=C([O-])c1cc(O)c(O)c(O)c1
REMARK SMILES IDX 4 1 5 2 12 3 6 4 10 5 8 6 2 7 1 8 3 9 7 10 11 12 9 14
REMARK H PARENT 7 11 11 13 9 15
REMARK Flexibility Score: inf
ROOT
ATOM      1  C   UNL     1       5.122   7.059   2.103  1.00  0.00     0.005 A 
ATOM      2  C   UNL     1       6.127   7.313   1.156  1.00  0.00     0.060 A 
ATOM      3  C   UNL     1       4.764   8.074   3.003  1.00  0.00     0.060 A 
ATOM      4  C   UNL     1       6.769   8.555   1.101  1.00  0.00     0.162 A 
ATOM      5  C   UNL     1       5.394   9.320   2.961  1.00  0.00     0.162 A 
ATOM      6  C   UNL     1       6.401   9.574   2.012  1.00  0.00     0.200 A 
ENDROOT
BRANCH   1   7
ATOM      7  C   UNL     1       4.448   5.742   2.154  1.00  0.00     0.072 C 
ATOM      8  O   UNL     1       4.714   4.922   3.072  1.00  0.00    -0.545 OA
ATOM      9  O   UNL     1       3.511   5.392   1.188  1.00  0.00    -0.545 OA
ENDBRANCH   1   7
BRANCH   4  10
ATOM     10  O   UNL     1       7.759   8.731   0.131  1.00  0.00    -0.504 OA
ATOM     11  H   UNL     1       8.309   7.980  -0.261  1.00  0.00     0.293 HD
ENDBRANCH   4  10
BRANCH   5  12
ATOM     12  O   UNL     1       5.005  10.298   3.877  1.00  0.00    -0.504 OA
ATOM     13  H   UNL     1       4.836  11.259   3.604  1.00  0.00     0.293 HD
ENDBRANCH   5  12
BRANCH   6  14
ATOM     14  O   UNL     1       7.007  10.834   2.007  1.00  0.00    -0.502 OA
ATOM     15  H   UNL     1       7.358  11.290   1.177  1.00  0.00     0.293 HD
ENDBRANCH   6  14
TORSDOF 4
ENDMDL
