MODEL 1
REMARK VINA RESULT:    -4.459      0.000      0.000
REMARK INTER + INTRA:          -9.258
REMARK INTER:                  -7.586
REMARK INTRA:                  -1.671
REMARK UNBOUND:                -1.671
REMARK SMILES CCCCCCCCCCCCCC(=O)[O-]
REMARK SMILES IDX 8 1 9 2 10 3 11 4 12 5 13 6 14 7 15 8 16 9 7 10 6 11 5 12
REMARK SMILES IDX 4 13 3 14 2 15 1 16
REMARK H PARENT
REMARK Flexibility Score: inf
ROOT
ATOM      1  C   UNL     1      13.346  -0.313   4.179  1.00  0.00     0.000 C 
ENDROOT
BRANCH   1   2
ATOM      2  C   UNL     1      12.082   0.499   4.506  1.00  0.00     0.000 C 
BRANCH   2   3
ATOM      3  C   UNL     1      11.153   0.658   3.291  1.00  0.00     0.000 C 
BRANCH   3   4
ATOM      4  C   UNL     1      11.920   0.771   1.961  1.00  0.00     0.000 C 
BRANCH   4   5
ATOM      5  C   UNL     1      11.180   0.204   0.737  1.00  0.00     0.006 C 
BRANCH   5   6
ATOM      6  C   UNL     1      11.830  -1.069   0.181  1.00  0.00     0.053 C 
BRANCH   6   7
ATOM      7  C   UNL     1      11.024  -2.273   0.554  1.00  0.00     0.041 C 
ATOM      8  O   UNL     1      10.199  -2.213   1.503  1.00  0.00    -0.550 OA
ATOM      9  O   UNL     1      11.220  -3.474  -0.114  1.00  0.00    -0.550 OA
ENDBRANCH   6   7
ENDBRANCH   5   6
ENDBRANCH   4   5
ENDBRANCH   3   4
ENDBRANCH   2   3
ENDBRANCH   1   2
BRANCH   1  10
ATOM     10  C   UNL     1      13.094  -1.831   4.206  1.00  0.00     0.000 C 
BRANCH  10  11
ATOM     11  C   UNL     1      13.771  -2.564   3.038  1.00  0.00    -0.000 C 
BRANCH  11  12
ATOM     12  C   UNL     1      15.285  -2.724   3.240  1.00  0.00    -0.000 C 
BRANCH  12  13
ATOM     13  C   UNL     1      16.066  -1.806   2.287  1.00  0.00    -0.000 C 
BRANCH  13  14
ATOM     14  C   UNL     1      15.403  -1.687   0.905  1.00  0.00    -0.000 C 
BRANCH  14  15
ATOM     15  C   UNL     1      15.393  -0.246   0.375  1.00  0.00    -0.003 C 
ATOM     16  C   UNL     1      15.350  -0.222  -1.150  1.00  0.00     0.004 C 
ENDBRANCH  14  15
ENDBRANCH  13  14
ENDBRANCH  12  13
ENDBRANCH  11  12
ENDBRANCH  10  11
ENDBRANCH   1  10
TORSDOF 12
ENDMDL
MODEL 2
REMARK VINA RESULT:    -4.216      1.737      3.620
REMARK INTER + INTRA:          -8.846
REMARK INTER:                  -7.257
REMARK INTRA:                  -1.589
REMARK UNBOUND:                -1.671
REMARK SMILES CCCCCCCCCCCCCC(=O)[O-]
REMARK SMILES IDX 8 1 9 2 10 3 11 4 12 5 13 6 14 7 15 8 16 9 7 10 6 11 5 12
REMARK SMILES IDX 4 13 3 14 2 15 1 16
REMARK H PARENT
REMARK Flexibility Score: inf
ROOT
ATOM      1  C   UNL     1      10.785   0.302   1.257  1.00  0.00     0.000 C 
ENDROOT
BRANCH   1   2
ATOM      2  C   UNL     1      10.914  -0.367   2.636  1.00  0.00     0.000 C 
BRANCH   2   3
ATOM      3  C   UNL     1      11.652   0.518   3.654  1.00  0.00     0.000 C 
BRANCH   3   4
ATOM      4  C   UNL     1      12.931  -0.140   4.202  1.00  0.00     0.000 C 
BRANCH   4   5
ATOM      5  C   UNL     1      13.048  -1.650   3.933  1.00  0.00     0.006 C 
BRANCH   5   6
ATOM      6  C   UNL     1      14.457  -2.073   3.495  1.00  0.00     0.053 C 
BRANCH   6   7
ATOM      7  C   UNL     1      14.388  -2.942   2.279  1.00  0.00     0.041 C 
ATOM      8  O   UNL     1      15.441  -3.262   1.670  1.00  0.00    -0.550 OA
ATOM      9  O   UNL     1      13.155  -3.356   1.791  1.00  0.00    -0.550 OA
ENDBRANCH   6   7
ENDBRANCH   5   6
ENDBRANCH   4   5
ENDBRANCH   3   4
ENDBRANCH   2   3
ENDBRANCH   1   2
BRANCH   1  10
ATOM     10  C   UNL     1      11.596  -0.429   0.171  1.00  0.00     0.000 C 
BRANCH  10  11
ATOM     11  C   UNL     1      13.107  -0.178   0.291  1.00  0.00    -0.000 C 
BRANCH  11  12
ATOM     12  C   UNL     1      13.873  -0.567  -0.982  1.00  0.00    -0.000 C 
BRANCH  12  13
ATOM     13  C   UNL     1      15.390  -0.484  -0.755  1.00  0.00    -0.000 C 
BRANCH  13  14
ATOM     14  C   UNL     1      15.753   0.124   0.610  1.00  0.00    -0.000 C 
BRANCH  14  15
ATOM     15  C   UNL     1      17.269   0.218   0.832  1.00  0.00    -0.003 C 
ATOM     16  C   UNL     1      17.632  -0.095   2.281  1.00  0.00     0.004 C 
ENDBRANCH  14  15
ENDBRANCH  13  14
ENDBRANCH  12  13
ENDBRANCH  11  12
ENDBRANCH  10  11
ENDBRANCH   1  10
TORSDOF 12
ENDMDL
MODEL 3
REMARK VINA RESULT:    -4.151      2.458      4.828
REMARK INTER + INTRA:          -8.734
REMARK INTER:                  -7.119
REMARK INTRA:                  -1.616
REMARK UNBOUND:                -1.671
REMARK SMILES CCCCCCCCCCCCCC(=O)[O-]
REMARK SMILES IDX 8 1 9 2 10 3 11 4 12 5 13 6 14 7 15 8 16 9 7 10 6 11 5 12
REMARK SMILES IDX 4 13 3 14 2 15 1 16
REMARK H PARENT
REMARK Flexibility Score: inf
ROOT
ATOM      1  C   UNL     1      10.892   0.461   3.455  1.00  0.00     0.000 C 
ENDROOT
BRANCH   1   2
ATOM      2  C   UNL     1      12.404   0.206   3.563  1.00  0.00     0.000 C 
BRANCH   2   3
ATOM      3  C   UNL     1      12.729  -1.210   4.068  1.00  0.00     0.000 C 
BRANCH   3   4
ATOM      4  C   UNL     1      13.694  -1.969   3.140  1.00  0.00     0.000 C 
BRANCH   4   5
ATOM      5  C   UNL     1      14.665  -1.078   2.347  1.00  0.00     0.006 C 
BRANCH   5   6
ATOM      6  C   UNL     1      15.104  -1.705   1.017  1.00  0.00     0.053 C 
BRANCH   6   7
ATOM      7  C   UNL     1      15.645  -0.656   0.098  1.00  0.00     0.041 C 
ATOM      8  O   UNL     1      14.924  -0.186  -0.821  1.00  0.00    -0.550 OA
ATOM      9  O   UNL     1      16.962  -0.234   0.225  1.00  0.00    -0.550 OA
ENDBRANCH   6   7
ENDBRANCH   5   6
ENDBRANCH   4   5
ENDBRANCH   3   4
ENDBRANCH   2   3
ENDBRANCH   1   2
BRANCH   1  10
ATOM     10  C   UNL     1      10.379   0.354   2.007  1.00  0.00     0.000 C 
BRANCH  10  11
ATOM     11  C   UNL     1      11.516   0.392   0.973  1.00  0.00    -0.000 C 
BRANCH  11  12
ATOM     12  C   UNL     1      11.574  -0.878   0.112  1.00  0.00    -0.000 C 
BRANCH  12  13
ATOM     13  C   UNL     1      10.903  -2.058   0.830  1.00  0.00    -0.000 C 
BRANCH  13  14
ATOM     14  C   UNL     1      11.025  -3.376   0.047  1.00  0.00    -0.000 C 
BRANCH  14  15
ATOM     15  C   UNL     1       9.667  -4.055  -0.185  1.00  0.00    -0.003 C 
ATOM     16  C   UNL     1       9.835  -5.377  -0.928  1.00  0.00     0.004 C 
ENDBRANCH  14  15
ENDBRANCH  13  14
ENDBRANCH  12  13
ENDBRANCH  11  12
ENDBRANCH  10  11
ENDBRANCH   1  10
TORSDOF 12
ENDMDL
MODEL 4
REMARK VINA RESULT:    -4.147      2.297      3.343
REMARK INTER + INTRA:          -8.727
REMARK INTER:                  -7.043
REMARK INTRA:                  -1.684
REMARK UNBOUND:                -1.671
REMARK SMILES CCCCCCCCCCCCCC(=O)[O-]
REMARK SMILES IDX 8 1 9 2 10 3 11 4 12 5 13 6 14 7 15 8 16 9 7 10 6 11 5 12
REMARK SMILES IDX 4 13 3 14 2 15 1 16
REMARK H PARENT
REMARK Flexibility Score: inf
ROOT
ATOM      1  C   UNL     1      11.496   0.619   3.576  1.00  0.00     0.000 C 
ENDROOT
BRANCH   1   2
ATOM      2  C   UNL     1      10.866  -0.005   2.320  1.00  0.00     0.000 C 
BRANCH   2   3
ATOM      3  C   UNL     1      11.358   0.658   1.022  1.00  0.00     0.000 C 
BRANCH   3   4
ATOM      4  C   UNL     1      11.605  -0.355  -0.110  1.00  0.00     0.000 C 
BRANCH   4   5
ATOM      5  C   UNL     1      12.956  -1.088  -0.039  1.00  0.00     0.006 C 
BRANCH   5   6
ATOM      6  C   UNL     1      14.138  -0.142   0.209  1.00  0.00     0.053 C 
BRANCH   6   7
ATOM      7  C   UNL     1      15.216  -0.378  -0.802  1.00  0.00     0.041 C 
ATOM      8  O   UNL     1      16.419  -0.452  -0.439  1.00  0.00    -0.550 OA
ATOM      9  O   UNL     1      14.896  -0.465  -2.151  1.00  0.00    -0.550 OA
ENDBRANCH   6   7
ENDBRANCH   5   6
ENDBRANCH   4   5
ENDBRANCH   3   4
ENDBRANCH   2   3
ENDBRANCH   1   2
BRANCH   1  10
ATOM     10  C   UNL     1      12.533  -0.308   4.235  1.00  0.00     0.000 C 
BRANCH  10  11
ATOM     11  C   UNL     1      12.687  -1.646   3.494  1.00  0.00    -0.000 C 
BRANCH  11  12
ATOM     12  C   UNL     1      13.955  -2.407   3.908  1.00  0.00    -0.000 C 
BRANCH  12  13
ATOM     13  C   UNL     1      15.042  -2.288   2.829  1.00  0.00    -0.000 C 
BRANCH  13  14
ATOM     14  C   UNL     1      16.398  -1.841   3.402  1.00  0.00    -0.000 C 
BRANCH  14  15
ATOM     15  C   UNL     1      16.329  -0.466   4.082  1.00  0.00    -0.003 C 
ATOM     16  C   UNL     1      16.233   0.653   3.050  1.00  0.00     0.004 C 
ENDBRANCH  14  15
ENDBRANCH  13  14
ENDBRANCH  12  13
ENDBRANCH  11  12
ENDBRANCH  10  11
ENDBRANCH   1  10
TORSDOF 12
ENDMDL
MODEL 5
REMARK VINA RESULT:    -4.122      1.553      2.276
REMARK INTER + INTRA:          -8.686
REMARK INTER:                  -6.687
REMARK INTRA:                  -1.999
REMARK UNBOUND:                -1.671
REMARK SMILES CCCCCCCCCCCCCC(=O)[O-]
REMARK SMILES IDX 8 1 9 2 10 3 11 4 12 5 13 6 14 7 15 8 16 9 7 10 6 11 5 12
REMARK SMILES IDX 4 13 3 14 2 15 1 16
REMARK H PARENT
REMARK Flexibility Score: inf
ROOT
ATOM      1  C   UNL     1      13.036  -2.057   3.633  1.00  0.00     0.000 C 
ENDROOT
BRANCH   1   2
ATOM      2  C   UNL     1      12.920  -0.647   4.234  1.00  0.00     0.000 C 
BRANCH   2   3
ATOM      3  C   UNL     1      11.871   0.217   3.513  1.00  0.00     0.000 C 
BRANCH   3   4
ATOM      4  C   UNL     1      12.311   0.635   2.098  1.00  0.00     0.000 C 
BRANCH   4   5
ATOM      5  C   UNL     1      11.296   0.320   0.986  1.00  0.00     0.006 C 
BRANCH   5   6
ATOM      6  C   UNL     1      11.762  -0.802   0.049  1.00  0.00     0.053 C 
BRANCH   6   7
ATOM      7  C   UNL     1      11.191  -2.116   0.482  1.00  0.00     0.041 C 
ATOM      8  O   UNL     1      11.612  -3.188  -0.026  1.00  0.00    -0.550 OA
ATOM      9  O   UNL     1      10.159  -2.152   1.411  1.00  0.00    -0.550 OA
ENDBRANCH   6   7
ENDBRANCH   5   6
ENDBRANCH   4   5
ENDBRANCH   3   4
ENDBRANCH   2   3
ENDBRANCH   1   2
BRANCH   1  10
ATOM     10  C   UNL     1      14.487  -2.427   3.277  1.00  0.00     0.000 C 
BRANCH  10  11
ATOM     11  C   UNL     1      14.669  -2.735   1.783  1.00  0.00    -0.000 C 
BRANCH  11  12
ATOM     12  C   UNL     1      15.210  -1.533   0.994  1.00  0.00    -0.000 C 
BRANCH  12  13
ATOM     13  C   UNL     1      16.364  -0.856   1.749  1.00  0.00    -0.000 C 
BRANCH  13  14
ATOM     14  C   UNL     1      16.078   0.622   2.066  1.00  0.00    -0.000 C 
BRANCH  14  15
ATOM     15  C   UNL     1      16.276   0.957   3.552  1.00  0.00    -0.003 C 
ATOM     16  C   UNL     1      17.271   2.100   3.728  1.00  0.00     0.004 C 
ENDBRANCH  14  15
ENDBRANCH  13  14
ENDBRANCH  12  13
ENDBRANCH  11  12
ENDBRANCH  10  11
ENDBRANCH   1  10
TORSDOF 12
ENDMDL
MODEL 6
REMARK VINA RESULT:    -4.111      2.656      4.158
REMARK INTER + INTRA:          -8.667
REMARK INTER:                  -6.971
REMARK INTRA:                  -1.696
REMARK UNBOUND:                -1.671
REMARK SMILES CCCCCCCCCCCCCC(=O)[O-]
REMARK SMILES IDX 8 1 9 2 10 3 11 4 12 5 13 6 14 7 15 8 16 9 7 10 6 11 5 12
REMARK SMILES IDX 4 13 3 14 2 15 1 16
REMARK H PARENT
REMARK Flexibility Score: inf
ROOT
ATOM      1  C   UNL     1      10.398  -0.191   3.092  1.00  0.00     0.000 C 
ENDROOT
BRANCH   1   2
ATOM      2  C   UNL     1      11.549   0.775   3.418  1.00  0.00     0.000 C 
BRANCH   2   3
ATOM      3  C   UNL     1      12.562   0.173   4.406  1.00  0.00     0.000 C 
BRANCH   3   4
ATOM      4  C   UNL     1      13.784  -0.448   3.706  1.00  0.00     0.000 C 
BRANCH   4   5
ATOM      5  C   UNL     1      13.675  -1.959   3.434  1.00  0.00     0.006 C 
BRANCH   5   6
ATOM      6  C   UNL     1      14.957  -2.554   2.838  1.00  0.00     0.053 C 
BRANCH   6   7
ATOM      7  C   UNL     1      16.110  -2.347   3.769  1.00  0.00     0.041 C 
ATOM      8  O   UNL     1      16.088  -2.847   4.924  1.00  0.00    -0.550 OA
ATOM      9  O   UNL     1      17.187  -1.563   3.377  1.00  0.00    -0.550 OA
ENDBRANCH   6   7
ENDBRANCH   5   6
ENDBRANCH   4   5
ENDBRANCH   3   4
ENDBRANCH   2   3
ENDBRANCH   1   2
BRANCH   1  10
ATOM     10  C   UNL     1      10.549  -0.838   1.703  1.00  0.00     0.000 C 
BRANCH  10  11
ATOM     11  C   UNL     1      11.265   0.079   0.699  1.00  0.00    -0.000 C 
BRANCH  11  12
ATOM     12  C   UNL     1      12.290  -0.675  -0.162  1.00  0.00    -0.000 C 
BRANCH  12  13
ATOM     13  C   UNL     1      13.712  -0.157   0.100  1.00  0.00    -0.000 C 
BRANCH  13  14
ATOM     14  C   UNL     1      14.682  -0.482  -1.048  1.00  0.00    -0.000 C 
BRANCH  14  15
ATOM     15  C   UNL     1      16.067  -0.915  -0.548  1.00  0.00    -0.003 C 
ATOM     16  C   UNL     1      16.655   0.120   0.406  1.00  0.00     0.004 C 
ENDBRANCH  14  15
ENDBRANCH  13  14
ENDBRANCH  12  13
ENDBRANCH  11  12
ENDBRANCH  10  11
ENDBRANCH   1  10
TORSDOF 12
ENDMDL
MODEL 7
REMARK VINA RESULT:    -4.098      2.296      5.112
REMARK INTER + INTRA:          -8.645
REMARK INTER:                  -6.886
REMARK INTRA:                  -1.759
REMARK UNBOUND:                -1.671
REMARK SMILES CCCCCCCCCCCCCC(=O)[O-]
REMARK SMILES IDX 8 1 9 2 10 3 11 4 12 5 13 6 14 7 15 8 16 9 7 10 6 11 5 12
REMARK SMILES IDX 4 13 3 14 2 15 1 16
REMARK H PARENT
REMARK Flexibility Score: inf
ROOT
ATOM      1  C   UNL     1      15.916  -0.758  -0.069  1.00  0.00     0.000 C 
ENDROOT
BRANCH   1   2
ATOM      2  C   UNL     1      16.797   0.287   0.635  1.00  0.00     0.000 C 
BRANCH   2   3
ATOM      3  C   UNL     1      16.641   0.257   2.164  1.00  0.00     0.000 C 
BRANCH   3   4
ATOM      4  C   UNL     1      15.169   0.203   2.614  1.00  0.00     0.000 C 
BRANCH   4   5
ATOM      5  C   UNL     1      14.856  -0.866   3.676  1.00  0.00     0.006 C 
BRANCH   5   6
ATOM      6  C   UNL     1      14.269  -2.151   3.077  1.00  0.00     0.053 C 
BRANCH   6   7
ATOM      7  C   UNL     1      15.362  -3.116   2.739  1.00  0.00     0.041 C 
ATOM      8  O   UNL     1      16.441  -3.102   3.387  1.00  0.00    -0.550 OA
ATOM      9  O   UNL     1      15.207  -3.997   1.677  1.00  0.00    -0.550 OA
ENDBRANCH   6   7
ENDBRANCH   5   6
ENDBRANCH   4   5
ENDBRANCH   3   4
ENDBRANCH   2   3
ENDBRANCH   1   2
BRANCH   1  10
ATOM     10  C   UNL     1      15.276  -0.214  -1.360  1.00  0.00     0.000 C 
BRANCH  10  11
ATOM     11  C   UNL     1      13.754  -0.415  -1.395  1.00  0.00    -0.000 C 
BRANCH  11  12
ATOM     12  C   UNL     1      13.227  -1.152  -0.154  1.00  0.00    -0.000 C 
BRANCH  12  13
ATOM     13  C   UNL     1      11.808  -0.680   0.201  1.00  0.00    -0.000 C 
BRANCH  13  14
ATOM     14  C   UNL     1      11.805   0.618   1.025  1.00  0.00    -0.000 C 
BRANCH  14  15
ATOM     15  C   UNL     1      11.340   0.399   2.473  1.00  0.00    -0.003 C 
ATOM     16  C   UNL     1       9.899  -0.099   2.517  1.00  0.00     0.004 C 
ENDBRANCH  14  15
ENDBRANCH  13  14
ENDBRANCH  12  13
ENDBRANCH  11  12
ENDBRANCH  10  11
ENDBRANCH   1  10
TORSDOF 12
ENDMDL
MODEL 8
REMARK VINA RESULT:    -4.082      2.025      4.748
REMARK INTER + INTRA:          -8.618
REMARK INTER:                  -7.190
REMARK INTRA:                  -1.427
REMARK UNBOUND:                -1.671
REMARK SMILES CCCCCCCCCCCCCC(=O)[O-]
REMARK SMILES IDX 8 1 9 2 10 3 11 4 12 5 13 6 14 7 15 8 16 9 7 10 6 11 5 12
REMARK SMILES IDX 4 13 3 14 2 15 1 16
REMARK H PARENT
REMARK Flexibility Score: inf
ROOT
ATOM      1  C   UNL     1      14.090  -1.536   4.083  1.00  0.00     0.000 C 
ENDROOT
BRANCH   1   2
ATOM      2  C   UNL     1      13.968  -2.436   2.843  1.00  0.00     0.000 C 
BRANCH   2   3
ATOM      3  C   UNL     1      15.239  -2.423   1.977  1.00  0.00     0.000 C 
BRANCH   3   4
ATOM      4  C   UNL     1      16.062  -1.132   2.142  1.00  0.00     0.000 C 
BRANCH   4   5
ATOM      5  C   UNL     1      15.806  -0.060   1.069  1.00  0.00     0.006 C 
BRANCH   5   6
ATOM      6  C   UNL     1      16.189  -0.523  -0.343  1.00  0.00     0.053 C 
BRANCH   6   7
ATOM      7  C   UNL     1      14.999  -0.474  -1.249  1.00  0.00     0.041 C 
ATOM      8  O   UNL     1      13.838  -0.408  -0.767  1.00  0.00    -0.550 OA
ATOM      9  O   UNL     1      15.171  -0.552  -2.625  1.00  0.00    -0.550 OA
ENDBRANCH   6   7
ENDBRANCH   5   6
ENDBRANCH   4   5
ENDBRANCH   3   4
ENDBRANCH   2   3
ENDBRANCH   1   2
BRANCH   1  10
ATOM     10  C   UNL     1      12.757  -0.859   4.451  1.00  0.00     0.000 C 
BRANCH  10  11
ATOM     11  C   UNL     1      12.393   0.288   3.495  1.00  0.00    -0.000 C 
BRANCH  11  12
ATOM     12  C   UNL     1      10.910   0.677   3.578  1.00  0.00    -0.000 C 
BRANCH  12  13
ATOM     13  C   UNL     1      10.210   0.465   2.227  1.00  0.00    -0.000 C 
BRANCH  13  14
ATOM     14  C   UNL     1       9.313  -0.784   2.214  1.00  0.00    -0.000 C 
BRANCH  14  15
ATOM     15  C   UNL     1      10.081  -2.060   1.838  1.00  0.00    -0.003 C 
ATOM     16  C   UNL     1      11.030  -1.806   0.672  1.00  0.00     0.004 C 
ENDBRANCH  14  15
ENDBRANCH  13  14
ENDBRANCH  12  13
ENDBRANCH  11  12
ENDBRANCH  10  11
ENDBRANCH   1  10
TORSDOF 12
ENDMDL
MODEL 9
REMARK VINA RESULT:    -4.024      2.757      4.845
REMARK INTER + INTRA:          -8.519
REMARK INTER:                  -6.691
REMARK INTRA:                  -1.828
REMARK UNBOUND:                -1.671
REMARK SMILES CCCCCCCCCCCCCC(=O)[O-]
REMARK SMILES IDX 8 1 9 2 10 3 11 4 12 5 13 6 14 7 15 8 16 9 7 10 6 11 5 12
REMARK SMILES IDX 4 13 3 14 2 15 1 16
REMARK H PARENT
REMARK Flexibility Score: inf
ROOT
ATOM      1  C   UNL     1      12.407  -0.477   4.626  1.00  0.00     0.000 C 
ENDROOT
BRANCH   1   2
ATOM      2  C   UNL     1      13.690  -1.226   4.233  1.00  0.00     0.000 C 
BRANCH   2   3
ATOM      3  C   UNL     1      13.413  -2.435   3.325  1.00  0.00     0.000 C 
BRANCH   3   4
ATOM      4  C   UNL     1      14.472  -2.609   2.221  1.00  0.00     0.000 C 
BRANCH   4   5
ATOM      5  C   UNL     1      15.700  -1.691   2.351  1.00  0.00     0.006 C 
BRANCH   5   6
ATOM      6  C   UNL     1      15.817  -0.682   1.201  1.00  0.00     0.053 C 
BRANCH   6   7
ATOM      7  C   UNL     1      16.438   0.591   1.684  1.00  0.00     0.041 C 
ATOM      8  O   UNL     1      16.233   0.988   2.861  1.00  0.00    -0.550 OA
ATOM      9  O   UNL     1      17.202   1.363   0.819  1.00  0.00    -0.550 OA
ENDBRANCH   6   7
ENDBRANCH   5   6
ENDBRANCH   4   5
ENDBRANCH   3   4
ENDBRANCH   2   3
ENDBRANCH   1   2
BRANCH   1  10
ATOM     10  C   UNL     1      11.959   0.528   3.550  1.00  0.00     0.000 C 
BRANCH  10  11
ATOM     11  C   UNL     1      10.548   0.235   3.017  1.00  0.00    -0.000 C 
BRANCH  11  12
ATOM     12  C   UNL     1      10.464   0.328   1.486  1.00  0.00    -0.000 C 
BRANCH  12  13
ATOM     13  C   UNL     1      11.865   0.286   0.857  1.00  0.00    -0.000 C 
BRANCH  13  14
ATOM     14  C   UNL     1      12.131  -1.020   0.090  1.00  0.00    -0.000 C 
BRANCH  14  15
ATOM     15  C   UNL     1      11.081  -2.102   0.382  1.00  0.00    -0.003 C 
ATOM     16  C   UNL     1      11.616  -3.490   0.043  1.00  0.00     0.004 C 
ENDBRANCH  14  15
ENDBRANCH  13  14
ENDBRANCH  12  13
ENDBRANCH  11  12
ENDBRANCH  10  11
ENDBRANCH   1  10
TORSDOF 12
ENDMDL
