MODEL 1
REMARK VINA RESULT:    -3.676      0.000      0.000
REMARK INTER + INTRA:          -5.836
REMARK INTER:                  -5.611
REMARK INTRA:                  -0.226
REMARK UNBOUND:                -0.226
REMARK SMILES CC1=CCC[C@H](C)C(=O)C[C@@H](C(C)C)C(=O)C1
REMARK SMILES IDX 8 1 9 2 6 3 7 4 5 5 4 6 3 7 2 8 1 9 10 11 11 12 15 13 16 14
REMARK SMILES IDX 17 15 12 17 13 18 14 19
REMARK H PARENT
REMARK Flexibility Score: 70.00
ROOT
ATOM      1  C   UNL     1      -4.219  33.455   6.303  1.00  0.00     0.136 C 
ATOM      2  O   UNL     1      -4.979  33.242   7.239  1.00  0.00    -0.299 OA
ENDROOT
BRANCH   1   3
ATOM      3  C   UNL     1      -4.603  33.021   4.904  1.00  0.00     0.053 C 
ATOM      4  C   UNL     1      -4.782  31.500   4.875  1.00  0.00     0.016 C 
BRANCH   3   5
ATOM      5  C   UNL     1      -5.892  33.721   4.417  1.00  0.00     0.015 C 
BRANCH   5   6
ATOM      6  C   UNL     1      -5.715  35.231   4.190  1.00  0.00     0.028 C 
BRANCH   6   7
ATOM      7  C   UNL     1      -4.637  35.511   3.172  1.00  0.00    -0.028 C 
ATOM      8  C   UNL     1      -3.589  36.349   3.341  1.00  0.00    -0.070 CG0
ATOM      9  C   UNL     1      -2.607  36.489   2.204  1.00  0.00     0.039 C 
ATOM     10  G   UNL     1      -3.332  37.118   4.622  1.00  0.00     0.000 G0
ENDBRANCH   6   7
ENDBRANCH   5   6
ENDBRANCH   3   5
ENDBRANCH   1   3
BRANCH   1  11
ATOM     11  C   UNL     1      -2.890  34.110   6.578  1.00  0.00     0.087 C 
BRANCH  11  12
ATOM     12  C   UNL     1      -3.033  35.641   6.778  1.00  0.00     0.066 C 
BRANCH  12  13
ATOM     13  C   UNL     1      -2.449  36.360   5.571  1.00  0.00     0.140 C 
ATOM     14  O   UNL     1      -1.237  36.367   5.406  1.00  0.00    -0.299 OA
BRANCH  13  15
ATOM     15  C   UNL     1      -3.321  37.143   4.623  1.00  0.00     0.106 CG0
ATOM     16  G   UNL     1      -3.581  36.361   3.350  1.00  0.00     0.000 G0
ENDBRANCH  13  15
ENDBRANCH  12  13
BRANCH  12  17
ATOM     17  C   UNL     1      -2.343  36.136   8.092  1.00  0.00    -0.006 C 
ATOM     18  C   UNL     1      -1.196  35.203   8.534  1.00  0.00     0.008 C 
ATOM     19  C   UNL     1      -3.353  36.250   9.252  1.00  0.00     0.008 C 
ENDBRANCH  12  17
ENDBRANCH  11  12
ENDBRANCH   1  11
TORSDOF 1
ENDMDL
MODEL 2
REMARK VINA RESULT:    -3.580      7.219      8.937
REMARK INTER + INTRA:          -5.689
REMARK INTER:                  -5.356
REMARK INTRA:                  -0.332
REMARK UNBOUND:                -0.226
REMARK SMILES CC1=CCC[C@H](C)C(=O)C[C@@H](C(C)C)C(=O)C1
REMARK SMILES IDX 8 1 9 2 6 3 7 4 5 5 4 6 3 7 2 8 1 9 10 11 11 12 15 13 16 14
REMARK SMILES IDX 17 15 12 17 13 18 14 19
REMARK H PARENT
REMARK Flexibility Score: 70.00
ROOT
ATOM      1  C   UNL     1      -8.366  35.691  -0.205  1.00  0.00     0.136 C 
ATOM      2  O   UNL     1      -8.396  35.833   1.010  1.00  0.00    -0.299 OA
ENDROOT
BRANCH   1   3
ATOM      3  C   UNL     1      -9.586  35.168  -0.935  1.00  0.00     0.053 C 
ATOM      4  C   UNL     1      -9.887  33.742  -0.464  1.00  0.00     0.016 C 
BRANCH   3   5
ATOM      5  C   UNL     1     -10.819  36.075  -0.719  1.00  0.00     0.015 C 
BRANCH   5   6
ATOM      6  C   UNL     1     -10.696  37.443  -1.409  1.00  0.00     0.028 C 
BRANCH   6   7
ATOM      7  C   UNL     1     -10.473  37.291  -2.893  1.00  0.00    -0.028 C 
ATOM      8  C   UNL     1      -9.470  37.855  -3.604  1.00  0.00    -0.070 CG0
ATOM      9  C   UNL     1      -9.412  37.577  -5.086  1.00  0.00     0.039 C 
ATOM     10  G   UNL     1      -8.386  38.714  -2.983  1.00  0.00     0.000 G0
ENDBRANCH   6   7
ENDBRANCH   5   6
ENDBRANCH   3   5
ENDBRANCH   1   3
BRANCH   1  11
ATOM     11  C   UNL     1      -7.090  36.001  -0.944  1.00  0.00     0.087 C 
BRANCH  11  12
ATOM     12  C   UNL     1      -6.898  37.526  -1.147  1.00  0.00     0.066 C 
BRANCH  12  13
ATOM     13  C   UNL     1      -7.170  37.875  -2.602  1.00  0.00     0.140 C 
ATOM     14  O   UNL     1      -6.369  37.532  -3.461  1.00  0.00    -0.299 OA
BRANCH  13  15
ATOM     15  C   UNL     1      -8.356  38.716  -3.001  1.00  0.00     0.106 CG0
ATOM     16  G   UNL     1      -9.461  37.856  -3.584  1.00  0.00     0.000 G0
ENDBRANCH  13  15
ENDBRANCH  12  13
BRANCH  12  17
ATOM     17  C   UNL     1      -5.468  38.006  -0.730  1.00  0.00    -0.006 C 
ATOM     18  C   UNL     1      -4.928  37.234   0.491  1.00  0.00     0.008 C 
ATOM     19  C   UNL     1      -5.451  39.512  -0.402  1.00  0.00     0.008 C 
ENDBRANCH  12  17
ENDBRANCH  11  12
ENDBRANCH   1  11
TORSDOF 1
ENDMDL
MODEL 3
REMARK VINA RESULT:    -3.529      6.645      8.608
REMARK INTER + INTRA:          -5.611
REMARK INTER:                  -5.384
REMARK INTRA:                  -0.227
REMARK UNBOUND:                -0.226
REMARK SMILES CC1=CCC[C@H](C)C(=O)C[C@@H](C(C)C)C(=O)C1
REMARK SMILES IDX 8 1 9 2 6 3 7 4 5 5 4 6 3 7 2 8 1 9 10 11 11 12 15 13 16 14
REMARK SMILES IDX 17 15 12 17 13 18 14 19
REMARK H PARENT
REMARK Flexibility Score: 70.00
ROOT
ATOM      1  C   UNL     1     -10.083  36.257  -1.695  1.00  0.00     0.136 C 
ATOM      2  O   UNL     1     -11.289  36.107  -1.549  1.00  0.00    -0.299 OA
ENDROOT
BRANCH   1   3
ATOM      3  C   UNL     1      -9.563  37.195  -2.764  1.00  0.00     0.053 C 
ATOM      4  C   UNL     1     -10.431  37.066  -4.019  1.00  0.00     0.016 C 
BRANCH   3   5
ATOM      5  C   UNL     1      -9.536  38.663  -2.281  1.00  0.00     0.015 C 
BRANCH   5   6
ATOM      6  C   UNL     1      -8.117  39.249  -2.198  1.00  0.00     0.028 C 
BRANCH   6   7
ATOM      7  C   UNL     1      -7.118  38.374  -2.914  1.00  0.00    -0.028 C 
ATOM      8  C   UNL     1      -6.200  37.576  -2.324  1.00  0.00    -0.070 CG0
ATOM      9  C   UNL     1      -5.291  36.767  -3.216  1.00  0.00     0.039 C 
ATOM     10  G   UNL     1      -6.066  37.426  -0.821  1.00  0.00     0.000 G0
ENDBRANCH   6   7
ENDBRANCH   5   6
ENDBRANCH   3   5
ENDBRANCH   1   3
BRANCH   1  11
ATOM     11  C   UNL     1      -9.140  35.466  -0.828  1.00  0.00     0.087 C 
BRANCH  11  12
ATOM     12  C   UNL     1      -8.296  36.383   0.094  1.00  0.00     0.066 C 
BRANCH  12  13
ATOM     13  C   UNL     1      -6.828  36.253  -0.279  1.00  0.00     0.140 C 
ATOM     14  O   UNL     1      -6.247  35.197  -0.071  1.00  0.00    -0.299 OA
BRANCH  13  15
ATOM     15  C   UNL     1      -6.044  37.425  -0.814  1.00  0.00     0.106 CG0
ATOM     16  G   UNL     1      -6.214  37.554  -2.315  1.00  0.00     0.000 G0
ENDBRANCH  13  15
ENDBRANCH  12  13
BRANCH  12  17
ATOM     17  C   UNL     1      -8.504  36.055   1.610  1.00  0.00    -0.006 C 
ATOM     18  C   UNL     1      -9.996  36.012   1.998  1.00  0.00     0.008 C 
ATOM     19  C   UNL     1      -7.795  37.086   2.513  1.00  0.00     0.008 C 
ENDBRANCH  12  17
ENDBRANCH  11  12
ENDBRANCH   1  11
TORSDOF 1
ENDMDL
MODEL 4
REMARK VINA RESULT:    -3.523      7.539      9.897
REMARK INTER + INTRA:          -5.602
REMARK INTER:                  -5.424
REMARK INTRA:                  -0.178
REMARK UNBOUND:                -0.226
REMARK SMILES CC1=CCC[C@H](C)C(=O)C[C@@H](C(C)C)C(=O)C1
REMARK SMILES IDX 8 1 9 2 6 3 7 4 5 5 4 6 3 7 2 8 1 9 10 11 11 12 15 13 16 14
REMARK SMILES IDX 17 15 12 17 13 18 14 19
REMARK H PARENT
REMARK Flexibility Score: 70.00
ROOT
ATOM      1  C   UNL     1     -10.787  36.093  -0.920  1.00  0.00     0.136 C 
ATOM      2  O   UNL     1     -11.846  35.684  -1.378  1.00  0.00    -0.299 OA
ENDROOT
BRANCH   1   3
ATOM      3  C   UNL     1     -10.079  35.304   0.163  1.00  0.00     0.053 C 
ATOM      4  C   UNL     1      -9.343  34.120  -0.470  1.00  0.00     0.016 C 
BRANCH   3   5
ATOM      5  C   UNL     1      -9.091  36.183   0.964  1.00  0.00     0.015 C 
BRANCH   5   6
ATOM      6  C   UNL     1      -7.618  35.896   0.633  1.00  0.00     0.028 C 
BRANCH   6   7
ATOM      7  C   UNL     1      -6.871  37.166   0.306  1.00  0.00    -0.028 C 
ATOM      8  C   UNL     1      -6.644  37.652  -0.935  1.00  0.00    -0.070 CG0
ATOM      9  C   UNL     1      -5.880  38.948  -1.056  1.00  0.00     0.039 C 
ATOM     10  G   UNL     1      -7.150  36.986  -2.199  1.00  0.00     0.000 G0
ENDBRANCH   6   7
ENDBRANCH   5   6
ENDBRANCH   3   5
ENDBRANCH   1   3
BRANCH   1  11
ATOM     11  C   UNL     1     -10.233  37.401  -1.418  1.00  0.00     0.087 C 
BRANCH  11  12
ATOM     12  C   UNL     1      -9.673  37.279  -2.859  1.00  0.00     0.066 C 
BRANCH  12  13
ATOM     13  C   UNL     1      -8.232  37.766  -2.878  1.00  0.00     0.140 C 
ATOM     14  O   UNL     1      -7.948  38.774  -3.511  1.00  0.00    -0.299 OA
BRANCH  13  15
ATOM     15  C   UNL     1      -7.128  36.985  -2.213  1.00  0.00     0.106 CG0
ATOM     16  G   UNL     1      -6.655  37.677  -0.950  1.00  0.00     0.000 G0
ENDBRANCH  13  15
ENDBRANCH  12  13
BRANCH  12  17
ATOM     17  C   UNL     1     -10.530  38.074  -3.899  1.00  0.00    -0.006 C 
ATOM     18  C   UNL     1     -11.801  38.677  -3.267  1.00  0.00     0.008 C 
ATOM     19  C   UNL     1     -10.950  37.181  -5.084  1.00  0.00     0.008 C 
ENDBRANCH  12  17
ENDBRANCH  11  12
ENDBRANCH   1  11
TORSDOF 1
ENDMDL
MODEL 5
REMARK VINA RESULT:    -3.508      8.191     10.869
REMARK INTER + INTRA:          -5.579
REMARK INTER:                  -5.348
REMARK INTRA:                  -0.231
REMARK UNBOUND:                -0.226
REMARK SMILES CC1=CCC[C@H](C)C(=O)C[C@@H](C(C)C)C(=O)C1
REMARK SMILES IDX 8 1 9 2 6 3 7 4 5 5 4 6 3 7 2 8 1 9 10 11 11 12 15 13 16 14
REMARK SMILES IDX 17 15 12 17 13 18 14 19
REMARK H PARENT
REMARK Flexibility Score: 70.00
ROOT
ATOM      1  C   UNL     1      -8.301  37.850  -3.229  1.00  0.00     0.136 C 
ATOM      2  O   UNL     1      -8.045  38.859  -3.873  1.00  0.00    -0.299 OA
ENDROOT
BRANCH   1   3
ATOM      3  C   UNL     1      -7.254  37.255  -2.311  1.00  0.00     0.053 C 
ATOM      4  C   UNL     1      -5.896  37.259  -3.020  1.00  0.00     0.016 C 
BRANCH   3   5
ATOM      5  C   UNL     1      -7.160  38.018  -0.970  1.00  0.00     0.015 C 
BRANCH   5   6
ATOM      6  C   UNL     1      -7.774  37.250   0.211  1.00  0.00     0.028 C 
BRANCH   6   7
ATOM      7  C   UNL     1      -8.185  35.856  -0.195  1.00  0.00    -0.028 C 
ATOM      8  C   UNL     1      -9.455  35.426  -0.372  1.00  0.00    -0.070 CG0
ATOM      9  C   UNL     1      -9.662  33.991  -0.789  1.00  0.00     0.039 C 
ATOM     10  G   UNL     1     -10.669  36.320  -0.212  1.00  0.00     0.000 G0
ENDBRANCH   6   7
ENDBRANCH   5   6
ENDBRANCH   3   5
ENDBRANCH   1   3
BRANCH   1  11
ATOM     11  C   UNL     1      -9.648  37.198  -3.399  1.00  0.00     0.087 C 
BRANCH  11  12
ATOM     12  C   UNL     1     -10.701  37.786  -2.425  1.00  0.00     0.066 C 
BRANCH  12  13
ATOM     13  C   UNL     1     -11.277  36.664  -1.575  1.00  0.00     0.140 C 
ATOM     14  O   UNL     1     -12.281  36.078  -1.956  1.00  0.00    -0.299 OA
BRANCH  13  15
ATOM     15  C   UNL     1     -10.696  36.319  -0.228  1.00  0.00     0.106 CG0
ATOM     16  G   UNL     1      -9.459  35.454  -0.374  1.00  0.00     0.000 G0
ENDBRANCH  13  15
ENDBRANCH  12  13
BRANCH  12  17
ATOM     17  C   UNL     1     -11.846  38.544  -3.175  1.00  0.00    -0.006 C 
ATOM     18  C   UNL     1     -11.815  38.289  -4.695  1.00  0.00     0.008 C 
ATOM     19  C   UNL     1     -11.768  40.066  -2.933  1.00  0.00     0.008 C 
ENDBRANCH  12  17
ENDBRANCH  11  12
ENDBRANCH   1  11
TORSDOF 1
ENDMDL
MODEL 6
REMARK VINA RESULT:    -3.464      8.311     10.993
REMARK INTER + INTRA:          -5.512
REMARK INTER:                  -5.264
REMARK INTRA:                  -0.248
REMARK UNBOUND:                -0.226
REMARK SMILES CC1=CCC[C@H](C)C(=O)C[C@@H](C(C)C)C(=O)C1
REMARK SMILES IDX 8 1 9 2 6 3 7 4 5 5 4 6 3 7 2 8 1 9 10 11 11 12 15 13 16 14
REMARK SMILES IDX 17 15 12 17 13 18 14 19
REMARK H PARENT
REMARK Flexibility Score: 70.00
ROOT
ATOM      1  C   UNL     1      -8.364  37.538  -3.878  1.00  0.00     0.136 C 
ATOM      2  O   UNL     1      -8.102  38.034  -4.966  1.00  0.00    -0.299 OA
ENDROOT
BRANCH   1   3
ATOM      3  C   UNL     1      -7.330  37.559  -2.771  1.00  0.00     0.053 C 
ATOM      4  C   UNL     1      -5.973  37.125  -3.334  1.00  0.00     0.016 C 
BRANCH   3   5
ATOM      5  C   UNL     1      -7.216  38.954  -2.115  1.00  0.00     0.015 C 
BRANCH   5   6
ATOM      6  C   UNL     1      -7.867  39.027  -0.724  1.00  0.00     0.028 C 
BRANCH   6   7
ATOM      7  C   UNL     1      -7.935  37.664  -0.078  1.00  0.00    -0.028 C 
ATOM      8  C   UNL     1      -9.065  36.975   0.195  1.00  0.00    -0.070 CG0
ATOM      9  C   UNL     1      -8.926  35.618   0.840  1.00  0.00     0.039 C 
ATOM     10  G   UNL     1     -10.455  37.477  -0.148  1.00  0.00     0.000 G0
ENDBRANCH   6   7
ENDBRANCH   5   6
ENDBRANCH   3   5
ENDBRANCH   1   3
BRANCH   1  11
ATOM     11  C   UNL     1      -9.702  36.876  -3.681  1.00  0.00     0.087 C 
BRANCH  11  12
ATOM     12  C   UNL     1     -10.634  37.718  -2.773  1.00  0.00     0.066 C 
BRANCH  12  13
ATOM     13  C   UNL     1     -10.906  36.950  -1.488  1.00  0.00     0.140 C 
ATOM     14  O   UNL     1     -11.568  35.923  -1.532  1.00  0.00    -0.299 OA
BRANCH  13  15
ATOM     15  C   UNL     1     -10.459  37.475  -0.148  1.00  0.00     0.106 CG0
ATOM     16  G   UNL     1      -9.064  36.986   0.191  1.00  0.00     0.000 G0
ENDBRANCH  13  15
ENDBRANCH  12  13
BRANCH  12  17
ATOM     17  C   UNL     1     -11.979  38.088  -3.481  1.00  0.00    -0.006 C 
ATOM     18  C   UNL     1     -12.070  37.498  -4.903  1.00  0.00     0.008 C 
ATOM     19  C   UNL     1     -12.166  39.616  -3.574  1.00  0.00     0.008 C 
ENDBRANCH  12  17
ENDBRANCH  11  12
ENDBRANCH   1  11
TORSDOF 1
ENDMDL
MODEL 7
REMARK VINA RESULT:    -3.233      5.855      7.496
REMARK INTER + INTRA:          -5.159
REMARK INTER:                  -5.130
REMARK INTRA:                  -0.029
REMARK UNBOUND:                -0.226
REMARK SMILES CC1=CCC[C@H](C)C(=O)C[C@@H](C(C)C)C(=O)C1
REMARK SMILES IDX 8 1 9 2 6 3 7 4 5 5 4 6 3 7 2 8 1 9 10 11 11 12 15 13 16 14
REMARK SMILES IDX 17 15 12 17 13 18 14 19
REMARK H PARENT
REMARK Flexibility Score: 70.00
ROOT
ATOM      1  C   UNL     1      -8.184  35.605   0.308  1.00  0.00     0.136 C 
ATOM      2  O   UNL     1      -8.607  35.863   1.427  1.00  0.00    -0.299 OA
ENDROOT
BRANCH   1   3
ATOM      3  C   UNL     1      -9.155  35.381  -0.833  1.00  0.00     0.053 C 
ATOM      4  C   UNL     1     -10.070  34.200  -0.496  1.00  0.00     0.016 C 
BRANCH   3   5
ATOM      5  C   UNL     1      -9.998  36.643  -1.129  1.00  0.00     0.015 C 
BRANCH   5   6
ATOM      6  C   UNL     1      -9.547  37.393  -2.392  1.00  0.00     0.028 C 
BRANCH   6   7
ATOM      7  C   UNL     1      -8.722  38.608  -2.045  1.00  0.00    -0.028 C 
ATOM      8  C   UNL     1      -7.371  38.670  -2.036  1.00  0.00    -0.070 CG0
ATOM      9  C   UNL     1      -6.727  39.983  -1.666  1.00  0.00     0.039 C 
ATOM     10  G   UNL     1      -6.478  37.504  -2.413  1.00  0.00     0.000 G0
ENDBRANCH   6   7
ENDBRANCH   5   6
ENDBRANCH   3   5
ENDBRANCH   1   3
BRANCH   1  11
ATOM     11  C   UNL     1      -6.698  35.473   0.102  1.00  0.00     0.087 C 
BRANCH  11  12
ATOM     12  C   UNL     1      -5.990  36.852   0.110  1.00  0.00     0.066 C 
BRANCH  12  13
ATOM     13  C   UNL     1      -5.503  37.174  -1.294  1.00  0.00     0.140 C 
ATOM     14  O   UNL     1      -4.301  37.241  -1.512  1.00  0.00    -0.299 OA
BRANCH  13  15
ATOM     15  C   UNL     1      -6.467  37.503  -2.406  1.00  0.00     0.106 CG0
ATOM     16  G   UNL     1      -7.364  38.664  -2.023  1.00  0.00     0.000 G0
ENDBRANCH  13  15
ENDBRANCH  12  13
BRANCH  12  17
ATOM     17  C   UNL     1      -4.799  36.903   1.124  1.00  0.00    -0.006 C 
ATOM     18  C   UNL     1      -5.065  36.046   2.378  1.00  0.00     0.008 C 
ATOM     19  C   UNL     1      -4.501  38.348   1.574  1.00  0.00     0.008 C 
ENDBRANCH  12  17
ENDBRANCH  11  12
ENDBRANCH   1  11
TORSDOF 1
ENDMDL
MODEL 8
REMARK VINA RESULT:    -3.176     12.811     14.759
REMARK INTER + INTRA:          -5.073
REMARK INTER:                  -4.766
REMARK INTRA:                  -0.307
REMARK UNBOUND:                -0.226
REMARK SMILES CC1=CCC[C@H](C)C(=O)C[C@@H](C(C)C)C(=O)C1
REMARK SMILES IDX 8 1 9 2 6 3 7 4 5 5 4 6 3 7 2 8 1 9 10 11 11 12 15 13 16 14
REMARK SMILES IDX 17 15 12 17 13 18 14 19
REMARK H PARENT
REMARK Flexibility Score: 70.00
ROOT
ATOM      1  C   UNL     1     -17.590  37.772   7.441  1.00  0.00     0.136 C 
ATOM      2  O   UNL     1     -16.958  38.805   7.615  1.00  0.00    -0.299 OA
ENDROOT
BRANCH   1   3
ATOM      3  C   UNL     1     -19.026  37.837   6.964  1.00  0.00     0.053 C 
ATOM      4  C   UNL     1     -19.839  38.717   7.918  1.00  0.00     0.016 C 
BRANCH   3   5
ATOM      5  C   UNL     1     -19.130  38.377   5.519  1.00  0.00     0.015 C 
BRANCH   5   6
ATOM      6  C   UNL     1     -19.113  37.269   4.454  1.00  0.00     0.028 C 
BRANCH   6   7
ATOM      7  C   UNL     1     -19.920  36.071   4.894  1.00  0.00    -0.028 C 
ATOM      8  C   UNL     1     -19.443  34.818   5.069  1.00  0.00    -0.070 CG0
ATOM      9  C   UNL     1     -20.410  33.753   5.523  1.00  0.00     0.039 C 
ATOM     10  G   UNL     1     -17.988  34.442   4.871  1.00  0.00     0.000 G0
ENDBRANCH   6   7
ENDBRANCH   5   6
ENDBRANCH   3   5
ENDBRANCH   1   3
BRANCH   1  11
ATOM     11  C   UNL     1     -16.932  36.452   7.750  1.00  0.00     0.087 C 
BRANCH  11  12
ATOM     12  C   UNL     1     -16.363  35.779   6.474  1.00  0.00     0.066 C 
BRANCH  12  13
ATOM     13  C   UNL     1     -17.191  34.546   6.148  1.00  0.00     0.140 C 
ATOM     14  O   UNL     1     -17.163  33.587   6.908  1.00  0.00    -0.299 OA
BRANCH  13  15
ATOM     15  C   UNL     1     -17.972  34.438   4.863  1.00  0.00     0.106 CG0
ATOM     16  G   UNL     1     -19.424  34.824   5.075  1.00  0.00     0.000 G0
ENDBRANCH  13  15
ENDBRANCH  12  13
BRANCH  12  17
ATOM     17  C   UNL     1     -14.853  35.397   6.627  1.00  0.00    -0.006 C 
ATOM     18  C   UNL     1     -13.984  36.607   7.022  1.00  0.00     0.008 C 
ATOM     19  C   UNL     1     -14.289  34.795   5.323  1.00  0.00     0.008 C 
ENDBRANCH  12  17
ENDBRANCH  11  12
ENDBRANCH   1  11
TORSDOF 1
ENDMDL
MODEL 9
REMARK VINA RESULT:    -3.110      5.904      8.257
REMARK INTER + INTRA:          -4.972
REMARK INTER:                  -4.724
REMARK INTRA:                  -0.248
REMARK UNBOUND:                -0.226
REMARK SMILES CC1=CCC[C@H](C)C(=O)C[C@@H](C(C)C)C(=O)C1
REMARK SMILES IDX 8 1 9 2 6 3 7 4 5 5 4 6 3 7 2 8 1 9 10 11 11 12 15 13 16 14
REMARK SMILES IDX 17 15 12 17 13 18 14 19
REMARK H PARENT
REMARK Flexibility Score: 70.00
ROOT
ATOM      1  C   UNL     1      -8.081  36.591   1.797  1.00  0.00     0.136 C 
ATOM      2  O   UNL     1      -8.774  35.864   2.497  1.00  0.00    -0.299 OA
ENDROOT
BRANCH   1   3
ATOM      3  C   UNL     1      -6.655  36.897   2.208  1.00  0.00     0.053 C 
ATOM      4  C   UNL     1      -5.713  35.865   1.581  1.00  0.00     0.016 C 
BRANCH   3   5
ATOM      5  C   UNL     1      -6.232  38.327   1.798  1.00  0.00     0.015 C 
BRANCH   5   6
ATOM      6  C   UNL     1      -5.164  38.351   0.693  1.00  0.00     0.028 C 
BRANCH   6   7
ATOM      7  C   UNL     1      -5.561  39.274  -0.434  1.00  0.00    -0.028 C 
ATOM      8  C   UNL     1      -6.112  38.895  -1.609  1.00  0.00    -0.070 CG0
ATOM      9  C   UNL     1      -6.447  39.973  -2.611  1.00  0.00     0.039 C 
ATOM     10  G   UNL     1      -6.443  37.456  -1.951  1.00  0.00     0.000 G0
ENDBRANCH   6   7
ENDBRANCH   5   6
ENDBRANCH   3   5
ENDBRANCH   1   3
BRANCH   1  11
ATOM     11  C   UNL     1      -8.682  37.200   0.558  1.00  0.00     0.087 C 
BRANCH  11  12
ATOM     12  C   UNL     1      -8.463  36.306  -0.690  1.00  0.00     0.066 C 
BRANCH  12  13
ATOM     13  C   UNL     1      -7.916  37.157  -1.825  1.00  0.00     0.140 C 
ATOM     14  O   UNL     1      -8.676  37.554  -2.697  1.00  0.00    -0.299 OA
BRANCH  13  15
ATOM     15  C   UNL     1      -6.441  37.446  -1.953  1.00  0.00     0.106 CG0
ATOM     16  G   UNL     1      -6.137  38.889  -1.602  1.00  0.00     0.000 G0
ENDBRANCH  13  15
ENDBRANCH  12  13
BRANCH  12  17
ATOM     17  C   UNL     1      -9.774  35.579  -1.137  1.00  0.00    -0.006 C 
ATOM     18  C   UNL     1     -11.041  36.326  -0.675  1.00  0.00     0.008 C 
ATOM     19  C   UNL     1      -9.832  34.136  -0.595  1.00  0.00     0.008 C 
ENDBRANCH  12  17
ENDBRANCH  11  12
ENDBRANCH   1  11
TORSDOF 1
ENDMDL
