MODEL 1
REMARK VINA RESULT:    -6.666      0.000      0.000
REMARK INTER + INTRA:          -6.666
REMARK INTER:                  -6.666
REMARK INTRA:                   0.000
REMARK UNBOUND:                 0.000
REMARK SMILES CC1=CC[C@@]2(C)CCCC(C)(C)[C@@]23C[C@@H]13
REMARK SMILES IDX 1 1 2 2 3 3 4 4 5 5 7 6 8 7 9 8 10 9 13 10 15 11 14 12 11 13
REMARK SMILES IDX 12 14 6 15
REMARK H PARENT
REMARK Flexibility Score: inf
ROOT
ATOM      1  C   UNL     1      10.415  32.705  26.419  1.00  0.00     0.039 C 
ATOM      2  C   UNL     1      10.128  33.195  25.028  1.00  0.00    -0.074 C 
ATOM      3  C   UNL     1       9.489  34.373  24.865  1.00  0.00    -0.027 C 
ATOM      4  C   UNL     1       9.179  34.929  23.496  1.00  0.00     0.034 C 
ATOM      5  C   UNL     1       8.864  33.788  22.485  1.00  0.00    -0.022 C 
ATOM      6  C   UNL     1       8.731  34.395  21.068  1.00  0.00     0.008 C 
ATOM      7  C   UNL     1       8.567  33.334  19.964  1.00  0.00     0.001 C 
ATOM      8  C   UNL     1       9.712  32.310  19.958  1.00  0.00     0.007 C 
ATOM      9  C   UNL     1       9.957  31.596  21.319  1.00  0.00    -0.029 C 
ATOM     10  C   UNL     1      10.017  32.705  22.454  1.00  0.00    -0.012 C 
ATOM     11  C   UNL     1      10.569  32.347  23.844  1.00  0.00     0.022 C 
ATOM     12  C   UNL     1      11.451  33.130  22.874  1.00  0.00     0.017 C 
ATOM     13  C   UNL     1      11.265  30.766  21.150  1.00  0.00     0.012 C 
ATOM     14  C   UNL     1       8.834  30.568  21.608  1.00  0.00     0.012 C 
ATOM     15  C   UNL     1       7.505  33.166  22.936  1.00  0.00     0.012 C 
ENDROOT
TORSDOF 0
ENDMDL
MODEL 2
REMARK VINA RESULT:    -6.530      1.188      1.716
REMARK INTER + INTRA:          -6.530
REMARK INTER:                  -6.530
REMARK INTRA:                   0.000
REMARK UNBOUND:                 0.000
REMARK SMILES CC1=CC[C@@]2(C)CCCC(C)(C)[C@@]23C[C@@H]13
REMARK SMILES IDX 1 1 2 2 3 3 4 4 5 5 7 6 8 7 9 8 10 9 13 10 15 11 14 12 11 13
REMARK SMILES IDX 12 14 6 15
REMARK H PARENT
REMARK Flexibility Score: inf
ROOT
ATOM      1  C   UNL     1      10.362  32.391  26.475  1.00  0.00     0.039 C 
ATOM      2  C   UNL     1       9.526  32.745  25.278  1.00  0.00    -0.074 C 
ATOM      3  C   UNL     1       8.186  32.833  25.415  1.00  0.00    -0.027 C 
ATOM      4  C   UNL     1       7.288  33.195  24.257  1.00  0.00     0.034 C 
ATOM      5  C   UNL     1       7.844  32.629  22.917  1.00  0.00    -0.022 C 
ATOM      6  C   UNL     1       6.991  33.176  21.748  1.00  0.00     0.008 C 
ATOM      7  C   UNL     1       7.545  32.798  20.362  1.00  0.00     0.001 C 
ATOM      8  C   UNL     1       9.000  33.251  20.166  1.00  0.00     0.007 C 
ATOM      9  C   UNL     1       9.990  32.758  21.262  1.00  0.00    -0.029 C 
ATOM     10  C   UNL     1       9.347  33.064  22.681  1.00  0.00    -0.012 C 
ATOM     11  C   UNL     1      10.218  32.996  23.947  1.00  0.00     0.022 C 
ATOM     12  C   UNL     1       9.862  34.362  23.363  1.00  0.00     0.017 C 
ATOM     13  C   UNL     1      11.342  33.482  20.990  1.00  0.00     0.012 C 
ATOM     14  C   UNL     1      10.278  31.244  21.100  1.00  0.00     0.012 C 
ATOM     15  C   UNL     1       7.705  31.077  23.007  1.00  0.00     0.012 C 
ENDROOT
TORSDOF 0
ENDMDL
MODEL 3
REMARK VINA RESULT:    -6.482      1.321      3.988
REMARK INTER + INTRA:          -6.482
REMARK INTER:                  -6.482
REMARK INTRA:                   0.000
REMARK UNBOUND:                 0.000
REMARK SMILES CC1=CC[C@@]2(C)CCCC(C)(C)[C@@]23C[C@@H]13
REMARK SMILES IDX 1 1 2 2 3 3 4 4 5 5 7 6 8 7 9 8 10 9 13 10 15 11 14 12 11 13
REMARK SMILES IDX 12 14 6 15
REMARK H PARENT
REMARK Flexibility Score: inf
ROOT
ATOM      1  C   UNL     1      13.156  33.827  20.392  1.00  0.00     0.039 C 
ATOM      2  C   UNL     1      11.870  33.285  20.950  1.00  0.00    -0.074 C 
ATOM      3  C   UNL     1      10.961  32.752  20.106  1.00  0.00    -0.027 C 
ATOM      4  C   UNL     1       9.654  32.180  20.600  1.00  0.00     0.034 C 
ATOM      5  C   UNL     1       9.124  32.973  21.830  1.00  0.00    -0.022 C 
ATOM      6  C   UNL     1       7.887  32.242  22.403  1.00  0.00     0.008 C 
ATOM      7  C   UNL     1       7.369  32.859  23.716  1.00  0.00     0.001 C 
ATOM      8  C   UNL     1       8.452  32.923  24.803  1.00  0.00     0.007 C 
ATOM      9  C   UNL     1       9.761  33.652  24.379  1.00  0.00    -0.029 C 
ATOM     10  C   UNL     1      10.215  33.071  22.972  1.00  0.00    -0.012 C 
ATOM     11  C   UNL     1      11.634  33.352  22.451  1.00  0.00     0.022 C 
ATOM     12  C   UNL     1      11.318  31.980  23.044  1.00  0.00     0.017 C 
ATOM     13  C   UNL     1      10.781  33.430  25.534  1.00  0.00     0.012 C 
ATOM     14  C   UNL     1       9.534  35.183  24.298  1.00  0.00     0.012 C 
ATOM     15  C   UNL     1       8.720  34.385  21.300  1.00  0.00     0.012 C 
ENDROOT
TORSDOF 0
ENDMDL
MODEL 4
REMARK VINA RESULT:    -6.032      1.392      2.224
REMARK INTER + INTRA:          -6.032
REMARK INTER:                  -6.032
REMARK INTRA:                   0.000
REMARK UNBOUND:                 0.000
REMARK SMILES CC1=CC[C@@]2(C)CCCC(C)(C)[C@@]23C[C@@H]13
REMARK SMILES IDX 1 1 2 2 3 3 4 4 5 5 7 6 8 7 9 8 10 9 13 10 15 11 14 12 11 13
REMARK SMILES IDX 12 14 6 15
REMARK H PARENT
REMARK Flexibility Score: inf
ROOT
ATOM      1  C   UNL     1       8.109  31.792  25.332  1.00  0.00     0.039 C 
ATOM      2  C   UNL     1       8.362  32.487  24.024  1.00  0.00    -0.074 C 
ATOM      3  C   UNL     1       7.310  32.903  23.287  1.00  0.00    -0.027 C 
ATOM      4  C   UNL     1       7.492  33.616  21.970  1.00  0.00     0.034 C 
ATOM      5  C   UNL     1       8.743  33.084  21.211  1.00  0.00    -0.022 C 
ATOM      6  C   UNL     1       8.986  33.964  19.962  1.00  0.00     0.008 C 
ATOM      7  C   UNL     1      10.288  33.618  19.217  1.00  0.00     0.001 C 
ATOM      8  C   UNL     1      11.524  33.697  20.126  1.00  0.00     0.007 C 
ATOM      9  C   UNL     1      11.437  32.842  21.424  1.00  0.00    -0.029 C 
ATOM     10  C   UNL     1      10.039  33.139  22.117  1.00  0.00    -0.012 C 
ATOM     11  C   UNL     1       9.797  32.702  23.571  1.00  0.00     0.022 C 
ATOM     12  C   UNL     1      10.094  34.171  23.277  1.00  0.00     0.017 C 
ATOM     13  C   UNL     1      12.681  33.218  22.282  1.00  0.00     0.012 C 
ATOM     14  C   UNL     1      11.583  31.334  21.098  1.00  0.00     0.012 C 
ATOM     15  C   UNL     1       8.404  31.621  20.783  1.00  0.00     0.012 C 
ENDROOT
TORSDOF 0
ENDMDL
MODEL 5
REMARK VINA RESULT:    -5.974      1.651      3.968
REMARK INTER + INTRA:          -5.974
REMARK INTER:                  -5.974
REMARK INTRA:                   0.000
REMARK UNBOUND:                 0.000
REMARK SMILES CC1=CC[C@@]2(C)CCCC(C)(C)[C@@]23C[C@@H]13
REMARK SMILES IDX 1 1 2 2 3 3 4 4 5 5 7 6 8 7 9 8 10 9 13 10 15 11 14 12 11 13
REMARK SMILES IDX 12 14 6 15
REMARK H PARENT
REMARK Flexibility Score: inf
ROOT
ATOM      1  C   UNL     1       6.176  33.027  20.914  1.00  0.00     0.039 C 
ATOM      2  C   UNL     1       7.585  33.481  20.659  1.00  0.00    -0.074 C 
ATOM      3  C   UNL     1       7.865  34.147  19.519  1.00  0.00    -0.027 C 
ATOM      4  C   UNL     1       9.256  34.641  19.204  1.00  0.00     0.034 C 
ATOM      5  C   UNL     1      10.336  33.666  19.758  1.00  0.00    -0.022 C 
ATOM      6  C   UNL     1      11.733  34.304  19.569  1.00  0.00     0.008 C 
ATOM      7  C   UNL     1      12.867  33.490  20.218  1.00  0.00     0.001 C 
ATOM      8  C   UNL     1      12.634  33.247  21.717  1.00  0.00     0.007 C 
ATOM      9  C   UNL     1      11.268  32.586  22.066  1.00  0.00    -0.029 C 
ATOM     10  C   UNL     1      10.126  33.381  21.300  1.00  0.00    -0.012 C 
ATOM     11  C   UNL     1       8.654  33.178  21.697  1.00  0.00     0.022 C 
ATOM     12  C   UNL     1       9.381  34.440  22.159  1.00  0.00     0.017 C 
ATOM     13  C   UNL     1      11.151  32.615  23.619  1.00  0.00     0.012 C 
ATOM     14  C   UNL     1      11.264  31.089  21.666  1.00  0.00     0.012 C 
ATOM     15  C   UNL     1      10.221  32.359  18.912  1.00  0.00     0.012 C 
ENDROOT
TORSDOF 0
ENDMDL
MODEL 6
REMARK VINA RESULT:    -5.747      3.247      5.278
REMARK INTER + INTRA:          -5.747
REMARK INTER:                  -5.747
REMARK INTRA:                   0.000
REMARK UNBOUND:                 0.000
REMARK SMILES CC1=CC[C@@]2(C)CCCC(C)(C)[C@@]23C[C@@H]13
REMARK SMILES IDX 1 1 2 2 3 3 4 4 5 5 7 6 8 7 9 8 10 9 13 10 15 11 14 12 11 13
REMARK SMILES IDX 12 14 6 15
REMARK H PARENT
REMARK Flexibility Score: inf
ROOT
ATOM      1  C   UNL     1      11.264  32.614  23.174  1.00  0.00     0.039 C 
ATOM      2  C   UNL     1      12.393  32.380  22.211  1.00  0.00    -0.074 C 
ATOM      3  C   UNL     1      13.002  33.442  21.643  1.00  0.00    -0.027 C 
ATOM      4  C   UNL     1      14.149  33.280  20.676  1.00  0.00     0.034 C 
ATOM      5  C   UNL     1      13.978  31.995  19.813  1.00  0.00    -0.022 C 
ATOM      6  C   UNL     1      15.259  31.781  18.971  1.00  0.00     0.008 C 
ATOM      7  C   UNL     1      15.259  30.454  18.190  1.00  0.00     0.001 C 
ATOM      8  C   UNL     1      15.056  29.234  19.102  1.00  0.00     0.007 C 
ATOM      9  C   UNL     1      13.788  29.295  20.002  1.00  0.00    -0.029 C 
ATOM     10  C   UNL     1      13.757  30.714  20.715  1.00  0.00    -0.012 C 
ATOM     11  C   UNL     1      12.816  30.951  21.907  1.00  0.00     0.022 C 
ATOM     12  C   UNL     1      14.303  30.724  22.169  1.00  0.00     0.017 C 
ATOM     13  C   UNL     1      13.881  28.081  20.973  1.00  0.00     0.012 C 
ATOM     14  C   UNL     1      12.507  29.071  19.160  1.00  0.00     0.012 C 
ATOM     15  C   UNL     1      12.755  32.256  18.878  1.00  0.00     0.012 C 
ENDROOT
TORSDOF 0
ENDMDL
MODEL 7
REMARK VINA RESULT:    -5.743      1.750      3.706
REMARK INTER + INTRA:          -5.743
REMARK INTER:                  -5.743
REMARK INTRA:                   0.000
REMARK UNBOUND:                 0.000
REMARK SMILES CC1=CC[C@@]2(C)CCCC(C)(C)[C@@]23C[C@@H]13
REMARK SMILES IDX 1 1 2 2 3 3 4 4 5 5 7 6 8 7 9 8 10 9 13 10 15 11 14 12 11 13
REMARK SMILES IDX 12 14 6 15
REMARK H PARENT
REMARK Flexibility Score: inf
ROOT
ATOM      1  C   UNL     1       6.623  29.474  24.689  1.00  0.00     0.039 C 
ATOM      2  C   UNL     1       7.031  30.430  23.605  1.00  0.00    -0.074 C 
ATOM      3  C   UNL     1       6.633  30.194  22.336  1.00  0.00    -0.027 C 
ATOM      4  C   UNL     1       6.998  31.119  21.201  1.00  0.00     0.034 C 
ATOM      5  C   UNL     1       8.411  31.738  21.414  1.00  0.00    -0.022 C 
ATOM      6  C   UNL     1       8.660  32.807  20.323  1.00  0.00     0.008 C 
ATOM      7  C   UNL     1       9.969  33.591  20.527  1.00  0.00     0.001 C 
ATOM      8  C   UNL     1      10.043  34.264  21.906  1.00  0.00     0.007 C 
ATOM      9  C   UNL     1       9.830  33.305  23.114  1.00  0.00    -0.029 C 
ATOM     10  C   UNL     1       8.533  32.435  22.829  1.00  0.00    -0.012 C 
ATOM     11  C   UNL     1       7.881  31.637  23.970  1.00  0.00     0.022 C 
ATOM     12  C   UNL     1       7.240  32.949  23.520  1.00  0.00     0.017 C 
ATOM     13  C   UNL     1       9.744  34.207  24.380  1.00  0.00     0.012 C 
ATOM     14  C   UNL     1      11.070  32.399  23.319  1.00  0.00     0.012 C 
ATOM     15  C   UNL     1       9.430  30.565  21.262  1.00  0.00     0.012 C 
ENDROOT
TORSDOF 0
ENDMDL
MODEL 8
REMARK VINA RESULT:    -5.732      3.209      4.781
REMARK INTER + INTRA:          -5.732
REMARK INTER:                  -5.732
REMARK INTRA:                   0.000
REMARK UNBOUND:                 0.000
REMARK SMILES CC1=CC[C@@]2(C)CCCC(C)(C)[C@@]23C[C@@H]13
REMARK SMILES IDX 1 1 2 2 3 3 4 4 5 5 7 6 8 7 9 8 10 9 13 10 15 11 14 12 11 13
REMARK SMILES IDX 12 14 6 15
REMARK H PARENT
REMARK Flexibility Score: inf
ROOT
ATOM      1  C   UNL     1      15.602  29.809  23.761  1.00  0.00     0.039 C 
ATOM      2  C   UNL     1      15.100  30.678  22.643  1.00  0.00    -0.074 C 
ATOM      3  C   UNL     1      15.666  31.887  22.445  1.00  0.00    -0.027 C 
ATOM      4  C   UNL     1      15.218  32.806  21.335  1.00  0.00     0.034 C 
ATOM      5  C   UNL     1      13.689  32.671  21.078  1.00  0.00    -0.022 C 
ATOM      6  C   UNL     1      13.316  33.493  19.821  1.00  0.00     0.008 C 
ATOM      7  C   UNL     1      11.850  33.311  19.387  1.00  0.00     0.001 C 
ATOM      8  C   UNL     1      11.488  31.838  19.140  1.00  0.00     0.007 C 
ATOM      9  C   UNL     1      11.790  30.883  20.332  1.00  0.00    -0.029 C 
ATOM     10  C   UNL     1      13.272  31.166  20.828  1.00  0.00    -0.012 C 
ATOM     11  C   UNL     1      13.968  30.166  21.765  1.00  0.00     0.022 C 
ATOM     12  C   UNL     1      14.340  30.177  20.284  1.00  0.00     0.017 C 
ATOM     13  C   UNL     1      11.544  29.437  19.808  1.00  0.00     0.012 C 
ATOM     14  C   UNL     1      10.772  31.100  21.479  1.00  0.00     0.012 C 
ATOM     15  C   UNL     1      12.980  33.260  22.338  1.00  0.00     0.012 C 
ENDROOT
TORSDOF 0
ENDMDL
MODEL 9
REMARK VINA RESULT:    -5.717      2.844      5.888
REMARK INTER + INTRA:          -5.717
REMARK INTER:                  -5.717
REMARK INTRA:                   0.000
REMARK UNBOUND:                 0.000
REMARK SMILES CC1=CC[C@@]2(C)CCCC(C)(C)[C@@]23C[C@@H]13
REMARK SMILES IDX 1 1 2 2 3 3 4 4 5 5 7 6 8 7 9 8 10 9 13 10 15 11 14 12 11 13
REMARK SMILES IDX 12 14 6 15
REMARK H PARENT
REMARK Flexibility Score: inf
ROOT
ATOM      1  C   UNL     1      12.104  27.002  21.165  1.00  0.00     0.039 C 
ATOM      2  C   UNL     1      12.788  28.301  20.847  1.00  0.00    -0.074 C 
ATOM      3  C   UNL     1      14.117  28.303  20.608  1.00  0.00    -0.027 C 
ATOM      4  C   UNL     1      14.865  29.571  20.273  1.00  0.00     0.034 C 
ATOM      5  C   UNL     1      14.261  30.794  21.025  1.00  0.00    -0.022 C 
ATOM      6  C   UNL     1      14.943  32.085  20.512  1.00  0.00     0.008 C 
ATOM      7  C   UNL     1      14.318  33.371  21.081  1.00  0.00     0.001 C 
ATOM      8  C   UNL     1      12.809  33.464  20.803  1.00  0.00     0.007 C 
ATOM      9  C   UNL     1      11.979  32.238  21.283  1.00  0.00    -0.029 C 
ATOM     10  C   UNL     1      12.705  30.921  20.772  1.00  0.00    -0.012 C 
ATOM     11  C   UNL     1      11.960  29.576  20.803  1.00  0.00     0.022 C 
ATOM     12  C   UNL     1      12.109  30.312  19.473  1.00  0.00     0.017 C 
ATOM     13  C   UNL     1      10.537  32.442  20.733  1.00  0.00     0.012 C 
ATOM     14  C   UNL     1      11.850  32.234  22.828  1.00  0.00     0.012 C 
ATOM     15  C   UNL     1      14.581  30.579  22.538  1.00  0.00     0.012 C 
ENDROOT
TORSDOF 0
ENDMDL
