MODEL 1
REMARK VINA RESULT:    -2.933      0.000      0.000
REMARK INTER + INTRA:          -3.287
REMARK INTER:                  -3.276
REMARK INTRA:                  -0.011
REMARK UNBOUND:                -0.011
REMARK SMILES CCCC(=O)[O-]
REMARK SMILES IDX 3 1 4 2 5 3 6 4 2 5 1 6
REMARK H PARENT
REMARK Flexibility Score: inf
ROOT
ATOM      1  C   UNL     1      49.554  15.405  19.390  1.00  0.00     0.052 C 
ENDROOT
BRANCH   1   2
ATOM      2  C   UNL     1      49.573  14.307  18.371  1.00  0.00     0.041 C 
ATOM      3  O   UNL     1      49.890  14.555  17.178  1.00  0.00    -0.550 OA
ATOM      4  O   UNL     1      49.209  13.016  18.732  1.00  0.00    -0.550 OA
ENDBRANCH   1   2
BRANCH   1   5
ATOM      5  C   UNL     1      48.282  15.361  20.246  1.00  0.00     0.003 C 
ATOM      6  C   UNL     1      48.469  16.046  21.601  1.00  0.00     0.004 C 
ENDBRANCH   1   5
TORSDOF 2
ENDMDL
MODEL 2
REMARK VINA RESULT:    -2.932      6.605      7.086
REMARK INTER + INTRA:          -3.285
REMARK INTER:                  -3.247
REMARK INTRA:                  -0.038
REMARK UNBOUND:                -0.011
REMARK SMILES CCCC(=O)[O-]
REMARK SMILES IDX 3 1 4 2 5 3 6 4 2 5 1 6
REMARK H PARENT
REMARK Flexibility Score: inf
ROOT
ATOM      1  C   UNL     1      49.552   8.572  17.887  1.00  0.00     0.052 C 
ENDROOT
BRANCH   1   2
ATOM      2  C   UNL     1      49.930   8.145  16.501  1.00  0.00     0.041 C 
ATOM      3  O   UNL     1      49.535   8.804  15.504  1.00  0.00    -0.550 OA
ATOM      4  O   UNL     1      50.691   6.999  16.311  1.00  0.00    -0.550 OA
ENDBRANCH   1   2
BRANCH   1   5
ATOM      5  C   UNL     1      50.785   8.746  18.783  1.00  0.00     0.003 C 
ATOM      6  C   UNL     1      50.849   7.697  19.893  1.00  0.00     0.004 C 
ENDBRANCH   1   5
TORSDOF 2
ENDMDL
MODEL 3
REMARK VINA RESULT:    -2.867     17.552     18.394
REMARK INTER + INTRA:          -3.213
REMARK INTER:                  -3.175
REMARK INTRA:                  -0.039
REMARK UNBOUND:                -0.011
REMARK SMILES CCCC(=O)[O-]
REMARK SMILES IDX 3 1 4 2 5 3 6 4 2 5 1 6
REMARK H PARENT
REMARK Flexibility Score: inf
ROOT
ATOM      1  C   UNL     1      55.753  -1.418  18.799  1.00  0.00     0.052 C 
ENDROOT
BRANCH   1   2
ATOM      2  C   UNL     1      54.537  -2.212  19.168  1.00  0.00     0.041 C 
ATOM      3  O   UNL     1      54.205  -3.217  18.485  1.00  0.00    -0.550 OA
ATOM      4  O   UNL     1      53.752  -1.822  20.245  1.00  0.00    -0.550 OA
ENDBRANCH   1   2
BRANCH   1   5
ATOM      5  C   UNL     1      56.994  -1.895  19.563  1.00  0.00     0.003 C 
ATOM      6  C   UNL     1      57.736  -3.013  18.828  1.00  0.00     0.004 C 
ENDBRANCH   1   5
TORSDOF 2
ENDMDL
MODEL 4
REMARK VINA RESULT:    -2.839     11.483     12.531
REMARK INTER + INTRA:          -3.182
REMARK INTER:                  -3.124
REMARK INTRA:                  -0.057
REMARK UNBOUND:                -0.011
REMARK SMILES CCCC(=O)[O-]
REMARK SMILES IDX 3 1 4 2 5 3 6 4 2 5 1 6
REMARK H PARENT
REMARK Flexibility Score: inf
ROOT
ATOM      1  C   UNL     1      52.586   2.470  19.066  1.00  0.00     0.052 C 
ENDROOT
BRANCH   1   2
ATOM      2  C   UNL     1      53.441   2.555  20.294  1.00  0.00     0.041 C 
ATOM      3  O   UNL     1      52.951   2.302  21.426  1.00  0.00    -0.550 OA
ATOM      4  O   UNL     1      54.769   2.947  20.191  1.00  0.00    -0.550 OA
ENDBRANCH   1   2
BRANCH   1   5
ATOM      5  C   UNL     1      51.499   3.552  19.056  1.00  0.00     0.003 C 
ATOM      6  C   UNL     1      52.037   4.913  18.615  1.00  0.00     0.004 C 
ENDBRANCH   1   5
TORSDOF 2
ENDMDL
MODEL 5
REMARK VINA RESULT:    -2.825     17.318     18.102
REMARK INTER + INTRA:          -3.166
REMARK INTER:                  -3.137
REMARK INTRA:                  -0.029
REMARK UNBOUND:                -0.011
REMARK SMILES CCCC(=O)[O-]
REMARK SMILES IDX 3 1 4 2 5 3 6 4 2 5 1 6
REMARK H PARENT
REMARK Flexibility Score: inf
ROOT
ATOM      1  C   UNL     1      55.427  -1.042  18.779  1.00  0.00     0.052 C 
ENDROOT
BRANCH   1   2
ATOM      2  C   UNL     1      56.900  -1.276  18.921  1.00  0.00     0.041 C 
ATOM      3  O   UNL     1      57.336  -2.048  19.815  1.00  0.00    -0.550 OA
ATOM      4  O   UNL     1      57.793  -0.616  18.086  1.00  0.00    -0.550 OA
ENDBRANCH   1   2
BRANCH   1   5
ATOM      5  C   UNL     1      54.610  -2.135  19.480  1.00  0.00     0.003 C 
ATOM      6  C   UNL     1      54.337  -3.332  18.568  1.00  0.00     0.004 C 
ENDBRANCH   1   5
TORSDOF 2
ENDMDL
MODEL 6
REMARK VINA RESULT:    -2.800      2.242      2.797
REMARK INTER + INTRA:          -3.139
REMARK INTER:                  -3.080
REMARK INTRA:                  -0.059
REMARK UNBOUND:                -0.011
REMARK SMILES CCCC(=O)[O-]
REMARK SMILES IDX 3 1 4 2 5 3 6 4 2 5 1 6
REMARK H PARENT
REMARK Flexibility Score: inf
ROOT
ATOM      1  C   UNL     1      49.995  12.875  17.610  1.00  0.00     0.052 C 
ENDROOT
BRANCH   1   2
ATOM      2  C   UNL     1      49.749  13.340  16.208  1.00  0.00     0.041 C 
ATOM      3  O   UNL     1      50.693  13.375  15.376  1.00  0.00    -0.550 OA
ATOM      4  O   UNL     1      48.483  13.768  15.829  1.00  0.00    -0.550 OA
ENDBRANCH   1   2
BRANCH   1   5
ATOM      5  C   UNL     1      49.243  13.735  18.634  1.00  0.00     0.003 C 
ATOM      6  C   UNL     1      49.900  15.099  18.842  1.00  0.00     0.004 C 
ENDBRANCH   1   5
TORSDOF 2
ENDMDL
MODEL 7
REMARK VINA RESULT:    -2.800     12.084     12.803
REMARK INTER + INTRA:          -3.138
REMARK INTER:                  -3.091
REMARK INTRA:                  -0.047
REMARK UNBOUND:                -0.011
REMARK SMILES CCCC(=O)[O-]
REMARK SMILES IDX 3 1 4 2 5 3 6 4 2 5 1 6
REMARK H PARENT
REMARK Flexibility Score: inf
ROOT
ATOM      1  C   UNL     1      52.017   3.056  19.063  1.00  0.00     0.052 C 
ENDROOT
BRANCH   1   2
ATOM      2  C   UNL     1      53.223   2.349  19.601  1.00  0.00     0.041 C 
ATOM      3  O   UNL     1      54.113   2.993  20.217  1.00  0.00    -0.550 OA
ATOM      4  O   UNL     1      53.381   0.985  19.392  1.00  0.00    -0.550 OA
ENDBRANCH   1   2
BRANCH   1   5
ATOM      5  C   UNL     1      51.027   3.417  20.178  1.00  0.00     0.003 C 
ATOM      6  C   UNL     1      50.061   2.273  20.491  1.00  0.00     0.004 C 
ENDBRANCH   1   5
TORSDOF 2
ENDMDL
MODEL 8
REMARK VINA RESULT:    -2.784      2.212      3.869
REMARK INTER + INTRA:          -3.120
REMARK INTER:                  -3.050
REMARK INTRA:                  -0.070
REMARK UNBOUND:                -0.011
REMARK SMILES CCCC(=O)[O-]
REMARK SMILES IDX 3 1 4 2 5 3 6 4 2 5 1 6
REMARK H PARENT
REMARK Flexibility Score: inf
ROOT
ATOM      1  C   UNL     1      49.968  12.852  17.476  1.00  0.00     0.052 C 
ENDROOT
BRANCH   1   2
ATOM      2  C   UNL     1      49.466  13.857  18.466  1.00  0.00     0.041 C 
ATOM      3  O   UNL     1      48.453  13.603  19.169  1.00  0.00    -0.550 OA
ATOM      4  O   UNL     1      50.098  15.088  18.590  1.00  0.00    -0.550 OA
ENDBRANCH   1   2
BRANCH   1   5
ATOM      5  C   UNL     1      50.134  13.466  16.079  1.00  0.00     0.003 C 
ATOM      6  C   UNL     1      48.794  13.844  15.447  1.00  0.00     0.004 C 
ENDBRANCH   1   5
TORSDOF 2
ENDMDL
MODEL 9
REMARK VINA RESULT:    -2.772      5.893      6.581
REMARK INTER + INTRA:          -3.107
REMARK INTER:                  -3.046
REMARK INTRA:                  -0.061
REMARK UNBOUND:                -0.011
REMARK SMILES CCCC(=O)[O-]
REMARK SMILES IDX 3 1 4 2 5 3 6 4 2 5 1 6
REMARK H PARENT
REMARK Flexibility Score: inf
ROOT
ATOM      1  C   UNL     1      51.118   8.268  19.188  1.00  0.00     0.052 C 
ENDROOT
BRANCH   1   2
ATOM      2  C   UNL     1      50.174   9.015  18.297  1.00  0.00     0.041 C 
ATOM      3  O   UNL     1      49.557   8.411  17.380  1.00  0.00    -0.550 OA
ATOM      4  O   UNL     1      50.001  10.383  18.457  1.00  0.00    -0.550 OA
ENDBRANCH   1   2
BRANCH   1   5
ATOM      5  C   UNL     1      50.370   7.355  20.168  1.00  0.00     0.003 C 
ATOM      6  C   UNL     1      49.674   8.140  21.280  1.00  0.00     0.004 C 
ENDBRANCH   1   5
TORSDOF 2
ENDMDL
