MODEL 1
REMARK VINA RESULT:    -3.861      0.000      0.000
REMARK INTER + INTRA:          -5.090
REMARK INTER:                  -5.440
REMARK INTRA:                   0.350
REMARK UNBOUND:                 0.350
REMARK SMILES CC1=CCC(=C(C)C)C(=O)CC(C)=CCC1
REMARK SMILES IDX 12 1 14 2 13 3 15 4 16 5 2 6 1 7 3 8 11 10 9 11 10 12 5 13
REMARK SMILES IDX 6 14 7 15 8 16 4 17
REMARK H PARENT
REMARK Flexibility Score: 60.00
ROOT
ATOM      1  C   UNL     1      24.946  30.235 139.044  1.00  0.00    -0.070 C 
ATOM      2  C   UNL     1      25.997  30.499 138.224  1.00  0.00    -0.027 C 
ATOM      3  C   UNL     1      23.553  30.563 138.563  1.00  0.00     0.039 C 
ENDROOT
BRANCH   2   4
ATOM      4  C   UNL     1      27.455  30.326 138.570  1.00  0.00     0.032 C 
BRANCH   4   5
ATOM      5  C   UNL     1      27.890  31.140 139.796  1.00  0.00     0.034 C 
BRANCH   5   6
ATOM      6  C   UNL     1      28.566  30.239 140.811  1.00  0.00    -0.077 C 
ATOM      7  C   UNL     1      29.699  29.361 140.347  1.00  0.00     0.039 C 
ATOM      8  C   UNL     1      28.258  30.240 142.131  1.00  0.00    -0.023 CG0
ATOM      9  G   UNL     1      27.150  31.038 142.778  1.00  0.00     0.000 G0
ENDBRANCH   5   6
ENDBRANCH   4   5
ENDBRANCH   2   4
BRANCH   1  10
ATOM     10  C   UNL     1      25.057  29.494 140.370  1.00  0.00     0.111 C 
BRANCH  10  11
ATOM     11  C   UNL     1      24.916  30.381 141.581  1.00  0.00     0.163 C 
ATOM     12  O   UNL     1      23.973  31.220 141.585  1.00  0.00    -0.294 OA
BRANCH  11  13
ATOM     13  C   UNL     1      25.807  30.261 142.783  1.00  0.00    -0.002 C 
ATOM     14  C   UNL     1      25.417  29.529 143.872  1.00  0.00    -0.069 C 
ATOM     15  C   UNL     1      24.156  28.694 143.860  1.00  0.00     0.039 C 
ATOM     16  C   UNL     1      26.253  29.472 145.133  1.00  0.00     0.039 C 
BRANCH  13  17
ATOM     17  C   UNL     1      27.134  31.019 142.791  1.00  0.00     0.066 CG0
ATOM     18  G   UNL     1      28.243  30.233 142.132  1.00  0.00     0.000 G0
ENDBRANCH  13  17
ENDBRANCH  11  13
ENDBRANCH  10  11
ENDBRANCH   1  10
TORSDOF 0
ENDMDL
MODEL 2
REMARK VINA RESULT:    -3.811     11.998     13.236
REMARK INTER + INTRA:          -5.020
REMARK INTER:                  -5.158
REMARK INTRA:                   0.138
REMARK UNBOUND:                 0.350
REMARK SMILES CC1=CCC(=C(C)C)C(=O)CC(C)=CCC1
REMARK SMILES IDX 12 1 14 2 13 3 15 4 16 5 2 6 1 7 3 8 11 10 9 11 10 12 5 13
REMARK SMILES IDX 6 14 7 15 8 16 4 17
REMARK H PARENT
REMARK Flexibility Score: 60.00
ROOT
ATOM      1  C   UNL     1      28.052  42.836 143.897  1.00  0.00    -0.070 C 
ATOM      2  C   UNL     1      28.664  41.710 143.444  1.00  0.00    -0.027 C 
ATOM      3  C   UNL     1      28.850  43.803 144.736  1.00  0.00     0.039 C 
ENDROOT
BRANCH   2   4
ATOM      4  C   UNL     1      28.003  40.592 142.675  1.00  0.00     0.032 C 
BRANCH   4   5
ATOM      5  C   UNL     1      27.872  40.880 141.174  1.00  0.00     0.034 C 
BRANCH   5   6
ATOM      6  C   UNL     1      26.466  40.564 140.700  1.00  0.00    -0.077 C 
ATOM      7  C   UNL     1      25.961  39.153 140.850  1.00  0.00     0.039 C 
ATOM      8  C   UNL     1      25.613  41.501 140.220  1.00  0.00    -0.023 CG0
ATOM      9  G   UNL     1      25.941  42.957 139.985  1.00  0.00     0.000 G0
ENDBRANCH   5   6
ENDBRANCH   4   5
ENDBRANCH   2   4
BRANCH   1  10
ATOM     10  C   UNL     1      26.647  43.269 143.499  1.00  0.00     0.111 C 
BRANCH  10  11
ATOM     11  C   UNL     1      26.595  44.095 142.239  1.00  0.00     0.163 C 
ATOM     12  O   UNL     1      27.482  44.979 142.082  1.00  0.00    -0.294 OA
BRANCH  11  13
ATOM     13  C   UNL     1      25.577  43.867 141.161  1.00  0.00    -0.002 C 
ATOM     14  C   UNL     1      24.323  44.410 141.256  1.00  0.00    -0.069 C 
ATOM     15  C   UNL     1      23.957  45.377 142.359  1.00  0.00     0.039 C 
ATOM     16  C   UNL     1      23.249  44.115 140.231  1.00  0.00     0.039 C 
BRANCH  13  17
ATOM     17  C   UNL     1      25.945  42.967 139.982  1.00  0.00     0.066 CG0
ATOM     18  G   UNL     1      25.617  41.517 140.249  1.00  0.00     0.000 G0
ENDBRANCH  13  17
ENDBRANCH  11  13
ENDBRANCH  10  11
ENDBRANCH   1  10
TORSDOF 0
ENDMDL
MODEL 3
REMARK VINA RESULT:    -3.793     15.805     17.529
REMARK INTER + INTRA:          -4.994
REMARK INTER:                  -5.126
REMARK INTRA:                   0.132
REMARK UNBOUND:                 0.350
REMARK SMILES CC1=CCC(=C(C)C)C(=O)CC(C)=CCC1
REMARK SMILES IDX 12 1 14 2 13 3 15 4 16 5 2 6 1 7 3 8 11 10 9 11 10 12 5 13
REMARK SMILES IDX 6 14 7 15 8 16 4 17
REMARK H PARENT
REMARK Flexibility Score: 60.00
ROOT
ATOM      1  C   UNL     1      36.654  42.669 146.178  1.00  0.00    -0.070 C 
ATOM      2  C   UNL     1      35.567  42.104 145.590  1.00  0.00    -0.027 C 
ATOM      3  C   UNL     1      36.843  42.496 147.665  1.00  0.00     0.039 C 
ENDROOT
BRANCH   2   4
ATOM      4  C   UNL     1      35.168  42.250 144.142  1.00  0.00     0.032 C 
BRANCH   4   5
ATOM      5  C   UNL     1      35.731  41.142 143.242  1.00  0.00     0.034 C 
BRANCH   5   6
ATOM      6  C   UNL     1      36.355  41.744 141.997  1.00  0.00    -0.077 C 
ATOM      7  C   UNL     1      35.444  42.356 140.965  1.00  0.00     0.039 C 
ATOM      8  C   UNL     1      37.692  41.832 141.801  1.00  0.00    -0.023 CG0
ATOM      9  G   UNL     1      38.757  41.267 142.713  1.00  0.00     0.000 G0
ENDBRANCH   5   6
ENDBRANCH   4   5
ENDBRANCH   2   4
BRANCH   1  10
ATOM     10  C   UNL     1      37.784  43.351 145.417  1.00  0.00     0.111 C 
BRANCH  10  11
ATOM     11  C   UNL     1      38.908  42.424 145.028  1.00  0.00     0.163 C 
ATOM     12  O   UNL     1      39.397  41.688 145.929  1.00  0.00    -0.294 OA
BRANCH  11  13
ATOM     13  C   UNL     1      39.413  42.308 143.620  1.00  0.00    -0.002 C 
ATOM     14  C   UNL     1      40.380  43.157 143.152  1.00  0.00    -0.069 C 
ATOM     15  C   UNL     1      41.084  44.140 144.061  1.00  0.00     0.039 C 
ATOM     16  C   UNL     1      40.836  43.125 141.709  1.00  0.00     0.039 C 
BRANCH  13  17
ATOM     17  C   UNL     1      38.787  41.263 142.699  1.00  0.00     0.066 CG0
ATOM     18  G   UNL     1      37.689  41.845 141.840  1.00  0.00     0.000 G0
ENDBRANCH  13  17
ENDBRANCH  11  13
ENDBRANCH  10  11
ENDBRANCH   1  10
TORSDOF 0
ENDMDL
MODEL 4
REMARK VINA RESULT:    -3.599      1.894      4.045
REMARK INTER + INTRA:          -4.722
REMARK INTER:                  -4.895
REMARK INTRA:                   0.174
REMARK UNBOUND:                 0.350
REMARK SMILES CC1=CCC(=C(C)C)C(=O)CC(C)=CCC1
REMARK SMILES IDX 12 1 14 2 13 3 15 4 16 5 2 6 1 7 3 8 11 10 9 11 10 12 5 13
REMARK SMILES IDX 6 14 7 15 8 16 4 17
REMARK H PARENT
REMARK Flexibility Score: 60.00
ROOT
ATOM      1  C   UNL     1      28.563  29.902 142.991  1.00  0.00    -0.070 C 
ATOM      2  C   UNL     1      29.393  29.544 141.976  1.00  0.00    -0.027 C 
ATOM      3  C   UNL     1      28.824  29.346 144.369  1.00  0.00     0.039 C 
ENDROOT
BRANCH   2   4
ATOM      4  C   UNL     1      29.233  29.925 140.524  1.00  0.00     0.032 C 
BRANCH   4   5
ATOM      5  C   UNL     1      28.176  29.090 139.790  1.00  0.00     0.034 C 
BRANCH   5   6
ATOM      6  C   UNL     1      27.331  29.980 138.899  1.00  0.00    -0.077 C 
ATOM      7  C   UNL     1      27.966  30.565 137.664  1.00  0.00     0.039 C 
ATOM      8  C   UNL     1      26.013  30.212 139.111  1.00  0.00    -0.023 CG0
ATOM      9  G   UNL     1      25.210  29.725 140.295  1.00  0.00     0.000 G0
ENDBRANCH   5   6
ENDBRANCH   4   5
ENDBRANCH   2   4
BRANCH   1  10
ATOM     10  C   UNL     1      27.461  30.948 142.870  1.00  0.00     0.111 C 
BRANCH  10  11
ATOM     11  C   UNL     1      26.084  30.366 142.678  1.00  0.00     0.163 C 
ATOM     12  O   UNL     1      25.632  29.619 143.589  1.00  0.00    -0.294 OA
BRANCH  11  13
ATOM     13  C   UNL     1      25.227  30.688 141.489  1.00  0.00    -0.002 C 
ATOM     14  C   UNL     1      24.437  31.806 141.478  1.00  0.00    -0.069 C 
ATOM     15  C   UNL     1      24.502  32.837 142.582  1.00  0.00     0.039 C 
ATOM     16  C   UNL     1      23.491  32.101 140.334  1.00  0.00     0.039 C 
BRANCH  13  17
ATOM     17  C   UNL     1      25.206  29.712 140.313  1.00  0.00     0.066 CG0
ATOM     18  G   UNL     1      26.011  30.218 139.139  1.00  0.00     0.000 G0
ENDBRANCH  13  17
ENDBRANCH  11  13
ENDBRANCH  10  11
ENDBRANCH   1  10
TORSDOF 0
ENDMDL
MODEL 5
REMARK VINA RESULT:    -3.587     15.494     17.135
REMARK INTER + INTRA:          -4.705
REMARK INTER:                  -4.859
REMARK INTRA:                   0.154
REMARK UNBOUND:                 0.350
REMARK SMILES CC1=CCC(=C(C)C)C(=O)CC(C)=CCC1
REMARK SMILES IDX 12 1 14 2 13 3 15 4 16 5 2 6 1 7 3 8 11 10 9 11 10 12 5 13
REMARK SMILES IDX 6 14 7 15 8 16 4 17
REMARK H PARENT
REMARK Flexibility Score: 60.00
ROOT
ATOM      1  C   UNL     1      36.481  42.620 144.609  1.00  0.00    -0.070 C 
ATOM      2  C   UNL     1      37.462  43.329 145.227  1.00  0.00    -0.027 C 
ATOM      3  C   UNL     1      35.323  42.118 145.436  1.00  0.00     0.039 C 
ENDROOT
BRANCH   2   4
ATOM      4  C   UNL     1      38.734  43.826 144.584  1.00  0.00     0.032 C 
BRANCH   4   5
ATOM      5  C   UNL     1      39.706  42.701 144.209  1.00  0.00     0.034 C 
BRANCH   5   6
ATOM      6  C   UNL     1      40.258  42.927 142.814  1.00  0.00    -0.077 C 
ATOM      7  C   UNL     1      41.065  44.172 142.558  1.00  0.00     0.039 C 
ATOM      8  C   UNL     1      40.131  42.029 141.807  1.00  0.00    -0.023 CG0
ATOM      9  G   UNL     1      39.351  40.737 141.870  1.00  0.00     0.000 G0
ENDBRANCH   5   6
ENDBRANCH   4   5
ENDBRANCH   2   4
BRANCH   1  10
ATOM     10  C   UNL     1      36.390  42.413 143.103  1.00  0.00     0.111 C 
BRANCH  10  11
ATOM     11  C   UNL     1      36.881  41.065 142.639  1.00  0.00     0.163 C 
ATOM     12  O   UNL     1      36.396  40.042 143.196  1.00  0.00    -0.294 OA
BRANCH  11  13
ATOM     13  C   UNL     1      37.865  40.903 141.518  1.00  0.00    -0.002 C 
ATOM     14  C   UNL     1      37.442  40.857 140.217  1.00  0.00    -0.069 C 
ATOM     15  C   UNL     1      36.001  41.117 139.839  1.00  0.00     0.039 C 
ATOM     16  C   UNL     1      38.403  40.597 139.076  1.00  0.00     0.039 C 
BRANCH  13  17
ATOM     17  C   UNL     1      39.344  40.730 141.859  1.00  0.00     0.066 CG0
ATOM     18  G   UNL     1      40.099  42.037 141.800  1.00  0.00     0.000 G0
ENDBRANCH  13  17
ENDBRANCH  11  13
ENDBRANCH  10  11
ENDBRANCH   1  10
TORSDOF 0
ENDMDL
MODEL 6
REMARK VINA RESULT:    -3.583      2.388      5.280
REMARK INTER + INTRA:          -4.699
REMARK INTER:                  -4.871
REMARK INTRA:                   0.172
REMARK UNBOUND:                 0.350
REMARK SMILES CC1=CCC(=C(C)C)C(=O)CC(C)=CCC1
REMARK SMILES IDX 12 1 14 2 13 3 15 4 16 5 2 6 1 7 3 8 11 10 9 11 10 12 5 13
REMARK SMILES IDX 6 14 7 15 8 16 4 17
REMARK H PARENT
REMARK Flexibility Score: 60.00
ROOT
ATOM      1  C   UNL     1      28.307  29.883 140.585  1.00  0.00    -0.070 C 
ATOM      2  C   UNL     1      28.102  30.431 141.812  1.00  0.00    -0.027 C 
ATOM      3  C   UNL     1      29.718  29.545 140.172  1.00  0.00     0.039 C 
ENDROOT
BRANCH   2   4
ATOM      4  C   UNL     1      26.779  30.916 142.355  1.00  0.00     0.032 C 
BRANCH   4   5
ATOM      5  C   UNL     1      26.638  32.443 142.334  1.00  0.00     0.034 C 
BRANCH   5   6
ATOM      6  C   UNL     1      25.658  32.865 141.256  1.00  0.00    -0.077 C 
ATOM      7  C   UNL     1      24.221  33.094 141.645  1.00  0.00     0.039 C 
ATOM      8  C   UNL     1      26.023  33.124 139.977  1.00  0.00    -0.023 CG0
ATOM      9  G   UNL     1      27.407  32.941 139.400  1.00  0.00     0.000 G0
ENDBRANCH   5   6
ENDBRANCH   4   5
ENDBRANCH   2   4
BRANCH   1  10
ATOM     10  C   UNL     1      27.193  29.448 139.641  1.00  0.00     0.111 C 
BRANCH  10  11
ATOM     11  C   UNL     1      26.713  30.538 138.716  1.00  0.00     0.163 C 
ATOM     12  O   UNL     1      25.563  30.413 138.212  1.00  0.00    -0.294 OA
BRANCH  11  13
ATOM     13  C   UNL     1      27.520  31.770 138.428  1.00  0.00    -0.002 C 
ATOM     14  C   UNL     1      28.367  31.815 137.353  1.00  0.00    -0.069 C 
ATOM     15  C   UNL     1      28.419  30.700 136.333  1.00  0.00     0.039 C 
ATOM     16  C   UNL     1      29.263  33.008 137.096  1.00  0.00     0.039 C 
BRANCH  13  17
ATOM     17  C   UNL     1      27.422  32.953 139.389  1.00  0.00     0.066 CG0
ATOM     18  G   UNL     1      26.033  33.108 139.962  1.00  0.00     0.000 G0
ENDBRANCH  13  17
ENDBRANCH  11  13
ENDBRANCH  10  11
ENDBRANCH   1  10
TORSDOF 0
ENDMDL
MODEL 7
REMARK VINA RESULT:    -3.521     14.820     16.351
REMARK INTER + INTRA:          -4.612
REMARK INTER:                  -4.850
REMARK INTRA:                   0.238
REMARK UNBOUND:                 0.350
REMARK SMILES CC1=CCC(=C(C)C)C(=O)CC(C)=CCC1
REMARK SMILES IDX 12 1 14 2 13 3 15 4 16 5 2 6 1 7 3 8 11 10 9 11 10 12 5 13
REMARK SMILES IDX 6 14 7 15 8 16 4 17
REMARK H PARENT
REMARK Flexibility Score: 60.00
ROOT
ATOM      1  C   UNL     1      38.009  41.127 140.150  1.00  0.00    -0.070 C 
ATOM      2  C   UNL     1      36.749  40.908 139.691  1.00  0.00    -0.027 C 
ATOM      3  C   UNL     1      39.134  40.282 139.604  1.00  0.00     0.039 C 
ENDROOT
BRANCH   2   4
ATOM      4  C   UNL     1      35.495  41.587 140.188  1.00  0.00     0.032 C 
BRANCH   4   5
ATOM      5  C   UNL     1      34.898  40.925 141.436  1.00  0.00     0.034 C 
BRANCH   5   6
ATOM      6  C   UNL     1      34.641  41.965 142.510  1.00  0.00    -0.077 C 
ATOM      7  C   UNL     1      33.417  42.833 142.386  1.00  0.00     0.039 C 
ATOM      8  C   UNL     1      35.411  42.100 143.616  1.00  0.00    -0.023 CG0
ATOM      9  G   UNL     1      36.680  41.333 143.908  1.00  0.00     0.000 G0
ENDBRANCH   5   6
ENDBRANCH   4   5
ENDBRANCH   2   4
BRANCH   1  10
ATOM     10  C   UNL     1      38.398  42.269 141.080  1.00  0.00     0.111 C 
BRANCH  10  11
ATOM     11  C   UNL     1      38.780  41.825 142.469  1.00  0.00     0.163 C 
ATOM     12  O   UNL     1      39.872  41.206 142.605  1.00  0.00    -0.294 OA
BRANCH  11  13
ATOM     13  C   UNL     1      37.950  42.141 143.678  1.00  0.00    -0.002 C 
ATOM     14  C   UNL     1      38.344  43.107 144.564  1.00  0.00    -0.069 C 
ATOM     15  C   UNL     1      39.537  43.996 144.294  1.00  0.00     0.039 C 
ATOM     16  C   UNL     1      37.577  43.377 145.841  1.00  0.00     0.039 C 
BRANCH  13  17
ATOM     17  C   UNL     1      36.686  41.322 143.934  1.00  0.00     0.066 CG0
ATOM     18  G   UNL     1      35.430  42.102 143.625  1.00  0.00     0.000 G0
ENDBRANCH  13  17
ENDBRANCH  11  13
ENDBRANCH  10  11
ENDBRANCH   1  10
TORSDOF 0
ENDMDL
MODEL 8
REMARK VINA RESULT:    -3.508     11.625     12.959
REMARK INTER + INTRA:          -4.593
REMARK INTER:                  -4.832
REMARK INTRA:                   0.239
REMARK UNBOUND:                 0.350
REMARK SMILES CC1=CCC(=C(C)C)C(=O)CC(C)=CCC1
REMARK SMILES IDX 12 1 14 2 13 3 15 4 16 5 2 6 1 7 3 8 11 10 9 11 10 12 5 13
REMARK SMILES IDX 6 14 7 15 8 16 4 17
REMARK H PARENT
REMARK Flexibility Score: 60.00
ROOT
ATOM      1  C   UNL     1      28.852  41.491 143.571  1.00  0.00    -0.070 C 
ATOM      2  C   UNL     1      28.608  40.170 143.369  1.00  0.00    -0.027 C 
ATOM      3  C   UNL     1      29.810  41.890 144.667  1.00  0.00     0.039 C 
ENDROOT
BRANCH   2   4
ATOM      4  C   UNL     1      27.616  39.593 142.388  1.00  0.00     0.032 C 
BRANCH   4   5
ATOM      5  C   UNL     1      26.157  39.743 142.839  1.00  0.00     0.034 C 
BRANCH   5   6
ATOM      6  C   UNL     1      25.337  40.404 141.748  1.00  0.00    -0.077 C 
ATOM      7  C   UNL     1      25.069  39.627 140.485  1.00  0.00     0.039 C 
ATOM      8  C   UNL     1      24.765  41.625 141.881  1.00  0.00    -0.023 CG0
ATOM      9  G   UNL     1      24.930  42.553 143.061  1.00  0.00     0.000 G0
ENDBRANCH   5   6
ENDBRANCH   4   5
ENDBRANCH   2   4
BRANCH   1  10
ATOM     10  C   UNL     1      28.337  42.607 142.671  1.00  0.00     0.111 C 
BRANCH  10  11
ATOM     11  C   UNL     1      27.323  43.507 143.331  1.00  0.00     0.163 C 
ATOM     12  O   UNL     1      27.698  44.174 144.335  1.00  0.00    -0.294 OA
BRANCH  11  13
ATOM     13  C   UNL     1      25.926  43.676 142.809  1.00  0.00    -0.002 C 
ATOM     14  C   UNL     1      25.555  44.826 142.165  1.00  0.00    -0.069 C 
ATOM     15  C   UNL     1      26.558  45.904 141.819  1.00  0.00     0.039 C 
ATOM     16  C   UNL     1      24.129  45.061 141.715  1.00  0.00     0.039 C 
BRANCH  13  17
ATOM     17  C   UNL     1      24.909  42.564 143.059  1.00  0.00     0.066 CG0
ATOM     18  G   UNL     1      24.777  41.636 141.875  1.00  0.00     0.000 G0
ENDBRANCH  13  17
ENDBRANCH  11  13
ENDBRANCH  10  11
ENDBRANCH   1  10
TORSDOF 0
ENDMDL
MODEL 9
REMARK VINA RESULT:    -3.408     11.619     12.853
REMARK INTER + INTRA:          -4.453
REMARK INTER:                  -4.918
REMARK INTRA:                   0.465
REMARK UNBOUND:                 0.350
REMARK SMILES CC1=CCC(=C(C)C)C(=O)CC(C)=CCC1
REMARK SMILES IDX 12 1 14 2 13 3 15 4 16 5 2 6 1 7 3 8 11 10 9 11 10 12 5 13
REMARK SMILES IDX 6 14 7 15 8 16 4 17
REMARK H PARENT
REMARK Flexibility Score: 60.00
ROOT
ATOM      1  C   UNL     1      27.319  44.266 142.792  1.00  0.00    -0.070 C 
ATOM      2  C   UNL     1      28.589  43.863 143.060  1.00  0.00    -0.027 C 
ATOM      3  C   UNL     1      27.113  45.432 141.857  1.00  0.00     0.039 C 
ENDROOT
BRANCH   2   4
ATOM      4  C   UNL     1      28.988  42.784 144.037  1.00  0.00     0.032 C 
BRANCH   4   5
ATOM      5  C   UNL     1      28.730  41.365 143.514  1.00  0.00     0.034 C 
BRANCH   5   6
ATOM      6  C   UNL     1      29.090  41.273 142.044  1.00  0.00    -0.077 C 
ATOM      7  C   UNL     1      30.541  41.393 141.654  1.00  0.00     0.039 C 
ATOM      8  C   UNL     1      28.186  41.011 141.069  1.00  0.00    -0.023 CG0
ATOM      9  G   UNL     1      26.694  40.874 141.263  1.00  0.00     0.000 G0
ENDBRANCH   5   6
ENDBRANCH   4   5
ENDBRANCH   2   4
BRANCH   1  10
ATOM     10  C   UNL     1      26.069  43.532 143.260  1.00  0.00     0.111 C 
BRANCH  10  11
ATOM     11  C   UNL     1      25.289  42.880 142.146  1.00  0.00     0.163 C 
ATOM     12  O   UNL     1      24.031  42.976 142.179  1.00  0.00    -0.294 OA
BRANCH  11  13
ATOM     13  C   UNL     1      25.950  42.186 140.992  1.00  0.00    -0.002 C 
ATOM     14  C   UNL     1      25.852  42.691 139.723  1.00  0.00    -0.069 C 
ATOM     15  C   UNL     1      25.213  44.034 139.447  1.00  0.00     0.039 C 
ATOM     16  C   UNL     1      26.426  41.959 138.528  1.00  0.00     0.039 C 
BRANCH  13  17
ATOM     17  C   UNL     1      26.685  40.872 141.249  1.00  0.00     0.066 CG0
ATOM     18  G   UNL     1      28.178  41.009 141.065  1.00  0.00     0.000 G0
ENDBRANCH  13  17
ENDBRANCH  11  13
ENDBRANCH  10  11
ENDBRANCH   1  10
TORSDOF 0
ENDMDL
