MODEL 1
REMARK VINA RESULT:    -5.841      0.000      0.000
REMARK INTER + INTRA:          -6.598
REMARK INTER:                  -6.353
REMARK INTRA:                  -0.245
REMARK UNBOUND:                -0.245
REMARK SMILES O=C([O-])c1ccccc1O
REMARK SMILES IDX 4 1 9 2 5 3 8 4 6 5 7 6 2 7 1 8 3 9 10 10
REMARK H PARENT 10 11
REMARK Flexibility Score: inf
ROOT
ATOM      1  C   UNL     1      35.567  60.548  47.388  1.00  0.00     0.039 A 
ATOM      2  C   UNL     1      36.114  60.659  48.693  1.00  0.00     0.124 A 
ATOM      3  C   UNL     1      35.580  59.295  46.749  1.00  0.00     0.014 A 
ATOM      4  C   UNL     1      36.596  59.515  49.341  1.00  0.00     0.047 A 
ATOM      5  C   UNL     1      36.084  58.167  47.401  1.00  0.00     0.001 A 
ATOM      6  C   UNL     1      36.582  58.275  48.699  1.00  0.00     0.004 A 
ENDROOT
BRANCH   1   7
ATOM      7  C   UNL     1      34.948  61.695  46.688  1.00  0.00     0.075 C 
ATOM      8  O   UNL     1      33.939  61.518  45.956  1.00  0.00    -0.545 OA
ATOM      9  O   UNL     1      35.424  62.987  46.880  1.00  0.00    -0.545 OA
ENDBRANCH   1   7
BRANCH   2  10
ATOM     10  O   UNL     1      36.229  61.881  49.358  1.00  0.00    -0.507 OA
ATOM     11  H   UNL     1      36.138  61.979  50.360  1.00  0.00     0.293 HD
ENDBRANCH   2  10
TORSDOF 2
ENDMDL
MODEL 2
REMARK VINA RESULT:    -5.723      1.075      2.977
REMARK INTER + INTRA:          -6.470
REMARK INTER:                  -6.221
REMARK INTRA:                  -0.249
REMARK UNBOUND:                -0.245
REMARK SMILES O=C([O-])c1ccccc1O
REMARK SMILES IDX 4 1 9 2 5 3 8 4 6 5 7 6 2 7 1 8 3 9 10 10
REMARK H PARENT 10 11
REMARK Flexibility Score: inf
ROOT
ATOM      1  C   UNL     1      36.236  60.390  49.085  1.00  0.00     0.039 A 
ATOM      2  C   UNL     1      35.713  60.721  47.808  1.00  0.00     0.124 A 
ATOM      3  C   UNL     1      36.584  59.053  49.352  1.00  0.00     0.014 A 
ATOM      4  C   UNL     1      35.612  59.730  46.823  1.00  0.00     0.047 A 
ATOM      5  C   UNL     1      36.458  58.072  48.366  1.00  0.00     0.001 A 
ATOM      6  C   UNL     1      35.982  58.413  47.100  1.00  0.00     0.004 A 
ENDROOT
BRANCH   1   7
ATOM      7  C   UNL     1      36.464  61.406  50.136  1.00  0.00     0.075 C 
ATOM      8  O   UNL     1      35.557  62.231  50.424  1.00  0.00    -0.545 OA
ATOM      9  O   UNL     1      37.647  61.422  50.865  1.00  0.00    -0.545 OA
ENDBRANCH   1   7
BRANCH   2  10
ATOM     10  O   UNL     1      35.252  62.000  47.493  1.00  0.00    -0.507 OA
ATOM     11  H   UNL     1      34.399  62.391  47.867  1.00  0.00     0.293 HD
ENDBRANCH   2  10
TORSDOF 2
ENDMDL
MODEL 3
REMARK VINA RESULT:    -5.693      1.050      2.281
REMARK INTER + INTRA:          -6.436
REMARK INTER:                  -6.190
REMARK INTRA:                  -0.247
REMARK UNBOUND:                -0.245
REMARK SMILES O=C([O-])c1ccccc1O
REMARK SMILES IDX 4 1 9 2 5 3 8 4 6 5 7 6 2 7 1 8 3 9 10 10
REMARK H PARENT 10 11
REMARK Flexibility Score: inf
ROOT
ATOM      1  C   UNL     1      35.551  60.795  47.733  1.00  0.00     0.039 A 
ATOM      2  C   UNL     1      35.365  59.740  46.803  1.00  0.00     0.124 A 
ATOM      3  C   UNL     1      36.161  60.513  48.970  1.00  0.00     0.014 A 
ATOM      4  C   UNL     1      35.844  58.459  47.105  1.00  0.00     0.047 A 
ATOM      5  C   UNL     1      36.614  59.225  49.264  1.00  0.00     0.001 A 
ATOM      6  C   UNL     1      36.465  58.202  48.329  1.00  0.00     0.004 A 
ENDROOT
BRANCH   1   7
ATOM      7  C   UNL     1      35.162  62.191  47.436  1.00  0.00     0.075 C 
ATOM      8  O   UNL     1      35.479  62.715  46.336  1.00  0.00    -0.545 OA
ATOM      9  O   UNL     1      34.385  62.919  48.330  1.00  0.00    -0.545 OA
ENDBRANCH   1   7
BRANCH   2  10
ATOM     10  O   UNL     1      34.684  59.912  45.597  1.00  0.00    -0.507 OA
ATOM     11  H   UNL     1      33.683  59.804  45.503  1.00  0.00     0.293 HD
ENDBRANCH   2  10
TORSDOF 2
ENDMDL
MODEL 4
REMARK VINA RESULT:    -5.459     16.215     17.348
REMARK INTER + INTRA:          -6.183
REMARK INTER:                  -6.007
REMARK INTRA:                  -0.175
REMARK UNBOUND:                -0.245
REMARK SMILES O=C([O-])c1ccccc1O
REMARK SMILES IDX 4 1 9 2 5 3 8 4 6 5 7 6 2 7 1 8 3 9 10 10
REMARK H PARENT 10 11
REMARK Flexibility Score: inf
ROOT
ATOM      1  C   UNL     1      38.900  47.989  36.235  1.00  0.00     0.039 A 
ATOM      2  C   UNL     1      39.577  47.300  37.275  1.00  0.00     0.124 A 
ATOM      3  C   UNL     1      38.120  49.114  36.559  1.00  0.00     0.014 A 
ATOM      4  C   UNL     1      39.507  47.785  38.587  1.00  0.00     0.047 A 
ATOM      5  C   UNL     1      38.045  49.574  37.876  1.00  0.00     0.001 A 
ATOM      6  C   UNL     1      38.745  48.916  38.887  1.00  0.00     0.004 A 
ENDROOT
BRANCH   1   7
ATOM      7  C   UNL     1      39.014  47.590  34.815  1.00  0.00     0.075 C 
ATOM      8  O   UNL     1      40.117  47.692  34.217  1.00  0.00    -0.545 OA
ATOM      9  O   UNL     1      37.931  47.034  34.143  1.00  0.00    -0.545 OA
ENDBRANCH   1   7
BRANCH   2  10
ATOM     10  O   UNL     1      40.290  46.120  37.055  1.00  0.00    -0.507 OA
ATOM     11  H   UNL     1      41.115  45.864  37.578  1.00  0.00     0.293 HD
ENDBRANCH   2  10
TORSDOF 2
ENDMDL
MODEL 5
REMARK VINA RESULT:    -5.446     15.176     16.567
REMARK INTER + INTRA:          -6.168
REMARK INTER:                  -5.923
REMARK INTRA:                  -0.245
REMARK UNBOUND:                -0.245
REMARK SMILES O=C([O-])c1ccccc1O
REMARK SMILES IDX 4 1 9 2 5 3 8 4 6 5 7 6 2 7 1 8 3 9 10 10
REMARK H PARENT 10 11
REMARK Flexibility Score: inf
ROOT
ATOM      1  C   UNL     1      39.114  47.703  38.859  1.00  0.00     0.039 A 
ATOM      2  C   UNL     1      39.765  47.168  37.717  1.00  0.00     0.124 A 
ATOM      3  C   UNL     1      38.182  48.743  38.685  1.00  0.00     0.014 A 
ATOM      4  C   UNL     1      39.426  47.637  36.442  1.00  0.00     0.047 A 
ATOM      5  C   UNL     1      37.870  49.214  37.408  1.00  0.00     0.001 A 
ATOM      6  C   UNL     1      38.483  48.655  36.288  1.00  0.00     0.004 A 
ENDROOT
BRANCH   1   7
ATOM      7  C   UNL     1      39.351  47.183  40.223  1.00  0.00     0.075 C 
ATOM      8  O   UNL     1      39.313  45.943  40.442  1.00  0.00    -0.545 OA
ATOM      9  O   UNL     1      39.686  48.041  41.264  1.00  0.00    -0.545 OA
ENDBRANCH   1   7
BRANCH   2  10
ATOM     10  O   UNL     1      40.772  46.205  37.809  1.00  0.00    -0.507 OA
ATOM     11  H   UNL     1      41.133  45.859  38.687  1.00  0.00     0.293 HD
ENDBRANCH   2  10
TORSDOF 2
ENDMDL
MODEL 6
REMARK VINA RESULT:    -5.426     15.795     17.249
REMARK INTER + INTRA:          -6.147
REMARK INTER:                  -5.935
REMARK INTRA:                  -0.211
REMARK UNBOUND:                -0.245
REMARK SMILES O=C([O-])c1ccccc1O
REMARK SMILES IDX 4 1 9 2 5 3 8 4 6 5 7 6 2 7 1 8 3 9 10 10
REMARK H PARENT 10 11
REMARK Flexibility Score: inf
ROOT
ATOM      1  C   UNL     1      38.105  47.220  37.250  1.00  0.00     0.039 A 
ATOM      2  C   UNL     1      38.491  48.324  36.446  1.00  0.00     0.124 A 
ATOM      3  C   UNL     1      37.429  47.462  38.460  1.00  0.00     0.014 A 
ATOM      4  C   UNL     1      38.141  49.621  36.837  1.00  0.00     0.047 A 
ATOM      5  C   UNL     1      37.106  48.765  38.846  1.00  0.00     0.001 A 
ATOM      6  C   UNL     1      37.452  49.842  38.031  1.00  0.00     0.004 A 
ENDROOT
BRANCH   1   7
ATOM      7  C   UNL     1      38.353  45.819  36.845  1.00  0.00     0.075 C 
ATOM      8  O   UNL     1      39.219  45.558  35.967  1.00  0.00    -0.545 OA
ATOM      9  O   UNL     1      37.692  44.769  37.471  1.00  0.00    -0.545 OA
ENDBRANCH   1   7
BRANCH   2  10
ATOM     10  O   UNL     1      39.249  48.177  35.282  1.00  0.00    -0.507 OA
ATOM     11  H   UNL     1      38.844  48.123  34.358  1.00  0.00     0.293 HD
ENDBRANCH   2  10
TORSDOF 2
ENDMDL
MODEL 7
REMARK VINA RESULT:    -5.366     15.832     17.237
REMARK INTER + INTRA:          -6.081
REMARK INTER:                  -5.843
REMARK INTRA:                  -0.238
REMARK UNBOUND:                -0.245
REMARK SMILES O=C([O-])c1ccccc1O
REMARK SMILES IDX 4 1 9 2 5 3 8 4 6 5 7 6 2 7 1 8 3 9 10 10
REMARK H PARENT 10 11
REMARK Flexibility Score: inf
ROOT
ATOM      1  C   UNL     1      37.879  47.066  37.115  1.00  0.00     0.039 A 
ATOM      2  C   UNL     1      37.178  47.242  38.336  1.00  0.00     0.124 A 
ATOM      3  C   UNL     1      38.340  48.203  36.425  1.00  0.00     0.014 A 
ATOM      4  C   UNL     1      37.012  48.530  38.860  1.00  0.00     0.047 A 
ATOM      5  C   UNL     1      38.148  49.483  36.951  1.00  0.00     0.001 A 
ATOM      6  C   UNL     1      37.494  49.645  38.172  1.00  0.00     0.004 A 
ENDROOT
BRANCH   1   7
ATOM      7  C   UNL     1      38.179  45.729  36.557  1.00  0.00     0.075 C 
ATOM      8  O   UNL     1      39.237  45.540  35.902  1.00  0.00    -0.545 OA
ATOM      9  O   UNL     1      37.338  44.650  36.805  1.00  0.00    -0.545 OA
ENDBRANCH   1   7
BRANCH   2  10
ATOM     10  O   UNL     1      36.604  46.177  39.032  1.00  0.00    -0.507 OA
ATOM     11  H   UNL     1      35.608  46.071  39.163  1.00  0.00     0.293 HD
ENDBRANCH   2  10
TORSDOF 2
ENDMDL
MODEL 8
REMARK VINA RESULT:    -5.287      2.266      3.886
REMARK INTER + INTRA:          -5.996
REMARK INTER:                  -5.747
REMARK INTRA:                  -0.249
REMARK UNBOUND:                -0.245
REMARK SMILES O=C([O-])c1ccccc1O
REMARK SMILES IDX 4 1 9 2 5 3 8 4 6 5 7 6 2 7 1 8 3 9 10 10
REMARK H PARENT 10 11
REMARK Flexibility Score: inf
ROOT
ATOM      1  C   UNL     1      36.128  59.972  48.258  1.00  0.00     0.039 A 
ATOM      2  C   UNL     1      35.325  60.587  47.263  1.00  0.00     0.124 A 
ATOM      3  C   UNL     1      36.293  60.620  49.496  1.00  0.00     0.014 A 
ATOM      4  C   UNL     1      34.666  61.789  47.551  1.00  0.00     0.047 A 
ATOM      5  C   UNL     1      35.646  61.829  49.760  1.00  0.00     0.001 A 
ATOM      6  C   UNL     1      34.826  62.408  48.792  1.00  0.00     0.004 A 
ENDROOT
BRANCH   1   7
ATOM      7  C   UNL     1      36.768  58.653  48.057  1.00  0.00     0.075 C 
ATOM      8  O   UNL     1      36.581  57.726  48.889  1.00  0.00    -0.545 OA
ATOM      9  O   UNL     1      37.523  58.395  46.919  1.00  0.00    -0.545 OA
ENDBRANCH   1   7
BRANCH   2  10
ATOM     10  O   UNL     1      35.187  60.062  45.977  1.00  0.00    -0.507 OA
ATOM     11  H   UNL     1      34.737  59.178  45.783  1.00  0.00     0.293 HD
ENDBRANCH   2  10
TORSDOF 2
ENDMDL
MODEL 9
REMARK VINA RESULT:    -5.154     15.767     17.157
REMARK INTER + INTRA:          -5.850
REMARK INTER:                  -5.608
REMARK INTRA:                  -0.243
REMARK UNBOUND:                -0.245
REMARK SMILES O=C([O-])c1ccccc1O
REMARK SMILES IDX 4 1 9 2 5 3 8 4 6 5 7 6 2 7 1 8 3 9 10 10
REMARK H PARENT 10 11
REMARK Flexibility Score: inf
ROOT
ATOM      1  C   UNL     1      37.936  47.721  37.230  1.00  0.00     0.039 A 
ATOM      2  C   UNL     1      37.221  46.497  37.294  1.00  0.00     0.124 A 
ATOM      3  C   UNL     1      38.607  48.056  36.039  1.00  0.00     0.014 A 
ATOM      4  C   UNL     1      37.143  45.681  36.159  1.00  0.00     0.047 A 
ATOM      5  C   UNL     1      38.537  47.220  34.922  1.00  0.00     0.001 A 
ATOM      6  C   UNL     1      37.798  46.039  34.979  1.00  0.00     0.004 A 
ENDROOT
BRANCH   1   7
ATOM      7  C   UNL     1      37.973  48.678  38.358  1.00  0.00     0.075 C 
ATOM      8  O   UNL     1      36.904  49.033  38.920  1.00  0.00    -0.545 OA
ATOM      9  O   UNL     1      39.184  49.142  38.858  1.00  0.00    -0.545 OA
ENDBRANCH   1   7
BRANCH   2  10
ATOM     10  O   UNL     1      36.611  46.043  38.464  1.00  0.00    -0.507 OA
ATOM     11  H   UNL     1      35.628  46.169  38.664  1.00  0.00     0.293 HD
ENDBRANCH   2  10
TORSDOF 2
ENDMDL
