MODEL 1
REMARK VINA RESULT:    -3.797      0.000      0.000
REMARK INTER + INTRA:          -5.927
REMARK INTER:                  -5.572
REMARK INTRA:                  -0.354
REMARK UNBOUND:                -0.354
REMARK SMILES O=C([O-])CCCCCCCC(=O)[O-]
REMARK SMILES IDX 7 1 6 2 5 3 4 4 2 5 1 6 3 7 8 8 9 9 10 10 11 11 12 12 13 13
REMARK H PARENT
REMARK Flexibility Score: inf
ROOT
ATOM      1  C   UNL     1      27.727  10.078  23.068  1.00  0.00     0.000 C 
ENDROOT
BRANCH   1   2
ATOM      2  C   UNL     1      27.155  11.144  22.122  1.00  0.00     0.000 C 
BRANCH   2   3
ATOM      3  C   UNL     1      25.625  11.060  21.983  1.00  0.00     0.006 C 
BRANCH   3   4
ATOM      4  C   UNL     1      25.079  11.609  20.655  1.00  0.00     0.053 C 
BRANCH   4   5
ATOM      5  C   UNL     1      23.606  11.378  20.517  1.00  0.00     0.041 C 
ATOM      6  O   UNL     1      23.072  10.364  21.037  1.00  0.00    -0.550 OA
ATOM      7  O   UNL     1      22.827  12.268  19.786  1.00  0.00    -0.550 OA
ENDBRANCH   4   5
ENDBRANCH   3   4
ENDBRANCH   2   3
ENDBRANCH   1   2
BRANCH   1   8
ATOM      8  C   UNL     1      28.286   8.888  22.281  1.00  0.00     0.000 C 
BRANCH   8   9
ATOM      9  C   UNL     1      28.556   9.271  20.819  1.00  0.00     0.006 C 
BRANCH   9  10
ATOM     10  C   UNL     1      30.054   9.303  20.492  1.00  0.00     0.053 C 
BRANCH  10  11
ATOM     11  C   UNL     1      30.299   9.325  19.014  1.00  0.00     0.041 C 
ATOM     12  O   UNL     1      31.476   9.306  18.566  1.00  0.00    -0.550 OA
ATOM     13  O   UNL     1      29.227   9.332  18.132  1.00  0.00    -0.550 OA
ENDBRANCH  10  11
ENDBRANCH   9  10
ENDBRANCH   8   9
ENDBRANCH   1   8
TORSDOF 8
ENDMDL
MODEL 2
REMARK VINA RESULT:    -3.682      1.052      5.880
REMARK INTER + INTRA:          -5.758
REMARK INTER:                  -5.430
REMARK INTRA:                  -0.328
REMARK UNBOUND:                -0.354
REMARK SMILES O=C([O-])CCCCCCCC(=O)[O-]
REMARK SMILES IDX 7 1 6 2 5 3 4 4 2 5 1 6 3 7 8 8 9 9 10 10 11 11 12 12 13 13
REMARK H PARENT
REMARK Flexibility Score: inf
ROOT
ATOM      1  C   UNL     1      26.914  10.704  21.851  1.00  0.00     0.000 C 
ENDROOT
BRANCH   1   2
ATOM      2  C   UNL     1      28.100  10.303  22.740  1.00  0.00     0.000 C 
BRANCH   2   3
ATOM      3  C   UNL     1      29.317   9.819  21.930  1.00  0.00     0.006 C 
BRANCH   3   4
ATOM      4  C   UNL     1      28.967   8.893  20.755  1.00  0.00     0.053 C 
BRANCH   4   5
ATOM      5  C   UNL     1      29.666   9.299  19.494  1.00  0.00     0.041 C 
ATOM      6  O   UNL     1      30.886   9.607  19.518  1.00  0.00    -0.550 OA
ATOM      7  O   UNL     1      28.961   9.368  18.299  1.00  0.00    -0.550 OA
ENDBRANCH   4   5
ENDBRANCH   3   4
ENDBRANCH   2   3
ENDBRANCH   1   2
BRANCH   1   8
ATOM      8  C   UNL     1      25.703  11.109  22.699  1.00  0.00     0.000 C 
BRANCH   8   9
ATOM      9  C   UNL     1      24.433  11.199  21.841  1.00  0.00     0.006 C 
BRANCH   9  10
ATOM     10  C   UNL     1      24.738  11.591  20.390  1.00  0.00     0.053 C 
BRANCH  10  11
ATOM     11  C   UNL     1      23.788  12.634  19.886  1.00  0.00     0.041 C 
ATOM     12  O   UNL     1      24.222  13.640  19.266  1.00  0.00    -0.550 OA
ATOM     13  O   UNL     1      22.421  12.478  20.072  1.00  0.00    -0.550 OA
ENDBRANCH  10  11
ENDBRANCH   9  10
ENDBRANCH   8   9
ENDBRANCH   1   8
TORSDOF 8
ENDMDL
MODEL 3
REMARK VINA RESULT:    -3.557      2.814      4.194
REMARK INTER + INTRA:          -5.575
REMARK INTER:                  -4.805
REMARK INTRA:                  -0.770
REMARK UNBOUND:                -0.354
REMARK SMILES O=C([O-])CCCCCCCC(=O)[O-]
REMARK SMILES IDX 7 1 6 2 5 3 4 4 2 5 1 6 3 7 8 8 9 9 10 10 11 11 12 12 13 13
REMARK H PARENT
REMARK Flexibility Score: inf
ROOT
ATOM      1  C   UNL     1      25.100  11.631  20.427  1.00  0.00     0.000 C 
ENDROOT
BRANCH   1   2
ATOM      2  C   UNL     1      23.565  11.563  20.445  1.00  0.00     0.000 C 
BRANCH   2   3
ATOM      3  C   UNL     1      23.030  10.346  21.222  1.00  0.00     0.006 C 
BRANCH   3   4
ATOM      4  C   UNL     1      22.154  10.704  22.433  1.00  0.00     0.053 C 
BRANCH   4   5
ATOM      5  C   UNL     1      22.954  11.314  23.542  1.00  0.00     0.041 C 
ATOM      6  O   UNL     1      22.868  12.547  23.780  1.00  0.00    -0.550 OA
ATOM      7  O   UNL     1      23.818  10.526  24.292  1.00  0.00    -0.550 OA
ENDBRANCH   4   5
ENDBRANCH   3   4
ENDBRANCH   2   3
ENDBRANCH   1   2
BRANCH   1   8
ATOM      8  C   UNL     1      25.614  12.707  21.390  1.00  0.00     0.000 C 
BRANCH   8   9
ATOM      9  C   UNL     1      26.465  12.087  22.507  1.00  0.00     0.006 C 
BRANCH   9  10
ATOM     10  C   UNL     1      26.867  10.640  22.197  1.00  0.00     0.053 C 
BRANCH  10  11
ATOM     11  C   UNL     1      28.178  10.281  22.827  1.00  0.00     0.041 C 
ATOM     12  O   UNL     1      28.210   9.765  23.975  1.00  0.00    -0.550 OA
ATOM     13  O   UNL     1      29.363  10.485  22.132  1.00  0.00    -0.550 OA
ENDBRANCH  10  11
ENDBRANCH   9  10
ENDBRANCH   8   9
ENDBRANCH   1   8
TORSDOF 8
ENDMDL
MODEL 4
REMARK VINA RESULT:    -3.543      2.673      5.775
REMARK INTER + INTRA:          -5.554
REMARK INTER:                  -4.905
REMARK INTRA:                  -0.649
REMARK UNBOUND:                -0.354
REMARK SMILES O=C([O-])CCCCCCCC(=O)[O-]
REMARK SMILES IDX 7 1 6 2 5 3 4 4 2 5 1 6 3 7 8 8 9 9 10 10 11 11 12 12 13 13
REMARK H PARENT
REMARK Flexibility Score: inf
ROOT
ATOM      1  C   UNL     1      23.735  11.681  22.936  1.00  0.00     0.000 C 
ENDROOT
BRANCH   1   2
ATOM      2  C   UNL     1      25.023  11.155  23.587  1.00  0.00     0.000 C 
BRANCH   2   3
ATOM      3  C   UNL     1      26.295  11.613  22.850  1.00  0.00     0.006 C 
BRANCH   3   4
ATOM      4  C   UNL     1      26.949  10.526  21.982  1.00  0.00     0.053 C 
BRANCH   4   5
ATOM      5  C   UNL     1      28.168   9.950  22.632  1.00  0.00     0.041 C 
ATOM      6  O   UNL     1      29.316  10.300  22.250  1.00  0.00    -0.550 OA
ATOM      7  O   UNL     1      28.038   9.000  23.637  1.00  0.00    -0.550 OA
ENDBRANCH   4   5
ENDBRANCH   3   4
ENDBRANCH   2   3
ENDBRANCH   1   2
BRANCH   1   8
ATOM      8  C   UNL     1      23.091  10.611  22.048  1.00  0.00     0.000 C 
BRANCH   8   9
ATOM      9  C   UNL     1      23.299  10.929  20.561  1.00  0.00     0.006 C 
BRANCH   9  10
ATOM     10  C   UNL     1      22.924  12.376  20.217  1.00  0.00     0.053 C 
BRANCH  10  11
ATOM     11  C   UNL     1      24.071  13.116  19.601  1.00  0.00     0.041 C 
ATOM     12  O   UNL     1      25.243  12.666  19.699  1.00  0.00    -0.550 OA
ATOM     13  O   UNL     1      23.842  14.286  18.888  1.00  0.00    -0.550 OA
ENDBRANCH  10  11
ENDBRANCH   9  10
ENDBRANCH   8   9
ENDBRANCH   1   8
TORSDOF 8
ENDMDL
MODEL 5
REMARK VINA RESULT:    -3.497      3.142      6.382
REMARK INTER + INTRA:          -5.487
REMARK INTER:                  -4.565
REMARK INTRA:                  -0.922
REMARK UNBOUND:                -0.354
REMARK SMILES O=C([O-])CCCCCCCC(=O)[O-]
REMARK SMILES IDX 7 1 6 2 5 3 4 4 2 5 1 6 3 7 8 8 9 9 10 10 11 11 12 12 13 13
REMARK H PARENT
REMARK Flexibility Score: inf
ROOT
ATOM      1  C   UNL     1      23.023  11.637  20.222  1.00  0.00     0.000 C 
ENDROOT
BRANCH   1   2
ATOM      2  C   UNL     1      24.329  12.426  20.404  1.00  0.00     0.000 C 
BRANCH   2   3
ATOM      3  C   UNL     1      25.539  11.520  20.695  1.00  0.00     0.006 C 
BRANCH   3   4
ATOM      4  C   UNL     1      26.345  11.920  21.941  1.00  0.00     0.053 C 
BRANCH   4   5
ATOM      5  C   UNL     1      27.008  10.740  22.581  1.00  0.00     0.041 C 
ATOM      6  O   UNL     1      27.741   9.977  21.898  1.00  0.00    -0.550 OA
ATOM      7  O   UNL     1      26.792  10.464  23.926  1.00  0.00    -0.550 OA
ENDBRANCH   4   5
ENDBRANCH   3   4
ENDBRANCH   2   3
ENDBRANCH   1   2
BRANCH   1   8
ATOM      8  C   UNL     1      23.008  10.388  21.111  1.00  0.00     0.000 C 
BRANCH   8   9
ATOM      9  C   UNL     1      22.253  10.653  22.422  1.00  0.00     0.006 C 
BRANCH   9  10
ATOM     10  C   UNL     1      23.198  10.756  23.626  1.00  0.00     0.053 C 
BRANCH  10  11
ATOM     11  C   UNL     1      23.407  12.178  24.047  1.00  0.00     0.041 C 
ATOM     12  O   UNL     1      24.278  12.463  24.910  1.00  0.00    -0.550 OA
ATOM     13  O   UNL     1      22.663  13.194  23.460  1.00  0.00    -0.550 OA
ENDBRANCH  10  11
ENDBRANCH   9  10
ENDBRANCH   8   9
ENDBRANCH   1   8
TORSDOF 8
ENDMDL
MODEL 6
REMARK VINA RESULT:    -3.475      2.375      6.422
REMARK INTER + INTRA:          -5.455
REMARK INTER:                  -4.757
REMARK INTRA:                  -0.697
REMARK UNBOUND:                -0.354
REMARK SMILES O=C([O-])CCCCCCCC(=O)[O-]
REMARK SMILES IDX 7 1 6 2 5 3 4 4 2 5 1 6 3 7 8 8 9 9 10 10 11 11 12 12 13 13
REMARK H PARENT
REMARK Flexibility Score: inf
ROOT
ATOM      1  C   UNL     1      25.509  11.918  20.551  1.00  0.00     0.000 C 
ENDROOT
BRANCH   1   2
ATOM      2  C   UNL     1      25.984  12.631  21.826  1.00  0.00     0.000 C 
BRANCH   2   3
ATOM      3  C   UNL     1      27.042  11.827  22.602  1.00  0.00     0.006 C 
BRANCH   3   4
ATOM      4  C   UNL     1      27.092  10.333  22.241  1.00  0.00     0.053 C 
BRANCH   4   5
ATOM      5  C   UNL     1      28.498   9.835  22.108  1.00  0.00     0.041 C 
ATOM      6  O   UNL     1      29.300   9.938  23.073  1.00  0.00    -0.550 OA
ATOM      7  O   UNL     1      28.931   9.287  20.907  1.00  0.00    -0.550 OA
ENDBRANCH   4   5
ENDBRANCH   3   4
ENDBRANCH   2   3
ENDBRANCH   1   2
BRANCH   1   8
ATOM      8  C   UNL     1      23.983  11.984  20.421  1.00  0.00     0.000 C 
BRANCH   8   9
ATOM      9  C   UNL     1      23.329  10.696  20.942  1.00  0.00     0.006 C 
BRANCH   9  10
ATOM     10  C   UNL     1      22.270  10.975  22.015  1.00  0.00     0.053 C 
BRANCH  10  11
ATOM     11  C   UNL     1      22.885  11.481  23.284  1.00  0.00     0.041 C 
ATOM     12  O   UNL     1      22.499  12.569  23.787  1.00  0.00    -0.550 OA
ATOM     13  O   UNL     1      23.863  10.735  23.928  1.00  0.00    -0.550 OA
ENDBRANCH  10  11
ENDBRANCH   9  10
ENDBRANCH   8   9
ENDBRANCH   1   8
TORSDOF 8
ENDMDL
MODEL 7
REMARK VINA RESULT:    -3.450      2.460      3.649
REMARK INTER + INTRA:          -5.418
REMARK INTER:                  -4.587
REMARK INTRA:                  -0.832
REMARK UNBOUND:                -0.354
REMARK SMILES O=C([O-])CCCCCCCC(=O)[O-]
REMARK SMILES IDX 7 1 6 2 5 3 4 4 2 5 1 6 3 7 8 8 9 9 10 10 11 11 12 12 13 13
REMARK H PARENT
REMARK Flexibility Score: inf
ROOT
ATOM      1  C   UNL     1      24.604  11.111  23.531  1.00  0.00     0.000 C 
ENDROOT
BRANCH   1   2
ATOM      2  C   UNL     1      23.158  11.449  23.139  1.00  0.00     0.000 C 
BRANCH   2   3
ATOM      3  C   UNL     1      22.596  10.508  22.058  1.00  0.00     0.006 C 
BRANCH   3   4
ATOM      4  C   UNL     1      23.264  10.655  20.682  1.00  0.00     0.053 C 
BRANCH   4   5
ATOM      5  C   UNL     1      23.179  12.058  20.166  1.00  0.00     0.041 C 
ATOM      6  O   UNL     1      24.227  12.684  19.855  1.00  0.00    -0.550 OA
ATOM      7  O   UNL     1      21.945  12.687  20.058  1.00  0.00    -0.550 OA
ENDBRANCH   4   5
ENDBRANCH   3   4
ENDBRANCH   2   3
ENDBRANCH   1   2
BRANCH   1   8
ATOM      8  C   UNL     1      25.485  12.366  23.515  1.00  0.00     0.000 C 
BRANCH   8   9
ATOM      9  C   UNL     1      26.603  12.242  22.470  1.00  0.00     0.006 C 
BRANCH   9  10
ATOM     10  C   UNL     1      26.802  10.796  22.000  1.00  0.00     0.053 C 
BRANCH  10  11
ATOM     11  C   UNL     1      28.071  10.207  22.535  1.00  0.00     0.041 C 
ATOM     12  O   UNL     1      29.032   9.958  21.760  1.00  0.00    -0.550 OA
ATOM     13  O   UNL     1      28.205   9.965  23.896  1.00  0.00    -0.550 OA
ENDBRANCH  10  11
ENDBRANCH   9  10
ENDBRANCH   8   9
ENDBRANCH   1   8
TORSDOF 8
ENDMDL
MODEL 8
REMARK VINA RESULT:    -3.440      4.411      5.463
REMARK INTER + INTRA:          -5.404
REMARK INTER:                  -4.501
REMARK INTRA:                  -0.902
REMARK UNBOUND:                -0.354
REMARK SMILES O=C([O-])CCCCCCCC(=O)[O-]
REMARK SMILES IDX 7 1 6 2 5 3 4 4 2 5 1 6 3 7 8 8 9 9 10 10 11 11 12 12 13 13
REMARK H PARENT
REMARK Flexibility Score: inf
ROOT
ATOM      1  C   UNL     1      24.808  12.310  20.692  1.00  0.00     0.000 C 
ENDROOT
BRANCH   1   2
ATOM      2  C   UNL     1      23.454  11.669  20.351  1.00  0.00     0.000 C 
BRANCH   2   3
ATOM      3  C   UNL     1      23.170  10.400  21.175  1.00  0.00     0.006 C 
BRANCH   3   4
ATOM      4  C   UNL     1      22.193  10.610  22.342  1.00  0.00     0.053 C 
BRANCH   4   5
ATOM      5  C   UNL     1      22.849  11.283  23.508  1.00  0.00     0.041 C 
ATOM      6  O   UNL     1      22.594  12.488  23.769  1.00  0.00    -0.550 OA
ATOM      7  O   UNL     1      23.767  10.589  24.286  1.00  0.00    -0.550 OA
ENDBRANCH   4   5
ENDBRANCH   3   4
ENDBRANCH   2   3
ENDBRANCH   1   2
BRANCH   1   8
ATOM      8  C   UNL     1      25.806  11.256  21.187  1.00  0.00     0.000 C 
BRANCH   8   9
ATOM      9  C   UNL     1      26.560  11.751  22.429  1.00  0.00     0.006 C 
BRANCH   9  10
ATOM     10  C   UNL     1      26.266  13.224  22.740  1.00  0.00     0.053 C 
BRANCH  10  11
ATOM     11  C   UNL     1      25.955  13.434  24.190  1.00  0.00     0.041 C 
ATOM     12  O   UNL     1      26.452  12.674  25.062  1.00  0.00    -0.550 OA
ATOM     13  O   UNL     1      25.142  14.490  24.581  1.00  0.00    -0.550 OA
ENDBRANCH  10  11
ENDBRANCH   9  10
ENDBRANCH   8   9
ENDBRANCH   1   8
TORSDOF 8
ENDMDL
MODEL 9
REMARK VINA RESULT:    -3.394      4.190      5.616
REMARK INTER + INTRA:          -5.336
REMARK INTER:                  -4.417
REMARK INTRA:                  -0.919
REMARK UNBOUND:                -0.354
REMARK SMILES O=C([O-])CCCCCCCC(=O)[O-]
REMARK SMILES IDX 7 1 6 2 5 3 4 4 2 5 1 6 3 7 8 8 9 9 10 10 11 11 12 12 13 13
REMARK H PARENT
REMARK Flexibility Score: inf
ROOT
ATOM      1  C   UNL     1      22.118  10.982  22.570  1.00  0.00     0.000 C 
ENDROOT
BRANCH   1   2
ATOM      2  C   UNL     1      22.485  10.513  23.986  1.00  0.00     0.000 C 
BRANCH   2   3
ATOM      3  C   UNL     1      23.950  10.812  24.354  1.00  0.00     0.006 C 
BRANCH   3   4
ATOM      4  C   UNL     1      24.452  12.186  23.882  1.00  0.00     0.053 C 
BRANCH   4   5
ATOM      5  C   UNL     1      25.723  12.078  23.097  1.00  0.00     0.041 C 
ATOM      6  O   UNL     1      26.391  13.111  22.828  1.00  0.00    -0.550 OA
ATOM      7  O   UNL     1      26.153  10.840  22.635  1.00  0.00    -0.550 OA
ENDBRANCH   4   5
ENDBRANCH   3   4
ENDBRANCH   2   3
ENDBRANCH   1   2
BRANCH   1   8
ATOM      8  C   UNL     1      22.655  10.010  21.513  1.00  0.00     0.000 C 
BRANCH   8   9
ATOM      9  C   UNL     1      23.444  10.756  20.428  1.00  0.00     0.006 C 
BRANCH   9  10
ATOM     10  C   UNL     1      23.042  12.232  20.327  1.00  0.00     0.053 C 
BRANCH  10  11
ATOM     11  C   UNL     1      24.145  13.071  19.756  1.00  0.00     0.041 C 
ATOM     12  O   UNL     1      25.312  12.608  19.666  1.00  0.00    -0.550 OA
ATOM     13  O   UNL     1      23.875  14.352  19.292  1.00  0.00    -0.550 OA
ENDBRANCH  10  11
ENDBRANCH   9  10
ENDBRANCH   8   9
ENDBRANCH   1   8
TORSDOF 8
ENDMDL
