MODEL 1
REMARK VINA RESULT:    -3.651      0.000      0.000
REMARK INTER + INTRA:          -4.685
REMARK INTER:                  -4.611
REMARK INTRA:                  -0.074
REMARK UNBOUND:                -0.074
REMARK SMILES CCCCCCO
REMARK SMILES IDX 4 1 3 2 2 3 1 4 5 5 6 6 7 7
REMARK H PARENT 7 8
REMARK Flexibility Score: inf
ROOT
ATOM      1  C   UNL     1     116.243 116.977 113.414  1.00  0.00     0.002 C 
ENDROOT
BRANCH   1   2
ATOM      2  C   UNL     1     116.726 116.271 114.697  1.00  0.00    -0.000 C 
BRANCH   2   3
ATOM      3  C   UNL     1     116.351 116.982 116.009  1.00  0.00    -0.003 C 
ATOM      4  C   UNL     1     117.531 117.120 116.970  1.00  0.00     0.004 C 
ENDBRANCH   2   3
ENDBRANCH   1   2
BRANCH   1   5
ATOM      5  C   UNL     1     117.288 117.065 112.285  1.00  0.00     0.028 C 
BRANCH   5   6
ATOM      6  C   UNL     1     117.743 115.701 111.748  1.00  0.00     0.156 C 
BRANCH   6   7
ATOM      7  O   UNL     1     116.640 114.907 111.403  1.00  0.00    -0.396 OA
ATOM      8  H   UNL     1     116.381 115.160 110.478  1.00  0.00     0.210 HD
ENDBRANCH   6   7
ENDBRANCH   5   6
ENDBRANCH   1   5
TORSDOF 5
ENDMDL
MODEL 2
REMARK VINA RESULT:    -3.616      1.751      2.031
REMARK INTER + INTRA:          -4.641
REMARK INTER:                  -4.559
REMARK INTRA:                  -0.082
REMARK UNBOUND:                -0.074
REMARK SMILES CCCCCCO
REMARK SMILES IDX 4 1 3 2 2 3 1 4 5 5 6 6 7 7
REMARK H PARENT 7 8
REMARK Flexibility Score: inf
ROOT
ATOM      1  C   UNL     1     117.003 116.251 113.510  1.00  0.00     0.002 C 
ENDROOT
BRANCH   1   2
ATOM      2  C   UNL     1     116.601 116.971 114.813  1.00  0.00    -0.000 C 
BRANCH   2   3
ATOM      3  C   UNL     1     116.847 116.167 116.101  1.00  0.00    -0.003 C 
ATOM      4  C   UNL     1     115.601 116.054 116.979  1.00  0.00     0.004 C 
ENDBRANCH   2   3
ENDBRANCH   1   2
BRANCH   1   5
ATOM      5  C   UNL     1     115.877 116.110 112.467  1.00  0.00     0.028 C 
BRANCH   5   6
ATOM      6  C   UNL     1     115.510 117.423 111.764  1.00  0.00     0.156 C 
BRANCH   6   7
ATOM      7  O   UNL     1     116.662 118.159 111.447  1.00  0.00    -0.396 OA
ATOM      8  H   UNL     1     116.804 118.062 110.469  1.00  0.00     0.210 HD
ENDBRANCH   6   7
ENDBRANCH   5   6
ENDBRANCH   1   5
TORSDOF 5
ENDMDL
MODEL 3
REMARK VINA RESULT:    -3.441      2.601      4.426
REMARK INTER + INTRA:          -4.420
REMARK INTER:                  -4.362
REMARK INTRA:                  -0.059
REMARK UNBOUND:                -0.074
REMARK SMILES CCCCCCO
REMARK SMILES IDX 4 1 3 2 2 3 1 4 5 5 6 6 7 7
REMARK H PARENT 7 8
REMARK Flexibility Score: inf
ROOT
ATOM      1  C   UNL     1     116.883 116.944 114.538  1.00  0.00     0.002 C 
ENDROOT
BRANCH   1   2
ATOM      2  C   UNL     1     116.250 116.212 113.338  1.00  0.00    -0.000 C 
BRANCH   2   3
ATOM      3  C   UNL     1     117.040 116.319 112.022  1.00  0.00    -0.003 C 
ATOM      4  C   UNL     1     117.591 117.722 111.771  1.00  0.00     0.004 C 
ENDBRANCH   2   3
ENDBRANCH   1   2
BRANCH   1   5
ATOM      5  C   UNL     1     116.719 116.235 115.897  1.00  0.00     0.028 C 
BRANCH   5   6
ATOM      6  C   UNL     1     116.811 117.175 117.106  1.00  0.00     0.156 C 
BRANCH   6   7
ATOM      7  O   UNL     1     115.768 118.112 117.090  1.00  0.00    -0.396 OA
ATOM      8  H   UNL     1     115.511 118.273 118.036  1.00  0.00     0.210 HD
ENDBRANCH   6   7
ENDBRANCH   5   6
ENDBRANCH   1   5
TORSDOF 5
ENDMDL
MODEL 4
REMARK VINA RESULT:    -3.440      2.554      4.415
REMARK INTER + INTRA:          -4.419
REMARK INTER:                  -4.366
REMARK INTRA:                  -0.053
REMARK UNBOUND:                -0.074
REMARK SMILES CCCCCCO
REMARK SMILES IDX 4 1 3 2 2 3 1 4 5 5 6 6 7 7
REMARK H PARENT 7 8
REMARK Flexibility Score: inf
ROOT
ATOM      1  C   UNL     1     116.843 116.351 114.435  1.00  0.00     0.002 C 
ENDROOT
BRANCH   1   2
ATOM      2  C   UNL     1     116.148 116.951 113.196  1.00  0.00    -0.000 C 
BRANCH   2   3
ATOM      3  C   UNL     1     116.277 116.114 111.911  1.00  0.00    -0.003 C 
ATOM      4  C   UNL     1     117.658 115.481 111.749  1.00  0.00     0.004 C 
ENDBRANCH   2   3
ENDBRANCH   1   2
BRANCH   1   5
ATOM      5  C   UNL     1     116.423 116.969 115.783  1.00  0.00     0.028 C 
BRANCH   5   6
ATOM      6  C   UNL     1     117.314 116.557 116.962  1.00  0.00     0.156 C 
BRANCH   6   7
ATOM      7  O   UNL     1     118.324 117.506 117.180  1.00  0.00    -0.396 OA
ATOM      8  H   UNL     1     117.985 118.372 116.832  1.00  0.00     0.210 HD
ENDBRANCH   6   7
ENDBRANCH   5   6
ENDBRANCH   1   5
TORSDOF 5
ENDMDL
MODEL 5
REMARK VINA RESULT:    -3.423      2.669      4.502
REMARK INTER + INTRA:          -4.397
REMARK INTER:                  -4.348
REMARK INTRA:                  -0.049
REMARK UNBOUND:                -0.074
REMARK SMILES CCCCCCO
REMARK SMILES IDX 4 1 3 2 2 3 1 4 5 5 6 6 7 7
REMARK H PARENT 7 8
REMARK Flexibility Score: inf
ROOT
ATOM      1  C   UNL     1     116.673 116.977 115.083  1.00  0.00     0.002 C 
ENDROOT
BRANCH   1   2
ATOM      2  C   UNL     1     116.474 116.216 113.756  1.00  0.00    -0.000 C 
BRANCH   2   3
ATOM      3  C   UNL     1     116.754 117.041 112.488  1.00  0.00    -0.003 C 
ATOM      4  C   UNL     1     115.478 117.514 111.793  1.00  0.00     0.004 C 
ENDBRANCH   2   3
ENDBRANCH   1   2
BRANCH   1   5
ATOM      5  C   UNL     1     116.318 116.179 116.353  1.00  0.00     0.028 C 
BRANCH   5   6
ATOM      6  C   UNL     1     117.377 116.265 117.460  1.00  0.00     0.156 C 
BRANCH   6   7
ATOM      7  O   UNL     1     118.218 117.369 117.261  1.00  0.00    -0.396 OA
ATOM      8  H   UNL     1     118.898 117.347 117.985  1.00  0.00     0.210 HD
ENDBRANCH   6   7
ENDBRANCH   5   6
ENDBRANCH   1   5
TORSDOF 5
ENDMDL
MODEL 6
REMARK VINA RESULT:    -3.316      3.504      5.214
REMARK INTER + INTRA:          -4.263
REMARK INTER:                  -4.217
REMARK INTRA:                  -0.046
REMARK UNBOUND:                -0.074
REMARK SMILES CCCCCCO
REMARK SMILES IDX 4 1 3 2 2 3 1 4 5 5 6 6 7 7
REMARK H PARENT 7 8
REMARK Flexibility Score: inf
ROOT
ATOM      1  C   UNL     1     116.990 117.123 116.917  1.00  0.00     0.002 C 
ENDROOT
BRANCH   1   2
ATOM      2  C   UNL     1     116.810 116.241 115.665  1.00  0.00    -0.000 C 
BRANCH   2   3
ATOM      3  C   UNL     1     116.598 117.013 114.352  1.00  0.00    -0.003 C 
ATOM      4  C   UNL     1     116.827 116.152 113.111  1.00  0.00     0.004 C 
ENDBRANCH   2   3
ENDBRANCH   1   2
BRANCH   1   5
ATOM      5  C   UNL     1     115.743 117.926 117.335  1.00  0.00     0.028 C 
BRANCH   5   6
ATOM      6  C   UNL     1     116.051 119.139 118.223  1.00  0.00     0.156 C 
BRANCH   6   7
ATOM      7  O   UNL     1     115.249 120.233 117.868  1.00  0.00    -0.396 OA
ATOM      8  H   UNL     1     115.243 120.850 118.647  1.00  0.00     0.210 HD
ENDBRANCH   6   7
ENDBRANCH   5   6
ENDBRANCH   1   5
TORSDOF 5
ENDMDL
MODEL 7
REMARK VINA RESULT:    -3.273      2.138      2.403
REMARK INTER + INTRA:          -4.208
REMARK INTER:                  -4.166
REMARK INTRA:                  -0.042
REMARK UNBOUND:                -0.074
REMARK SMILES CCCCCCO
REMARK SMILES IDX 4 1 3 2 2 3 1 4 5 5 6 6 7 7
REMARK H PARENT 7 8
REMARK Flexibility Score: inf
ROOT
ATOM      1  C   UNL     1     116.336 116.382 111.918  1.00  0.00     0.002 C 
ENDROOT
BRANCH   1   2
ATOM      2  C   UNL     1     116.195 115.916 113.381  1.00  0.00    -0.000 C 
BRANCH   2   3
ATOM      3  C   UNL     1     116.678 116.929 114.433  1.00  0.00    -0.003 C 
ATOM      4  C   UNL     1     116.490 116.434 115.867  1.00  0.00     0.004 C 
ENDBRANCH   2   3
ENDBRANCH   1   2
BRANCH   1   5
ATOM      5  C   UNL     1     116.817 117.834 111.738  1.00  0.00     0.028 C 
BRANCH   5   6
ATOM      6  C   UNL     1     118.319 117.963 111.450  1.00  0.00     0.156 C 
BRANCH   6   7
ATOM      7  O   UNL     1     118.755 119.281 111.647  1.00  0.00    -0.396 OA
ATOM      8  H   UNL     1     118.939 119.661 110.748  1.00  0.00     0.210 HD
ENDBRANCH   6   7
ENDBRANCH   5   6
ENDBRANCH   1   5
TORSDOF 5
ENDMDL
MODEL 8
REMARK VINA RESULT:    -3.241      3.219      4.889
REMARK INTER + INTRA:          -4.168
REMARK INTER:                  -4.098
REMARK INTRA:                  -0.070
REMARK UNBOUND:                -0.074
REMARK SMILES CCCCCCO
REMARK SMILES IDX 4 1 3 2 2 3 1 4 5 5 6 6 7 7
REMARK H PARENT 7 8
REMARK Flexibility Score: inf
ROOT
ATOM      1  C   UNL     1     116.817 116.422 117.007  1.00  0.00     0.002 C 
ENDROOT
BRANCH   1   2
ATOM      2  C   UNL     1     116.121 116.305 115.636  1.00  0.00    -0.000 C 
BRANCH   2   3
ATOM      3  C   UNL     1     116.969 116.763 114.437  1.00  0.00    -0.003 C 
ATOM      4  C   UNL     1     116.321 116.440 113.091  1.00  0.00     0.004 C 
ENDBRANCH   2   3
ENDBRANCH   1   2
BRANCH   1   5
ATOM      5  C   UNL     1     118.030 117.371 117.045  1.00  0.00     0.028 C 
BRANCH   5   6
ATOM      6  C   UNL     1     119.019 117.075 118.180  1.00  0.00     0.156 C 
BRANCH   6   7
ATOM      7  O   UNL     1     120.220 117.774 117.992  1.00  0.00    -0.396 OA
ATOM      8  H   UNL     1     120.939 117.094 117.907  1.00  0.00     0.210 HD
ENDBRANCH   6   7
ENDBRANCH   5   6
ENDBRANCH   1   5
TORSDOF 5
ENDMDL
MODEL 9
REMARK VINA RESULT:    -3.207      2.748      4.695
REMARK INTER + INTRA:          -4.124
REMARK INTER:                  -4.081
REMARK INTRA:                  -0.043
REMARK UNBOUND:                -0.074
REMARK SMILES CCCCCCO
REMARK SMILES IDX 4 1 3 2 2 3 1 4 5 5 6 6 7 7
REMARK H PARENT 7 8
REMARK Flexibility Score: inf
ROOT
ATOM      1  C   UNL     1     116.632 116.215 116.171  1.00  0.00     0.002 C 
ENDROOT
BRANCH   1   2
ATOM      2  C   UNL     1     117.017 116.816 114.805  1.00  0.00    -0.000 C 
BRANCH   2   3
ATOM      3  C   UNL     1     116.300 116.191 113.596  1.00  0.00    -0.003 C 
ATOM      4  C   UNL     1     117.079 116.356 112.291  1.00  0.00     0.004 C 
ENDBRANCH   2   3
ENDBRANCH   1   2
BRANCH   1   5
ATOM      5  C   UNL     1     115.867 117.167 117.112  1.00  0.00     0.028 C 
BRANCH   5   6
ATOM      6  C   UNL     1     114.918 116.454 118.084  1.00  0.00     0.156 C 
BRANCH   6   7
ATOM      7  O   UNL     1     114.268 115.384 117.453  1.00  0.00    -0.396 OA
ATOM      8  H   UNL     1     114.977 114.771 117.124  1.00  0.00     0.210 HD
ENDBRANCH   6   7
ENDBRANCH   5   6
ENDBRANCH   1   5
TORSDOF 5
ENDMDL
