MODEL 1
REMARK VINA RESULT:    -3.446      0.000      0.000
REMARK INTER + INTRA:          -4.468
REMARK INTER:                  -4.252
REMARK INTRA:                  -0.216
REMARK UNBOUND:                -0.216
REMARK SMILES [NH3+][C@H](Cc1ccc(O)cc1)C(=O)[O-]
REMARK SMILES IDX 3 1 2 2 1 3 11 7 12 8 13 9 4 10 5 11 10 12 6 13 9 14 7 15
REMARK SMILES IDX 8 16
REMARK H PARENT 1 4 1 5 1 6 8 17
REMARK Flexibility Score: inf
ROOT
ATOM      1  C   UNL     1      18.661  -5.957   2.340  1.00  0.00     0.107 C 
ENDROOT
BRANCH   1   2
ATOM      2  C   UNL     1      19.171  -6.625   3.634  1.00  0.00     0.232 C 
BRANCH   2   3
ATOM      3  N   UNL     1      18.227  -7.638   4.124  1.00  0.00    -0.350 N 
ATOM      4  H   UNL     1      17.621  -7.969   3.338  1.00  0.00     0.345 HD
ATOM      5  H   UNL     1      18.749  -8.466   4.494  1.00  0.00     0.345 HD
ATOM      6  H   UNL     1      17.622  -7.247   4.882  1.00  0.00     0.345 HD
ENDBRANCH   2   3
BRANCH   2   7
ATOM      7  C   UNL     1      20.517  -7.250   3.383  1.00  0.00     0.099 C 
ATOM      8  O   UNL     1      21.558  -6.725   3.859  1.00  0.00    -0.544 OA
ATOM      9  O   UNL     1      20.622  -8.399   2.607  1.00  0.00    -0.544 OA
ENDBRANCH   2   7
ENDBRANCH   1   2
BRANCH   1  10
ATOM     10  C   UNL     1      18.402  -4.484   2.531  1.00  0.00    -0.041 A 
ATOM     11  C   UNL     1      18.963  -3.806   3.625  1.00  0.00     0.008 A 
ATOM     12  C   UNL     1      17.572  -3.785   1.639  1.00  0.00     0.008 A 
ATOM     13  C   UNL     1      18.705  -2.445   3.818  1.00  0.00     0.046 A 
ATOM     14  C   UNL     1      17.317  -2.424   1.834  1.00  0.00     0.046 A 
ATOM     15  C   UNL     1      17.882  -1.750   2.921  1.00  0.00     0.115 A 
BRANCH  15  16
ATOM     16  O   UNL     1      17.619  -0.395   3.103  1.00  0.00    -0.508 OA
ATOM     17  H   UNL     1      17.328   0.196   2.333  1.00  0.00     0.293 HD
ENDBRANCH  15  16
ENDBRANCH   1  10
TORSDOF 5
ENDMDL
MODEL 2
REMARK VINA RESULT:    -3.432     17.407     18.642
REMARK INTER + INTRA:          -4.451
REMARK INTER:                  -4.239
REMARK INTRA:                  -0.212
REMARK UNBOUND:                -0.216
REMARK SMILES [NH3+][C@H](Cc1ccc(O)cc1)C(=O)[O-]
REMARK SMILES IDX 3 1 2 2 1 3 11 7 12 8 13 9 4 10 5 11 10 12 6 13 9 14 7 15
REMARK SMILES IDX 8 16
REMARK H PARENT 1 4 1 5 1 6 8 17
REMARK Flexibility Score: inf
ROOT
ATOM      1  C   UNL     1      14.023 -13.239 -13.435  1.00  0.00     0.107 C 
ENDROOT
BRANCH   1   2
ATOM      2  C   UNL     1      12.948 -12.421 -12.688  1.00  0.00     0.232 C 
BRANCH   2   3
ATOM      3  N   UNL     1      11.596 -12.905 -12.995  1.00  0.00    -0.350 N 
ATOM      4  H   UNL     1      11.354 -13.705 -12.366  1.00  0.00     0.345 HD
ATOM      5  H   UNL     1      10.897 -12.145 -12.828  1.00  0.00     0.345 HD
ATOM      6  H   UNL     1      11.531 -13.219 -13.990  1.00  0.00     0.345 HD
ENDBRANCH   2   3
BRANCH   2   7
ATOM      7  C   UNL     1      13.199 -12.492 -11.206  1.00  0.00     0.099 C 
ATOM      8  O   UNL     1      12.456 -13.195 -10.471  1.00  0.00    -0.544 OA
ATOM      9  O   UNL     1      14.240 -11.768 -10.636  1.00  0.00    -0.544 OA
ENDBRANCH   2   7
ENDBRANCH   1   2
BRANCH   1  10
ATOM     10  C   UNL     1      15.191 -12.382 -13.855  1.00  0.00    -0.041 A 
ATOM     11  C   UNL     1      15.001 -11.327 -14.761  1.00  0.00     0.008 A 
ATOM     12  C   UNL     1      16.482 -12.653 -13.373  1.00  0.00     0.008 A 
ATOM     13  C   UNL     1      16.086 -10.546 -15.170  1.00  0.00     0.046 A 
ATOM     14  C   UNL     1      17.566 -11.870 -13.784  1.00  0.00     0.046 A 
ATOM     15  C   UNL     1      17.372 -10.815 -14.681  1.00  0.00     0.115 A 
BRANCH  15  16
ATOM     16  O   UNL     1      18.460 -10.044 -15.082  1.00  0.00    -0.508 OA
ATOM     17  H   UNL     1      19.142 -10.395 -15.745  1.00  0.00     0.293 HD
ENDBRANCH  15  16
ENDBRANCH   1  10
TORSDOF 5
ENDMDL
MODEL 3
REMARK VINA RESULT:    -3.424     18.401     18.977
REMARK INTER + INTRA:          -4.441
REMARK INTER:                  -4.249
REMARK INTRA:                  -0.192
REMARK UNBOUND:                -0.216
REMARK SMILES [NH3+][C@H](Cc1ccc(O)cc1)C(=O)[O-]
REMARK SMILES IDX 3 1 2 2 1 3 11 7 12 8 13 9 4 10 5 11 10 12 6 13 9 14 7 15
REMARK SMILES IDX 8 16
REMARK H PARENT 1 4 1 5 1 6 8 17
REMARK Flexibility Score: inf
ROOT
ATOM      1  C   UNL     1      13.644 -12.421 -14.252  1.00  0.00     0.107 C 
ENDROOT
BRANCH   1   2
ATOM      2  C   UNL     1      12.903 -12.006 -12.963  1.00  0.00     0.232 C 
BRANCH   2   3
ATOM      3  N   UNL     1      11.653 -11.297 -13.267  1.00  0.00    -0.350 N 
ATOM      4  H   UNL     1      11.723 -10.843 -14.208  1.00  0.00     0.345 HD
ATOM      5  H   UNL     1      10.856 -11.972 -13.298  1.00  0.00     0.345 HD
ATOM      6  H   UNL     1      11.457 -10.564 -12.547  1.00  0.00     0.345 HD
ENDBRANCH   2   3
BRANCH   2   7
ATOM      7  C   UNL     1      12.617 -13.225 -12.130  1.00  0.00     0.099 C 
ATOM      8  O   UNL     1      12.500 -13.125 -10.880  1.00  0.00    -0.544 OA
ATOM      9  O   UNL     1      12.500 -14.473 -12.732  1.00  0.00    -0.544 OA
ENDBRANCH   2   7
ENDBRANCH   1   2
BRANCH   1  10
ATOM     10  C   UNL     1      15.092 -12.001 -14.229  1.00  0.00    -0.041 A 
ATOM     11  C   UNL     1      15.514 -10.883 -14.966  1.00  0.00     0.008 A 
ATOM     12  C   UNL     1      16.037 -12.742 -13.500  1.00  0.00     0.008 A 
ATOM     13  C   UNL     1      16.861 -10.506 -14.964  1.00  0.00     0.046 A 
ATOM     14  C   UNL     1      17.383 -12.363 -13.500  1.00  0.00     0.046 A 
ATOM     15  C   UNL     1      17.798 -11.244 -14.230  1.00  0.00     0.115 A 
BRANCH  15  16
ATOM     16  O   UNL     1      19.142 -10.878 -14.221  1.00  0.00    -0.508 OA
ATOM     17  H   UNL     1      19.779 -11.184 -14.947  1.00  0.00     0.293 HD
ENDBRANCH  15  16
ENDBRANCH   1  10
TORSDOF 5
ENDMDL
MODEL 4
REMARK VINA RESULT:    -3.411     15.955     17.195
REMARK INTER + INTRA:          -4.424
REMARK INTER:                  -4.222
REMARK INTRA:                  -0.203
REMARK UNBOUND:                -0.216
REMARK SMILES [NH3+][C@H](Cc1ccc(O)cc1)C(=O)[O-]
REMARK SMILES IDX 3 1 2 2 1 3 11 7 12 8 13 9 4 10 5 11 10 12 6 13 9 14 7 15
REMARK SMILES IDX 8 16
REMARK H PARENT 1 4 1 5 1 6 8 17
REMARK Flexibility Score: inf
ROOT
ATOM      1  C   UNL     1      12.735 -12.464 -11.678  1.00  0.00     0.107 C 
ENDROOT
BRANCH   1   2
ATOM      2  C   UNL     1      13.384 -13.435 -12.688  1.00  0.00     0.232 C 
BRANCH   2   3
ATOM      3  N   UNL     1      12.621 -14.686 -12.796  1.00  0.00    -0.350 N 
ATOM      4  H   UNL     1      13.062 -15.423 -12.198  1.00  0.00     0.345 HD
ATOM      5  H   UNL     1      11.644 -14.541 -12.454  1.00  0.00     0.345 HD
ATOM      6  H   UNL     1      12.594 -15.019 -13.787  1.00  0.00     0.345 HD
ENDBRANCH   2   3
BRANCH   2   7
ATOM      7  C   UNL     1      13.482 -12.770 -14.035  1.00  0.00     0.099 C 
ATOM      8  O   UNL     1      14.510 -12.111 -14.341  1.00  0.00    -0.544 OA
ATOM      9  O   UNL     1      12.432 -12.863 -14.940  1.00  0.00    -0.544 OA
ENDBRANCH   2   7
ENDBRANCH   1   2
BRANCH   1  10
ATOM     10  C   UNL     1      13.680 -12.101 -10.561  1.00  0.00    -0.041 A 
ATOM     11  C   UNL     1      13.258 -12.184  -9.224  1.00  0.00     0.008 A 
ATOM     12  C   UNL     1      14.978 -11.644 -10.846  1.00  0.00     0.008 A 
ATOM     13  C   UNL     1      14.125 -11.826  -8.188  1.00  0.00     0.046 A 
ATOM     14  C   UNL     1      15.843 -11.286  -9.807  1.00  0.00     0.046 A 
ATOM     15  C   UNL     1      15.421 -11.377  -8.477  1.00  0.00     0.115 A 
BRANCH  15  16
ATOM     16  O   UNL     1      16.292 -11.016  -7.452  1.00  0.00    -0.508 OA
ATOM     17  H   UNL     1      16.504 -10.045  -7.254  1.00  0.00     0.293 HD
ENDBRANCH  15  16
ENDBRANCH   1  10
TORSDOF 5
ENDMDL
MODEL 5
REMARK VINA RESULT:    -3.397     15.783     17.064
REMARK INTER + INTRA:          -4.407
REMARK INTER:                  -4.182
REMARK INTRA:                  -0.225
REMARK UNBOUND:                -0.216
REMARK SMILES [NH3+][C@H](Cc1ccc(O)cc1)C(=O)[O-]
REMARK SMILES IDX 3 1 2 2 1 3 11 7 12 8 13 9 4 10 5 11 10 12 6 13 9 14 7 15
REMARK SMILES IDX 8 16
REMARK H PARENT 1 4 1 5 1 6 8 17
REMARK Flexibility Score: inf
ROOT
ATOM      1  C   UNL     1      13.923 -12.259 -12.132  1.00  0.00     0.107 C 
ENDROOT
BRANCH   1   2
ATOM      2  C   UNL     1      12.393 -12.374 -12.299  1.00  0.00     0.232 C 
BRANCH   2   3
ATOM      3  N   UNL     1      11.844 -11.223 -13.027  1.00  0.00    -0.350 N 
ATOM      4  H   UNL     1      12.602 -10.754 -13.574  1.00  0.00     0.345 HD
ATOM      5  H   UNL     1      11.113 -11.541 -13.703  1.00  0.00     0.345 HD
ATOM      6  H   UNL     1      11.422 -10.532 -12.365  1.00  0.00     0.345 HD
ENDBRANCH   2   3
BRANCH   2   7
ATOM      7  C   UNL     1      12.060 -13.651 -13.023  1.00  0.00     0.099 C 
ATOM      8  O   UNL     1      12.833 -14.642 -12.948  1.00  0.00    -0.544 OA
ATOM      9  O   UNL     1      10.907 -13.738 -13.794  1.00  0.00    -0.544 OA
ENDBRANCH   2   7
ENDBRANCH   1   2
BRANCH   1  10
ATOM     10  C   UNL     1      14.315 -12.005 -10.699  1.00  0.00    -0.041 A 
ATOM     11  C   UNL     1      13.390 -12.221  -9.665  1.00  0.00     0.008 A 
ATOM     12  C   UNL     1      15.596 -11.519 -10.386  1.00  0.00     0.008 A 
ATOM     13  C   UNL     1      13.744 -11.964  -8.337  1.00  0.00     0.046 A 
ATOM     14  C   UNL     1      15.947 -11.263  -9.057  1.00  0.00     0.046 A 
ATOM     15  C   UNL     1      15.025 -11.486  -8.030  1.00  0.00     0.115 A 
BRANCH  15  16
ATOM     16  O   UNL     1      15.388 -11.226  -6.710  1.00  0.00    -0.508 OA
ATOM     17  H   UNL     1      14.781 -10.709  -6.086  1.00  0.00     0.293 HD
ENDBRANCH  15  16
ENDBRANCH   1  10
TORSDOF 5
ENDMDL
MODEL 6
REMARK VINA RESULT:    -3.370      3.050      6.275
REMARK INTER + INTRA:          -4.374
REMARK INTER:                  -4.171
REMARK INTRA:                  -0.203
REMARK UNBOUND:                -0.216
REMARK SMILES [NH3+][C@H](Cc1ccc(O)cc1)C(=O)[O-]
REMARK SMILES IDX 3 1 2 2 1 3 11 7 12 8 13 9 4 10 5 11 10 12 6 13 9 14 7 15
REMARK SMILES IDX 8 16
REMARK H PARENT 1 4 1 5 1 6 8 17
REMARK Flexibility Score: inf
ROOT
ATOM      1  C   UNL     1      16.534  -1.480   1.129  1.00  0.00     0.107 C 
ENDROOT
BRANCH   1   2
ATOM      2  C   UNL     1      17.181  -0.208   1.717  1.00  0.00     0.232 C 
BRANCH   2   3
ATOM      3  N   UNL     1      17.804   0.611   0.670  1.00  0.00    -0.350 N 
ATOM      4  H   UNL     1      17.202   1.442   0.463  1.00  0.00     0.345 HD
ATOM      5  H   UNL     1      18.733   0.965   0.995  1.00  0.00     0.345 HD
ATOM      6  H   UNL     1      17.936   0.057  -0.207  1.00  0.00     0.345 HD
ENDBRANCH   2   3
BRANCH   2   7
ATOM      7  C   UNL     1      16.142   0.594   2.452  1.00  0.00     0.099 C 
ATOM      8  O   UNL     1      16.242   0.774   3.694  1.00  0.00    -0.544 OA
ATOM      9  O   UNL     1      15.053   1.124   1.768  1.00  0.00    -0.544 OA
ENDBRANCH   2   7
ENDBRANCH   1   2
BRANCH   1  10
ATOM     10  C   UNL     1      17.267  -2.729   1.546  1.00  0.00    -0.041 A 
ATOM     11  C   UNL     1      18.226  -2.676   2.571  1.00  0.00     0.008 A 
ATOM     12  C   UNL     1      17.026  -3.949   0.892  1.00  0.00     0.008 A 
ATOM     13  C   UNL     1      18.924  -3.829   2.943  1.00  0.00     0.046 A 
ATOM     14  C   UNL     1      17.725  -5.100   1.266  1.00  0.00     0.046 A 
ATOM     15  C   UNL     1      18.674  -5.045   2.292  1.00  0.00     0.115 A 
BRANCH  15  16
ATOM     16  O   UNL     1      19.364  -6.199   2.654  1.00  0.00    -0.508 OA
ATOM     17  H   UNL     1      19.058  -6.778   3.428  1.00  0.00     0.293 HD
ENDBRANCH  15  16
ENDBRANCH   1  10
TORSDOF 5
ENDMDL
MODEL 7
REMARK VINA RESULT:    -3.368      1.676      2.520
REMARK INTER + INTRA:          -4.371
REMARK INTER:                  -4.206
REMARK INTRA:                  -0.165
REMARK UNBOUND:                -0.216
REMARK SMILES [NH3+][C@H](Cc1ccc(O)cc1)C(=O)[O-]
REMARK SMILES IDX 3 1 2 2 1 3 11 7 12 8 13 9 4 10 5 11 10 12 6 13 9 14 7 15
REMARK SMILES IDX 8 16
REMARK H PARENT 1 4 1 5 1 6 8 17
REMARK Flexibility Score: inf
ROOT
ATOM      1  C   UNL     1      18.113  -7.552   1.784  1.00  0.00     0.107 C 
ENDROOT
BRANCH   1   2
ATOM      2  C   UNL     1      19.179  -8.356   2.560  1.00  0.00     0.232 C 
BRANCH   2   3
ATOM      3  N   UNL     1      18.591  -9.064   3.704  1.00  0.00    -0.350 N 
ATOM      4  H   UNL     1      18.630  -8.456   4.556  1.00  0.00     0.345 HD
ATOM      5  H   UNL     1      17.586  -9.282   3.514  1.00  0.00     0.345 HD
ATOM      6  H   UNL     1      19.106  -9.954   3.895  1.00  0.00     0.345 HD
ENDBRANCH   2   3
BRANCH   2   7
ATOM      7  C   UNL     1      19.846  -9.335   1.632  1.00  0.00     0.099 C 
ATOM      8  O   UNL     1      21.102  -9.427   1.606  1.00  0.00    -0.544 OA
ATOM      9  O   UNL     1      19.083 -10.129   0.785  1.00  0.00    -0.544 OA
ENDBRANCH   2   7
ENDBRANCH   1   2
BRANCH   1  10
ATOM     10  C   UNL     1      18.232  -6.071   2.036  1.00  0.00    -0.041 A 
ATOM     11  C   UNL     1      17.544  -5.159   1.219  1.00  0.00     0.008 A 
ATOM     12  C   UNL     1      19.057  -5.587   3.065  1.00  0.00     0.008 A 
ATOM     13  C   UNL     1      17.671  -3.783   1.436  1.00  0.00     0.046 A 
ATOM     14  C   UNL     1      19.182  -4.211   3.280  1.00  0.00     0.046 A 
ATOM     15  C   UNL     1      18.490  -3.306   2.469  1.00  0.00     0.115 A 
BRANCH  15  16
ATOM     16  O   UNL     1      18.625  -1.938   2.694  1.00  0.00    -0.508 OA
ATOM     17  H   UNL     1      18.094  -1.466   3.416  1.00  0.00     0.293 HD
ENDBRANCH  15  16
ENDBRANCH   1  10
TORSDOF 5
ENDMDL
MODEL 8
REMARK VINA RESULT:    -3.353     14.301     15.649
REMARK INTER + INTRA:          -4.354
REMARK INTER:                  -4.203
REMARK INTRA:                  -0.151
REMARK UNBOUND:                -0.216
REMARK SMILES [NH3+][C@H](Cc1ccc(O)cc1)C(=O)[O-]
REMARK SMILES IDX 3 1 2 2 1 3 11 7 12 8 13 9 4 10 5 11 10 12 6 13 9 14 7 15
REMARK SMILES IDX 8 16
REMARK H PARENT 1 4 1 5 1 6 8 17
REMARK Flexibility Score: inf
ROOT
ATOM      1  C   UNL     1      16.116 -11.300  -9.223  1.00  0.00     0.107 C 
ENDROOT
BRANCH   1   2
ATOM      2  C   UNL     1      15.266 -10.693  -8.086  1.00  0.00     0.232 C 
BRANCH   2   3
ATOM      3  N   UNL     1      15.149 -11.618  -6.951  1.00  0.00    -0.350 N 
ATOM      4  H   UNL     1      14.141 -11.830  -6.768  1.00  0.00     0.345 HD
ATOM      5  H   UNL     1      15.630 -12.520  -7.171  1.00  0.00     0.345 HD
ATOM      6  H   UNL     1      15.573 -11.203  -6.089  1.00  0.00     0.345 HD
ENDBRANCH   2   3
BRANCH   2   7
ATOM      7  C   UNL     1      15.878  -9.395  -7.636  1.00  0.00     0.099 C 
ATOM      8  O   UNL     1      15.681  -8.340  -8.295  1.00  0.00    -0.544 OA
ATOM      9  O   UNL     1      16.680  -9.354  -6.501  1.00  0.00    -0.544 OA
ENDBRANCH   2   7
ENDBRANCH   1   2
BRANCH   1  10
ATOM     10  C   UNL     1      15.272 -11.699 -10.406  1.00  0.00    -0.041 A 
ATOM     11  C   UNL     1      13.970 -12.188 -10.211  1.00  0.00     0.008 A 
ATOM     12  C   UNL     1      15.789 -11.618 -11.710  1.00  0.00     0.008 A 
ATOM     13  C   UNL     1      13.194 -12.581 -11.306  1.00  0.00     0.046 A 
ATOM     14  C   UNL     1      15.010 -12.011 -12.802  1.00  0.00     0.046 A 
ATOM     15  C   UNL     1      13.712 -12.492 -12.605  1.00  0.00     0.115 A 
BRANCH  15  16
ATOM     16  O   UNL     1      12.948 -12.880 -13.702  1.00  0.00    -0.508 OA
ATOM     17  H   UNL     1      12.094 -12.395 -13.951  1.00  0.00     0.293 HD
ENDBRANCH  15  16
ENDBRANCH   1  10
TORSDOF 5
ENDMDL
MODEL 9
REMARK VINA RESULT:    -3.305     18.115     19.351
REMARK INTER + INTRA:          -4.294
REMARK INTER:                  -4.075
REMARK INTRA:                  -0.219
REMARK UNBOUND:                -0.216
REMARK SMILES [NH3+][C@H](Cc1ccc(O)cc1)C(=O)[O-]
REMARK SMILES IDX 3 1 2 2 1 3 11 7 12 8 13 9 4 10 5 11 10 12 6 13 9 14 7 15
REMARK SMILES IDX 8 16
REMARK H PARENT 1 4 1 5 1 6 8 17
REMARK Flexibility Score: inf
ROOT
ATOM      1  C   UNL     1      12.656 -13.823 -13.896  1.00  0.00     0.107 C 
ENDROOT
BRANCH   1   2
ATOM      2  C   UNL     1      11.667 -12.894 -14.633  1.00  0.00     0.232 C 
BRANCH   2   3
ATOM      3  N   UNL     1      11.749 -13.069 -16.089  1.00  0.00    -0.350 N 
ATOM      4  H   UNL     1      12.750 -13.036 -16.395  1.00  0.00     0.345 HD
ATOM      5  H   UNL     1      11.364 -14.003 -16.361  1.00  0.00     0.345 HD
ATOM      6  H   UNL     1      11.215 -12.319 -16.584  1.00  0.00     0.345 HD
ENDBRANCH   2   3
BRANCH   2   7
ATOM      7  C   UNL     1      10.266 -13.169 -14.157  1.00  0.00     0.099 C 
ATOM      8  O   UNL     1       9.539 -13.993 -14.772  1.00  0.00    -0.544 OA
ATOM      9  O   UNL     1       9.759 -12.501 -13.049  1.00  0.00    -0.544 OA
ENDBRANCH   2   7
ENDBRANCH   1   2
BRANCH   1  10
ATOM     10  C   UNL     1      13.571 -13.054 -12.978  1.00  0.00    -0.041 A 
ATOM     11  C   UNL     1      13.183 -12.789 -11.655  1.00  0.00     0.008 A 
ATOM     12  C   UNL     1      14.804 -12.567 -13.445  1.00  0.00     0.008 A 
ATOM     13  C   UNL     1      14.021 -12.057 -10.808  1.00  0.00     0.046 A 
ATOM     14  C   UNL     1      15.639 -11.834 -12.596  1.00  0.00     0.046 A 
ATOM     15  C   UNL     1      15.252 -11.578 -11.277  1.00  0.00     0.115 A 
BRANCH  15  16
ATOM     16  O   UNL     1      16.094 -10.847 -10.442  1.00  0.00    -0.508 OA
ATOM     17  H   UNL     1      16.460  -9.943 -10.719  1.00  0.00     0.293 HD
ENDBRANCH  15  16
ENDBRANCH   1  10
TORSDOF 5
ENDMDL
