MODEL 1
REMARK VINA RESULT:    -3.377      0.000      0.000
REMARK INTER + INTRA:          -7.865
REMARK INTER:                  -5.943
REMARK INTRA:                  -1.921
REMARK UNBOUND:                -1.921
REMARK SMILES CCCCCCCCCCCCCCC(=O)[O-]
REMARK SMILES IDX 9 1 10 2 11 3 12 4 13 5 14 6 15 7 16 8 17 9 8 10 7 11 6 12
REMARK SMILES IDX 5 13 4 14 3 15 2 16 1 17
REMARK H PARENT
REMARK Flexibility Score: inf
ROOT
ATOM      1  C   UNL     1      60.479  32.075  59.193  1.00  0.00     0.000 C 
ENDROOT
BRANCH   1   2
ATOM      2  C   UNL     1      60.438  30.741  59.954  1.00  0.00     0.000 C 
BRANCH   2   3
ATOM      3  C   UNL     1      61.070  30.884  61.345  1.00  0.00     0.000 C 
BRANCH   3   4
ATOM      4  C   UNL     1      62.140  29.807  61.577  1.00  0.00     0.000 C 
BRANCH   4   5
ATOM      5  C   UNL     1      63.576  30.350  61.468  1.00  0.00     0.006 C 
BRANCH   5   6
ATOM      6  C   UNL     1      64.363  29.801  60.265  1.00  0.00     0.053 C 
BRANCH   6   7
ATOM      7  C   UNL     1      65.223  28.627  60.626  1.00  0.00     0.041 C 
ATOM      8  O   UNL     1      64.732  27.468  60.650  1.00  0.00    -0.550 OA
ATOM      9  O   UNL     1      66.572  28.808  60.902  1.00  0.00    -0.550 OA
ENDBRANCH   6   7
ENDBRANCH   5   6
ENDBRANCH   4   5
ENDBRANCH   3   4
ENDBRANCH   2   3
ENDBRANCH   1   2
BRANCH   1  10
ATOM     10  C   UNL     1      61.601  33.005  59.682  1.00  0.00     0.000 C 
BRANCH  10  11
ATOM     11  C   UNL     1      62.823  32.998  58.749  1.00  0.00    -0.000 C 
BRANCH  11  12
ATOM     12  C   UNL     1      64.039  33.711  59.362  1.00  0.00    -0.000 C 
BRANCH  12  13
ATOM     13  C   UNL     1      63.958  33.816  60.892  1.00  0.00    -0.000 C 
BRANCH  13  14
ATOM     14  C   UNL     1      64.225  35.254  61.358  1.00  0.00    -0.000 C 
BRANCH  14  15
ATOM     15  C   UNL     1      63.451  36.304  60.539  1.00  0.00    -0.000 C 
BRANCH  15  16
ATOM     16  C   UNL     1      62.056  36.652  61.088  1.00  0.00    -0.003 C 
ATOM     17  C   UNL     1      60.970  36.638  60.013  1.00  0.00     0.004 C 
ENDBRANCH  15  16
ENDBRANCH  14  15
ENDBRANCH  13  14
ENDBRANCH  12  13
ENDBRANCH  11  12
ENDBRANCH  10  11
ENDBRANCH   1  10
TORSDOF 13
ENDMDL
MODEL 2
REMARK VINA RESULT:    -3.347     11.514     13.087
REMARK INTER + INTRA:          -7.813
REMARK INTER:                  -5.996
REMARK INTRA:                  -1.817
REMARK UNBOUND:                -1.921
REMARK SMILES CCCCCCCCCCCCCCC(=O)[O-]
REMARK SMILES IDX 9 1 10 2 11 3 12 4 13 5 14 6 15 7 16 8 17 9 8 10 7 11 6 12
REMARK SMILES IDX 5 13 4 14 3 15 2 16 1 17
REMARK H PARENT
REMARK Flexibility Score: inf
ROOT
ATOM      1  C   UNL     1      57.506  29.194  50.435  1.00  0.00     0.000 C 
ENDROOT
BRANCH   1   2
ATOM      2  C   UNL     1      58.935  29.522  49.977  1.00  0.00     0.000 C 
BRANCH   2   3
ATOM      3  C   UNL     1      59.511  28.387  49.121  1.00  0.00     0.000 C 
BRANCH   3   4
ATOM      4  C   UNL     1      60.929  28.015  49.580  1.00  0.00     0.000 C 
BRANCH   4   5
ATOM      5  C   UNL     1      60.998  26.642  50.274  1.00  0.00     0.006 C 
BRANCH   5   6
ATOM      6  C   UNL     1      59.764  25.756  50.032  1.00  0.00     0.053 C 
BRANCH   6   7
ATOM      7  C   UNL     1      59.975  24.340  50.477  1.00  0.00     0.041 C 
ATOM      8  O   UNL     1      60.733  23.578  49.821  1.00  0.00    -0.550 OA
ATOM      9  O   UNL     1      59.365  23.872  51.634  1.00  0.00    -0.550 OA
ENDBRANCH   6   7
ENDBRANCH   5   6
ENDBRANCH   4   5
ENDBRANCH   3   4
ENDBRANCH   2   3
ENDBRANCH   1   2
BRANCH   1  10
ATOM     10  C   UNL     1      57.473  28.316  51.696  1.00  0.00     0.000 C 
BRANCH  10  11
ATOM     11  C   UNL     1      56.603  27.060  51.520  1.00  0.00    -0.000 C 
BRANCH  11  12
ATOM     12  C   UNL     1      56.022  26.939  50.102  1.00  0.00    -0.000 C 
BRANCH  12  13
ATOM     13  C   UNL     1      54.700  26.156  50.067  1.00  0.00    -0.000 C 
BRANCH  13  14
ATOM     14  C   UNL     1      53.548  27.049  49.585  1.00  0.00    -0.000 C 
BRANCH  14  15
ATOM     15  C   UNL     1      53.717  28.523  49.999  1.00  0.00    -0.000 C 
BRANCH  15  16
ATOM     16  C   UNL     1      53.215  28.858  51.415  1.00  0.00    -0.003 C 
ATOM     17  C   UNL     1      54.098  29.876  52.137  1.00  0.00     0.004 C 
ENDBRANCH  15  16
ENDBRANCH  14  15
ENDBRANCH  13  14
ENDBRANCH  12  13
ENDBRANCH  11  12
ENDBRANCH  10  11
ENDBRANCH   1  10
TORSDOF 13
ENDMDL
MODEL 3
REMARK VINA RESULT:    -3.189     10.046     12.499
REMARK INTER + INTRA:          -7.535
REMARK INTER:                  -5.216
REMARK INTRA:                  -2.318
REMARK UNBOUND:                -1.921
REMARK SMILES CCCCCCCCCCCCCCC(=O)[O-]
REMARK SMILES IDX 9 1 10 2 11 3 12 4 13 5 14 6 15 7 16 8 17 9 8 10 7 11 6 12
REMARK SMILES IDX 5 13 4 14 3 15 2 16 1 17
REMARK H PARENT
REMARK Flexibility Score: inf
ROOT
ATOM      1  C   UNL     1      60.242  27.826  50.125  1.00  0.00     0.000 C 
ENDROOT
BRANCH   1   2
ATOM      2  C   UNL     1      59.206  28.487  49.204  1.00  0.00     0.000 C 
BRANCH   2   3
ATOM      3  C   UNL     1      58.268  29.403  50.000  1.00  0.00     0.000 C 
BRANCH   3   4
ATOM      4  C   UNL     1      58.776  29.596  51.437  1.00  0.00     0.000 C 
BRANCH   4   5
ATOM      5  C   UNL     1      57.676  29.401  52.497  1.00  0.00     0.006 C 
BRANCH   5   6
ATOM      6  C   UNL     1      57.033  30.712  52.980  1.00  0.00     0.053 C 
BRANCH   6   7
ATOM      7  C   UNL     1      58.024  31.640  53.617  1.00  0.00     0.041 C 
ATOM      8  O   UNL     1      58.579  31.323  54.702  1.00  0.00    -0.550 OA
ATOM      9  O   UNL     1      58.361  32.836  52.996  1.00  0.00    -0.550 OA
ENDBRANCH   6   7
ENDBRANCH   5   6
ENDBRANCH   4   5
ENDBRANCH   3   4
ENDBRANCH   2   3
ENDBRANCH   1   2
BRANCH   1  10
ATOM     10  C   UNL     1      60.244  26.293  50.015  1.00  0.00     0.000 C 
BRANCH  10  11
ATOM     11  C   UNL     1      58.829  25.695  50.077  1.00  0.00    -0.000 C 
BRANCH  11  12
ATOM     12  C   UNL     1      58.212  25.780  51.483  1.00  0.00    -0.000 C 
BRANCH  12  13
ATOM     13  C   UNL     1      56.697  26.034  51.453  1.00  0.00    -0.000 C 
BRANCH  13  14
ATOM     14  C   UNL     1      56.211  26.274  50.017  1.00  0.00    -0.000 C 
BRANCH  14  15
ATOM     15  C   UNL     1      54.813  26.918  49.956  1.00  0.00    -0.000 C 
BRANCH  15  16
ATOM     16  C   UNL     1      54.518  27.930  51.078  1.00  0.00    -0.003 C 
ATOM     17  C   UNL     1      54.432  29.371  50.575  1.00  0.00     0.004 C 
ENDBRANCH  15  16
ENDBRANCH  14  15
ENDBRANCH  13  14
ENDBRANCH  12  13
ENDBRANCH  11  12
ENDBRANCH  10  11
ENDBRANCH   1  10
TORSDOF 13
ENDMDL
MODEL 4
REMARK VINA RESULT:    -3.187     11.426     13.051
REMARK INTER + INTRA:          -7.530
REMARK INTER:                  -6.059
REMARK INTRA:                  -1.471
REMARK UNBOUND:                -1.921
REMARK SMILES CCCCCCCCCCCCCCC(=O)[O-]
REMARK SMILES IDX 9 1 10 2 11 3 12 4 13 5 14 6 15 7 16 8 17 9 8 10 7 11 6 12
REMARK SMILES IDX 5 13 4 14 3 15 2 16 1 17
REMARK H PARENT
REMARK Flexibility Score: inf
ROOT
ATOM      1  C   UNL     1      57.758  28.221  51.373  1.00  0.00     0.000 C 
ENDROOT
BRANCH   1   2
ATOM      2  C   UNL     1      57.674  29.299  50.281  1.00  0.00     0.000 C 
BRANCH   2   3
ATOM      3  C   UNL     1      58.855  29.188  49.308  1.00  0.00     0.000 C 
BRANCH   3   4
ATOM      4  C   UNL     1      60.169  28.934  50.063  1.00  0.00     0.000 C 
BRANCH   4   5
ATOM      5  C   UNL     1      60.965  27.741  49.503  1.00  0.00     0.006 C 
BRANCH   5   6
ATOM      6  C   UNL     1      62.412  27.657  50.020  1.00  0.00     0.053 C 
BRANCH   6   7
ATOM      7  C   UNL     1      63.348  28.545  49.258  1.00  0.00     0.041 C 
ATOM      8  O   UNL     1      63.785  28.187  48.132  1.00  0.00    -0.550 OA
ATOM      9  O   UNL     1      63.712  29.783  49.772  1.00  0.00    -0.550 OA
ENDBRANCH   6   7
ENDBRANCH   5   6
ENDBRANCH   4   5
ENDBRANCH   3   4
ENDBRANCH   2   3
ENDBRANCH   1   2
BRANCH   1  10
ATOM     10  C   UNL     1      56.570  27.247  51.338  1.00  0.00     0.000 C 
BRANCH  10  11
ATOM     11  C   UNL     1      56.539  26.399  50.055  1.00  0.00    -0.000 C 
BRANCH  11  12
ATOM     12  C   UNL     1      55.108  26.101  49.578  1.00  0.00    -0.000 C 
BRANCH  12  13
ATOM     13  C   UNL     1      54.040  26.819  50.417  1.00  0.00    -0.000 C 
BRANCH  13  14
ATOM     14  C   UNL     1      53.247  27.814  49.558  1.00  0.00    -0.000 C 
BRANCH  14  15
ATOM     15  C   UNL     1      52.890  29.108  50.313  1.00  0.00    -0.000 C 
BRANCH  15  16
ATOM     16  C   UNL     1      54.082  30.040  50.597  1.00  0.00    -0.003 C 
ATOM     17  C   UNL     1      54.248  30.364  52.081  1.00  0.00     0.004 C 
ENDBRANCH  15  16
ENDBRANCH  14  15
ENDBRANCH  13  14
ENDBRANCH  12  13
ENDBRANCH  11  12
ENDBRANCH  10  11
ENDBRANCH   1  10
TORSDOF 13
ENDMDL
MODEL 5
REMARK VINA RESULT:    -3.148     12.288     13.925
REMARK INTER + INTRA:          -7.462
REMARK INTER:                  -6.491
REMARK INTRA:                  -0.971
REMARK UNBOUND:                -1.921
REMARK SMILES CCCCCCCCCCCCCCC(=O)[O-]
REMARK SMILES IDX 9 1 10 2 11 3 12 4 13 5 14 6 15 7 16 8 17 9 8 10 7 11 6 12
REMARK SMILES IDX 5 13 4 14 3 15 2 16 1 17
REMARK H PARENT
REMARK Flexibility Score: inf
ROOT
ATOM      1  C   UNL     1      58.621  25.423  50.804  1.00  0.00     0.000 C 
ENDROOT
BRANCH   1   2
ATOM      2  C   UNL     1      60.052  25.049  51.220  1.00  0.00     0.000 C 
BRANCH   2   3
ATOM      3  C   UNL     1      60.293  23.542  51.067  1.00  0.00     0.000 C 
BRANCH   3   4
ATOM      4  C   UNL     1      61.008  23.230  49.744  1.00  0.00     0.000 C 
BRANCH   4   5
ATOM      5  C   UNL     1      60.706  21.816  49.214  1.00  0.00     0.006 C 
BRANCH   5   6
ATOM      6  C   UNL     1      60.962  20.696  50.237  1.00  0.00     0.053 C 
BRANCH   6   7
ATOM      7  C   UNL     1      59.764  19.820  50.444  1.00  0.00     0.041 C 
ATOM      8  O   UNL     1      59.600  18.794  49.732  1.00  0.00    -0.550 OA
ATOM      9  O   UNL     1      58.846  20.115  51.444  1.00  0.00    -0.550 OA
ENDBRANCH   6   7
ENDBRANCH   5   6
ENDBRANCH   4   5
ENDBRANCH   3   4
ENDBRANCH   2   3
ENDBRANCH   1   2
BRANCH   1  10
ATOM     10  C   UNL     1      58.584  26.449  49.660  1.00  0.00     0.000 C 
BRANCH  10  11
ATOM     11  C   UNL     1      59.009  27.856  50.115  1.00  0.00    -0.000 C 
BRANCH  11  12
ATOM     12  C   UNL     1      57.832  28.844  50.154  1.00  0.00    -0.000 C 
BRANCH  12  13
ATOM     13  C   UNL     1      56.721  28.408  51.121  1.00  0.00    -0.000 C 
BRANCH  13  14
ATOM     14  C   UNL     1      55.380  29.052  50.740  1.00  0.00    -0.000 C 
BRANCH  14  15
ATOM     15  C   UNL     1      54.414  28.067  50.055  1.00  0.00    -0.000 C 
BRANCH  15  16
ATOM     16  C   UNL     1      54.909  26.611  49.996  1.00  0.00    -0.003 C 
ATOM     17  C   UNL     1      54.046  25.722  49.101  1.00  0.00     0.004 C 
ENDBRANCH  15  16
ENDBRANCH  14  15
ENDBRANCH  13  14
ENDBRANCH  12  13
ENDBRANCH  11  12
ENDBRANCH  10  11
ENDBRANCH   1  10
TORSDOF 13
ENDMDL
MODEL 6
REMARK VINA RESULT:    -3.129     10.889     12.580
REMARK INTER + INTRA:          -7.429
REMARK INTER:                  -5.199
REMARK INTRA:                  -2.230
REMARK UNBOUND:                -1.921
REMARK SMILES CCCCCCCCCCCCCCC(=O)[O-]
REMARK SMILES IDX 9 1 10 2 11 3 12 4 13 5 14 6 15 7 16 8 17 9 8 10 7 11 6 12
REMARK SMILES IDX 5 13 4 14 3 15 2 16 1 17
REMARK H PARENT
REMARK Flexibility Score: inf
ROOT
ATOM      1  C   UNL     1      58.435  29.494  51.246  1.00  0.00     0.000 C 
ENDROOT
BRANCH   1   2
ATOM      2  C   UNL     1      58.459  29.530  49.711  1.00  0.00     0.000 C 
BRANCH   2   3
ATOM      3  C   UNL     1      59.401  28.455  49.151  1.00  0.00     0.000 C 
BRANCH   3   4
ATOM      4  C   UNL     1      60.239  27.820  50.271  1.00  0.00     0.000 C 
BRANCH   4   5
ATOM      5  C   UNL     1      60.764  26.418  49.911  1.00  0.00     0.006 C 
BRANCH   5   6
ATOM      6  C   UNL     1      62.082  26.045  50.611  1.00  0.00     0.053 C 
BRANCH   6   7
ATOM      7  C   UNL     1      62.312  24.565  50.655  1.00  0.00     0.041 C 
ATOM      8  O   UNL     1      63.264  24.092  51.331  1.00  0.00    -0.550 OA
ATOM      9  O   UNL     1      61.456  23.704  49.980  1.00  0.00    -0.550 OA
ENDBRANCH   6   7
ENDBRANCH   5   6
ENDBRANCH   4   5
ENDBRANCH   3   4
ENDBRANCH   2   3
ENDBRANCH   1   2
BRANCH   1  10
ATOM     10  C   UNL     1      57.009  29.523  51.819  1.00  0.00     0.000 C 
BRANCH  10  11
ATOM     11  C   UNL     1      55.950  29.098  50.788  1.00  0.00    -0.000 C 
BRANCH  11  12
ATOM     12  C   UNL     1      55.411  27.682  51.043  1.00  0.00    -0.000 C 
BRANCH  12  13
ATOM     13  C   UNL     1      55.886  26.666  49.992  1.00  0.00    -0.000 C 
BRANCH  13  14
ATOM     14  C   UNL     1      57.100  25.878  50.503  1.00  0.00    -0.000 C 
BRANCH  14  15
ATOM     15  C   UNL     1      57.181  25.828  52.040  1.00  0.00    -0.000 C 
BRANCH  15  16
ATOM     16  C   UNL     1      58.557  25.429  52.602  1.00  0.00    -0.003 C 
ATOM     17  C   UNL     1      58.912  23.967  52.334  1.00  0.00     0.004 C 
ENDBRANCH  15  16
ENDBRANCH  14  15
ENDBRANCH  13  14
ENDBRANCH  12  13
ENDBRANCH  11  12
ENDBRANCH  10  11
ENDBRANCH   1  10
TORSDOF 13
ENDMDL
MODEL 7
REMARK VINA RESULT:    -3.119     11.235     12.857
REMARK INTER + INTRA:          -7.412
REMARK INTER:                  -5.196
REMARK INTRA:                  -2.215
REMARK UNBOUND:                -1.921
REMARK SMILES CCCCCCCCCCCCCCC(=O)[O-]
REMARK SMILES IDX 9 1 10 2 11 3 12 4 13 5 14 6 15 7 16 8 17 9 8 10 7 11 6 12
REMARK SMILES IDX 5 13 4 14 3 15 2 16 1 17
REMARK H PARENT
REMARK Flexibility Score: inf
ROOT
ATOM      1  C   UNL     1      57.046  26.725  51.672  1.00  0.00     0.000 C 
ENDROOT
BRANCH   1   2
ATOM      2  C   UNL     1      57.813  28.056  51.649  1.00  0.00     0.000 C 
BRANCH   2   3
ATOM      3  C   UNL     1      57.425  28.891  50.422  1.00  0.00     0.000 C 
BRANCH   3   4
ATOM      4  C   UNL     1      58.668  29.301  49.619  1.00  0.00     0.000 C 
BRANCH   4   5
ATOM      5  C   UNL     1      59.989  28.947  50.328  1.00  0.00     0.006 C 
BRANCH   5   6
ATOM      6  C   UNL     1      60.905  28.015  49.516  1.00  0.00     0.053 C 
BRANCH   6   7
ATOM      7  C   UNL     1      60.761  26.577  49.912  1.00  0.00     0.041 C 
ATOM      8  O   UNL     1      59.739  25.926  49.569  1.00  0.00    -0.550 OA
ATOM      9  O   UNL     1      61.768  25.945  50.630  1.00  0.00    -0.550 OA
ENDBRANCH   6   7
ENDBRANCH   5   6
ENDBRANCH   4   5
ENDBRANCH   3   4
ENDBRANCH   2   3
ENDBRANCH   1   2
BRANCH   1  10
ATOM     10  C   UNL     1      56.323  26.432  50.348  1.00  0.00     0.000 C 
BRANCH  10  11
ATOM     11  C   UNL     1      54.887  25.924  50.558  1.00  0.00    -0.000 C 
BRANCH  11  12
ATOM     12  C   UNL     1      53.878  26.595  49.613  1.00  0.00    -0.000 C 
BRANCH  12  13
ATOM     13  C   UNL     1      53.851  28.124  49.761  1.00  0.00    -0.000 C 
BRANCH  13  14
ATOM     14  C   UNL     1      53.325  28.531  51.145  1.00  0.00    -0.000 C 
BRANCH  14  15
ATOM     15  C   UNL     1      53.983  29.815  51.684  1.00  0.00    -0.000 C 
BRANCH  15  16
ATOM     16  C   UNL     1      54.787  29.633  52.983  1.00  0.00    -0.003 C 
ATOM     17  C   UNL     1      54.444  28.340  53.722  1.00  0.00     0.004 C 
ENDBRANCH  15  16
ENDBRANCH  14  15
ENDBRANCH  13  14
ENDBRANCH  12  13
ENDBRANCH  11  12
ENDBRANCH  10  11
ENDBRANCH   1  10
TORSDOF 13
ENDMDL
MODEL 8
REMARK VINA RESULT:    -3.098      2.764      4.144
REMARK INTER + INTRA:          -7.374
REMARK INTER:                  -5.072
REMARK INTRA:                  -2.301
REMARK UNBOUND:                -1.921
REMARK SMILES CCCCCCCCCCCCCCC(=O)[O-]
REMARK SMILES IDX 9 1 10 2 11 3 12 4 13 5 14 6 15 7 16 8 17 9 8 10 7 11 6 12
REMARK SMILES IDX 5 13 4 14 3 15 2 16 1 17
REMARK H PARENT
REMARK Flexibility Score: inf
ROOT
ATOM      1  C   UNL     1      62.557  28.781  61.129  1.00  0.00     0.000 C 
ENDROOT
BRANCH   1   2
ATOM      2  C   UNL     1      61.996  30.069  61.750  1.00  0.00     0.000 C 
BRANCH   2   3
ATOM      3  C   UNL     1      60.710  30.507  61.037  1.00  0.00     0.000 C 
BRANCH   3   4
ATOM      4  C   UNL     1      60.780  31.988  60.637  1.00  0.00     0.000 C 
BRANCH   4   5
ATOM      5  C   UNL     1      60.808  32.200  59.112  1.00  0.00     0.006 C 
BRANCH   5   6
ATOM      6  C   UNL     1      61.000  30.905  58.304  1.00  0.00     0.053 C 
BRANCH   6   7
ATOM      7  C   UNL     1      59.823  30.590  57.431  1.00  0.00     0.041 C 
ATOM      8  O   UNL     1      58.699  31.105  57.676  1.00  0.00    -0.550 OA
ATOM      9  O   UNL     1      59.972  29.759  56.329  1.00  0.00    -0.550 OA
ENDBRANCH   6   7
ENDBRANCH   5   6
ENDBRANCH   4   5
ENDBRANCH   3   4
ENDBRANCH   2   3
ENDBRANCH   1   2
BRANCH   1  10
ATOM     10  C   UNL     1      63.857  29.018  60.343  1.00  0.00     0.000 C 
BRANCH  10  11
ATOM     11  C   UNL     1      64.445  30.419  60.582  1.00  0.00    -0.000 C 
BRANCH  11  12
ATOM     12  C   UNL     1      64.742  31.167  59.272  1.00  0.00    -0.000 C 
BRANCH  12  13
ATOM     13  C   UNL     1      64.463  32.675  59.373  1.00  0.00    -0.000 C 
BRANCH  13  14
ATOM     14  C   UNL     1      64.118  33.073  60.815  1.00  0.00    -0.000 C 
BRANCH  14  15
ATOM     15  C   UNL     1      63.877  34.585  60.980  1.00  0.00    -0.000 C 
BRANCH  15  16
ATOM     16  C   UNL     1      62.920  35.203  59.945  1.00  0.00    -0.003 C 
ATOM     17  C   UNL     1      61.653  35.782  60.575  1.00  0.00     0.004 C 
ENDBRANCH  15  16
ENDBRANCH  14  15
ENDBRANCH  13  14
ENDBRANCH  12  13
ENDBRANCH  11  12
ENDBRANCH  10  11
ENDBRANCH   1  10
TORSDOF 13
ENDMDL
MODEL 9
REMARK VINA RESULT:    -3.082      1.941      3.235
REMARK INTER + INTRA:          -7.345
REMARK INTER:                  -5.223
REMARK INTRA:                  -2.123
REMARK UNBOUND:                -1.921
REMARK SMILES CCCCCCCCCCCCCCC(=O)[O-]
REMARK SMILES IDX 9 1 10 2 11 3 12 4 13 5 14 6 15 7 16 8 17 9 8 10 7 11 6 12
REMARK SMILES IDX 5 13 4 14 3 15 2 16 1 17
REMARK H PARENT
REMARK Flexibility Score: inf
ROOT
ATOM      1  C   UNL     1      62.839  32.747  58.113  1.00  0.00     0.000 C 
ENDROOT
BRANCH   1   2
ATOM      2  C   UNL     1      63.848  32.819  59.269  1.00  0.00     0.000 C 
BRANCH   2   3
ATOM      3  C   UNL     1      63.213  32.345  60.582  1.00  0.00     0.000 C 
BRANCH   3   4
ATOM      4  C   UNL     1      61.683  32.281  60.463  1.00  0.00     0.000 C 
BRANCH   4   5
ATOM      5  C   UNL     1      61.054  31.186  61.344  1.00  0.00     0.006 C 
BRANCH   5   6
ATOM      6  C   UNL     1      61.997  30.009  61.648  1.00  0.00     0.053 C 
BRANCH   6   7
ATOM      7  C   UNL     1      61.805  28.859  60.706  1.00  0.00     0.041 C 
ATOM      8  O   UNL     1      62.379  28.856  59.585  1.00  0.00    -0.550 OA
ATOM      9  O   UNL     1      61.021  27.774  61.078  1.00  0.00    -0.550 OA
ENDBRANCH   6   7
ENDBRANCH   5   6
ENDBRANCH   4   5
ENDBRANCH   3   4
ENDBRANCH   2   3
ENDBRANCH   1   2
BRANCH   1  10
ATOM     10  C   UNL     1      62.624  34.106  57.427  1.00  0.00     0.000 C 
BRANCH  10  11
ATOM     11  C   UNL     1      63.622  35.174  57.905  1.00  0.00    -0.000 C 
BRANCH  11  12
ATOM     12  C   UNL     1      62.926  36.428  58.457  1.00  0.00    -0.000 C 
BRANCH  12  13
ATOM     13  C   UNL     1      61.630  36.103  59.216  1.00  0.00    -0.000 C 
BRANCH  13  14
ATOM     14  C   UNL     1      61.915  35.852  60.704  1.00  0.00    -0.000 C 
BRANCH  14  15
ATOM     15  C   UNL     1      63.152  36.613  61.215  1.00  0.00    -0.000 C 
BRANCH  15  16
ATOM     16  C   UNL     1      64.300  35.718  61.715  1.00  0.00    -0.003 C 
ATOM     17  C   UNL     1      65.631  36.012  61.025  1.00  0.00     0.004 C 
ENDBRANCH  15  16
ENDBRANCH  14  15
ENDBRANCH  13  14
ENDBRANCH  12  13
ENDBRANCH  11  12
ENDBRANCH  10  11
ENDBRANCH   1  10
TORSDOF 13
ENDMDL
