MODEL 1
REMARK VINA RESULT:    -3.825      0.000      0.000
REMARK INTER + INTRA:          -6.993
REMARK INTER:                  -5.837
REMARK INTRA:                  -1.156
REMARK UNBOUND:                -1.156
REMARK SMILES CCCCCCCCCCC(=O)[O-]
REMARK SMILES IDX 7 1 8 2 9 3 10 4 11 5 12 6 13 7 6 8 5 9 4 10 3 11 2 12 1 13
REMARK H PARENT
REMARK Flexibility Score: inf
ROOT
ATOM      1  C   UNL     1     -35.555  80.718 -20.715  1.00  0.00     0.000 C 
ENDROOT
BRANCH   1   2
ATOM      2  C   UNL     1     -34.142  81.258 -20.430  1.00  0.00     0.000 C 
BRANCH   2   3
ATOM      3  C   UNL     1     -33.795  81.271 -18.934  1.00  0.00     0.006 C 
BRANCH   3   4
ATOM      4  C   UNL     1     -32.320  80.924 -18.712  1.00  0.00     0.053 C 
BRANCH   4   5
ATOM      5  C   UNL     1     -31.447  82.072 -19.107  1.00  0.00     0.041 C 
ATOM      6  O   UNL     1     -30.328  81.862 -19.646  1.00  0.00    -0.550 OA
ATOM      7  O   UNL     1     -31.845  83.375 -18.833  1.00  0.00    -0.550 OA
ENDBRANCH   4   5
ENDBRANCH   3   4
ENDBRANCH   2   3
ENDBRANCH   1   2
BRANCH   1   8
ATOM      8  C   UNL     1     -36.500  80.694 -19.500  1.00  0.00     0.000 C 
BRANCH   8   9
ATOM      9  C   UNL     1     -37.691  81.653 -19.647  1.00  0.00    -0.000 C 
BRANCH   9  10
ATOM     10  C   UNL     1     -37.254  83.108 -19.443  1.00  0.00    -0.000 C 
BRANCH  10  11
ATOM     11  C   UNL     1     -36.887  83.372 -17.976  1.00  0.00    -0.000 C 
BRANCH  11  12
ATOM     12  C   UNL     1     -35.738  84.382 -17.827  1.00  0.00    -0.003 C 
ATOM     13  C   UNL     1     -35.086  84.737 -19.163  1.00  0.00     0.004 C 
ENDBRANCH  11  12
ENDBRANCH  10  11
ENDBRANCH   9  10
ENDBRANCH   8   9
ENDBRANCH   1   8
TORSDOF 9
ENDMDL
MODEL 2
REMARK VINA RESULT:    -3.773     11.755     13.376
REMARK INTER + INTRA:          -6.915
REMARK INTER:                  -5.899
REMARK INTRA:                  -1.016
REMARK UNBOUND:                -1.156
REMARK SMILES CCCCCCCCCCC(=O)[O-]
REMARK SMILES IDX 7 1 8 2 9 3 10 4 11 5 12 6 13 7 6 8 5 9 4 10 3 11 2 12 1 13
REMARK H PARENT
REMARK Flexibility Score: inf
ROOT
ATOM      1  C   UNL     1     -22.035  82.813 -23.711  1.00  0.00     0.000 C 
ENDROOT
BRANCH   1   2
ATOM      2  C   UNL     1     -21.456  84.152 -23.220  1.00  0.00     0.000 C 
BRANCH   2   3
ATOM      3  C   UNL     1     -22.503  85.274 -23.167  1.00  0.00     0.006 C 
BRANCH   3   4
ATOM      4  C   UNL     1     -21.905  86.604 -23.633  1.00  0.00     0.053 C 
BRANCH   4   5
ATOM      5  C   UNL     1     -22.908  87.381 -24.425  1.00  0.00     0.041 C 
ATOM      6  O   UNL     1     -22.627  88.534 -24.848  1.00  0.00    -0.550 OA
ATOM      7  O   UNL     1     -24.173  86.854 -24.653  1.00  0.00    -0.550 OA
ENDBRANCH   4   5
ENDBRANCH   3   4
ENDBRANCH   2   3
ENDBRANCH   1   2
BRANCH   1   8
ATOM      8  C   UNL     1     -21.363  81.559 -23.122  1.00  0.00     0.000 C 
BRANCH   8   9
ATOM      9  C   UNL     1     -21.725  81.321 -21.649  1.00  0.00    -0.000 C 
BRANCH   9  10
ATOM     10  C   UNL     1     -23.207  81.619 -21.390  1.00  0.00    -0.000 C 
BRANCH  10  11
ATOM     11  C   UNL     1     -23.374  82.626 -20.243  1.00  0.00    -0.000 C 
BRANCH  11  12
ATOM     12  C   UNL     1     -22.030  83.059 -19.638  1.00  0.00    -0.003 C 
ATOM     13  C   UNL     1     -21.885  84.578 -19.546  1.00  0.00     0.004 C 
ENDBRANCH  11  12
ENDBRANCH  10  11
ENDBRANCH   9  10
ENDBRANCH   8   9
ENDBRANCH   1   8
TORSDOF 9
ENDMDL
MODEL 3
REMARK VINA RESULT:    -3.736     17.636     19.394
REMARK INTER + INTRA:          -6.858
REMARK INTER:                  -5.862
REMARK INTRA:                  -0.996
REMARK UNBOUND:                -1.156
REMARK SMILES CCCCCCCCCCC(=O)[O-]
REMARK SMILES IDX 7 1 8 2 9 3 10 4 11 5 12 6 13 7 6 8 5 9 4 10 3 11 2 12 1 13
REMARK H PARENT
REMARK Flexibility Score: inf
ROOT
ATOM      1  C   UNL     1     -24.406  96.328 -30.005  1.00  0.00     0.000 C 
ENDROOT
BRANCH   1   2
ATOM      2  C   UNL     1     -25.281  95.164 -29.506  1.00  0.00     0.000 C 
BRANCH   2   3
ATOM      3  C   UNL     1     -24.832  94.616 -28.144  1.00  0.00     0.006 C 
BRANCH   3   4
ATOM      4  C   UNL     1     -25.878  93.657 -27.567  1.00  0.00     0.053 C 
BRANCH   4   5
ATOM      5  C   UNL     1     -26.850  94.399 -26.706  1.00  0.00     0.041 C 
ATOM      6  O   UNL     1     -28.089  94.217 -26.847  1.00  0.00    -0.550 OA
ATOM      7  O   UNL     1     -26.392  95.328 -25.781  1.00  0.00    -0.550 OA
ENDBRANCH   4   5
ENDBRANCH   3   4
ENDBRANCH   2   3
ENDBRANCH   1   2
BRANCH   1   8
ATOM      8  C   UNL     1     -23.336  95.941 -31.041  1.00  0.00     0.000 C 
BRANCH   8   9
ATOM      9  C   UNL     1     -23.874  95.922 -32.480  1.00  0.00    -0.000 C 
BRANCH   9  10
ATOM     10  C   UNL     1     -23.860  94.501 -33.055  1.00  0.00    -0.000 C 
BRANCH  10  11
ATOM     11  C   UNL     1     -23.065  93.549 -32.151  1.00  0.00    -0.000 C 
BRANCH  11  12
ATOM     12  C   UNL     1     -23.911  92.373 -31.641  1.00  0.00    -0.003 C 
ATOM     13  C   UNL     1     -23.362  91.763 -30.352  1.00  0.00     0.004 C 
ENDBRANCH  11  12
ENDBRANCH  10  11
ENDBRANCH   9  10
ENDBRANCH   8   9
ENDBRANCH   1   8
TORSDOF 9
ENDMDL
MODEL 4
REMARK VINA RESULT:    -3.731      1.269      2.299
REMARK INTER + INTRA:          -6.851
REMARK INTER:                  -5.733
REMARK INTRA:                  -1.118
REMARK UNBOUND:                -1.156
REMARK SMILES CCCCCCCCCCC(=O)[O-]
REMARK SMILES IDX 7 1 8 2 9 3 10 4 11 5 12 6 13 7 6 8 5 9 4 10 3 11 2 12 1 13
REMARK H PARENT
REMARK Flexibility Score: inf
ROOT
ATOM      1  C   UNL     1     -34.950  82.154 -20.852  1.00  0.00     0.000 C 
ENDROOT
BRANCH   1   2
ATOM      2  C   UNL     1     -33.989  81.034 -20.414  1.00  0.00     0.000 C 
BRANCH   2   3
ATOM      3  C   UNL     1     -33.519  81.180 -18.960  1.00  0.00     0.006 C 
BRANCH   3   4
ATOM      4  C   UNL     1     -32.022  80.885 -18.836  1.00  0.00     0.053 C 
BRANCH   4   5
ATOM      5  C   UNL     1     -31.218  82.090 -19.205  1.00  0.00     0.041 C 
ATOM      6  O   UNL     1     -31.544  83.228 -18.773  1.00  0.00    -0.550 OA
ATOM      7  O   UNL     1     -30.135  81.966 -20.067  1.00  0.00    -0.550 OA
ENDBRANCH   4   5
ENDBRANCH   3   4
ENDBRANCH   2   3
ENDBRANCH   1   2
BRANCH   1   8
ATOM      8  C   UNL     1     -34.366  83.576 -20.787  1.00  0.00     0.000 C 
BRANCH   8   9
ATOM      9  C   UNL     1     -35.288  84.572 -20.068  1.00  0.00    -0.000 C 
BRANCH   9  10
ATOM     10  C   UNL     1     -34.715  84.967 -18.702  1.00  0.00    -0.000 C 
BRANCH  10  11
ATOM     11  C   UNL     1     -35.765  84.799 -17.595  1.00  0.00    -0.000 C 
BRANCH  11  12
ATOM     12  C   UNL     1     -36.776  83.684 -17.904  1.00  0.00    -0.003 C 
ATOM     13  C   UNL     1     -36.388  82.344 -17.279  1.00  0.00     0.004 C 
ENDBRANCH  11  12
ENDBRANCH  10  11
ENDBRANCH   9  10
ENDBRANCH   8   9
ENDBRANCH   1   8
TORSDOF 9
ENDMDL
MODEL 5
REMARK VINA RESULT:    -3.663     16.643     18.543
REMARK INTER + INTRA:          -6.746
REMARK INTER:                  -6.143
REMARK INTRA:                  -0.604
REMARK UNBOUND:                -1.156
REMARK SMILES CCCCCCCCCCC(=O)[O-]
REMARK SMILES IDX 7 1 8 2 9 3 10 4 11 5 12 6 13 7 6 8 5 9 4 10 3 11 2 12 1 13
REMARK H PARENT
REMARK Flexibility Score: inf
ROOT
ATOM      1  C   UNL     1     -24.895  94.936 -30.606  1.00  0.00     0.000 C 
ENDROOT
BRANCH   1   2
ATOM      2  C   UNL     1     -24.352  96.008 -29.644  1.00  0.00     0.000 C 
BRANCH   2   3
ATOM      3  C   UNL     1     -25.122  96.068 -28.317  1.00  0.00     0.006 C 
BRANCH   3   4
ATOM      4  C   UNL     1     -25.551  94.669 -27.868  1.00  0.00     0.053 C 
BRANCH   4   5
ATOM      5  C   UNL     1     -26.575  94.758 -26.782  1.00  0.00     0.041 C 
ATOM      6  O   UNL     1     -26.316  95.373 -25.713  1.00  0.00    -0.550 OA
ATOM      7  O   UNL     1     -27.801  94.119 -26.927  1.00  0.00    -0.550 OA
ENDBRANCH   4   5
ENDBRANCH   3   4
ENDBRANCH   2   3
ENDBRANCH   1   2
BRANCH   1   8
ATOM      8  C   UNL     1     -23.843  93.951 -31.145  1.00  0.00     0.000 C 
BRANCH   8   9
ATOM      9  C   UNL     1     -24.251  92.481 -30.969  1.00  0.00    -0.000 C 
BRANCH   9  10
ATOM     10  C   UNL     1     -23.099  91.541 -31.347  1.00  0.00    -0.000 C 
BRANCH  10  11
ATOM     11  C   UNL     1     -22.542  90.828 -30.107  1.00  0.00    -0.000 C 
BRANCH  11  12
ATOM     12  C   UNL     1     -23.631  90.500 -29.074  1.00  0.00    -0.003 C 
ATOM     13  C   UNL     1     -23.335  91.087 -27.695  1.00  0.00     0.004 C 
ENDBRANCH  11  12
ENDBRANCH  10  11
ENDBRANCH   9  10
ENDBRANCH   8   9
ENDBRANCH   1   8
TORSDOF 9
ENDMDL
MODEL 6
REMARK VINA RESULT:    -3.629      2.023      4.810
REMARK INTER + INTRA:          -6.695
REMARK INTER:                  -5.875
REMARK INTRA:                  -0.820
REMARK UNBOUND:                -1.156
REMARK SMILES CCCCCCCCCCC(=O)[O-]
REMARK SMILES IDX 7 1 8 2 9 3 10 4 11 5 12 6 13 7 6 8 5 9 4 10 3 11 2 12 1 13
REMARK H PARENT
REMARK Flexibility Score: inf
ROOT
ATOM      1  C   UNL     1     -35.954  81.076 -19.339  1.00  0.00     0.000 C 
ENDROOT
BRANCH   1   2
ATOM      2  C   UNL     1     -36.285  81.902 -18.083  1.00  0.00     0.000 C 
BRANCH   2   3
ATOM      3  C   UNL     1     -36.925  83.259 -18.409  1.00  0.00     0.006 C 
BRANCH   3   4
ATOM      4  C   UNL     1     -36.233  84.389 -17.641  1.00  0.00     0.053 C 
BRANCH   4   5
ATOM      5  C   UNL     1     -35.039  84.881 -18.395  1.00  0.00     0.041 C 
ATOM      6  O   UNL     1     -34.107  85.475 -17.791  1.00  0.00    -0.550 OA
ATOM      7  O   UNL     1     -34.977  84.727 -19.775  1.00  0.00    -0.550 OA
ENDBRANCH   4   5
ENDBRANCH   3   4
ENDBRANCH   2   3
ENDBRANCH   1   2
BRANCH   1   8
ATOM      8  C   UNL     1     -34.517  81.236 -19.864  1.00  0.00     0.000 C 
BRANCH   8   9
ATOM      9  C   UNL     1     -33.496  81.496 -18.746  1.00  0.00    -0.000 C 
BRANCH   9  10
ATOM     10  C   UNL     1     -32.406  80.416 -18.733  1.00  0.00    -0.000 C 
BRANCH  10  11
ATOM     11  C   UNL     1     -31.993  80.035 -20.161  1.00  0.00    -0.000 C 
BRANCH  11  12
ATOM     12  C   UNL     1     -30.492  80.240 -20.417  1.00  0.00    -0.003 C 
ATOM     13  C   UNL     1     -30.080  81.711 -20.372  1.00  0.00     0.004 C 
ENDBRANCH  11  12
ENDBRANCH  10  11
ENDBRANCH   9  10
ENDBRANCH   8   9
ENDBRANCH   1   8
TORSDOF 9
ENDMDL
MODEL 7
REMARK VINA RESULT:    -3.615     16.926     18.667
REMARK INTER + INTRA:          -6.674
REMARK INTER:                  -5.708
REMARK INTRA:                  -0.966
REMARK UNBOUND:                -1.156
REMARK SMILES CCCCCCCCCCC(=O)[O-]
REMARK SMILES IDX 7 1 8 2 9 3 10 4 11 5 12 6 13 7 6 8 5 9 4 10 3 11 2 12 1 13
REMARK H PARENT
REMARK Flexibility Score: inf
ROOT
ATOM      1  C   UNL     1     -23.649  91.595 -28.497  1.00  0.00     0.000 C 
ENDROOT
BRANCH   1   2
ATOM      2  C   UNL     1     -24.084  93.041 -28.197  1.00  0.00     0.000 C 
BRANCH   2   3
ATOM      3  C   UNL     1     -25.521  93.341 -28.646  1.00  0.00     0.006 C 
BRANCH   3   4
ATOM      4  C   UNL     1     -25.962  94.731 -28.180  1.00  0.00     0.053 C 
BRANCH   4   5
ATOM      5  C   UNL     1     -26.775  94.631 -26.929  1.00  0.00     0.041 C 
ATOM      6  O   UNL     1     -27.897  94.058 -26.946  1.00  0.00    -0.550 OA
ATOM      7  O   UNL     1     -26.318  95.215 -25.754  1.00  0.00    -0.550 OA
ENDBRANCH   4   5
ENDBRANCH   3   4
ENDBRANCH   2   3
ENDBRANCH   1   2
BRANCH   1   8
ATOM      8  C   UNL     1     -23.982  91.096 -29.914  1.00  0.00     0.000 C 
BRANCH   8   9
ATOM      9  C   UNL     1     -23.050  91.675 -30.989  1.00  0.00    -0.000 C 
BRANCH   9  10
ATOM     10  C   UNL     1     -23.802  92.649 -31.903  1.00  0.00    -0.000 C 
BRANCH  10  11
ATOM     11  C   UNL     1     -22.929  93.863 -32.251  1.00  0.00    -0.000 C 
BRANCH  11  12
ATOM     12  C   UNL     1     -23.700  95.189 -32.168  1.00  0.00    -0.003 C 
ATOM     13  C   UNL     1     -23.557  95.873 -30.809  1.00  0.00     0.004 C 
ENDBRANCH  11  12
ENDBRANCH  10  11
ENDBRANCH   9  10
ENDBRANCH   8   9
ENDBRANCH   1   8
TORSDOF 9
ENDMDL
MODEL 8
REMARK VINA RESULT:    -3.590      1.603      2.010
REMARK INTER + INTRA:          -6.635
REMARK INTER:                  -5.463
REMARK INTRA:                  -1.172
REMARK UNBOUND:                -1.156
REMARK SMILES CCCCCCCCCCC(=O)[O-]
REMARK SMILES IDX 7 1 8 2 9 3 10 4 11 5 12 6 13 7 6 8 5 9 4 10 3 11 2 12 1 13
REMARK H PARENT
REMARK Flexibility Score: inf
ROOT
ATOM      1  C   UNL     1     -35.452  82.109 -21.245  1.00  0.00     0.000 C 
ENDROOT
BRANCH   1   2
ATOM      2  C   UNL     1     -34.479  83.290 -21.077  1.00  0.00     0.000 C 
BRANCH   2   3
ATOM      3  C   UNL     1     -33.021  82.846 -20.897  1.00  0.00     0.006 C 
BRANCH   3   4
ATOM      4  C   UNL     1     -32.694  82.625 -19.418  1.00  0.00     0.053 C 
BRANCH   4   5
ATOM      5  C   UNL     1     -32.605  81.163 -19.113  1.00  0.00     0.041 C 
ATOM      6  O   UNL     1     -33.294  80.666 -18.183  1.00  0.00    -0.550 OA
ATOM      7  O   UNL     1     -31.725  80.357 -19.824  1.00  0.00    -0.550 OA
ENDBRANCH   4   5
ENDBRANCH   3   4
ENDBRANCH   2   3
ENDBRANCH   1   2
BRANCH   1   8
ATOM      8  C   UNL     1     -36.750  82.213 -20.426  1.00  0.00     0.000 C 
BRANCH   8   9
ATOM      9  C   UNL     1     -36.697  81.417 -19.113  1.00  0.00    -0.000 C 
BRANCH   9  10
ATOM     10  C   UNL     1     -36.268  82.311 -17.943  1.00  0.00    -0.000 C 
BRANCH  10  11
ATOM     11  C   UNL     1     -36.900  83.705 -18.056  1.00  0.00    -0.000 C 
BRANCH  11  12
ATOM     12  C   UNL     1     -36.096  84.781 -17.310  1.00  0.00    -0.003 C 
ATOM     13  C   UNL     1     -34.863  85.242 -18.086  1.00  0.00     0.004 C 
ENDBRANCH  11  12
ENDBRANCH  10  11
ENDBRANCH   9  10
ENDBRANCH   8   9
ENDBRANCH   1   8
TORSDOF 9
ENDMDL
MODEL 9
REMARK VINA RESULT:    -3.587      1.356      3.040
REMARK INTER + INTRA:          -6.630
REMARK INTER:                  -5.485
REMARK INTRA:                  -1.145
REMARK UNBOUND:                -1.156
REMARK SMILES CCCCCCCCCCC(=O)[O-]
REMARK SMILES IDX 7 1 8 2 9 3 10 4 11 5 12 6 13 7 6 8 5 9 4 10 3 11 2 12 1 13
REMARK H PARENT
REMARK Flexibility Score: inf
ROOT
ATOM      1  C   UNL     1     -35.013  84.710 -19.835  1.00  0.00     0.000 C 
ENDROOT
BRANCH   1   2
ATOM      2  C   UNL     1     -34.201  83.545 -20.430  1.00  0.00     0.000 C 
BRANCH   2   3
ATOM      3  C   UNL     1     -33.153  82.986 -19.458  1.00  0.00     0.006 C 
BRANCH   3   4
ATOM      4  C   UNL     1     -33.419  81.508 -19.157  1.00  0.00     0.053 C 
BRANCH   4   5
ATOM      5  C   UNL     1     -32.149  80.721 -19.234  1.00  0.00     0.041 C 
ATOM      6  O   UNL     1     -31.892  79.845 -18.366  1.00  0.00    -0.550 OA
ATOM      7  O   UNL     1     -31.225  80.989 -20.237  1.00  0.00    -0.550 OA
ENDBRANCH   4   5
ENDBRANCH   3   4
ENDBRANCH   2   3
ENDBRANCH   1   2
BRANCH   1   8
ATOM      8  C   UNL     1     -34.954  84.828 -18.301  1.00  0.00     0.000 C 
BRANCH   8   9
ATOM      9  C   UNL     1     -36.263  84.407 -17.616  1.00  0.00    -0.000 C 
BRANCH   9  10
ATOM     10  C   UNL     1     -36.442  82.884 -17.660  1.00  0.00    -0.000 C 
BRANCH  10  11
ATOM     11  C   UNL     1     -37.491  82.484 -18.708  1.00  0.00    -0.000 C 
BRANCH  11  12
ATOM     12  C   UNL     1     -37.137  81.174 -19.427  1.00  0.00    -0.003 C 
ATOM     13  C   UNL     1     -37.108  81.322 -20.947  1.00  0.00     0.004 C 
ENDBRANCH  11  12
ENDBRANCH  10  11
ENDBRANCH   9  10
ENDBRANCH   8   9
ENDBRANCH   1   8
TORSDOF 9
ENDMDL
