MODEL 1
REMARK VINA RESULT:    -3.689      0.000      0.000
REMARK INTER + INTRA:          -4.216
REMARK INTER:                  -4.013
REMARK INTRA:                  -0.203
REMARK UNBOUND:                -0.203
REMARK SMILES CC1=CCC[C@@]2(C)CC[C@H](C(C)(C)O)C[C@H]12
REMARK SMILES IDX 11 1 12 2 13 3 10 4 1 5 2 6 3 7 16 8 4 9 6 10 15 11 5 12
REMARK SMILES IDX 7 13 8 14 9 15 14 16
REMARK H PARENT 14 17
REMARK Flexibility Score: inf
ROOT
ATOM      1  C   UNL     1       2.967  47.128  47.570  1.00  0.00     0.062 C 
ATOM      2  C   UNL     1       2.269  48.125  46.613  1.00  0.00     0.042 C 
ATOM      3  C   UNL     1       4.350  47.716  47.946  1.00  0.00     0.042 C 
ENDROOT
BRANCH   1   4
ATOM      4  C   UNL     1       2.094  46.889  48.857  1.00  0.00     0.021 C 
ATOM      5  C   UNL     1       2.129  42.628  50.576  1.00  0.00     0.039 C 
ATOM      6  C   UNL     1       1.074  43.652  50.932  1.00  0.00    -0.074 C 
ATOM      7  C   UNL     1       0.093  43.252  51.774  1.00  0.00    -0.028 C 
ATOM      8  C   UNL     1       1.126  45.113  50.469  1.00  0.00     0.021 C 
ATOM      9  C   UNL     1      -1.125  44.081  52.109  1.00  0.00     0.028 C 
ATOM     10  C   UNL     1      -0.308  45.683  50.267  1.00  0.00    -0.026 C 
ATOM     11  C   UNL     1       2.036  45.385  49.246  1.00  0.00     0.015 C 
ATOM     12  C   UNL     1      -1.057  45.536  51.616  1.00  0.00     0.011 C 
ATOM     13  C   UNL     1      -1.093  44.937  49.150  1.00  0.00     0.012 C 
ATOM     14  C   UNL     1      -0.213  47.190  49.924  1.00  0.00     0.008 C 
ATOM     15  C   UNL     1       0.668  47.471  48.701  1.00  0.00     0.007 C 
ENDBRANCH   1   4
BRANCH   1  16
ATOM     16  O   UNL     1       3.150  45.897  46.908  1.00  0.00    -0.390 OA
ATOM     17  H   UNL     1       4.119  45.679  46.924  1.00  0.00     0.211 HD
ENDBRANCH   1  16
TORSDOF 2
ENDMDL
