MODEL 1
REMARK VINA RESULT:    -6.731      0.000      0.000
REMARK INTER + INTRA:         -11.582
REMARK INTER:                  -9.878
REMARK INTRA:                  -1.704
REMARK UNBOUND:                -1.704
REMARK SMILES O=c1c(O[C@H]2O[C@H](CO)[C@H](O)[C@@H](O)[C@H]2O)c(-c2ccc(O)c(O)c2)oc2cc(O)cc(O)c12
REMARK SMILES IDX 4 1 3 2 16 3 25 4 2 5 26 6 1 7 33 8 27 9 31 10 28 11 30 12
REMARK SMILES IDX 17 13 18 14 19 15 20 16 24 17 22 18 21 19 23 21 32 23 29 25
REMARK SMILES IDX 5 27 14 28 6 29 12 30 7 31 10 32 15 33 13 35 8 37 9 38 11 40
REMARK H PARENT 21 20 23 22 32 24 29 26 15 34 13 36 9 39 11 41
REMARK Flexibility Score: inf
ROOT
ATOM      1  O   UNL     1     -37.082   4.586  81.482  1.00  0.00    -0.454 OA
ENDROOT
BRANCH   1   2
ATOM      2  C   UNL     1     -36.451   5.454  80.575  1.00  0.00     0.214 A 
ATOM      3  C   UNL     1     -36.929   5.553  79.256  1.00  0.00     0.180 A 
ATOM      4  O   UNL     1     -36.415   6.458  78.432  1.00  0.00    -0.452 OA
ATOM      5  C   UNL     1     -35.344   6.238  80.951  1.00  0.00     0.239 A 
ATOM      6  C   UNL     1     -35.407   7.257  78.760  1.00  0.00     0.146 A 
ATOM      7  O   UNL     1     -34.871   6.105  82.109  1.00  0.00    -0.285 OA
ATOM      8  C   UNL     1     -34.782   7.157  80.031  1.00  0.00     0.111 A 
ATOM      9  C   UNL     1     -34.974   8.200  77.826  1.00  0.00     0.094 A 
ATOM     10  C   UNL     1     -33.665   8.005  80.306  1.00  0.00     0.134 A 
ATOM     11  C   UNL     1     -33.924   9.063  78.128  1.00  0.00     0.123 A 
ATOM     12  C   UNL     1     -33.278   8.963  79.361  1.00  0.00     0.093 A 
BRANCH   3  13
ATOM     13  C   UNL     1     -38.025   4.699  78.757  1.00  0.00     0.025 A 
ATOM     14  C   UNL     1     -39.278   5.268  78.480  1.00  0.00     0.016 A 
ATOM     15  C   UNL     1     -40.334   4.468  78.037  1.00  0.00     0.051 A 
ATOM     16  C   UNL     1     -40.147   3.092  77.848  1.00  0.00     0.157 A 
ATOM     17  C   UNL     1     -37.833   3.323  78.540  1.00  0.00     0.062 A 
ATOM     18  C   UNL     1     -38.889   2.519  78.096  1.00  0.00     0.158 A 
BRANCH  16  19
ATOM     19  O   UNL     1     -41.205   2.295  77.412  1.00  0.00    -0.504 OA
ATOM     20  H   UNL     1     -42.108   2.693  77.178  1.00  0.00     0.293 HD
ENDBRANCH  16  19
BRANCH  18  21
ATOM     21  O   UNL     1     -38.667   1.154  77.910  1.00  0.00    -0.504 OA
ATOM     22  H   UNL     1     -38.896   0.472  78.621  1.00  0.00     0.293 HD
ENDBRANCH  18  21
ENDBRANCH   3  13
BRANCH  10  23
ATOM     23  O   UNL     1     -32.896   7.934  81.471  1.00  0.00    -0.507 OA
ATOM     24  H   UNL     1     -33.169   7.463  82.319  1.00  0.00     0.293 HD
ENDBRANCH  10  23
BRANCH  11  25
ATOM     25  O   UNL     1     -33.525  10.014  77.190  1.00  0.00    -0.508 OA
ATOM     26  H   UNL     1     -32.557  10.302  77.107  1.00  0.00     0.293 HD
ENDBRANCH  11  25
ENDBRANCH   1   2
BRANCH   1  27
ATOM     27  C   UNL     1     -37.929   5.035  82.550  1.00  0.00     0.339 C 
ATOM     28  C   UNL     1     -37.723   4.187  83.822  1.00  0.00     0.214 C 
ATOM     29  O   UNL     1     -39.292   5.063  82.148  1.00  0.00    -0.332 OA
ATOM     30  C   UNL     1     -38.328   2.776  83.668  1.00  0.00     0.180 C 
ATOM     31  C   UNL     1     -39.782   3.760  81.867  1.00  0.00     0.179 C 
ATOM     32  C   UNL     1     -39.768   2.882  83.139  1.00  0.00     0.177 C 
BRANCH  28  33
ATOM     33  O   UNL     1     -36.353   4.113  84.124  1.00  0.00    -0.384 OA
ATOM     34  H   UNL     1     -36.129   3.150  84.202  1.00  0.00     0.211 HD
ENDBRANCH  28  33
BRANCH  30  35
ATOM     35  O   UNL     1     -37.562   2.000  82.781  1.00  0.00    -0.387 OA
ATOM     36  H   UNL     1     -37.233   1.214  83.293  1.00  0.00     0.211 HD
ENDBRANCH  30  35
BRANCH  31  37
ATOM     37  C   UNL     1     -41.190   3.881  81.274  1.00  0.00     0.191 C 
BRANCH  37  38
ATOM     38  O   UNL     1     -41.857   2.651  81.357  1.00  0.00    -0.394 OA
ATOM     39  H   UNL     1     -41.899   2.297  80.432  1.00  0.00     0.210 HD
ENDBRANCH  37  38
ENDBRANCH  31  37
BRANCH  32  40
ATOM     40  O   UNL     1     -40.600   3.450  84.120  1.00  0.00    -0.387 OA
ATOM     41  H   UNL     1     -41.372   3.853  83.643  1.00  0.00     0.211 HD
ENDBRANCH  32  40
ENDBRANCH   1  27
TORSDOF 12
ENDMDL
MODEL 2
REMARK VINA RESULT:    -6.618      1.893      6.655
REMARK INTER + INTRA:         -11.418
REMARK INTER:                  -9.563
REMARK INTRA:                  -1.855
REMARK UNBOUND:                -1.704
REMARK SMILES O=c1c(O[C@H]2O[C@H](CO)[C@H](O)[C@@H](O)[C@H]2O)c(-c2ccc(O)c(O)c2)oc2cc(O)cc(O)c12
REMARK SMILES IDX 4 1 3 2 16 3 25 4 2 5 26 6 1 7 33 8 27 9 31 10 28 11 30 12
REMARK SMILES IDX 17 13 18 14 19 15 20 16 24 17 22 18 21 19 23 21 32 23 29 25
REMARK SMILES IDX 5 27 14 28 6 29 12 30 7 31 10 32 15 33 13 35 8 37 9 38 11 40
REMARK H PARENT 21 20 23 22 32 24 29 26 15 34 13 36 9 39 11 41
REMARK Flexibility Score: inf
ROOT
ATOM      1  O   UNL     1     -37.934   5.668  81.340  1.00  0.00    -0.454 OA
ENDROOT
BRANCH   1   2
ATOM      2  C   UNL     1     -38.786   5.120  80.365  1.00  0.00     0.214 A 
ATOM      3  C   UNL     1     -38.385   5.101  79.018  1.00  0.00     0.180 A 
ATOM      4  O   UNL     1     -39.131   4.478  78.114  1.00  0.00    -0.452 OA
ATOM      5  C   UNL     1     -40.042   4.581  80.703  1.00  0.00     0.239 A 
ATOM      6  C   UNL     1     -40.295   3.907  78.395  1.00  0.00     0.146 A 
ATOM      7  O   UNL     1     -40.434   4.655  81.895  1.00  0.00    -0.285 OA
ATOM      8  C   UNL     1     -40.840   3.970  79.704  1.00  0.00     0.111 A 
ATOM      9  C   UNL     1     -40.976   3.244  77.372  1.00  0.00     0.094 A 
ATOM     10  C   UNL     1     -42.125   3.387  79.933  1.00  0.00     0.134 A 
ATOM     11  C   UNL     1     -42.199   2.626  77.620  1.00  0.00     0.123 A 
ATOM     12  C   UNL     1     -42.764   2.698  78.895  1.00  0.00     0.093 A 
BRANCH   3  13
ATOM     13  C   UNL     1     -37.125   5.728  78.570  1.00  0.00     0.025 A 
ATOM     14  C   UNL     1     -35.953   4.959  78.500  1.00  0.00     0.016 A 
ATOM     15  C   UNL     1     -34.747   5.545  78.107  1.00  0.00     0.051 A 
ATOM     16  C   UNL     1     -34.700   6.902  77.763  1.00  0.00     0.157 A 
ATOM     17  C   UNL     1     -37.081   7.083  78.198  1.00  0.00     0.062 A 
ATOM     18  C   UNL     1     -35.874   7.673  77.804  1.00  0.00     0.158 A 
BRANCH  16  19
ATOM     19  O   UNL     1     -33.493   7.486  77.378  1.00  0.00    -0.504 OA
ATOM     20  H   UNL     1     -32.606   7.163  77.748  1.00  0.00     0.293 HD
ENDBRANCH  16  19
BRANCH  18  21
ATOM     21  O   UNL     1     -35.862   9.025  77.460  1.00  0.00    -0.504 OA
ATOM     22  H   UNL     1     -35.011   9.503  77.193  1.00  0.00     0.293 HD
ENDBRANCH  18  21
ENDBRANCH   3  13
BRANCH  10  23
ATOM     23  O   UNL     1     -42.819   3.471  81.143  1.00  0.00    -0.507 OA
ATOM     24  H   UNL     1     -43.655   4.013  81.295  1.00  0.00     0.293 HD
ENDBRANCH  10  23
BRANCH  11  25
ATOM     25  O   UNL     1     -42.848   1.947  76.591  1.00  0.00    -0.508 OA
ATOM     26  H   UNL     1     -42.356   1.287  75.999  1.00  0.00     0.293 HD
ENDBRANCH  11  25
ENDBRANCH   1   2
BRANCH   1  27
ATOM     27  C   UNL     1     -36.989   4.893  82.092  1.00  0.00     0.339 C 
ATOM     28  C   UNL     1     -37.180   5.097  83.609  1.00  0.00     0.214 C 
ATOM     29  O   UNL     1     -35.657   5.171  81.684  1.00  0.00    -0.332 OA
ATOM     30  C   UNL     1     -36.697   6.492  84.059  1.00  0.00     0.180 C 
ATOM     31  C   UNL     1     -35.287   6.510  81.976  1.00  0.00     0.179 C 
ATOM     32  C   UNL     1     -35.289   6.760  83.501  1.00  0.00     0.177 C 
BRANCH  28  33
ATOM     33  O   UNL     1     -38.529   4.903  83.946  1.00  0.00    -0.384 OA
ATOM     34  H   UNL     1     -38.766   5.611  84.600  1.00  0.00     0.211 HD
ENDBRANCH  28  33
BRANCH  30  35
ATOM     35  O   UNL     1     -37.575   7.493  83.609  1.00  0.00    -0.387 OA
ATOM     36  H   UNL     1     -37.733   7.328  82.642  1.00  0.00     0.211 HD
ENDBRANCH  30  35
BRANCH  31  37
ATOM     37  C   UNL     1     -33.914   6.789  81.355  1.00  0.00     0.191 C 
BRANCH  37  38
ATOM     38  O   UNL     1     -33.172   7.641  82.186  1.00  0.00    -0.394 OA
ATOM     39  H   UNL     1     -32.229   7.339  82.117  1.00  0.00     0.210 HD
ENDBRANCH  37  38
ENDBRANCH  31  37
BRANCH  32  40
ATOM     40  O   UNL     1     -34.355   5.914  84.125  1.00  0.00    -0.387 OA
ATOM     41  H   UNL     1     -33.589   6.484  84.398  1.00  0.00     0.211 HD
ENDBRANCH  32  40
ENDBRANCH   1  27
TORSDOF 12
ENDMDL
MODEL 3
REMARK VINA RESULT:    -6.190      2.166      3.756
REMARK INTER + INTRA:         -10.789
REMARK INTER:                  -9.614
REMARK INTRA:                  -1.174
REMARK UNBOUND:                -1.704
REMARK SMILES O=c1c(O[C@H]2O[C@H](CO)[C@H](O)[C@@H](O)[C@H]2O)c(-c2ccc(O)c(O)c2)oc2cc(O)cc(O)c12
REMARK SMILES IDX 4 1 3 2 16 3 25 4 2 5 26 6 1 7 33 8 27 9 31 10 28 11 30 12
REMARK SMILES IDX 17 13 18 14 19 15 20 16 24 17 22 18 21 19 23 21 32 23 29 25
REMARK SMILES IDX 5 27 14 28 6 29 12 30 7 31 10 32 15 33 13 35 8 37 9 38 11 40
REMARK H PARENT 21 20 23 22 32 24 29 26 15 34 13 36 9 39 11 41
REMARK Flexibility Score: inf
ROOT
ATOM      1  O   UNL     1     -38.312   5.062  80.703  1.00  0.00    -0.454 OA
ENDROOT
BRANCH   1   2
ATOM      2  C   UNL     1     -38.284   5.840  79.532  1.00  0.00     0.214 A 
ATOM      3  C   UNL     1     -39.204   5.582  78.501  1.00  0.00     0.180 A 
ATOM      4  O   UNL     1     -39.262   6.388  77.448  1.00  0.00    -0.452 OA
ATOM      5  C   UNL     1     -37.353   6.881  79.360  1.00  0.00     0.239 A 
ATOM      6  C   UNL     1     -38.441   7.416  77.269  1.00  0.00     0.146 A 
ATOM      7  O   UNL     1     -36.485   7.073  80.250  1.00  0.00    -0.285 OA
ATOM      8  C   UNL     1     -37.404   7.691  78.199  1.00  0.00     0.111 A 
ATOM      9  C   UNL     1     -38.619   8.222  76.143  1.00  0.00     0.094 A 
ATOM     10  C   UNL     1     -36.516   8.777  77.923  1.00  0.00     0.134 A 
ATOM     11  C   UNL     1     -37.786   9.315  75.916  1.00  0.00     0.123 A 
ATOM     12  C   UNL     1     -36.744   9.587  76.804  1.00  0.00     0.093 A 
BRANCH   3  13
ATOM     13  C   UNL     1     -40.151   4.450  78.564  1.00  0.00     0.025 A 
ATOM     14  C   UNL     1     -39.964   3.341  77.725  1.00  0.00     0.016 A 
ATOM     15  C   UNL     1     -40.869   2.276  77.751  1.00  0.00     0.051 A 
ATOM     16  C   UNL     1     -41.961   2.299  78.628  1.00  0.00     0.157 A 
ATOM     17  C   UNL     1     -41.233   4.458  79.462  1.00  0.00     0.062 A 
ATOM     18  C   UNL     1     -42.141   3.393  79.491  1.00  0.00     0.158 A 
BRANCH  16  19
ATOM     19  O   UNL     1     -42.866   1.238  78.647  1.00  0.00    -0.504 OA
ATOM     20  H   UNL     1     -43.793   1.338  79.046  1.00  0.00     0.293 HD
ENDBRANCH  16  19
BRANCH  18  21
ATOM     21  O   UNL     1     -43.213   3.442  80.382  1.00  0.00    -0.504 OA
ATOM     22  H   UNL     1     -43.106   3.220  81.363  1.00  0.00     0.293 HD
ENDBRANCH  18  21
ENDBRANCH   3  13
BRANCH  10  23
ATOM     23  O   UNL     1     -35.395   9.087  78.697  1.00  0.00    -0.507 OA
ATOM     24  H   UNL     1     -34.701   8.424  79.005  1.00  0.00     0.293 HD
ENDBRANCH  10  23
BRANCH  11  25
ATOM     25  O   UNL     1     -37.998  10.121  74.799  1.00  0.00    -0.508 OA
ATOM     26  H   UNL     1     -38.913  10.504  74.589  1.00  0.00     0.293 HD
ENDBRANCH  11  25
ENDBRANCH   1   2
BRANCH   1  27
ATOM     27  C   UNL     1     -37.570   3.844  80.863  1.00  0.00     0.339 C 
ATOM     28  C   UNL     1     -38.245   2.909  81.887  1.00  0.00     0.214 C 
ATOM     29  O   UNL     1     -36.215   4.108  81.200  1.00  0.00    -0.332 OA
ATOM     30  C   UNL     1     -38.080   3.433  83.329  1.00  0.00     0.180 C 
ATOM     31  C   UNL     1     -36.103   4.729  82.471  1.00  0.00     0.179 C 
ATOM     32  C   UNL     1     -36.606   3.788  83.589  1.00  0.00     0.177 C 
BRANCH  28  33
ATOM     33  O   UNL     1     -39.603   2.755  81.564  1.00  0.00    -0.384 OA
ATOM     34  H   UNL     1     -39.715   1.824  81.238  1.00  0.00     0.211 HD
ENDBRANCH  28  33
BRANCH  30  35
ATOM     35  O   UNL     1     -38.877   4.572  83.539  1.00  0.00    -0.387 OA
ATOM     36  H   UNL     1     -39.486   4.365  84.297  1.00  0.00     0.211 HD
ENDBRANCH  30  35
BRANCH  31  37
ATOM     37  C   UNL     1     -34.643   5.143  82.690  1.00  0.00     0.191 C 
BRANCH  37  38
ATOM     38  O   UNL     1     -33.782   4.124  82.259  1.00  0.00    -0.394 OA
ATOM     39  H   UNL     1     -33.894   3.378  82.903  1.00  0.00     0.210 HD
ENDBRANCH  37  38
ENDBRANCH  31  37
BRANCH  32  40
ATOM     40  O   UNL     1     -35.827   2.618  83.614  1.00  0.00    -0.387 OA
ATOM     41  H   UNL     1     -36.348   1.937  84.116  1.00  0.00     0.211 HD
ENDBRANCH  32  40
ENDBRANCH   1  27
TORSDOF 12
ENDMDL
MODEL 4
REMARK VINA RESULT:    -6.043      2.860      5.360
REMARK INTER + INTRA:         -10.573
REMARK INTER:                  -9.357
REMARK INTRA:                  -1.216
REMARK UNBOUND:                -1.704
REMARK SMILES O=c1c(O[C@H]2O[C@H](CO)[C@H](O)[C@@H](O)[C@H]2O)c(-c2ccc(O)c(O)c2)oc2cc(O)cc(O)c12
REMARK SMILES IDX 4 1 3 2 16 3 25 4 2 5 26 6 1 7 33 8 27 9 31 10 28 11 30 12
REMARK SMILES IDX 17 13 18 14 19 15 20 16 24 17 22 18 21 19 23 21 32 23 29 25
REMARK SMILES IDX 5 27 14 28 6 29 12 30 7 31 10 32 15 33 13 35 8 37 9 38 11 40
REMARK H PARENT 21 20 23 22 32 24 29 26 15 34 13 36 9 39 11 41
REMARK Flexibility Score: inf
ROOT
ATOM      1  O   UNL     1     -38.952   7.366  80.465  1.00  0.00    -0.454 OA
ENDROOT
BRANCH   1   2
ATOM      2  C   UNL     1     -38.007   6.482  81.015  1.00  0.00     0.214 A 
ATOM      3  C   UNL     1     -38.094   5.107  80.736  1.00  0.00     0.180 A 
ATOM      4  O   UNL     1     -37.137   4.287  81.152  1.00  0.00    -0.452 OA
ATOM      5  C   UNL     1     -36.965   6.939  81.842  1.00  0.00     0.239 A 
ATOM      6  C   UNL     1     -36.106   4.680  81.889  1.00  0.00     0.146 A 
ATOM      7  O   UNL     1     -36.921   8.158  82.149  1.00  0.00    -0.285 OA
ATOM      8  C   UNL     1     -35.988   6.029  82.317  1.00  0.00     0.111 A 
ATOM      9  C   UNL     1     -35.136   3.736  82.236  1.00  0.00     0.094 A 
ATOM     10  C   UNL     1     -34.886   6.380  83.155  1.00  0.00     0.134 A 
ATOM     11  C   UNL     1     -34.034   4.104  83.002  1.00  0.00     0.123 A 
ATOM     12  C   UNL     1     -33.913   5.419  83.455  1.00  0.00     0.093 A 
BRANCH   3  13
ATOM     13  C   UNL     1     -39.209   4.537  79.953  1.00  0.00     0.025 A 
ATOM     14  C   UNL     1     -39.039   4.290  78.582  1.00  0.00     0.016 A 
ATOM     15  C   UNL     1     -40.095   3.780  77.822  1.00  0.00     0.051 A 
ATOM     16  C   UNL     1     -41.327   3.495  78.425  1.00  0.00     0.157 A 
ATOM     17  C   UNL     1     -40.438   4.225  80.561  1.00  0.00     0.062 A 
ATOM     18  C   UNL     1     -41.497   3.714  79.802  1.00  0.00     0.158 A 
BRANCH  16  19
ATOM     19  O   UNL     1     -42.381   2.993  77.662  1.00  0.00    -0.504 OA
ATOM     20  H   UNL     1     -42.458   2.004  77.450  1.00  0.00     0.293 HD
ENDBRANCH  16  19
BRANCH  18  21
ATOM     21  O   UNL     1     -42.708   3.433  80.434  1.00  0.00    -0.504 OA
ATOM     22  H   UNL     1     -42.846   2.592  80.979  1.00  0.00     0.293 HD
ENDBRANCH  18  21
ENDBRANCH   3  13
BRANCH  10  23
ATOM     23  O   UNL     1     -34.711   7.642  83.731  1.00  0.00    -0.507 OA
ATOM     24  H   UNL     1     -34.687   8.513  83.224  1.00  0.00     0.293 HD
ENDBRANCH  10  23
BRANCH  11  25
ATOM     25  O   UNL     1     -33.066   3.152  83.315  1.00  0.00    -0.508 OA
ATOM     26  H   UNL     1     -33.288   2.164  83.354  1.00  0.00     0.293 HD
ENDBRANCH  11  25
ENDBRANCH   1   2
BRANCH   1  27
ATOM     27  C   UNL     1     -38.600   8.569  79.766  1.00  0.00     0.339 C 
ATOM     28  C   UNL     1     -39.795   9.541  79.687  1.00  0.00     0.214 C 
ATOM     29  O   UNL     1     -38.067   8.279  78.481  1.00  0.00    -0.332 OA
ATOM     30  C   UNL     1     -40.867   9.042  78.695  1.00  0.00     0.180 C 
ATOM     31  C   UNL     1     -39.038   7.681  77.634  1.00  0.00     0.179 C 
ATOM     32  C   UNL     1     -40.205   8.657  77.362  1.00  0.00     0.177 C 
BRANCH  28  33
ATOM     33  O   UNL     1     -40.343   9.721  80.967  1.00  0.00    -0.384 OA
ATOM     34  H   UNL     1     -41.077  10.383  80.873  1.00  0.00     0.211 HD
ENDBRANCH  28  33
BRANCH  30  35
ATOM     35  O   UNL     1     -41.548   7.927  79.217  1.00  0.00    -0.387 OA
ATOM     36  H   UNL     1     -41.951   7.446  78.447  1.00  0.00     0.211 HD
ENDBRANCH  30  35
BRANCH  31  37
ATOM     37  C   UNL     1     -38.353   7.237  76.337  1.00  0.00     0.191 C 
BRANCH  37  38
ATOM     38  O   UNL     1     -39.163   7.540  75.234  1.00  0.00    -0.394 OA
ATOM     39  H   UNL     1     -40.097   7.380  75.526  1.00  0.00     0.210 HD
ENDBRANCH  37  38
ENDBRANCH  31  37
BRANCH  32  40
ATOM     40  O   UNL     1     -39.723   9.808  76.714  1.00  0.00    -0.387 OA
ATOM     41  H   UNL     1     -40.482  10.185  76.197  1.00  0.00     0.211 HD
ENDBRANCH  32  40
ENDBRANCH   1  27
TORSDOF 12
ENDMDL
MODEL 5
REMARK VINA RESULT:    -6.013      2.656      4.198
REMARK INTER + INTRA:         -10.529
REMARK INTER:                  -9.416
REMARK INTRA:                  -1.113
REMARK UNBOUND:                -1.704
REMARK SMILES O=c1c(O[C@H]2O[C@H](CO)[C@H](O)[C@@H](O)[C@H]2O)c(-c2ccc(O)c(O)c2)oc2cc(O)cc(O)c12
REMARK SMILES IDX 4 1 3 2 16 3 25 4 2 5 26 6 1 7 33 8 27 9 31 10 28 11 30 12
REMARK SMILES IDX 17 13 18 14 19 15 20 16 24 17 22 18 21 19 23 21 32 23 29 25
REMARK SMILES IDX 5 27 14 28 6 29 12 30 7 31 10 32 15 33 13 35 8 37 9 38 11 40
REMARK H PARENT 21 20 23 22 32 24 29 26 15 34 13 36 9 39 11 41
REMARK Flexibility Score: inf
ROOT
ATOM      1  O   UNL     1     -38.449   4.942  78.418  1.00  0.00    -0.454 OA
ENDROOT
BRANCH   1   2
ATOM      2  C   UNL     1     -37.369   5.823  78.603  1.00  0.00     0.214 A 
ATOM      3  C   UNL     1     -37.602   7.208  78.672  1.00  0.00     0.180 A 
ATOM      4  O   UNL     1     -36.605   8.032  78.967  1.00  0.00    -0.452 OA
ATOM      5  C   UNL     1     -36.048   5.354  78.724  1.00  0.00     0.239 A 
ATOM      6  C   UNL     1     -35.352   7.631  79.144  1.00  0.00     0.146 A 
ATOM      7  O   UNL     1     -35.825   4.123  78.596  1.00  0.00    -0.285 OA
ATOM      8  C   UNL     1     -34.995   6.266  78.984  1.00  0.00     0.111 A 
ATOM      9  C   UNL     1     -34.391   8.583  79.491  1.00  0.00     0.094 A 
ATOM     10  C   UNL     1     -33.621   5.903  79.132  1.00  0.00     0.134 A 
ATOM     11  C   UNL     1     -33.065   8.207  79.693  1.00  0.00     0.123 A 
ATOM     12  C   UNL     1     -32.688   6.875  79.515  1.00  0.00     0.093 A 
BRANCH   3  13
ATOM     13  C   UNL     1     -38.945   7.785  78.463  1.00  0.00     0.025 A 
ATOM     14  C   UNL     1     -39.828   7.900  79.548  1.00  0.00     0.016 A 
ATOM     15  C   UNL     1     -41.113   8.416  79.359  1.00  0.00     0.051 A 
ATOM     16  C   UNL     1     -41.526   8.839  78.089  1.00  0.00     0.157 A 
ATOM     17  C   UNL     1     -39.352   8.235  77.194  1.00  0.00     0.062 A 
ATOM     18  C   UNL     1     -40.639   8.752  77.003  1.00  0.00     0.158 A 
BRANCH  16  19
ATOM     19  O   UNL     1     -42.811   9.347  77.903  1.00  0.00    -0.504 OA
ATOM     20  H   UNL     1     -43.299   9.244  77.020  1.00  0.00     0.293 HD
ENDBRANCH  16  19
BRANCH  18  21
ATOM     21  O   UNL     1     -41.016   9.172  75.727  1.00  0.00    -0.504 OA
ATOM     22  H   UNL     1     -41.692   8.662  75.172  1.00  0.00     0.293 HD
ENDBRANCH  18  21
ENDBRANCH   3  13
BRANCH  10  23
ATOM     23  O   UNL     1     -33.120   4.620  78.897  1.00  0.00    -0.507 OA
ATOM     24  H   UNL     1     -32.153   4.398  78.716  1.00  0.00     0.293 HD
ENDBRANCH  10  23
BRANCH  11  25
ATOM     25  O   UNL     1     -32.127   9.169  80.064  1.00  0.00    -0.508 OA
ATOM     26  H   UNL     1     -32.242  10.144  79.813  1.00  0.00     0.293 HD
ENDBRANCH  11  25
ENDBRANCH   1   2
BRANCH   1  27
ATOM     27  C   UNL     1     -38.611   3.721  79.154  1.00  0.00     0.339 C 
ATOM     28  C   UNL     1     -39.899   2.983  78.737  1.00  0.00     0.214 C 
ATOM     29  O   UNL     1     -38.565   3.956  80.555  1.00  0.00    -0.332 OA
ATOM     30  C   UNL     1     -41.160   3.700  79.262  1.00  0.00     0.180 C 
ATOM     31  C   UNL     1     -39.661   4.747  80.989  1.00  0.00     0.179 C 
ATOM     32  C   UNL     1     -40.998   4.007  80.760  1.00  0.00     0.177 C 
BRANCH  28  33
ATOM     33  O   UNL     1     -39.941   2.858  77.338  1.00  0.00    -0.384 OA
ATOM     34  H   UNL     1     -40.625   3.500  77.014  1.00  0.00     0.211 HD
ENDBRANCH  28  33
BRANCH  30  35
ATOM     35  O   UNL     1     -41.379   4.899  78.562  1.00  0.00    -0.387 OA
ATOM     36  H   UNL     1     -40.488   5.307  78.397  1.00  0.00     0.211 HD
ENDBRANCH  30  35
BRANCH  31  37
ATOM     37  C   UNL     1     -39.455   5.107  82.465  1.00  0.00     0.191 C 
BRANCH  37  38
ATOM     38  O   UNL     1     -38.940   4.006  83.163  1.00  0.00    -0.394 OA
ATOM     39  H   UNL     1     -37.982   4.205  83.322  1.00  0.00     0.210 HD
ENDBRANCH  37  38
ENDBRANCH  31  37
BRANCH  32  40
ATOM     40  O   UNL     1     -41.015   2.811  81.501  1.00  0.00    -0.387 OA
ATOM     41  H   UNL     1     -40.883   2.071  80.853  1.00  0.00     0.211 HD
ENDBRANCH  32  40
ENDBRANCH   1  27
TORSDOF 12
ENDMDL
MODEL 6
REMARK VINA RESULT:    -5.987      2.316      6.253
REMARK INTER + INTRA:         -10.490
REMARK INTER:                 -10.199
REMARK INTRA:                  -0.291
REMARK UNBOUND:                -1.704
REMARK SMILES O=c1c(O[C@H]2O[C@H](CO)[C@H](O)[C@@H](O)[C@H]2O)c(-c2ccc(O)c(O)c2)oc2cc(O)cc(O)c12
REMARK SMILES IDX 4 1 3 2 16 3 25 4 2 5 26 6 1 7 33 8 27 9 31 10 28 11 30 12
REMARK SMILES IDX 17 13 18 14 19 15 20 16 24 17 22 18 21 19 23 21 32 23 29 25
REMARK SMILES IDX 5 27 14 28 6 29 12 30 7 31 10 32 15 33 13 35 8 37 9 38 11 40
REMARK H PARENT 21 20 23 22 32 24 29 26 15 34 13 36 9 39 11 41
REMARK Flexibility Score: inf
ROOT
ATOM      1  O   UNL     1     -37.631   5.170  81.737  1.00  0.00    -0.454 OA
ENDROOT
BRANCH   1   2
ATOM      2  C   UNL     1     -38.446   4.748  80.672  1.00  0.00     0.214 A 
ATOM      3  C   UNL     1     -37.915   4.679  79.372  1.00  0.00     0.180 A 
ATOM      4  O   UNL     1     -38.643   4.168  78.386  1.00  0.00    -0.452 OA
ATOM      5  C   UNL     1     -39.792   4.387  80.871  1.00  0.00     0.239 A 
ATOM      6  C   UNL     1     -39.897   3.763  78.538  1.00  0.00     0.146 A 
ATOM      7  O   UNL     1     -40.290   4.510  82.019  1.00  0.00    -0.285 OA
ATOM      8  C   UNL     1     -40.560   3.896  79.787  1.00  0.00     0.111 A 
ATOM      9  C   UNL     1     -40.554   3.203  77.440  1.00  0.00     0.094 A 
ATOM     10  C   UNL     1     -41.929   3.495  79.874  1.00  0.00     0.134 A 
ATOM     11  C   UNL     1     -41.869   2.759  77.553  1.00  0.00     0.123 A 
ATOM     12  C   UNL     1     -42.547   2.905  78.765  1.00  0.00     0.093 A 
BRANCH   3  13
ATOM     13  C   UNL     1     -36.542   5.128  79.064  1.00  0.00     0.025 A 
ATOM     14  C   UNL     1     -35.448   4.361  79.495  1.00  0.00     0.016 A 
ATOM     15  C   UNL     1     -34.143   4.787  79.239  1.00  0.00     0.051 A 
ATOM     16  C   UNL     1     -33.914   5.976  78.534  1.00  0.00     0.157 A 
ATOM     17  C   UNL     1     -36.310   6.306  78.334  1.00  0.00     0.062 A 
ATOM     18  C   UNL     1     -35.003   6.736  78.075  1.00  0.00     0.158 A 
BRANCH  16  19
ATOM     19  O   UNL     1     -32.610   6.403  78.285  1.00  0.00    -0.504 OA
ATOM     20  H   UNL     1     -32.068   6.891  78.990  1.00  0.00     0.293 HD
ENDBRANCH  16  19
BRANCH  18  21
ATOM     21  O   UNL     1     -34.809   7.920  77.364  1.00  0.00    -0.504 OA
ATOM     22  H   UNL     1     -34.356   8.726  77.776  1.00  0.00     0.293 HD
ENDBRANCH  18  21
ENDBRANCH   3  13
BRANCH  10  23
ATOM     23  O   UNL     1     -42.726   3.670  81.009  1.00  0.00    -0.507 OA
ATOM     24  H   UNL     1     -43.680   3.360  81.101  1.00  0.00     0.293 HD
ENDBRANCH  10  23
BRANCH  11  25
ATOM     25  O   UNL     1     -42.496   2.180  76.452  1.00  0.00    -0.508 OA
ATOM     26  H   UNL     1     -42.494   2.630  75.544  1.00  0.00     0.293 HD
ENDBRANCH  11  25
ENDBRANCH   1   2
BRANCH   1  27
ATOM     27  C   UNL     1     -37.034   6.473  81.810  1.00  0.00     0.339 C 
ATOM     28  C   UNL     1     -36.926   6.957  83.270  1.00  0.00     0.214 C 
ATOM     29  O   UNL     1     -37.732   7.404  80.994  1.00  0.00    -0.332 OA
ATOM     30  C   UNL     1     -38.306   7.338  83.846  1.00  0.00     0.180 C 
ATOM     31  C   UNL     1     -39.054   7.624  81.462  1.00  0.00     0.179 C 
ATOM     32  C   UNL     1     -39.040   8.268  82.867  1.00  0.00     0.177 C 
BRANCH  28  33
ATOM     33  O   UNL     1     -36.314   5.964  84.054  1.00  0.00    -0.384 OA
ATOM     34  H   UNL     1     -36.100   6.381  84.928  1.00  0.00     0.211 HD
ENDBRANCH  28  33
BRANCH  30  35
ATOM     35  O   UNL     1     -39.085   6.190  84.072  1.00  0.00    -0.387 OA
ATOM     36  H   UNL     1     -39.460   5.916  83.194  1.00  0.00     0.211 HD
ENDBRANCH  30  35
BRANCH  31  37
ATOM     37  C   UNL     1     -39.799   8.494  80.444  1.00  0.00     0.191 C 
BRANCH  37  38
ATOM     38  O   UNL     1     -40.580   7.691  79.601  1.00  0.00    -0.394 OA
ATOM     39  H   UNL     1     -41.450   8.157  79.506  1.00  0.00     0.210 HD
ENDBRANCH  37  38
ENDBRANCH  31  37
BRANCH  32  40
ATOM     40  O   UNL     1     -38.393   9.516  82.812  1.00  0.00    -0.387 OA
ATOM     41  H   UNL     1     -38.978  10.163  83.287  1.00  0.00     0.211 HD
ENDBRANCH  32  40
ENDBRANCH   1  27
TORSDOF 12
ENDMDL
MODEL 7
REMARK VINA RESULT:    -5.773      2.301      3.996
REMARK INTER + INTRA:         -10.178
REMARK INTER:                  -8.799
REMARK INTRA:                  -1.379
REMARK UNBOUND:                -1.704
REMARK SMILES O=c1c(O[C@H]2O[C@H](CO)[C@H](O)[C@@H](O)[C@H]2O)c(-c2ccc(O)c(O)c2)oc2cc(O)cc(O)c12
REMARK SMILES IDX 4 1 3 2 16 3 25 4 2 5 26 6 1 7 33 8 27 9 31 10 28 11 30 12
REMARK SMILES IDX 17 13 18 14 19 15 20 16 24 17 22 18 21 19 23 21 32 23 29 25
REMARK SMILES IDX 5 27 14 28 6 29 12 30 7 31 10 32 15 33 13 35 8 37 9 38 11 40
REMARK H PARENT 21 20 23 22 32 24 29 26 15 34 13 36 9 39 11 41
REMARK Flexibility Score: inf
ROOT
ATOM      1  O   UNL     1     -38.471   4.598  80.516  1.00  0.00    -0.454 OA
ENDROOT
BRANCH   1   2
ATOM      2  C   UNL     1     -37.274   5.240  80.876  1.00  0.00     0.214 A 
ATOM      3  C   UNL     1     -36.849   6.376  80.163  1.00  0.00     0.180 A 
ATOM      4  O   UNL     1     -35.786   7.056  80.574  1.00  0.00    -0.452 OA
ATOM      5  C   UNL     1     -36.480   4.777  81.941  1.00  0.00     0.239 A 
ATOM      6  C   UNL     1     -35.038   6.689  81.607  1.00  0.00     0.146 A 
ATOM      7  O   UNL     1     -36.820   3.724  82.539  1.00  0.00    -0.285 OA
ATOM      8  C   UNL     1     -35.319   5.495  82.322  1.00  0.00     0.111 A 
ATOM      9  C   UNL     1     -33.965   7.503  81.976  1.00  0.00     0.094 A 
ATOM     10  C   UNL     1     -34.445   5.122  83.389  1.00  0.00     0.134 A 
ATOM     11  C   UNL     1     -33.156   7.161  83.056  1.00  0.00     0.123 A 
ATOM     12  C   UNL     1     -33.399   5.978  83.756  1.00  0.00     0.093 A 
BRANCH   3  13
ATOM     13  C   UNL     1     -37.576   6.869  78.976  1.00  0.00     0.025 A 
ATOM     14  C   UNL     1     -37.398   6.232  77.738  1.00  0.00     0.016 A 
ATOM     15  C   UNL     1     -38.055   6.707  76.600  1.00  0.00     0.051 A 
ATOM     16  C   UNL     1     -38.911   7.812  76.687  1.00  0.00     0.157 A 
ATOM     17  C   UNL     1     -38.457   7.962  79.067  1.00  0.00     0.062 A 
ATOM     18  C   UNL     1     -39.116   8.439  77.928  1.00  0.00     0.158 A 
BRANCH  16  19
ATOM     19  O   UNL     1     -39.560   8.288  75.548  1.00  0.00    -0.504 OA
ATOM     20  H   UNL     1     -39.862   9.253  75.474  1.00  0.00     0.293 HD
ENDBRANCH  16  19
BRANCH  18  21
ATOM     21  O   UNL     1     -39.968   9.537  78.050  1.00  0.00    -0.504 OA
ATOM     22  H   UNL     1     -39.683  10.470  77.784  1.00  0.00     0.293 HD
ENDBRANCH  18  21
ENDBRANCH   3  13
BRANCH  10  23
ATOM     23  O   UNL     1     -34.545   3.923  84.102  1.00  0.00    -0.507 OA
ATOM     24  H   UNL     1     -35.150   3.767  84.892  1.00  0.00     0.293 HD
ENDBRANCH  10  23
BRANCH  11  25
ATOM     25  O   UNL     1     -32.107   8.002  83.422  1.00  0.00    -0.508 OA
ATOM     26  H   UNL     1     -31.168   7.649  83.559  1.00  0.00     0.293 HD
ENDBRANCH  11  25
ENDBRANCH   1   2
BRANCH   1  27
ATOM     27  C   UNL     1     -39.772   5.160  80.745  1.00  0.00     0.339 C 
ATOM     28  C   UNL     1     -40.363   4.673  82.083  1.00  0.00     0.214 C 
ATOM     29  O   UNL     1     -40.644   4.896  79.654  1.00  0.00    -0.332 OA
ATOM     30  C   UNL     1     -40.796   3.194  82.009  1.00  0.00     0.180 C 
ATOM     31  C   UNL     1     -40.907   3.508  79.516  1.00  0.00     0.179 C 
ATOM     32  C   UNL     1     -41.655   2.965  80.755  1.00  0.00     0.177 C 
BRANCH  28  33
ATOM     33  O   UNL     1     -39.427   4.869  83.113  1.00  0.00    -0.384 OA
ATOM     34  H   UNL     1     -39.491   5.823  83.379  1.00  0.00     0.211 HD
ENDBRANCH  28  33
BRANCH  30  35
ATOM     35  O   UNL     1     -39.673   2.348  81.965  1.00  0.00    -0.387 OA
ATOM     36  H   UNL     1     -39.650   1.851  82.825  1.00  0.00     0.211 HD
ENDBRANCH  30  35
BRANCH  31  37
ATOM     37  C   UNL     1     -41.704   3.283  78.226  1.00  0.00     0.191 C 
BRANCH  37  38
ATOM     38  O   UNL     1     -42.337   2.033  78.261  1.00  0.00    -0.394 OA
ATOM     39  H   UNL     1     -41.794   1.466  78.866  1.00  0.00     0.210 HD
ENDBRANCH  37  38
ENDBRANCH  31  37
BRANCH  32  40
ATOM     40  O   UNL     1     -42.891   3.623  80.892  1.00  0.00    -0.387 OA
ATOM     41  H   UNL     1     -43.558   2.930  81.139  1.00  0.00     0.211 HD
ENDBRANCH  32  40
ENDBRANCH   1  27
TORSDOF 12
ENDMDL
MODEL 8
REMARK VINA RESULT:    -5.623      2.861      5.401
REMARK INTER + INTRA:          -9.957
REMARK INTER:                  -8.178
REMARK INTRA:                  -1.779
REMARK UNBOUND:                -1.704
REMARK SMILES O=c1c(O[C@H]2O[C@H](CO)[C@H](O)[C@@H](O)[C@H]2O)c(-c2ccc(O)c(O)c2)oc2cc(O)cc(O)c12
REMARK SMILES IDX 4 1 3 2 16 3 25 4 2 5 26 6 1 7 33 8 27 9 31 10 28 11 30 12
REMARK SMILES IDX 17 13 18 14 19 15 20 16 24 17 22 18 21 19 23 21 32 23 29 25
REMARK SMILES IDX 5 27 14 28 6 29 12 30 7 31 10 32 15 33 13 35 8 37 9 38 11 40
REMARK H PARENT 21 20 23 22 32 24 29 26 15 34 13 36 9 39 11 41
REMARK Flexibility Score: inf
ROOT
ATOM      1  O   UNL     1     -36.394   6.070  78.972  1.00  0.00    -0.454 OA
ENDROOT
BRANCH   1   2
ATOM      2  C   UNL     1     -37.541   6.650  78.402  1.00  0.00     0.214 A 
ATOM      3  C   UNL     1     -38.816   6.198  78.784  1.00  0.00     0.180 A 
ATOM      4  O   UNL     1     -39.900   6.822  78.342  1.00  0.00    -0.452 OA
ATOM      5  C   UNL     1     -37.449   7.684  77.451  1.00  0.00     0.239 A 
ATOM      6  C   UNL     1     -39.861   7.837  77.487  1.00  0.00     0.146 A 
ATOM      7  O   UNL     1     -36.312   8.046  77.055  1.00  0.00    -0.285 OA
ATOM      8  C   UNL     1     -38.627   8.295  76.955  1.00  0.00     0.111 A 
ATOM      9  C   UNL     1     -41.064   8.445  77.121  1.00  0.00     0.094 A 
ATOM     10  C   UNL     1     -38.654   9.353  75.995  1.00  0.00     0.134 A 
ATOM     11  C   UNL     1     -41.072   9.516  76.231  1.00  0.00     0.123 A 
ATOM     12  C   UNL     1     -39.872   9.965  75.676  1.00  0.00     0.093 A 
BRANCH   3  13
ATOM     13  C   UNL     1     -38.996   5.058  79.706  1.00  0.00     0.025 A 
ATOM     14  C   UNL     1     -38.631   3.767  79.292  1.00  0.00     0.016 A 
ATOM     15  C   UNL     1     -38.824   2.673  80.141  1.00  0.00     0.051 A 
ATOM     16  C   UNL     1     -39.366   2.858  81.419  1.00  0.00     0.157 A 
ATOM     17  C   UNL     1     -39.515   5.244  80.999  1.00  0.00     0.062 A 
ATOM     18  C   UNL     1     -39.709   4.151  81.851  1.00  0.00     0.158 A 
BRANCH  16  19
ATOM     19  O   UNL     1     -39.564   1.765  82.261  1.00  0.00    -0.504 OA
ATOM     20  H   UNL     1     -40.331   1.117  82.118  1.00  0.00     0.293 HD
ENDBRANCH  16  19
BRANCH  18  21
ATOM     21  O   UNL     1     -40.243   4.370  83.121  1.00  0.00    -0.504 OA
ATOM     22  H   UNL     1     -39.676   4.322  83.958  1.00  0.00     0.293 HD
ENDBRANCH  18  21
ENDBRANCH   3  13
BRANCH  10  23
ATOM     23  O   UNL     1     -37.526   9.824  75.317  1.00  0.00    -0.507 OA
ATOM     24  H   UNL     1     -36.980  10.627  75.586  1.00  0.00     0.293 HD
ENDBRANCH  10  23
BRANCH  11  25
ATOM     25  O   UNL     1     -42.281  10.125  75.899  1.00  0.00    -0.508 OA
ATOM     26  H   UNL     1     -43.164   9.636  75.994  1.00  0.00     0.293 HD
ENDBRANCH  11  25
ENDBRANCH   1   2
BRANCH   1  27
ATOM     27  C   UNL     1     -35.687   6.639  80.083  1.00  0.00     0.339 C 
ATOM     28  C   UNL     1     -34.163   6.614  79.848  1.00  0.00     0.214 C 
ATOM     29  O   UNL     1     -36.045   6.000  81.301  1.00  0.00    -0.332 OA
ATOM     30  C   UNL     1     -33.594   5.184  79.961  1.00  0.00     0.180 C 
ATOM     31  C   UNL     1     -35.640   4.639  81.318  1.00  0.00     0.179 C 
ATOM     32  C   UNL     1     -34.101   4.523  81.254  1.00  0.00     0.177 C 
BRANCH  28  33
ATOM     33  O   UNL     1     -33.869   7.171  78.592  1.00  0.00    -0.384 OA
ATOM     34  H   UNL     1     -33.534   6.431  78.023  1.00  0.00     0.211 HD
ENDBRANCH  28  33
BRANCH  30  35
ATOM     35  O   UNL     1     -33.981   4.405  78.857  1.00  0.00    -0.387 OA
ATOM     36  H   UNL     1     -34.891   4.057  79.051  1.00  0.00     0.211 HD
ENDBRANCH  30  35
BRANCH  31  37
ATOM     37  C   UNL     1     -36.210   3.971  82.575  1.00  0.00     0.191 C 
BRANCH  37  38
ATOM     38  O   UNL     1     -35.186   3.338  83.292  1.00  0.00    -0.394 OA
ATOM     39  H   UNL     1     -35.157   3.779  84.179  1.00  0.00     0.210 HD
ENDBRANCH  37  38
ENDBRANCH  31  37
BRANCH  32  40
ATOM     40  O   UNL     1     -33.528   5.153  82.373  1.00  0.00    -0.387 OA
ATOM     41  H   UNL     1     -33.078   4.444  82.903  1.00  0.00     0.211 HD
ENDBRANCH  32  40
ENDBRANCH   1  27
TORSDOF 12
ENDMDL
MODEL 9
REMARK VINA RESULT:    -5.527      1.405      2.255
REMARK INTER + INTRA:          -9.816
REMARK INTER:                  -8.962
REMARK INTRA:                  -0.854
REMARK UNBOUND:                -1.704
REMARK SMILES O=c1c(O[C@H]2O[C@H](CO)[C@H](O)[C@@H](O)[C@H]2O)c(-c2ccc(O)c(O)c2)oc2cc(O)cc(O)c12
REMARK SMILES IDX 4 1 3 2 16 3 25 4 2 5 26 6 1 7 33 8 27 9 31 10 28 11 30 12
REMARK SMILES IDX 17 13 18 14 19 15 20 16 24 17 22 18 21 19 23 21 32 23 29 25
REMARK SMILES IDX 5 27 14 28 6 29 12 30 7 31 10 32 15 33 13 35 8 37 9 38 11 40
REMARK H PARENT 21 20 23 22 32 24 29 26 15 34 13 36 9 39 11 41
REMARK Flexibility Score: inf
ROOT
ATOM      1  O   UNL     1     -37.191   3.448  81.108  1.00  0.00    -0.454 OA
ENDROOT
BRANCH   1   2
ATOM      2  C   UNL     1     -36.636   4.329  80.163  1.00  0.00     0.214 A 
ATOM      3  C   UNL     1     -37.313   4.574  78.955  1.00  0.00     0.180 A 
ATOM      4  O   UNL     1     -36.856   5.494  78.115  1.00  0.00    -0.452 OA
ATOM      5  C   UNL     1     -35.412   4.983  80.394  1.00  0.00     0.239 A 
ATOM      6  C   UNL     1     -35.735   6.175  78.316  1.00  0.00     0.146 A 
ATOM      7  O   UNL     1     -34.770   4.717  81.442  1.00  0.00    -0.285 OA
ATOM      8  C   UNL     1     -34.921   5.920  79.452  1.00  0.00     0.111 A 
ATOM      9  C   UNL     1     -35.370   7.149  77.384  1.00  0.00     0.094 A 
ATOM     10  C   UNL     1     -33.697   6.645  79.585  1.00  0.00     0.134 A 
ATOM     11  C   UNL     1     -34.206   7.892  77.556  1.00  0.00     0.123 A 
ATOM     12  C   UNL     1     -33.379   7.639  78.652  1.00  0.00     0.093 A 
BRANCH   3  13
ATOM     13  C   UNL     1     -38.555   3.859  78.597  1.00  0.00     0.025 A 
ATOM     14  C   UNL     1     -38.487   2.530  78.151  1.00  0.00     0.016 A 
ATOM     15  C   UNL     1     -39.650   1.850  77.780  1.00  0.00     0.051 A 
ATOM     16  C   UNL     1     -40.897   2.484  77.866  1.00  0.00     0.157 A 
ATOM     17  C   UNL     1     -39.810   4.483  78.708  1.00  0.00     0.062 A 
ATOM     18  C   UNL     1     -40.977   3.805  78.337  1.00  0.00     0.158 A 
BRANCH  16  19
ATOM     19  O   UNL     1     -42.055   1.805  77.488  1.00  0.00    -0.504 OA
ATOM     20  H   UNL     1     -42.816   2.279  77.015  1.00  0.00     0.293 HD
ENDBRANCH  16  19
BRANCH  18  21
ATOM     21  O   UNL     1     -42.203   4.462  78.442  1.00  0.00    -0.504 OA
ATOM     22  H   UNL     1     -42.527   5.109  77.735  1.00  0.00     0.293 HD
ENDBRANCH  18  21
ENDBRANCH   3  13
BRANCH  10  23
ATOM     23  O   UNL     1     -32.757   6.416  80.594  1.00  0.00    -0.507 OA
ATOM     24  H   UNL     1     -32.971   6.085  81.522  1.00  0.00     0.293 HD
ENDBRANCH  10  23
BRANCH  11  25
ATOM     25  O   UNL     1     -33.875   8.877  76.627  1.00  0.00    -0.508 OA
ATOM     26  H   UNL     1     -34.541   9.194  75.932  1.00  0.00     0.293 HD
ENDBRANCH  11  25
ENDBRANCH   1   2
BRANCH   1  27
ATOM     27  C   UNL     1     -37.390   3.789  82.488  1.00  0.00     0.339 C 
ATOM     28  C   UNL     1     -38.390   2.828  83.162  1.00  0.00     0.214 C 
ATOM     29  O   UNL     1     -37.784   5.147  82.630  1.00  0.00    -0.332 OA
ATOM     30  C   UNL     1     -39.835   3.084  82.684  1.00  0.00     0.180 C 
ATOM     31  C   UNL     1     -39.056   5.388  82.047  1.00  0.00     0.179 C 
ATOM     32  C   UNL     1     -40.156   4.584  82.776  1.00  0.00     0.177 C 
BRANCH  28  33
ATOM     33  O   UNL     1     -38.009   1.499  82.914  1.00  0.00    -0.384 OA
ATOM     34  H   UNL     1     -38.828   0.945  83.002  1.00  0.00     0.211 HD
ENDBRANCH  28  33
BRANCH  30  35
ATOM     35  O   UNL     1     -40.004   2.651  81.357  1.00  0.00    -0.387 OA
ATOM     36  H   UNL     1     -39.282   1.995  81.170  1.00  0.00     0.211 HD
ENDBRANCH  30  35
BRANCH  31  37
ATOM     37  C   UNL     1     -39.335   6.895  82.080  1.00  0.00     0.191 C 
BRANCH  37  38
ATOM     38  O   UNL     1     -38.694   7.482  83.179  1.00  0.00    -0.394 OA
ATOM     39  H   UNL     1     -39.414   7.773  83.795  1.00  0.00     0.210 HD
ENDBRANCH  37  38
ENDBRANCH  31  37
BRANCH  32  40
ATOM     40  O   UNL     1     -40.222   4.980  84.124  1.00  0.00    -0.387 OA
ATOM     41  H   UNL     1     -41.149   5.296  84.286  1.00  0.00     0.211 HD
ENDBRANCH  32  40
ENDBRANCH   1  27
TORSDOF 12
ENDMDL
