MODEL 1
REMARK VINA RESULT:    -3.551      0.000      0.000
REMARK INTER + INTRA:          -4.463
REMARK INTER:                  -4.381
REMARK INTRA:                  -0.081
REMARK UNBOUND:                -0.081
REMARK SMILES CCCCCC(=O)[O-]
REMARK SMILES IDX 4 1 5 2 6 3 7 4 8 5 3 6 2 7 1 8
REMARK H PARENT
REMARK Flexibility Score: inf
ROOT
ATOM      1  C   UNL     1      24.112   6.738  10.071  1.00  0.00     0.006 C 
ENDROOT
BRANCH   1   2
ATOM      2  C   UNL     1      22.770   7.464  10.189  1.00  0.00     0.053 C 
BRANCH   2   3
ATOM      3  C   UNL     1      22.294   7.455  11.607  1.00  0.00     0.041 C 
ATOM      4  O   UNL     1      21.223   8.040  11.921  1.00  0.00    -0.550 OA
ATOM      5  O   UNL     1      23.056   6.841  12.593  1.00  0.00    -0.550 OA
ENDBRANCH   2   3
ENDBRANCH   1   2
BRANCH   1   6
ATOM      6  C   UNL     1      24.289   6.134   8.672  1.00  0.00     0.000 C 
BRANCH   6   7
ATOM      7  C   UNL     1      23.647   4.745   8.588  1.00  0.00    -0.003 C 
ATOM      8  C   UNL     1      23.636   4.229   7.151  1.00  0.00     0.004 C 
ENDBRANCH   6   7
ENDBRANCH   1   6
TORSDOF 4
ENDMDL
MODEL 2
REMARK VINA RESULT:    -3.342      7.097      8.362
REMARK INTER + INTRA:          -4.205
REMARK INTER:                  -4.158
REMARK INTRA:                  -0.047
REMARK UNBOUND:                -0.081
REMARK SMILES CCCCCC(=O)[O-]
REMARK SMILES IDX 4 1 5 2 6 3 7 4 8 5 3 6 2 7 1 8
REMARK H PARENT
REMARK Flexibility Score: inf
ROOT
ATOM      1  C   UNL     1      28.642   6.583  15.352  1.00  0.00     0.006 C 
ENDROOT
BRANCH   1   2
ATOM      2  C   UNL     1      27.685   5.843  14.414  1.00  0.00     0.053 C 
BRANCH   2   3
ATOM      3  C   UNL     1      27.164   6.769  13.361  1.00  0.00     0.041 C 
ATOM      4  O   UNL     1      27.963   7.437  12.652  1.00  0.00    -0.550 OA
ATOM      5  O   UNL     1      25.795   6.931  13.193  1.00  0.00    -0.550 OA
ENDBRANCH   2   3
ENDBRANCH   1   2
BRANCH   1   6
ATOM      6  C   UNL     1      29.283   5.618  16.357  1.00  0.00     0.000 C 
BRANCH   6   7
ATOM      7  C   UNL     1      30.461   6.281  17.081  1.00  0.00    -0.003 C 
ATOM      8  C   UNL     1      30.398   6.024  18.584  1.00  0.00     0.004 C 
ENDBRANCH   6   7
ENDBRANCH   1   6
TORSDOF 4
ENDMDL
MODEL 3
REMARK VINA RESULT:    -3.275      5.398      6.575
REMARK INTER + INTRA:          -4.122
REMARK INTER:                  -4.047
REMARK INTRA:                  -0.075
REMARK UNBOUND:                -0.081
REMARK SMILES CCCCCC(=O)[O-]
REMARK SMILES IDX 4 1 5 2 6 3 7 4 8 5 3 6 2 7 1 8
REMARK H PARENT
REMARK Flexibility Score: inf
ROOT
ATOM      1  C   UNL     1      24.881   6.697  14.717  1.00  0.00     0.006 C 
ENDROOT
BRANCH   1   2
ATOM      2  C   UNL     1      26.384   6.407  14.742  1.00  0.00     0.053 C 
BRANCH   2   3
ATOM      3  C   UNL     1      26.925   6.328  13.350  1.00  0.00     0.041 C 
ATOM      4  O   UNL     1      26.701   5.313  12.638  1.00  0.00    -0.550 OA
ATOM      5  O   UNL     1      27.719   7.354  12.853  1.00  0.00    -0.550 OA
ENDBRANCH   2   3
ENDBRANCH   1   2
BRANCH   1   6
ATOM      6  C   UNL     1      24.452   7.487  15.959  1.00  0.00     0.000 C 
BRANCH   6   7
ATOM      7  C   UNL     1      23.226   6.848  16.621  1.00  0.00    -0.003 C 
ATOM      8  C   UNL     1      22.141   6.542  15.592  1.00  0.00     0.004 C 
ENDBRANCH   6   7
ENDBRANCH   1   6
TORSDOF 4
ENDMDL
MODEL 4
REMARK VINA RESULT:    -3.253      4.021      4.566
REMARK INTER + INTRA:          -4.095
REMARK INTER:                  -3.969
REMARK INTRA:                  -0.126
REMARK UNBOUND:                -0.081
REMARK SMILES CCCCCC(=O)[O-]
REMARK SMILES IDX 4 1 5 2 6 3 7 4 8 5 3 6 2 7 1 8
REMARK H PARENT
REMARK Flexibility Score: inf
ROOT
ATOM      1  C   UNL     1      19.384   7.104  10.355  1.00  0.00     0.006 C 
ENDROOT
BRANCH   1   2
ATOM      2  C   UNL     1      19.111   7.009  11.858  1.00  0.00     0.053 C 
BRANCH   2   3
ATOM      3  C   UNL     1      20.305   7.460  12.637  1.00  0.00     0.041 C 
ATOM      4  O   UNL     1      21.298   7.959  12.043  1.00  0.00    -0.550 OA
ATOM      5  O   UNL     1      20.343   7.287  14.015  1.00  0.00    -0.550 OA
ENDBRANCH   2   3
ENDBRANCH   1   2
BRANCH   1   6
ATOM      6  C   UNL     1      18.405   8.071   9.677  1.00  0.00     0.000 C 
BRANCH   6   7
ATOM      7  C   UNL     1      17.731   7.414   8.468  1.00  0.00    -0.003 C 
ATOM      8  C   UNL     1      18.408   6.093   8.110  1.00  0.00     0.004 C 
ENDBRANCH   6   7
ENDBRANCH   1   6
TORSDOF 4
ENDMDL
MODEL 5
REMARK VINA RESULT:    -3.245      3.112      5.286
REMARK INTER + INTRA:          -4.086
REMARK INTER:                  -3.954
REMARK INTRA:                  -0.132
REMARK UNBOUND:                -0.081
REMARK SMILES CCCCCC(=O)[O-]
REMARK SMILES IDX 4 1 5 2 6 3 7 4 8 5 3 6 2 7 1 8
REMARK H PARENT
REMARK Flexibility Score: inf
ROOT
ATOM      1  C   UNL     1      22.996   6.203  14.032  1.00  0.00     0.006 C 
ENDROOT
BRANCH   1   2
ATOM      2  C   UNL     1      22.022   6.605  12.922  1.00  0.00     0.053 C 
BRANCH   2   3
ATOM      3  C   UNL     1      22.732   7.377  11.856  1.00  0.00     0.041 C 
ATOM      4  O   UNL     1      22.127   8.276  11.213  1.00  0.00    -0.550 OA
ATOM      5  O   UNL     1      24.050   7.073  11.538  1.00  0.00    -0.550 OA
ENDBRANCH   2   3
ENDBRANCH   1   2
BRANCH   1   6
ATOM      6  C   UNL     1      22.493   6.674  15.402  1.00  0.00     0.000 C 
BRANCH   6   7
ATOM      7  C   UNL     1      23.654   7.169  16.273  1.00  0.00    -0.003 C 
ATOM      8  C   UNL     1      24.951   7.241  15.472  1.00  0.00     0.004 C 
ENDBRANCH   6   7
ENDBRANCH   1   6
TORSDOF 4
ENDMDL
MODEL 6
REMARK VINA RESULT:    -3.237      5.575      7.513
REMARK INTER + INTRA:          -4.075
REMARK INTER:                  -3.991
REMARK INTRA:                  -0.084
REMARK UNBOUND:                -0.081
REMARK SMILES CCCCCC(=O)[O-]
REMARK SMILES IDX 4 1 5 2 6 3 7 4 8 5 3 6 2 7 1 8
REMARK H PARENT
REMARK Flexibility Score: inf
ROOT
ATOM      1  C   UNL     1      23.814   7.213  16.327  1.00  0.00     0.006 C 
ENDROOT
BRANCH   1   2
ATOM      2  C   UNL     1      24.131   6.608  14.957  1.00  0.00     0.053 C 
BRANCH   2   3
ATOM      3  C   UNL     1      25.593   6.720  14.661  1.00  0.00     0.041 C 
ATOM      4  O   UNL     1      25.989   7.360  13.651  1.00  0.00    -0.550 OA
ATOM      5  O   UNL     1      26.519   6.077  15.474  1.00  0.00    -0.550 OA
ENDBRANCH   2   3
ENDBRANCH   1   2
BRANCH   1   6
ATOM      6  C   UNL     1      22.739   6.396  17.054  1.00  0.00     0.000 C 
BRANCH   6   7
ATOM      7  C   UNL     1      23.370   5.445  18.077  1.00  0.00    -0.003 C 
ATOM      8  C   UNL     1      23.133   5.935  19.503  1.00  0.00     0.004 C 
ENDBRANCH   6   7
ENDBRANCH   1   6
TORSDOF 4
ENDMDL
MODEL 7
REMARK VINA RESULT:    -3.225      3.980      4.823
REMARK INTER + INTRA:          -4.061
REMARK INTER:                  -3.977
REMARK INTRA:                  -0.083
REMARK UNBOUND:                -0.081
REMARK SMILES CCCCCC(=O)[O-]
REMARK SMILES IDX 4 1 5 2 6 3 7 4 8 5 3 6 2 7 1 8
REMARK H PARENT
REMARK Flexibility Score: inf
ROOT
ATOM      1  C   UNL     1      18.959   7.004   9.431  1.00  0.00     0.006 C 
ENDROOT
BRANCH   1   2
ATOM      2  C   UNL     1      20.209   6.403  10.078  1.00  0.00     0.053 C 
BRANCH   2   3
ATOM      3  C   UNL     1      21.036   7.474  10.715  1.00  0.00     0.041 C 
ATOM      4  O   UNL     1      22.077   7.897  10.145  1.00  0.00    -0.550 OA
ATOM      5  O   UNL     1      20.684   7.974  11.963  1.00  0.00    -0.550 OA
ENDBRANCH   2   3
ENDBRANCH   1   2
BRANCH   1   6
ATOM      6  C   UNL     1      18.574   6.238   8.160  1.00  0.00     0.000 C 
BRANCH   6   7
ATOM      7  C   UNL     1      17.562   7.031   7.325  1.00  0.00    -0.003 C 
ATOM      8  C   UNL     1      16.974   8.189   8.127  1.00  0.00     0.004 C 
ENDBRANCH   6   7
ENDBRANCH   1   6
TORSDOF 4
ENDMDL
MODEL 8
REMARK VINA RESULT:    -3.128      1.988      2.999
REMARK INTER + INTRA:          -3.941
REMARK INTER:                  -3.852
REMARK INTRA:                  -0.090
REMARK UNBOUND:                -0.081
REMARK SMILES CCCCCC(=O)[O-]
REMARK SMILES IDX 4 1 5 2 6 3 7 4 8 5 3 6 2 7 1 8
REMARK H PARENT
REMARK Flexibility Score: inf
ROOT
ATOM      1  C   UNL     1      21.595   7.062  11.412  1.00  0.00     0.006 C 
ENDROOT
BRANCH   1   2
ATOM      2  C   UNL     1      22.248   6.785  12.769  1.00  0.00     0.053 C 
BRANCH   2   3
ATOM      3  C   UNL     1      21.235   6.879  13.866  1.00  0.00     0.041 C 
ATOM      4  O   UNL     1      21.547   6.564  15.045  1.00  0.00    -0.550 OA
ATOM      5  O   UNL     1      19.933   7.268  13.578  1.00  0.00    -0.550 OA
ENDBRANCH   2   3
ENDBRANCH   1   2
BRANCH   1   6
ATOM      6  C   UNL     1      22.624   7.587  10.403  1.00  0.00     0.000 C 
BRANCH   6   7
ATOM      7  C   UNL     1      23.917   6.767  10.459  1.00  0.00    -0.003 C 
ATOM      8  C   UNL     1      24.629   6.768   9.108  1.00  0.00     0.004 C 
ENDBRANCH   6   7
ENDBRANCH   1   6
TORSDOF 4
ENDMDL
MODEL 9
REMARK VINA RESULT:    -3.115      2.290      3.491
REMARK INTER + INTRA:          -3.925
REMARK INTER:                  -3.775
REMARK INTRA:                  -0.150
REMARK UNBOUND:                -0.081
REMARK SMILES CCCCCC(=O)[O-]
REMARK SMILES IDX 4 1 5 2 6 3 7 4 8 5 3 6 2 7 1 8
REMARK H PARENT
REMARK Flexibility Score: inf
ROOT
ATOM      1  C   UNL     1      23.884   6.882   9.647  1.00  0.00     0.006 C 
ENDROOT
BRANCH   1   2
ATOM      2  C   UNL     1      24.455   5.845  10.617  1.00  0.00     0.053 C 
BRANCH   2   3
ATOM      3  C   UNL     1      25.348   6.503  11.621  1.00  0.00     0.041 C 
ATOM      4  O   UNL     1      26.556   6.726  11.345  1.00  0.00    -0.550 OA
ATOM      5  O   UNL     1      24.858   6.826  12.880  1.00  0.00    -0.550 OA
ENDBRANCH   2   3
ENDBRANCH   1   2
BRANCH   1   6
ATOM      6  C   UNL     1      22.673   7.598  10.257  1.00  0.00     0.000 C 
BRANCH   6   7
ATOM      7  C   UNL     1      21.587   6.594  10.662  1.00  0.00    -0.003 C 
ATOM      8  C   UNL     1      20.221   7.015  10.127  1.00  0.00     0.004 C 
ENDBRANCH   6   7
ENDBRANCH   1   6
TORSDOF 4
ENDMDL
