MODEL 1
REMARK VINA RESULT:    -3.914      0.000      0.000
REMARK INTER + INTRA:          -7.189
REMARK INTER:                  -6.203
REMARK INTRA:                  -0.986
REMARK UNBOUND:                -0.986
REMARK SMILES CCCCCCCCCCCC(=O)[O-]
REMARK SMILES IDX 7 1 8 2 9 3 10 4 11 5 12 6 13 7 14 8 6 9 5 10 4 11 3 12 2 13
REMARK SMILES IDX 1 14
REMARK H PARENT
REMARK Flexibility Score: inf
ROOT
ATOM      1  C   UNL     1      -7.945  16.656   0.134  1.00  0.00     0.000 C 
ENDROOT
BRANCH   1   2
ATOM      2  C   UNL     1      -7.391  15.536   1.029  1.00  0.00     0.000 C 
BRANCH   2   3
ATOM      3  C   UNL     1      -6.424  16.064   2.104  1.00  0.00     0.000 C 
BRANCH   3   4
ATOM      4  C   UNL     1      -6.383  17.600   2.157  1.00  0.00     0.006 C 
BRANCH   4   5
ATOM      5  C   UNL     1      -6.467  18.147   3.587  1.00  0.00     0.053 C 
BRANCH   5   6
ATOM      6  C   UNL     1      -7.638  19.067   3.726  1.00  0.00     0.041 C 
ATOM      7  O   UNL     1      -7.469  20.255   4.111  1.00  0.00    -0.550 OA
ATOM      8  O   UNL     1      -8.911  18.629   3.382  1.00  0.00    -0.550 OA
ENDBRANCH   5   6
ENDBRANCH   4   5
ENDBRANCH   3   4
ENDBRANCH   2   3
ENDBRANCH   1   2
BRANCH   1   9
ATOM      9  C   UNL     1      -9.477  16.597  -0.006  1.00  0.00     0.000 C 
BRANCH   9  10
ATOM     10  C   UNL     1      -9.939  16.637  -1.470  1.00  0.00    -0.000 C 
BRANCH  10  11
ATOM     11  C   UNL     1      -8.811  17.019  -2.441  1.00  0.00    -0.000 C 
BRANCH  11  12
ATOM     12  C   UNL     1      -8.675  15.977  -3.561  1.00  0.00    -0.000 C 
BRANCH  12  13
ATOM     13  C   UNL     1      -8.036  14.666  -3.075  1.00  0.00    -0.003 C 
ATOM     14  C   UNL     1      -6.563  14.829  -2.701  1.00  0.00     0.004 C 
ENDBRANCH  12  13
ENDBRANCH  11  12
ENDBRANCH  10  11
ENDBRANCH   9  10
ENDBRANCH   1   9
TORSDOF 10
ENDMDL
MODEL 2
REMARK VINA RESULT:    -3.874      4.493      6.798
REMARK INTER + INTRA:          -7.124
REMARK INTER:                  -5.956
REMARK INTRA:                  -1.168
REMARK UNBOUND:                -0.986
REMARK SMILES CCCCCCCCCCCC(=O)[O-]
REMARK SMILES IDX 7 1 8 2 9 3 10 4 11 5 12 6 13 7 14 8 6 9 5 10 4 11 3 12 2 13
REMARK SMILES IDX 1 14
REMARK H PARENT
REMARK Flexibility Score: inf
ROOT
ATOM      1  C   UNL     1      -8.837  17.090  -2.169  1.00  0.00     0.000 C 
ENDROOT
BRANCH   1   2
ATOM      2  C   UNL     1      -8.724  16.194  -3.413  1.00  0.00     0.000 C 
BRANCH   2   3
ATOM      3  C   UNL     1      -8.918  14.703  -3.086  1.00  0.00     0.000 C 
BRANCH   3   4
ATOM      4  C   UNL     1      -7.975  13.794  -3.893  1.00  0.00     0.006 C 
BRANCH   4   5
ATOM      5  C   UNL     1      -6.741  14.538  -4.420  1.00  0.00     0.053 C 
BRANCH   5   6
ATOM      6  C   UNL     1      -6.701  14.489  -5.914  1.00  0.00     0.041 C 
ATOM      7  O   UNL     1      -7.061  15.489  -6.591  1.00  0.00    -0.550 OA
ATOM      8  O   UNL     1      -6.218  13.358  -6.560  1.00  0.00    -0.550 OA
ENDBRANCH   5   6
ENDBRANCH   4   5
ENDBRANCH   3   4
ENDBRANCH   2   3
ENDBRANCH   1   2
BRANCH   1   9
ATOM      9  C   UNL     1      -9.948  16.630  -1.208  1.00  0.00     0.000 C 
BRANCH   9  10
ATOM     10  C   UNL     1      -9.576  16.838   0.268  1.00  0.00    -0.000 C 
BRANCH  10  11
ATOM     11  C   UNL     1      -8.509  15.846   0.759  1.00  0.00    -0.000 C 
BRANCH  11  12
ATOM     12  C   UNL     1      -7.242  16.584   1.213  1.00  0.00    -0.000 C 
BRANCH  12  13
ATOM     13  C   UNL     1      -5.954  15.913   0.711  1.00  0.00    -0.003 C 
ATOM     14  C   UNL     1      -6.181  15.053  -0.532  1.00  0.00     0.004 C 
ENDBRANCH  12  13
ENDBRANCH  11  12
ENDBRANCH  10  11
ENDBRANCH   9  10
ENDBRANCH   1   9
TORSDOF 10
ENDMDL
MODEL 3
REMARK VINA RESULT:    -3.786      3.942      5.901
REMARK INTER + INTRA:          -6.985
REMARK INTER:                  -5.483
REMARK INTRA:                  -1.503
REMARK UNBOUND:                -0.986
REMARK SMILES CCCCCCCCCCCC(=O)[O-]
REMARK SMILES IDX 7 1 8 2 9 3 10 4 11 5 12 6 13 7 14 8 6 9 5 10 4 11 3 12 2 13
REMARK SMILES IDX 1 14
REMARK H PARENT
REMARK Flexibility Score: inf
ROOT
ATOM      1  C   UNL     1      -9.739  15.496   0.812  1.00  0.00     0.000 C 
ENDROOT
BRANCH   1   2
ATOM      2  C   UNL     1      -9.907  15.564  -0.715  1.00  0.00     0.000 C 
BRANCH   2   3
ATOM      3  C   UNL     1      -9.553  16.948  -1.287  1.00  0.00     0.000 C 
BRANCH   3   4
ATOM      4  C   UNL     1      -8.704  16.858  -2.567  1.00  0.00     0.006 C 
BRANCH   4   5
ATOM      5  C   UNL     1      -8.505  15.415  -3.046  1.00  0.00     0.053 C 
BRANCH   5   6
ATOM      6  C   UNL     1      -8.785  15.308  -4.511  1.00  0.00     0.041 C 
ATOM      7  O   UNL     1      -8.414  16.220  -5.296  1.00  0.00    -0.550 OA
ATOM      8  O   UNL     1      -9.413  14.177  -5.018  1.00  0.00    -0.550 OA
ENDBRANCH   5   6
ENDBRANCH   4   5
ENDBRANCH   3   4
ENDBRANCH   2   3
ENDBRANCH   1   2
BRANCH   1   9
ATOM      9  C   UNL     1      -9.185  16.805   1.404  1.00  0.00     0.000 C 
BRANCH   9  10
ATOM     10  C   UNL     1      -7.876  16.595   2.181  1.00  0.00    -0.000 C 
BRANCH  10  11
ATOM     11  C   UNL     1      -6.640  17.078   1.408  1.00  0.00    -0.000 C 
BRANCH  11  12
ATOM     12  C   UNL     1      -5.743  15.896   1.012  1.00  0.00    -0.000 C 
BRANCH  12  13
ATOM     13  C   UNL     1      -6.155  15.263  -0.326  1.00  0.00    -0.003 C 
ATOM     14  C   UNL     1      -6.527  13.786  -0.192  1.00  0.00     0.004 C 
ENDBRANCH  12  13
ENDBRANCH  11  12
ENDBRANCH  10  11
ENDBRANCH   9  10
ENDBRANCH   1   9
TORSDOF 10
ENDMDL
MODEL 4
REMARK VINA RESULT:    -3.737      1.037      2.580
REMARK INTER + INTRA:          -6.907
REMARK INTER:                  -5.625
REMARK INTRA:                  -1.282
REMARK UNBOUND:                -0.986
REMARK SMILES CCCCCCCCCCCC(=O)[O-]
REMARK SMILES IDX 7 1 8 2 9 3 10 4 11 5 12 6 13 7 14 8 6 9 5 10 4 11 3 12 2 13
REMARK SMILES IDX 1 14
REMARK H PARENT
REMARK Flexibility Score: inf
ROOT
ATOM      1  C   UNL     1      -6.605  14.052  -0.678  1.00  0.00     0.000 C 
ENDROOT
BRANCH   1   2
ATOM      2  C   UNL     1      -6.712  14.658   0.731  1.00  0.00     0.000 C 
BRANCH   2   3
ATOM      3  C   UNL     1      -5.758  15.848   0.936  1.00  0.00     0.000 C 
BRANCH   3   4
ATOM      4  C   UNL     1      -6.476  17.090   1.490  1.00  0.00     0.006 C 
BRANCH   4   5
ATOM      5  C   UNL     1      -7.015  16.880   2.910  1.00  0.00     0.053 C 
BRANCH   5   6
ATOM      6  C   UNL     1      -7.709  18.115   3.393  1.00  0.00     0.041 C 
ATOM      7  O   UNL     1      -8.967  18.159   3.438  1.00  0.00    -0.550 OA
ATOM      8  O   UNL     1      -6.966  19.200   3.841  1.00  0.00    -0.550 OA
ENDBRANCH   5   6
ENDBRANCH   4   5
ENDBRANCH   3   4
ENDBRANCH   2   3
ENDBRANCH   1   2
BRANCH   1   9
ATOM      9  C   UNL     1      -6.590  15.124  -1.782  1.00  0.00     0.000 C 
BRANCH   9  10
ATOM     10  C   UNL     1      -7.645  14.867  -2.869  1.00  0.00    -0.000 C 
BRANCH  10  11
ATOM     11  C   UNL     1      -8.573  16.072  -3.095  1.00  0.00    -0.000 C 
BRANCH  11  12
ATOM     12  C   UNL     1      -8.670  16.934  -1.829  1.00  0.00    -0.000 C 
BRANCH  12  13
ATOM     13  C   UNL     1     -10.030  16.801  -1.125  1.00  0.00    -0.003 C 
ATOM     14  C   UNL     1      -9.897  16.561   0.379  1.00  0.00     0.004 C 
ENDBRANCH  12  13
ENDBRANCH  11  12
ENDBRANCH  10  11
ENDBRANCH   9  10
ENDBRANCH   1   9
TORSDOF 10
ENDMDL
MODEL 5
REMARK VINA RESULT:    -3.737      3.285      6.373
REMARK INTER + INTRA:          -6.907
REMARK INTER:                  -5.714
REMARK INTRA:                  -1.193
REMARK UNBOUND:                -0.986
REMARK SMILES CCCCCCCCCCCC(=O)[O-]
REMARK SMILES IDX 7 1 8 2 9 3 10 4 11 5 12 6 13 7 14 8 6 9 5 10 4 11 3 12 2 13
REMARK SMILES IDX 1 14
REMARK H PARENT
REMARK Flexibility Score: inf
ROOT
ATOM      1  C   UNL     1      -8.483  15.525   0.553  1.00  0.00     0.000 C 
ENDROOT
BRANCH   1   2
ATOM      2  C   UNL     1      -8.791  16.864  -0.137  1.00  0.00     0.000 C 
BRANCH   2   3
ATOM      3  C   UNL     1      -9.600  16.687  -1.434  1.00  0.00     0.000 C 
BRANCH   3   4
ATOM      4  C   UNL     1      -8.711  16.686  -2.689  1.00  0.00     0.006 C 
BRANCH   4   5
ATOM      5  C   UNL     1      -8.478  15.277  -3.249  1.00  0.00     0.053 C 
BRANCH   5   6
ATOM      6  C   UNL     1      -7.021  14.939  -3.224  1.00  0.00     0.041 C 
ATOM      7  O   UNL     1      -6.367  15.035  -2.152  1.00  0.00    -0.550 OA
ATOM      8  O   UNL     1      -6.396  14.470  -4.372  1.00  0.00    -0.550 OA
ENDBRANCH   5   6
ENDBRANCH   4   5
ENDBRANCH   3   4
ENDBRANCH   2   3
ENDBRANCH   1   2
BRANCH   1   9
ATOM      9  C   UNL     1      -7.249  15.602   1.469  1.00  0.00     0.000 C 
BRANCH   9  10
ATOM     10  C   UNL     1      -6.612  17.000   1.486  1.00  0.00    -0.000 C 
BRANCH  10  11
ATOM     11  C   UNL     1      -6.441  17.559   2.907  1.00  0.00    -0.000 C 
BRANCH  11  12
ATOM     12  C   UNL     1      -7.734  17.398   3.719  1.00  0.00    -0.000 C 
BRANCH  12  13
ATOM     13  C   UNL     1      -8.794  18.452   3.360  1.00  0.00    -0.003 C 
ATOM     14  C   UNL     1     -10.202  17.866   3.265  1.00  0.00     0.004 C 
ENDBRANCH  12  13
ENDBRANCH  11  12
ENDBRANCH  10  11
ENDBRANCH   9  10
ENDBRANCH   1   9
TORSDOF 10
ENDMDL
MODEL 6
REMARK VINA RESULT:    -3.718      3.227      6.024
REMARK INTER + INTRA:          -6.878
REMARK INTER:                  -5.968
REMARK INTRA:                  -0.910
REMARK UNBOUND:                -0.986
REMARK SMILES CCCCCCCCCCCC(=O)[O-]
REMARK SMILES IDX 7 1 8 2 9 3 10 4 11 5 12 6 13 7 14 8 6 9 5 10 4 11 3 12 2 13
REMARK SMILES IDX 1 14
REMARK H PARENT
REMARK Flexibility Score: inf
ROOT
ATOM      1  C   UNL     1      -6.502  17.400   1.832  1.00  0.00     0.000 C 
ENDROOT
BRANCH   1   2
ATOM      2  C   UNL     1      -6.100  16.077   1.160  1.00  0.00     0.000 C 
BRANCH   2   3
ATOM      3  C   UNL     1      -6.982  15.740  -0.055  1.00  0.00     0.000 C 
BRANCH   3   4
ATOM      4  C   UNL     1      -8.375  16.386   0.031  1.00  0.00     0.006 C 
BRANCH   4   5
ATOM      5  C   UNL     1      -8.787  17.083  -1.272  1.00  0.00     0.053 C 
BRANCH   5   6
ATOM      6  C   UNL     1      -9.104  16.072  -2.328  1.00  0.00     0.041 C 
ATOM      7  O   UNL     1      -8.709  16.246  -3.511  1.00  0.00    -0.550 OA
ATOM      8  O   UNL     1      -9.793  14.912  -1.995  1.00  0.00    -0.550 OA
ENDBRANCH   5   6
ENDBRANCH   4   5
ENDBRANCH   3   4
ENDBRANCH   2   3
ENDBRANCH   1   2
BRANCH   1   9
ATOM      9  C   UNL     1      -6.736  17.246   3.345  1.00  0.00     0.000 C 
BRANCH   9  10
ATOM     10  C   UNL     1      -7.641  18.348   3.918  1.00  0.00    -0.000 C 
BRANCH  10  11
ATOM     11  C   UNL     1      -8.961  18.496   3.145  1.00  0.00    -0.000 C 
BRANCH  11  12
ATOM     12  C   UNL     1      -9.871  17.281   3.376  1.00  0.00    -0.000 C 
BRANCH  12  13
ATOM     13  C   UNL     1     -11.305  17.680   3.760  1.00  0.00    -0.003 C 
ATOM     14  C   UNL     1     -11.652  19.110   3.346  1.00  0.00     0.004 C 
ENDBRANCH  12  13
ENDBRANCH  11  12
ENDBRANCH  10  11
ENDBRANCH   9  10
ENDBRANCH   1   9
TORSDOF 10
ENDMDL
MODEL 7
REMARK VINA RESULT:    -3.693      1.178      2.448
REMARK INTER + INTRA:          -6.838
REMARK INTER:                  -5.422
REMARK INTRA:                  -1.415
REMARK UNBOUND:                -0.986
REMARK SMILES CCCCCCCCCCCC(=O)[O-]
REMARK SMILES IDX 7 1 8 2 9 3 10 4 11 5 12 6 13 7 14 8 6 9 5 10 4 11 3 12 2 13
REMARK SMILES IDX 1 14
REMARK H PARENT
REMARK Flexibility Score: inf
ROOT
ATOM      1  C   UNL     1      -9.970  16.054  -1.493  1.00  0.00     0.000 C 
ENDROOT
BRANCH   1   2
ATOM      2  C   UNL     1      -9.507  15.992  -0.028  1.00  0.00     0.000 C 
BRANCH   2   3
ATOM      3  C   UNL     1      -8.246  16.836   0.229  1.00  0.00     0.000 C 
BRANCH   3   4
ATOM      4  C   UNL     1      -7.467  16.370   1.470  1.00  0.00     0.006 C 
BRANCH   4   5
ATOM      5  C   UNL     1      -6.464  17.418   1.969  1.00  0.00     0.053 C 
BRANCH   5   6
ATOM      6  C   UNL     1      -6.940  18.028   3.249  1.00  0.00     0.041 C 
ATOM      7  O   UNL     1      -8.140  18.392   3.370  1.00  0.00    -0.550 OA
ATOM      8  O   UNL     1      -6.072  18.148   4.327  1.00  0.00    -0.550 OA
ENDBRANCH   5   6
ENDBRANCH   4   5
ENDBRANCH   3   4
ENDBRANCH   2   3
ENDBRANCH   1   2
BRANCH   1   9
ATOM      9  C   UNL     1      -8.921  16.696  -2.418  1.00  0.00     0.000 C 
BRANCH   9  10
ATOM     10  C   UNL     1      -8.580  15.814  -3.628  1.00  0.00    -0.000 C 
BRANCH  10  11
ATOM     11  C   UNL     1      -7.801  14.547  -3.242  1.00  0.00    -0.000 C 
BRANCH  11  12
ATOM     12  C   UNL     1      -6.528  14.903  -2.460  1.00  0.00    -0.000 C 
BRANCH  12  13
ATOM     13  C   UNL     1      -6.316  14.003  -1.233  1.00  0.00    -0.003 C 
ATOM     14  C   UNL     1      -7.469  13.024  -1.011  1.00  0.00     0.004 C 
ENDBRANCH  12  13
ENDBRANCH  11  12
ENDBRANCH  10  11
ENDBRANCH   9  10
ENDBRANCH   1   9
TORSDOF 10
ENDMDL
MODEL 8
REMARK VINA RESULT:    -3.689      4.115      6.596
REMARK INTER + INTRA:          -6.831
REMARK INTER:                  -5.760
REMARK INTRA:                  -1.070
REMARK UNBOUND:                -0.986
REMARK SMILES CCCCCCCCCCCC(=O)[O-]
REMARK SMILES IDX 7 1 8 2 9 3 10 4 11 5 12 6 13 7 14 8 6 9 5 10 4 11 3 12 2 13
REMARK SMILES IDX 1 14
REMARK H PARENT
REMARK Flexibility Score: inf
ROOT
ATOM      1  C   UNL     1      -9.382  16.684  -0.069  1.00  0.00     0.000 C 
ENDROOT
BRANCH   1   2
ATOM      2  C   UNL     1      -9.878  16.907  -1.507  1.00  0.00     0.000 C 
BRANCH   2   3
ATOM      3  C   UNL     1      -8.733  16.898  -2.535  1.00  0.00     0.000 C 
BRANCH   3   4
ATOM      4  C   UNL     1      -8.754  15.648  -3.430  1.00  0.00     0.006 C 
BRANCH   4   5
ATOM      5  C   UNL     1      -7.386  14.962  -3.525  1.00  0.00     0.053 C 
BRANCH   5   6
ATOM      6  C   UNL     1      -7.077  14.607  -4.945  1.00  0.00     0.041 C 
ATOM      7  O   UNL     1      -6.502  13.519  -5.215  1.00  0.00    -0.550 OA
ATOM      8  O   UNL     1      -7.470  15.452  -5.974  1.00  0.00    -0.550 OA
ENDBRANCH   5   6
ENDBRANCH   4   5
ENDBRANCH   3   4
ENDBRANCH   2   3
ENDBRANCH   1   2
BRANCH   1   9
ATOM      9  C   UNL     1      -9.329  15.194   0.313  1.00  0.00     0.000 C 
BRANCH   9  10
ATOM     10  C   UNL     1      -7.953  14.769   0.849  1.00  0.00    -0.000 C 
BRANCH  10  11
ATOM     11  C   UNL     1      -6.791  15.478   0.135  1.00  0.00    -0.000 C 
BRANCH  11  12
ATOM     12  C   UNL     1      -5.816  16.092   1.150  1.00  0.00    -0.000 C 
BRANCH  12  13
ATOM     13  C   UNL     1      -6.375  17.360   1.815  1.00  0.00    -0.003 C 
ATOM     14  C   UNL     1      -6.555  17.206   3.325  1.00  0.00     0.004 C 
ENDBRANCH  12  13
ENDBRANCH  11  12
ENDBRANCH  10  11
ENDBRANCH   9  10
ENDBRANCH   1   9
TORSDOF 10
ENDMDL
MODEL 9
REMARK VINA RESULT:    -3.656      4.996      7.249
REMARK INTER + INTRA:          -6.778
REMARK INTER:                  -5.444
REMARK INTRA:                  -1.334
REMARK UNBOUND:                -0.986
REMARK SMILES CCCCCCCCCCCC(=O)[O-]
REMARK SMILES IDX 7 1 8 2 9 3 10 4 11 5 12 6 13 7 14 8 6 9 5 10 4 11 3 12 2 13
REMARK SMILES IDX 1 14
REMARK H PARENT
REMARK Flexibility Score: inf
ROOT
ATOM      1  C   UNL     1      -6.491  14.682  -2.108  1.00  0.00     0.000 C 
ENDROOT
BRANCH   1   2
ATOM      2  C   UNL     1      -7.736  13.790  -2.242  1.00  0.00     0.000 C 
BRANCH   2   3
ATOM      3  C   UNL     1      -8.448  13.968  -3.594  1.00  0.00     0.000 C 
BRANCH   3   4
ATOM      4  C   UNL     1      -7.679  14.899  -4.547  1.00  0.00     0.006 C 
BRANCH   4   5
ATOM      5  C   UNL     1      -8.525  15.355  -5.742  1.00  0.00     0.053 C 
BRANCH   5   6
ATOM      6  C   UNL     1      -8.047  14.703  -7.000  1.00  0.00     0.041 C 
ATOM      7  O   UNL     1      -6.934  14.112  -7.025  1.00  0.00    -0.550 OA
ATOM      8  O   UNL     1      -8.851  14.702  -8.133  1.00  0.00    -0.550 OA
ENDBRANCH   5   6
ENDBRANCH   4   5
ENDBRANCH   3   4
ENDBRANCH   2   3
ENDBRANCH   1   2
BRANCH   1   9
ATOM      9  C   UNL     1      -6.120  14.963  -0.641  1.00  0.00     0.000 C 
BRANCH   9  10
ATOM     10  C   UNL     1      -7.353  15.088   0.267  1.00  0.00    -0.000 C 
BRANCH  10  11
ATOM     11  C   UNL     1      -8.012  16.474   0.188  1.00  0.00    -0.000 C 
BRANCH  11  12
ATOM     12  C   UNL     1      -9.534  16.349   0.022  1.00  0.00    -0.000 C 
BRANCH  12  13
ATOM     13  C   UNL     1     -10.022  16.843  -1.349  1.00  0.00    -0.003 C 
ATOM     14  C   UNL     1      -8.907  17.476  -2.181  1.00  0.00     0.004 C 
ENDBRANCH  12  13
ENDBRANCH  11  12
ENDBRANCH  10  11
ENDBRANCH   9  10
ENDBRANCH   1   9
TORSDOF 10
ENDMDL
