MODEL 1
REMARK VINA RESULT:    -5.059      0.000      0.000
REMARK INTER + INTRA:         -10.673
REMARK INTER:                  -9.495
REMARK INTRA:                  -1.179
REMARK UNBOUND:                -1.179
REMARK SMILES O=C([O-])CCCCCCCCCCCCCCC(=O)[O-]
REMARK SMILES IDX 10 1 9 2 8 3 7 4 6 5 5 6 4 7 2 8 1 9 3 10 11 11 12 12 13 13
REMARK SMILES IDX 14 14 15 15 16 16 17 17 18 18 19 19 20 20
REMARK H PARENT
REMARK Flexibility Score: inf
ROOT
ATOM      1  C   UNL     1      42.544 117.518  10.348  1.00  0.00     0.000 C 
ENDROOT
BRANCH   1   2
ATOM      2  C   UNL     1      41.124 117.875  10.817  1.00  0.00     0.000 C 
BRANCH   2   3
ATOM      3  C   UNL     1      40.729 117.151  12.112  1.00  0.00     0.000 C 
BRANCH   3   4
ATOM      4  C   UNL     1      39.321 117.560  12.563  1.00  0.00     0.000 C 
BRANCH   4   5
ATOM      5  C   UNL     1      39.321 118.977  13.153  1.00  0.00     0.000 C 
BRANCH   5   6
ATOM      6  C   UNL     1      38.126 119.235  14.090  1.00  0.00     0.006 C 
BRANCH   6   7
ATOM      7  C   UNL     1      36.911 119.880  13.405  1.00  0.00     0.053 C 
BRANCH   7   8
ATOM      8  C   UNL     1      35.654 119.100  13.639  1.00  0.00     0.041 C 
ATOM      9  O   UNL     1      34.902 118.805  12.673  1.00  0.00    -0.550 OA
ATOM     10  O   UNL     1      35.296 118.728  14.929  1.00  0.00    -0.550 OA
ENDBRANCH   7   8
ENDBRANCH   6   7
ENDBRANCH   5   6
ENDBRANCH   4   5
ENDBRANCH   3   4
ENDBRANCH   2   3
ENDBRANCH   1   2
BRANCH   1  11
ATOM     11  C   UNL     1      42.588 117.068   8.880  1.00  0.00     0.000 C 
BRANCH  11  12
ATOM     12  C   UNL     1      43.899 116.336   8.570  1.00  0.00     0.000 C 
BRANCH  12  13
ATOM     13  C   UNL     1      43.734 114.818   8.737  1.00  0.00     0.000 C 
BRANCH  13  14
ATOM     14  C   UNL     1      44.661 114.228   9.815  1.00  0.00     0.000 C 
BRANCH  14  15
ATOM     15  C   UNL     1      43.951 113.756  11.098  1.00  0.00     0.000 C 
BRANCH  15  16
ATOM     16  C   UNL     1      43.828 114.865  12.157  1.00  0.00     0.006 C 
BRANCH  16  17
ATOM     17  C   UNL     1      45.176 115.194  12.810  1.00  0.00     0.053 C 
BRANCH  17  18
ATOM     18  C   UNL     1      45.486 116.658  12.739  1.00  0.00     0.041 C 
ATOM     19  O   UNL     1      45.554 117.345  13.792  1.00  0.00    -0.550 OA
ATOM     20  O   UNL     1      45.727 117.259  11.509  1.00  0.00    -0.550 OA
ENDBRANCH  17  18
ENDBRANCH  16  17
ENDBRANCH  15  16
ENDBRANCH  14  15
ENDBRANCH  13  14
ENDBRANCH  12  13
ENDBRANCH  11  12
ENDBRANCH   1  11
TORSDOF 15
ENDMDL
MODEL 2
REMARK VINA RESULT:    -4.841      1.829      2.160
REMARK INTER + INTRA:         -10.265
REMARK INTER:                  -9.284
REMARK INTRA:                  -0.981
REMARK UNBOUND:                -1.179
REMARK SMILES O=C([O-])CCCCCCCCCCCCCCC(=O)[O-]
REMARK SMILES IDX 10 1 9 2 8 3 7 4 6 5 5 6 4 7 2 8 1 9 3 10 11 11 12 12 13 13
REMARK SMILES IDX 14 14 15 15 16 16 17 17 18 18 19 19 20 20
REMARK H PARENT
REMARK Flexibility Score: inf
ROOT
ATOM      1  C   UNL     1      42.392 116.598  11.285  1.00  0.00     0.000 C 
ENDROOT
BRANCH   1   2
ATOM      2  C   UNL     1      41.302 116.765  12.356  1.00  0.00     0.000 C 
BRANCH   2   3
ATOM      3  C   UNL     1      40.097 117.574  11.853  1.00  0.00     0.000 C 
BRANCH   3   4
ATOM      4  C   UNL     1      39.949 118.884  12.638  1.00  0.00     0.000 C 
BRANCH   4   5
ATOM      5  C   UNL     1      38.680 118.868  13.502  1.00  0.00     0.000 C 
BRANCH   5   6
ATOM      6  C   UNL     1      37.859 120.166  13.383  1.00  0.00     0.006 C 
BRANCH   6   7
ATOM      7  C   UNL     1      36.555 120.166  14.195  1.00  0.00     0.053 C 
BRANCH   7   8
ATOM      8  C   UNL     1      35.763 118.911  13.988  1.00  0.00     0.041 C 
ATOM      9  O   UNL     1      35.083 118.757  12.940  1.00  0.00    -0.550 OA
ATOM     10  O   UNL     1      35.752 117.926  14.968  1.00  0.00    -0.550 OA
ENDBRANCH   7   8
ENDBRANCH   6   7
ENDBRANCH   5   6
ENDBRANCH   4   5
ENDBRANCH   3   4
ENDBRANCH   2   3
ENDBRANCH   1   2
BRANCH   1  11
ATOM     11  C   UNL     1      42.157 117.490  10.057  1.00  0.00     0.000 C 
BRANCH  11  12
ATOM     12  C   UNL     1      42.946 116.975   8.847  1.00  0.00     0.000 C 
BRANCH  12  13
ATOM     13  C   UNL     1      44.213 116.229   9.293  1.00  0.00     0.000 C 
BRANCH  13  14
ATOM     14  C   UNL     1      44.458 114.933   8.499  1.00  0.00     0.000 C 
BRANCH  14  15
ATOM     15  C   UNL     1      45.050 113.769   9.315  1.00  0.00     0.000 C 
BRANCH  15  16
ATOM     16  C   UNL     1      45.051 114.039  10.830  1.00  0.00     0.006 C 
BRANCH  16  17
ATOM     17  C   UNL     1      44.895 112.751  11.647  1.00  0.00     0.053 C 
BRANCH  17  18
ATOM     18  C   UNL     1      44.519 113.036  13.069  1.00  0.00     0.041 C 
ATOM     19  O   UNL     1      45.188 112.542  14.014  1.00  0.00    -0.550 OA
ATOM     20  O   UNL     1      43.445 113.870  13.350  1.00  0.00    -0.550 OA
ENDBRANCH  17  18
ENDBRANCH  16  17
ENDBRANCH  15  16
ENDBRANCH  14  15
ENDBRANCH  13  14
ENDBRANCH  12  13
ENDBRANCH  11  12
ENDBRANCH   1  11
TORSDOF 15
ENDMDL
MODEL 3
REMARK VINA RESULT:    -4.789      1.151      7.904
REMARK INTER + INTRA:         -10.166
REMARK INTER:                  -9.000
REMARK INTRA:                  -1.166
REMARK UNBOUND:                -1.179
REMARK SMILES O=C([O-])CCCCCCCCCCCCCCC(=O)[O-]
REMARK SMILES IDX 10 1 9 2 8 3 7 4 6 5 5 6 4 7 2 8 1 9 3 10 11 11 12 12 13 13
REMARK SMILES IDX 14 14 15 15 16 16 17 17 18 18 19 19 20 20
REMARK H PARENT
REMARK Flexibility Score: inf
ROOT
ATOM      1  C   UNL     1      42.263 117.500   9.106  1.00  0.00     0.000 C 
ENDROOT
BRANCH   1   2
ATOM      2  C   UNL     1      43.573 116.746   9.385  1.00  0.00     0.000 C 
BRANCH   2   3
ATOM      3  C   UNL     1      43.536 115.293   8.890  1.00  0.00     0.000 C 
BRANCH   3   4
ATOM      4  C   UNL     1      44.949 114.777   8.592  1.00  0.00     0.000 C 
BRANCH   4   5
ATOM      5  C   UNL     1      45.392 113.745   9.639  1.00  0.00     0.000 C 
BRANCH   5   6
ATOM      6  C   UNL     1      44.453 113.690  10.859  1.00  0.00     0.006 C 
BRANCH   6   7
ATOM      7  C   UNL     1      45.165 113.839  12.213  1.00  0.00     0.053 C 
BRANCH   7   8
ATOM      8  C   UNL     1      44.930 115.185  12.827  1.00  0.00     0.041 C 
ATOM      9  O   UNL     1      44.159 115.304  13.815  1.00  0.00    -0.550 OA
ATOM     10  O   UNL     1      45.535 116.312  12.285  1.00  0.00    -0.550 OA
ENDBRANCH   7   8
ENDBRANCH   6   7
ENDBRANCH   5   6
ENDBRANCH   4   5
ENDBRANCH   3   4
ENDBRANCH   2   3
ENDBRANCH   1   2
BRANCH   1  11
ATOM     11  C   UNL     1      41.518 117.889  10.392  1.00  0.00     0.000 C 
BRANCH  11  12
ATOM     12  C   UNL     1      41.973 117.023  11.573  1.00  0.00     0.000 C 
BRANCH  12  13
ATOM     13  C   UNL     1      40.798 116.711  12.511  1.00  0.00     0.000 C 
BRANCH  13  14
ATOM     14  C   UNL     1      39.475 117.350  12.052  1.00  0.00     0.000 C 
BRANCH  14  15
ATOM     15  C   UNL     1      38.492 117.701  13.184  1.00  0.00     0.000 C 
BRANCH  15  16
ATOM     16  C   UNL     1      38.707 119.117  13.747  1.00  0.00     0.006 C 
BRANCH  16  17
ATOM     17  C   UNL     1      37.535 120.052  13.423  1.00  0.00     0.053 C 
BRANCH  17  18
ATOM     18  C   UNL     1      36.429 119.926  14.424  1.00  0.00     0.041 C 
ATOM     19  O   UNL     1      35.463 119.146  14.210  1.00  0.00    -0.550 OA
ATOM     20  O   UNL     1      36.477 120.650  15.609  1.00  0.00    -0.550 OA
ENDBRANCH  17  18
ENDBRANCH  16  17
ENDBRANCH  15  16
ENDBRANCH  14  15
ENDBRANCH  13  14
ENDBRANCH  12  13
ENDBRANCH  11  12
ENDBRANCH   1  11
TORSDOF 15
ENDMDL
MODEL 4
REMARK VINA RESULT:    -4.777      3.332      4.331
REMARK INTER + INTRA:         -10.144
REMARK INTER:                  -9.377
REMARK INTRA:                  -0.768
REMARK UNBOUND:                -1.179
REMARK SMILES O=C([O-])CCCCCCCCCCCCCCC(=O)[O-]
REMARK SMILES IDX 10 1 9 2 8 3 7 4 6 5 5 6 4 7 2 8 1 9 3 10 11 11 12 12 13 13
REMARK SMILES IDX 14 14 15 15 16 16 17 17 18 18 19 19 20 20
REMARK H PARENT
REMARK Flexibility Score: inf
ROOT
ATOM      1  C   UNL     1      43.499 116.917  10.562  1.00  0.00     0.000 C 
ENDROOT
BRANCH   1   2
ATOM      2  C   UNL     1      42.233 116.719  11.410  1.00  0.00     0.000 C 
BRANCH   2   3
ATOM      3  C   UNL     1      41.102 117.681  11.018  1.00  0.00     0.000 C 
BRANCH   3   4
ATOM      4  C   UNL     1      39.842 117.417  11.852  1.00  0.00     0.000 C 
BRANCH   4   5
ATOM      5  C   UNL     1      39.617 118.537  12.879  1.00  0.00     0.000 C 
BRANCH   5   6
ATOM      6  C   UNL     1      38.498 118.210  13.884  1.00  0.00     0.006 C 
BRANCH   6   7
ATOM      7  C   UNL     1      37.179 117.754  13.238  1.00  0.00     0.053 C 
BRANCH   7   8
ATOM      8  C   UNL     1      36.196 118.877  13.115  1.00  0.00     0.041 C 
ATOM      9  O   UNL     1      35.096 118.695  12.531  1.00  0.00    -0.550 OA
ATOM     10  O   UNL     1      36.510 120.135  13.616  1.00  0.00    -0.550 OA
ENDBRANCH   7   8
ENDBRANCH   6   7
ENDBRANCH   5   6
ENDBRANCH   4   5
ENDBRANCH   3   4
ENDBRANCH   2   3
ENDBRANCH   1   2
BRANCH   1  11
ATOM     11  C   UNL     1      43.266 116.623   9.072  1.00  0.00     0.000 C 
BRANCH  11  12
ATOM     12  C   UNL     1      44.411 115.782   8.493  1.00  0.00     0.000 C 
BRANCH  12  13
ATOM     13  C   UNL     1      45.038 114.888   9.574  1.00  0.00     0.000 C 
BRANCH  13  14
ATOM     14  C   UNL     1      45.646 113.594   9.004  1.00  0.00     0.000 C 
BRANCH  14  15
ATOM     15  C   UNL     1      45.297 113.301   7.533  1.00  0.00     0.000 C 
BRANCH  15  16
ATOM     16  C   UNL     1      46.536 113.011   6.669  1.00  0.00     0.006 C 
BRANCH  16  17
ATOM     17  C   UNL     1      46.740 114.068   5.576  1.00  0.00     0.053 C 
BRANCH  17  18
ATOM     18  C   UNL     1      48.159 114.107   5.098  1.00  0.00     0.041 C 
ATOM     19  O   UNL     1      48.632 115.161   4.597  1.00  0.00    -0.550 OA
ATOM     20  O   UNL     1      48.969 112.986   5.230  1.00  0.00    -0.550 OA
ENDBRANCH  17  18
ENDBRANCH  16  17
ENDBRANCH  15  16
ENDBRANCH  14  15
ENDBRANCH  13  14
ENDBRANCH  12  13
ENDBRANCH  11  12
ENDBRANCH   1  11
TORSDOF 15
ENDMDL
MODEL 5
REMARK VINA RESULT:    -4.775      2.470      8.937
REMARK INTER + INTRA:         -10.141
REMARK INTER:                  -9.250
REMARK INTRA:                  -0.891
REMARK UNBOUND:                -1.179
REMARK SMILES O=C([O-])CCCCCCCCCCCCCCC(=O)[O-]
REMARK SMILES IDX 10 1 9 2 8 3 7 4 6 5 5 6 4 7 2 8 1 9 3 10 11 11 12 12 13 13
REMARK SMILES IDX 14 14 15 15 16 16 17 17 18 18 19 19 20 20
REMARK H PARENT
REMARK Flexibility Score: inf
ROOT
ATOM      1  C   UNL     1      41.215 116.485  12.537  1.00  0.00     0.000 C 
ENDROOT
BRANCH   1   2
ATOM      2  C   UNL     1      40.506 117.492  11.617  1.00  0.00     0.000 C 
BRANCH   2   3
ATOM      3  C   UNL     1      41.358 117.885  10.402  1.00  0.00     0.000 C 
BRANCH   3   4
ATOM      4  C   UNL     1      42.634 117.037  10.327  1.00  0.00     0.000 C 
BRANCH   4   5
ATOM      5  C   UNL     1      43.024 116.756   8.869  1.00  0.00     0.000 C 
BRANCH   5   6
ATOM      6  C   UNL     1      44.324 115.940   8.744  1.00  0.00     0.006 C 
BRANCH   6   7
ATOM      7  C   UNL     1      44.334 114.637   9.561  1.00  0.00     0.053 C 
BRANCH   7   8
ATOM      8  C   UNL     1      45.230 113.601   8.954  1.00  0.00     0.041 C 
ATOM      9  O   UNL     1      45.417 113.578   7.709  1.00  0.00    -0.550 OA
ATOM     10  O   UNL     1      45.829 112.641   9.759  1.00  0.00    -0.550 OA
ENDBRANCH   7   8
ENDBRANCH   6   7
ENDBRANCH   5   6
ENDBRANCH   4   5
ENDBRANCH   3   4
ENDBRANCH   2   3
ENDBRANCH   1   2
BRANCH   1  11
ATOM     11  C   UNL     1      41.005 116.794  14.027  1.00  0.00     0.000 C 
BRANCH  11  12
ATOM     12  C   UNL     1      39.709 117.585  14.246  1.00  0.00     0.000 C 
BRANCH  12  13
ATOM     13  C   UNL     1      38.964 117.086  15.493  1.00  0.00     0.000 C 
BRANCH  13  14
ATOM     14  C   UNL     1      37.903 118.081  15.997  1.00  0.00     0.000 C 
BRANCH  14  15
ATOM     15  C   UNL     1      36.443 117.663  15.741  1.00  0.00     0.000 C 
BRANCH  15  16
ATOM     16  C   UNL     1      35.533 118.851  15.385  1.00  0.00     0.006 C 
BRANCH  16  17
ATOM     17  C   UNL     1      35.935 119.512  14.061  1.00  0.00     0.053 C 
BRANCH  17  18
ATOM     18  C   UNL     1      35.423 118.746  12.879  1.00  0.00     0.041 C 
ATOM     19  O   UNL     1      34.263 118.960  12.438  1.00  0.00    -0.550 OA
ATOM     20  O   UNL     1      36.238 117.815  12.248  1.00  0.00    -0.550 OA
ENDBRANCH  17  18
ENDBRANCH  16  17
ENDBRANCH  15  16
ENDBRANCH  14  15
ENDBRANCH  13  14
ENDBRANCH  12  13
ENDBRANCH  11  12
ENDBRANCH   1  11
TORSDOF 15
ENDMDL
MODEL 6
REMARK VINA RESULT:    -4.750      3.060      3.872
REMARK INTER + INTRA:         -10.093
REMARK INTER:                  -9.448
REMARK INTRA:                  -0.645
REMARK UNBOUND:                -1.179
REMARK SMILES O=C([O-])CCCCCCCCCCCCCCC(=O)[O-]
REMARK SMILES IDX 10 1 9 2 8 3 7 4 6 5 5 6 4 7 2 8 1 9 3 10 11 11 12 12 13 13
REMARK SMILES IDX 14 14 15 15 16 16 17 17 18 18 19 19 20 20
REMARK H PARENT
REMARK Flexibility Score: inf
ROOT
ATOM      1  C   UNL     1      41.360 117.902  10.491  1.00  0.00     0.000 C 
ENDROOT
BRANCH   1   2
ATOM      2  C   UNL     1      40.746 118.079  11.888  1.00  0.00     0.000 C 
BRANCH   2   3
ATOM      3  C   UNL     1      39.463 117.258  12.079  1.00  0.00     0.000 C 
BRANCH   3   4
ATOM      4  C   UNL     1      38.532 117.921  13.103  1.00  0.00     0.000 C 
BRANCH   4   5
ATOM      5  C   UNL     1      38.833 119.421  13.230  1.00  0.00     0.000 C 
BRANCH   5   6
ATOM      6  C   UNL     1      37.602 120.244  13.650  1.00  0.00     0.006 C 
BRANCH   6   7
ATOM      7  C   UNL     1      36.339 119.407  13.910  1.00  0.00     0.053 C 
BRANCH   7   8
ATOM      8  C   UNL     1      35.931 119.439  15.351  1.00  0.00     0.041 C 
ATOM      9  O   UNL     1      35.043 118.653  15.775  1.00  0.00    -0.550 OA
ATOM     10  O   UNL     1      36.507 120.358  16.218  1.00  0.00    -0.550 OA
ENDBRANCH   7   8
ENDBRANCH   6   7
ENDBRANCH   5   6
ENDBRANCH   4   5
ENDBRANCH   3   4
ENDBRANCH   2   3
ENDBRANCH   1   2
BRANCH   1  11
ATOM     11  C   UNL     1      42.635 117.046  10.508  1.00  0.00     0.000 C 
BRANCH  11  12
ATOM     12  C   UNL     1      43.108 116.737   9.083  1.00  0.00     0.000 C 
BRANCH  12  13
ATOM     13  C   UNL     1      44.503 116.094   9.093  1.00  0.00     0.000 C 
BRANCH  13  14
ATOM     14  C   UNL     1      44.513 114.671   8.506  1.00  0.00     0.000 C 
BRANCH  14  15
ATOM     15  C   UNL     1      45.306 113.634   9.322  1.00  0.00     0.000 C 
BRANCH  15  16
ATOM     16  C   UNL     1      46.095 112.651   8.439  1.00  0.00     0.006 C 
BRANCH  16  17
ATOM     17  C   UNL     1      45.705 112.761   6.960  1.00  0.00     0.053 C 
BRANCH  17  18
ATOM     18  C   UNL     1      46.853 113.218   6.114  1.00  0.00     0.041 C 
ATOM     19  O   UNL     1      46.762 114.274   5.435  1.00  0.00    -0.550 OA
ATOM     20  O   UNL     1      48.036 112.490   6.097  1.00  0.00    -0.550 OA
ENDBRANCH  17  18
ENDBRANCH  16  17
ENDBRANCH  15  16
ENDBRANCH  14  15
ENDBRANCH  13  14
ENDBRANCH  12  13
ENDBRANCH  11  12
ENDBRANCH   1  11
TORSDOF 15
ENDMDL
MODEL 7
REMARK VINA RESULT:    -4.736      1.350      7.485
REMARK INTER + INTRA:         -10.068
REMARK INTER:                  -8.732
REMARK INTRA:                  -1.337
REMARK UNBOUND:                -1.179
REMARK SMILES O=C([O-])CCCCCCCCCCCCCCC(=O)[O-]
REMARK SMILES IDX 10 1 9 2 8 3 7 4 6 5 5 6 4 7 2 8 1 9 3 10 11 11 12 12 13 13
REMARK SMILES IDX 14 14 15 15 16 16 17 17 18 18 19 19 20 20
REMARK H PARENT
REMARK Flexibility Score: inf
ROOT
ATOM      1  C   UNL     1      43.379 115.290   8.871  1.00  0.00     0.000 C 
ENDROOT
BRANCH   1   2
ATOM      2  C   UNL     1      44.847 114.902   8.637  1.00  0.00     0.000 C 
BRANCH   2   3
ATOM      3  C   UNL     1      45.319 113.781   9.575  1.00  0.00     0.000 C 
BRANCH   3   4
ATOM      4  C   UNL     1      44.344 113.595  10.745  1.00  0.00     0.000 C 
BRANCH   4   5
ATOM      5  C   UNL     1      44.950 112.692  11.829  1.00  0.00     0.000 C 
BRANCH   5   6
ATOM      6  C   UNL     1      44.842 113.298  13.240  1.00  0.00     0.006 C 
BRANCH   6   7
ATOM      7  C   UNL     1      44.497 114.795  13.262  1.00  0.00     0.053 C 
BRANCH   7   8
ATOM      8  C   UNL     1      45.698 115.644  13.547  1.00  0.00     0.041 C 
ATOM      9  O   UNL     1      46.688 115.157  14.151  1.00  0.00    -0.550 OA
ATOM     10  O   UNL     1      45.708 116.982  13.174  1.00  0.00    -0.550 OA
ENDBRANCH   7   8
ENDBRANCH   6   7
ENDBRANCH   5   6
ENDBRANCH   4   5
ENDBRANCH   3   4
ENDBRANCH   2   3
ENDBRANCH   1   2
BRANCH   1  11
ATOM     11  C   UNL     1      43.083 116.748   8.490  1.00  0.00     0.000 C 
BRANCH  11  12
ATOM     12  C   UNL     1      42.329 117.467   9.614  1.00  0.00     0.000 C 
BRANCH  12  13
ATOM     13  C   UNL     1      42.727 116.909  10.989  1.00  0.00     0.000 C 
BRANCH  13  14
ATOM     14  C   UNL     1      41.535 116.786  11.955  1.00  0.00     0.000 C 
BRANCH  14  15
ATOM     15  C   UNL     1      40.347 117.716  11.648  1.00  0.00     0.000 C 
BRANCH  15  16
ATOM     16  C   UNL     1      39.332 117.794  12.803  1.00  0.00     0.006 C 
BRANCH  16  17
ATOM     17  C   UNL     1      39.179 119.221  13.342  1.00  0.00     0.053 C 
BRANCH  17  18
ATOM     18  C   UNL     1      37.739 119.596  13.522  1.00  0.00     0.041 C 
ATOM     19  O   UNL     1      36.835 118.733  13.375  1.00  0.00    -0.550 OA
ATOM     20  O   UNL     1      37.399 120.895  13.878  1.00  0.00    -0.550 OA
ENDBRANCH  17  18
ENDBRANCH  16  17
ENDBRANCH  15  16
ENDBRANCH  14  15
ENDBRANCH  13  14
ENDBRANCH  12  13
ENDBRANCH  11  12
ENDBRANCH   1  11
TORSDOF 15
ENDMDL
MODEL 8
REMARK VINA RESULT:    -4.703      1.264      2.076
REMARK INTER + INTRA:         -10.005
REMARK INTER:                  -8.526
REMARK INTRA:                  -1.479
REMARK UNBOUND:                -1.179
REMARK SMILES O=C([O-])CCCCCCCCCCCCCCC(=O)[O-]
REMARK SMILES IDX 10 1 9 2 8 3 7 4 6 5 5 6 4 7 2 8 1 9 3 10 11 11 12 12 13 13
REMARK SMILES IDX 14 14 15 15 16 16 17 17 18 18 19 19 20 20
REMARK H PARENT
REMARK Flexibility Score: inf
ROOT
ATOM      1  C   UNL     1      43.066 116.778   8.577  1.00  0.00     0.000 C 
ENDROOT
BRANCH   1   2
ATOM      2  C   UNL     1      41.941 117.540   9.294  1.00  0.00     0.000 C 
BRANCH   2   3
ATOM      3  C   UNL     1      41.974 117.350  10.818  1.00  0.00     0.000 C 
BRANCH   3   4
ATOM      4  C   UNL     1      40.598 117.625  11.437  1.00  0.00     0.000 C 
BRANCH   4   5
ATOM      5  C   UNL     1      40.516 117.072  12.867  1.00  0.00     0.000 C 
BRANCH   5   6
ATOM      6  C   UNL     1      39.931 118.085  13.867  1.00  0.00     0.006 C 
BRANCH   6   7
ATOM      7  C   UNL     1      39.368 119.360  13.220  1.00  0.00     0.053 C 
BRANCH   7   8
ATOM      8  C   UNL     1      37.892 119.496  13.439  1.00  0.00     0.041 C 
ATOM      9  O   UNL     1      37.398 120.611  13.751  1.00  0.00    -0.550 OA
ATOM     10  O   UNL     1      37.067 118.383  13.331  1.00  0.00    -0.550 OA
ENDBRANCH   7   8
ENDBRANCH   6   7
ENDBRANCH   5   6
ENDBRANCH   4   5
ENDBRANCH   3   4
ENDBRANCH   2   3
ENDBRANCH   1   2
BRANCH   1  11
ATOM     11  C   UNL     1      44.054 116.124   9.553  1.00  0.00     0.000 C 
BRANCH  11  12
ATOM     12  C   UNL     1      44.153 114.614   9.304  1.00  0.00     0.000 C 
BRANCH  12  13
ATOM     13  C   UNL     1      45.264 113.986  10.159  1.00  0.00     0.000 C 
BRANCH  13  14
ATOM     14  C   UNL     1      44.721 113.145  11.327  1.00  0.00     0.000 C 
BRANCH  14  15
ATOM     15  C   UNL     1      43.685 113.857  12.217  1.00  0.00     0.000 C 
BRANCH  15  16
ATOM     16  C   UNL     1      44.303 114.467  13.487  1.00  0.00     0.006 C 
BRANCH  16  17
ATOM     17  C   UNL     1      43.901 115.934  13.679  1.00  0.00     0.053 C 
BRANCH  17  18
ATOM     18  C   UNL     1      45.084 116.850  13.601  1.00  0.00     0.041 C 
ATOM     19  O   UNL     1      45.727 116.968  12.525  1.00  0.00    -0.550 OA
ATOM     20  O   UNL     1      45.460 117.595  14.712  1.00  0.00    -0.550 OA
ENDBRANCH  17  18
ENDBRANCH  16  17
ENDBRANCH  15  16
ENDBRANCH  14  15
ENDBRANCH  13  14
ENDBRANCH  12  13
ENDBRANCH  11  12
ENDBRANCH   1  11
TORSDOF 15
ENDMDL
MODEL 9
REMARK VINA RESULT:    -4.694      2.278      3.723
REMARK INTER + INTRA:          -9.989
REMARK INTER:                  -8.817
REMARK INTRA:                  -1.173
REMARK UNBOUND:                -1.179
REMARK SMILES O=C([O-])CCCCCCCCCCCCCCC(=O)[O-]
REMARK SMILES IDX 10 1 9 2 8 3 7 4 6 5 5 6 4 7 2 8 1 9 3 10 11 11 12 12 13 13
REMARK SMILES IDX 14 14 15 15 16 16 17 17 18 18 19 19 20 20
REMARK H PARENT
REMARK Flexibility Score: inf
ROOT
ATOM      1  C   UNL     1      41.035 117.285  14.236  1.00  0.00     0.000 C 
ENDROOT
BRANCH   1   2
ATOM      2  C   UNL     1      39.658 117.802  14.683  1.00  0.00     0.000 C 
BRANCH   2   3
ATOM      3  C   UNL     1      38.639 116.672  14.888  1.00  0.00     0.000 C 
BRANCH   3   4
ATOM      4  C   UNL     1      37.297 117.015  14.230  1.00  0.00     0.000 C 
BRANCH   4   5
ATOM      5  C   UNL     1      36.280 117.500  15.272  1.00  0.00     0.000 C 
BRANCH   5   6
ATOM      6  C   UNL     1      35.676 118.873  14.925  1.00  0.00     0.006 C 
BRANCH   6   7
ATOM      7  C   UNL     1      36.391 120.063  15.584  1.00  0.00     0.053 C 
BRANCH   7   8
ATOM      8  C   UNL     1      37.040 120.958  14.573  1.00  0.00     0.041 C 
ATOM      9  O   UNL     1      37.588 120.466  13.552  1.00  0.00    -0.550 OA
ATOM     10  O   UNL     1      37.069 122.332  14.776  1.00  0.00    -0.550 OA
ENDBRANCH   7   8
ENDBRANCH   6   7
ENDBRANCH   5   6
ENDBRANCH   4   5
ENDBRANCH   3   4
ENDBRANCH   2   3
ENDBRANCH   1   2
BRANCH   1  11
ATOM     11  C   UNL     1      41.023 116.732  12.803  1.00  0.00     0.000 C 
BRANCH  11  12
ATOM     12  C   UNL     1      40.367 117.725  11.837  1.00  0.00     0.000 C 
BRANCH  12  13
ATOM     13  C   UNL     1      41.170 117.837  10.532  1.00  0.00     0.000 C 
BRANCH  13  14
ATOM     14  C   UNL     1      42.524 117.108  10.596  1.00  0.00     0.000 C 
BRANCH  14  15
ATOM     15  C   UNL     1      43.187 116.842   9.231  1.00  0.00     0.000 C 
BRANCH  15  16
ATOM     16  C   UNL     1      44.211 115.695   9.276  1.00  0.00     0.006 C 
BRANCH  16  17
ATOM     17  C   UNL     1      43.808 114.598  10.269  1.00  0.00     0.053 C 
BRANCH  17  18
ATOM     18  C   UNL     1      44.944 113.664  10.558  1.00  0.00     0.041 C 
ATOM     19  O   UNL     1      45.137 113.241  11.728  1.00  0.00    -0.550 OA
ATOM     20  O   UNL     1      45.774 113.240   9.528  1.00  0.00    -0.550 OA
ENDBRANCH  17  18
ENDBRANCH  16  17
ENDBRANCH  15  16
ENDBRANCH  14  15
ENDBRANCH  13  14
ENDBRANCH  12  13
ENDBRANCH  11  12
ENDBRANCH   1  11
TORSDOF 15
ENDMDL
