MODEL 1
REMARK VINA RESULT:    -3.595      0.000      0.000
REMARK INTER + INTRA:          -3.700
REMARK INTER:                  -3.700
REMARK INTRA:                   0.000
REMARK UNBOUND:                 0.000
REMARK SMILES CC1(C)[C@@H]2CC[C@@]1(C)[C@@H](O)C2
REMARK SMILES IDX 1 1 2 2 4 3 5 4 6 5 7 6 9 7 11 8 8 9 3 10 10 11
REMARK H PARENT 10 12
REMARK Flexibility Score: inf
ROOT
ATOM      1  C   UNL     1     133.136 139.905 141.397  1.00  0.00     0.012 C 
ATOM      2  C   UNL     1     133.764 140.984 140.462  1.00  0.00    -0.025 C 
ATOM      3  C   UNL     1     135.298 141.058 140.538  1.00  0.00    -0.002 C 
ATOM      4  C   UNL     1     135.562 141.501 141.998  1.00  0.00     0.005 C 
ATOM      5  C   UNL     1     134.387 142.457 142.283  1.00  0.00     0.010 C 
ATOM      6  C   UNL     1     133.609 142.449 140.936  1.00  0.00    -0.001 C 
ATOM      7  C   UNL     1     134.460 143.239 139.897  1.00  0.00     0.121 C 
ATOM      8  C   UNL     1     135.647 142.278 139.647  1.00  0.00     0.036 C 
ATOM      9  C   UNL     1     132.169 142.962 141.063  1.00  0.00     0.015 C 
ATOM     10  C   UNL     1     133.219 140.674 139.032  1.00  0.00     0.012 C 
ENDROOT
BRANCH   7  11
ATOM     11  O   UNL     1     134.891 144.479 140.396  1.00  0.00    -0.393 OA
ATOM     12  H   UNL     1     135.596 144.281 141.068  1.00  0.00     0.210 HD
ENDBRANCH   7  11
TORSDOF 1
ENDMDL
MODEL 2
REMARK VINA RESULT:    -3.532     12.341     13.836
REMARK INTER + INTRA:          -3.635
REMARK INTER:                  -3.635
REMARK INTRA:                   0.000
REMARK UNBOUND:                 0.000
REMARK SMILES CC1(C)[C@@H]2CC[C@@]1(C)[C@@H](O)C2
REMARK SMILES IDX 1 1 2 2 4 3 5 4 6 5 7 6 9 7 11 8 8 9 3 10 10 11
REMARK H PARENT 10 12
REMARK Flexibility Score: inf
ROOT
ATOM      1  C   UNL     1     148.504 141.725 141.411  1.00  0.00     0.012 C 
ATOM      2  C   UNL     1     147.854 140.652 140.485  1.00  0.00    -0.025 C 
ATOM      3  C   UNL     1     146.321 140.584 140.592  1.00  0.00    -0.002 C 
ATOM      4  C   UNL     1     146.085 140.137 142.055  1.00  0.00     0.005 C 
ATOM      5  C   UNL     1     147.261 139.175 142.313  1.00  0.00     0.010 C 
ATOM      6  C   UNL     1     148.012 139.184 140.951  1.00  0.00    -0.001 C 
ATOM      7  C   UNL     1     147.137 138.402 139.927  1.00  0.00     0.121 C 
ATOM      8  C   UNL     1     145.949 139.368 139.705  1.00  0.00     0.036 C 
ATOM      9  C   UNL     1     149.452 138.665 141.047  1.00  0.00     0.015 C 
ATOM     10  C   UNL     1     148.370 140.965 139.046  1.00  0.00     0.012 C 
ENDROOT
BRANCH   7  11
ATOM     11  O   UNL     1     146.711 137.161 140.431  1.00  0.00    -0.393 OA
ATOM     12  H   UNL     1     146.313 137.343 141.322  1.00  0.00     0.210 HD
ENDBRANCH   7  11
TORSDOF 1
ENDMDL
MODEL 3
REMARK VINA RESULT:    -3.517      8.561      9.732
REMARK INTER + INTRA:          -3.619
REMARK INTER:                  -3.619
REMARK INTRA:                   0.000
REMARK UNBOUND:                 0.000
REMARK SMILES CC1(C)[C@@H]2CC[C@@]1(C)[C@@H](O)C2
REMARK SMILES IDX 1 1 2 2 4 3 5 4 6 5 7 6 9 7 11 8 8 9 3 10 10 11
REMARK H PARENT 10 12
REMARK Flexibility Score: inf
ROOT
ATOM      1  C   UNL     1     139.880 148.479 141.442  1.00  0.00     0.012 C 
ATOM      2  C   UNL     1     140.941 147.828 140.500  1.00  0.00    -0.025 C 
ATOM      3  C   UNL     1     140.995 146.294 140.589  1.00  0.00    -0.002 C 
ATOM      4  C   UNL     1     141.450 146.037 142.047  1.00  0.00     0.005 C 
ATOM      5  C   UNL     1     142.426 147.201 142.311  1.00  0.00     0.010 C 
ATOM      6  C   UNL     1     142.413 147.968 140.957  1.00  0.00    -0.001 C 
ATOM      7  C   UNL     1     143.179 147.097 139.917  1.00  0.00     0.121 C 
ATOM      8  C   UNL     1     142.200 145.920 139.689  1.00  0.00     0.036 C 
ATOM      9  C   UNL     1     142.947 149.401 141.065  1.00  0.00     0.015 C 
ATOM     10  C   UNL     1     140.622 148.364 139.069  1.00  0.00     0.012 C 
ENDROOT
BRANCH   7  11
ATOM     11  O   UNL     1     144.419 146.653 140.407  1.00  0.00    -0.393 OA
ATOM     12  H   UNL     1     144.984 146.463 139.611  1.00  0.00     0.210 HD
ENDBRANCH   7  11
TORSDOF 1
ENDMDL
MODEL 4
REMARK VINA RESULT:    -3.464      8.613      9.771
REMARK INTER + INTRA:          -3.565
REMARK INTER:                  -3.565
REMARK INTRA:                   0.000
REMARK UNBOUND:                 0.000
REMARK SMILES CC1(C)[C@@H]2CC[C@@]1(C)[C@@H](O)C2
REMARK SMILES IDX 1 1 2 2 4 3 5 4 6 5 7 6 9 7 11 8 8 9 3 10 10 11
REMARK H PARENT 10 12
REMARK Flexibility Score: inf
ROOT
ATOM      1  C   UNL     1     141.741 133.132 141.407  1.00  0.00     0.012 C 
ATOM      2  C   UNL     1     140.677 133.800 140.481  1.00  0.00    -0.025 C 
ATOM      3  C   UNL     1     140.628 135.332 140.593  1.00  0.00    -0.002 C 
ATOM      4  C   UNL     1     140.182 135.569 142.057  1.00  0.00     0.005 C 
ATOM      5  C   UNL     1     139.204 134.404 142.309  1.00  0.00     0.010 C 
ATOM      6  C   UNL     1     139.207 133.658 140.944  1.00  0.00    -0.001 C 
ATOM      7  C   UNL     1     138.438 134.546 139.921  1.00  0.00     0.121 C 
ATOM      8  C   UNL     1     139.419 135.723 139.705  1.00  0.00     0.036 C 
ATOM      9  C   UNL     1     138.670 132.224 141.033  1.00  0.00     0.015 C 
ATOM     10  C   UNL     1     140.986 133.285 139.040  1.00  0.00     0.012 C 
ENDROOT
BRANCH   7  11
ATOM     11  O   UNL     1     137.202 134.986 140.425  1.00  0.00    -0.393 OA
ATOM     12  H   UNL     1     136.559 134.943 139.668  1.00  0.00     0.210 HD
ENDBRANCH   7  11
TORSDOF 1
ENDMDL
MODEL 5
REMARK VINA RESULT:    -3.369      7.805      9.302
REMARK INTER + INTRA:          -3.468
REMARK INTER:                  -3.468
REMARK INTRA:                   0.000
REMARK UNBOUND:                 0.000
REMARK SMILES CC1(C)[C@@H]2CC[C@@]1(C)[C@@H](O)C2
REMARK SMILES IDX 1 1 2 2 4 3 5 4 6 5 7 6 9 7 11 8 8 9 3 10 10 11
REMARK H PARENT 10 12
REMARK Flexibility Score: inf
ROOT
ATOM      1  C   UNL     1     139.522 146.748 139.261  1.00  0.00     0.012 C 
ATOM      2  C   UNL     1     140.601 146.440 140.344  1.00  0.00    -0.025 C 
ATOM      3  C   UNL     1     140.597 147.425 141.525  1.00  0.00    -0.002 C 
ATOM      4  C   UNL     1     140.975 148.774 140.865  1.00  0.00     0.005 C 
ATOM      5  C   UNL     1     141.977 148.352 139.773  1.00  0.00     0.010 C 
ATOM      6  C   UNL     1     142.055 146.810 139.962  1.00  0.00    -0.001 C 
ATOM      7  C   UNL     1     142.837 146.537 141.281  1.00  0.00     0.121 C 
ATOM      8  C   UNL     1     141.829 146.995 142.362  1.00  0.00     0.036 C 
ATOM      9  C   UNL     1     142.633 146.076 138.746  1.00  0.00     0.015 C 
ATOM     10  C   UNL     1     140.369 144.955 140.764  1.00  0.00     0.012 C 
ENDROOT
BRANCH   7  11
ATOM     11  O   UNL     1     144.037 147.265 141.348  1.00  0.00    -0.393 OA
ATOM     12  H   UNL     1     144.388 147.144 142.269  1.00  0.00     0.210 HD
ENDBRANCH   7  11
TORSDOF 1
ENDMDL
MODEL 6
REMARK VINA RESULT:    -3.364      1.217      2.600
REMARK INTER + INTRA:          -3.463
REMARK INTER:                  -3.463
REMARK INTRA:                   0.000
REMARK UNBOUND:                 0.000
REMARK SMILES CC1(C)[C@@H]2CC[C@@]1(C)[C@@H](O)C2
REMARK SMILES IDX 1 1 2 2 4 3 5 4 6 5 7 6 9 7 11 8 8 9 3 10 10 11
REMARK H PARENT 10 12
REMARK Flexibility Score: inf
ROOT
ATOM      1  C   UNL     1     134.726 139.565 139.107  1.00  0.00     0.012 C 
ATOM      2  C   UNL     1     135.078 140.587 140.232  1.00  0.00    -0.025 C 
ATOM      3  C   UNL     1     134.138 140.523 141.447  1.00  0.00    -0.002 C 
ATOM      4  C   UNL     1     132.766 140.935 140.859  1.00  0.00     0.005 C 
ATOM      5  C   UNL     1     133.149 141.992 139.804  1.00  0.00     0.010 C 
ATOM      6  C   UNL     1     134.698 142.058 139.938  1.00  0.00    -0.001 C 
ATOM      7  C   UNL     1     135.023 142.772 141.284  1.00  0.00     0.121 C 
ATOM      8  C   UNL     1     134.603 141.711 142.329  1.00  0.00     0.036 C 
ATOM      9  C   UNL     1     135.386 142.698 138.726  1.00  0.00     0.015 C 
ATOM     10  C   UNL     1     136.577 140.332 140.583  1.00  0.00     0.012 C 
ENDROOT
BRANCH   7  11
ATOM     11  O   UNL     1     134.300 143.967 141.440  1.00  0.00    -0.393 OA
ATOM     12  H   UNL     1     134.315 144.421 140.556  1.00  0.00     0.210 HD
ENDBRANCH   7  11
TORSDOF 1
ENDMDL
MODEL 7
REMARK VINA RESULT:    -3.348     11.880     13.358
REMARK INTER + INTRA:          -3.446
REMARK INTER:                  -3.446
REMARK INTRA:                   0.000
REMARK UNBOUND:                 0.000
REMARK SMILES CC1(C)[C@@H]2CC[C@@]1(C)[C@@H](O)C2
REMARK SMILES IDX 1 1 2 2 4 3 5 4 6 5 7 6 9 7 11 8 8 9 3 10 10 11
REMARK H PARENT 10 12
REMARK Flexibility Score: inf
ROOT
ATOM      1  C   UNL     1     146.930 142.108 139.193  1.00  0.00     0.012 C 
ATOM      2  C   UNL     1     146.557 141.036 140.264  1.00  0.00    -0.025 C 
ATOM      3  C   UNL     1     147.508 141.006 141.472  1.00  0.00    -0.002 C 
ATOM      4  C   UNL     1     148.863 140.587 140.850  1.00  0.00     0.005 C 
ATOM      5  C   UNL     1     148.440 139.601 139.742  1.00  0.00     0.010 C 
ATOM      6  C   UNL     1     146.892 139.573 139.886  1.00  0.00    -0.001 C 
ATOM      7  C   UNL     1     146.556 138.796 141.195  1.00  0.00     0.121 C 
ATOM      8  C   UNL     1     147.015 139.786 142.291  1.00  0.00     0.036 C 
ATOM      9  C   UNL     1     146.175 139.022 138.648  1.00  0.00     0.015 C 
ATOM     10  C   UNL     1     145.069 141.315 140.642  1.00  0.00     0.012 C 
ENDROOT
BRANCH   7  11
ATOM     11  O   UNL     1     147.244 137.574 141.278  1.00  0.00    -0.393 OA
ATOM     12  H   UNL     1     147.660 137.546 142.179  1.00  0.00     0.210 HD
ENDBRANCH   7  11
TORSDOF 1
ENDMDL
MODEL 8
REMARK VINA RESULT:    -3.340      1.030      2.668
REMARK INTER + INTRA:          -3.438
REMARK INTER:                  -3.438
REMARK INTRA:                   0.000
REMARK UNBOUND:                 0.000
REMARK SMILES CC1(C)[C@@H]2CC[C@@]1(C)[C@@H](O)C2
REMARK SMILES IDX 1 1 2 2 4 3 5 4 6 5 7 6 9 7 11 8 8 9 3 10 10 11
REMARK H PARENT 10 12
REMARK Flexibility Score: inf
ROOT
ATOM      1  C   UNL     1     134.624 139.508 139.397  1.00  0.00     0.012 C 
ATOM      2  C   UNL     1     133.940 140.581 140.300  1.00  0.00    -0.025 C 
ATOM      3  C   UNL     1     133.046 141.566 139.528  1.00  0.00    -0.002 C 
ATOM      4  C   UNL     1     134.045 142.306 138.606  1.00  0.00     0.005 C 
ATOM      5  C   UNL     1     135.311 142.404 139.481  1.00  0.00     0.010 C 
ATOM      6  C   UNL     1     134.863 141.717 140.802  1.00  0.00    -0.001 C 
ATOM      7  C   UNL     1     133.867 142.678 141.518  1.00  0.00     0.121 C 
ATOM      8  C   UNL     1     132.617 142.591 140.609  1.00  0.00     0.036 C 
ATOM      9  C   UNL     1     136.036 141.282 141.690  1.00  0.00     0.015 C 
ATOM     10  C   UNL     1     133.184 139.783 141.408  1.00  0.00     0.012 C 
ENDROOT
BRANCH   7  11
ATOM     11  O   UNL     1     134.361 143.991 141.597  1.00  0.00    -0.393 OA
ATOM     12  H   UNL     1     135.247 143.986 141.147  1.00  0.00     0.210 HD
ENDBRANCH   7  11
TORSDOF 1
ENDMDL
MODEL 9
REMARK VINA RESULT:    -3.319     12.301     13.775
REMARK INTER + INTRA:          -3.416
REMARK INTER:                  -3.416
REMARK INTRA:                   0.000
REMARK UNBOUND:                 0.000
REMARK SMILES CC1(C)[C@@H]2CC[C@@]1(C)[C@@H](O)C2
REMARK SMILES IDX 1 1 2 2 4 3 5 4 6 5 7 6 9 7 11 8 8 9 3 10 10 11
REMARK H PARENT 10 12
REMARK Flexibility Score: inf
ROOT
ATOM      1  C   UNL     1     147.022 142.147 139.389  1.00  0.00     0.012 C 
ATOM      2  C   UNL     1     147.693 141.092 140.322  1.00  0.00    -0.025 C 
ATOM      3  C   UNL     1     148.591 140.088 139.582  1.00  0.00    -0.002 C 
ATOM      4  C   UNL     1     147.599 139.330 138.665  1.00  0.00     0.005 C 
ATOM      5  C   UNL     1     146.324 139.256 139.528  1.00  0.00     0.010 C 
ATOM      6  C   UNL     1     146.760 139.971 140.839  1.00  0.00    -0.001 C 
ATOM      7  C   UNL     1     147.745 139.022 141.586  1.00  0.00     0.121 C 
ATOM      8  C   UNL     1     149.004 139.085 140.690  1.00  0.00     0.036 C 
ATOM      9  C   UNL     1     145.579 140.429 141.704  1.00  0.00     0.015 C 
ATOM     10  C   UNL     1     148.440 141.912 141.421  1.00  0.00     0.012 C 
ENDROOT
BRANCH   7  11
ATOM     11  O   UNL     1     147.245 137.713 141.688  1.00  0.00    -0.393 OA
ATOM     12  H   UNL     1     146.670 137.568 140.891  1.00  0.00     0.210 HD
ENDBRANCH   7  11
TORSDOF 1
ENDMDL
