MODEL 1
REMARK VINA RESULT:    -5.616      0.000      0.000
REMARK INTER + INTRA:          -9.904
REMARK INTER:                  -8.570
REMARK INTRA:                  -1.334
REMARK UNBOUND:                -1.334
REMARK SMILES CC(=O)CCC=C(C)CCC=C(C)CCC=C(C)C
REMARK SMILES IDX 10 1 11 2 12 3 13 4 14 5 15 6 16 7 18 8 17 9 19 10 9 11 7 12
REMARK SMILES IDX 6 13 8 14 5 15 4 16 2 17 3 18 1 19
REMARK H PARENT
REMARK Flexibility Score: inf
ROOT
ATOM      1  C   UNL     1      -8.460  29.653  41.971  1.00  0.00     0.032 C 
ENDROOT
BRANCH   1   2
ATOM      2  C   UNL     1      -8.407  29.985  40.501  1.00  0.00    -0.028 C 
ATOM      3  C   UNL     1      -8.686  29.111  39.508  1.00  0.00    -0.077 C 
ATOM      4  C   UNL     1      -9.037  27.669  39.790  1.00  0.00     0.039 C 
BRANCH   3   5
ATOM      5  C   UNL     1      -8.635  29.589  38.072  1.00  0.00     0.034 C 
BRANCH   5   6
ATOM      6  C   UNL     1      -8.039  30.998  37.987  1.00  0.00     0.032 C 
BRANCH   6   7
ATOM      7  C   UNL     1      -8.957  31.938  37.242  1.00  0.00    -0.028 C 
ATOM      8  C   UNL     1      -9.851  34.160  36.607  1.00  0.00     0.039 C 
ATOM      9  C   UNL     1      -8.903  33.281  37.381  1.00  0.00    -0.080 C 
ATOM     10  C   UNL     1      -7.907  33.941  38.301  1.00  0.00     0.039 C 
ENDBRANCH   6   7
ENDBRANCH   5   6
ENDBRANCH   3   5
ENDBRANCH   1   2
BRANCH   1  11
ATOM     11  C   UNL     1      -7.570  30.607  42.775  1.00  0.00     0.034 C 
BRANCH  11  12
ATOM     12  C   UNL     1      -8.097  30.762  44.188  1.00  0.00    -0.077 C 
ATOM     13  C   UNL     1      -9.008  31.700  44.537  1.00  0.00    -0.028 C 
ATOM     14  C   UNL     1      -7.530  29.880  45.270  1.00  0.00     0.039 C 
BRANCH  13  15
ATOM     15  C   UNL     1      -9.688  32.646  43.576  1.00  0.00     0.035 C 
BRANCH  15  16
ATOM     16  C   UNL     1      -8.996  34.015  43.547  1.00  0.00     0.079 C 
BRANCH  16  17
ATOM     17  C   UNL     1      -8.383  34.298  42.199  1.00  0.00     0.130 C 
ATOM     18  O   UNL     1      -9.076  34.764  41.308  1.00  0.00    -0.300 OA
ATOM     19  C   UNL     1      -6.933  34.022  41.929  1.00  0.00     0.087 C 
ENDBRANCH  16  17
ENDBRANCH  15  16
ENDBRANCH  13  15
ENDBRANCH  11  12
ENDBRANCH   1  11
TORSDOF 9
ENDMDL
MODEL 2
REMARK VINA RESULT:    -5.427     18.197     20.489
REMARK INTER + INTRA:          -9.616
REMARK INTER:                  -7.728
REMARK INTRA:                  -1.888
REMARK UNBOUND:                -1.334
REMARK SMILES CC(=O)CCC=C(C)CCC=C(C)CCC=C(C)C
REMARK SMILES IDX 10 1 11 2 12 3 13 4 14 5 15 6 16 7 18 8 17 9 19 10 9 11 7 12
REMARK SMILES IDX 6 13 8 14 5 15 4 16 2 17 3 18 1 19
REMARK H PARENT
REMARK Flexibility Score: inf
ROOT
ATOM      1  C   UNL     1       1.282  16.800  50.703  1.00  0.00     0.032 C 
ENDROOT
BRANCH   1   2
ATOM      2  C   UNL     1      -0.211  16.675  50.535  1.00  0.00    -0.028 C 
ATOM      3  C   UNL     1      -1.078  17.713  50.588  1.00  0.00    -0.077 C 
ATOM      4  C   UNL     1      -0.618  19.121  50.881  1.00  0.00     0.039 C 
BRANCH   3   5
ATOM      5  C   UNL     1      -2.552  17.451  50.360  1.00  0.00     0.034 C 
BRANCH   5   6
ATOM      6  C   UNL     1      -3.126  16.558  51.464  1.00  0.00     0.032 C 
BRANCH   6   7
ATOM      7  C   UNL     1      -3.094  17.252  52.804  1.00  0.00    -0.028 C 
ATOM      8  C   UNL     1      -2.403  17.529  55.167  1.00  0.00     0.039 C 
ATOM      9  C   UNL     1      -2.389  16.784  53.857  1.00  0.00    -0.080 C 
ATOM     10  C   UNL     1      -1.575  15.518  53.764  1.00  0.00     0.039 C 
ENDBRANCH   6   7
ENDBRANCH   5   6
ENDBRANCH   3   5
ENDBRANCH   1   2
BRANCH   1  11
ATOM     11  C   UNL     1       1.992  15.539  50.199  1.00  0.00     0.034 C 
BRANCH  11  12
ATOM     12  C   UNL     1       2.777  15.839  48.937  1.00  0.00    -0.077 C 
ATOM     13  C   UNL     1       2.343  15.503  47.701  1.00  0.00    -0.028 C 
ATOM     14  C   UNL     1       4.136  16.475  49.068  1.00  0.00     0.039 C 
BRANCH  13  15
ATOM     15  C   UNL     1       1.001  14.880  47.394  1.00  0.00     0.035 C 
BRANCH  15  16
ATOM     16  C   UNL     1       0.199  15.728  46.398  1.00  0.00     0.079 C 
BRANCH  16  17
ATOM     17  C   UNL     1      -1.276  15.705  46.712  1.00  0.00     0.130 C 
ATOM     18  O   UNL     1      -2.046  16.371  46.037  1.00  0.00    -0.300 OA
ATOM     19  C   UNL     1      -1.819  14.875  47.838  1.00  0.00     0.087 C 
ENDBRANCH  16  17
ENDBRANCH  15  16
ENDBRANCH  13  15
ENDBRANCH  11  12
ENDBRANCH   1  11
TORSDOF 9
ENDMDL
MODEL 3
REMARK VINA RESULT:    -5.420      1.639      5.024
REMARK INTER + INTRA:          -9.606
REMARK INTER:                  -8.151
REMARK INTRA:                  -1.454
REMARK UNBOUND:                -1.334
REMARK SMILES CC(=O)CCC=C(C)CCC=C(C)CCC=C(C)C
REMARK SMILES IDX 10 1 11 2 12 3 13 4 14 5 15 6 16 7 18 8 17 9 19 10 9 11 7 12
REMARK SMILES IDX 6 13 8 14 5 15 4 16 2 17 3 18 1 19
REMARK H PARENT
REMARK Flexibility Score: inf
ROOT
ATOM      1  C   UNL     1      -8.282  29.080  42.452  1.00  0.00     0.032 C 
ENDROOT
BRANCH   1   2
ATOM      2  C   UNL     1      -8.987  30.229  43.128  1.00  0.00    -0.028 C 
ATOM      3  C   UNL     1      -8.607  30.775  44.306  1.00  0.00    -0.077 C 
ATOM      4  C   UNL     1      -7.441  30.231  45.097  1.00  0.00     0.039 C 
BRANCH   3   5
ATOM      5  C   UNL     1      -9.381  31.956  44.852  1.00  0.00     0.034 C 
BRANCH   5   6
ATOM      6  C   UNL     1      -9.324  33.142  43.882  1.00  0.00     0.032 C 
BRANCH   6   7
ATOM      7  C   UNL     1      -7.997  33.201  43.164  1.00  0.00    -0.028 C 
ATOM      8  C   UNL     1      -6.442  33.959  41.391  1.00  0.00     0.039 C 
ATOM      9  C   UNL     1      -7.794  33.947  42.057  1.00  0.00    -0.080 C 
ATOM     10  C   UNL     1      -8.894  34.786  41.455  1.00  0.00     0.039 C 
ENDBRANCH   6   7
ENDBRANCH   5   6
ENDBRANCH   3   5
ENDBRANCH   1   2
BRANCH   1  11
ATOM     11  C   UNL     1      -9.004  28.685  41.160  1.00  0.00     0.034 C 
BRANCH  11  12
ATOM     12  C   UNL     1      -8.236  29.179  39.950  1.00  0.00    -0.077 C 
ATOM     13  C   UNL     1      -8.488  30.365  39.349  1.00  0.00    -0.028 C 
ATOM     14  C   UNL     1      -7.192  28.278  39.342  1.00  0.00     0.039 C 
BRANCH  13  15
ATOM     15  C   UNL     1      -9.483  31.390  39.841  1.00  0.00     0.035 C 
BRANCH  15  16
ATOM     16  C   UNL     1     -10.100  32.180  38.679  1.00  0.00     0.079 C 
BRANCH  16  17
ATOM     17  C   UNL     1      -9.048  32.649  37.707  1.00  0.00     0.130 C 
ATOM     18  O   UNL     1      -8.989  32.147  36.595  1.00  0.00    -0.300 OA
ATOM     19  C   UNL     1      -8.071  33.727  38.076  1.00  0.00     0.087 C 
ENDBRANCH  16  17
ENDBRANCH  15  16
ENDBRANCH  13  15
ENDBRANCH  11  12
ENDBRANCH   1  11
TORSDOF 9
ENDMDL
MODEL 4
REMARK VINA RESULT:    -5.304     18.448     20.806
REMARK INTER + INTRA:          -9.428
REMARK INTER:                  -8.219
REMARK INTRA:                  -1.209
REMARK UNBOUND:                -1.334
REMARK SMILES CC(=O)CCC=C(C)CCC=C(C)CCC=C(C)C
REMARK SMILES IDX 10 1 11 2 12 3 13 4 14 5 15 6 16 7 18 8 17 9 19 10 9 11 7 12
REMARK SMILES IDX 6 13 8 14 5 15 4 16 2 17 3 18 1 19
REMARK H PARENT
REMARK Flexibility Score: inf
ROOT
ATOM      1  C   UNL     1      -2.415  16.670  49.250  1.00  0.00     0.032 C 
ENDROOT
BRANCH   1   2
ATOM      2  C   UNL     1      -2.504  16.797  50.751  1.00  0.00    -0.028 C 
ATOM      3  C   UNL     1      -1.601  17.449  51.519  1.00  0.00    -0.077 C 
ATOM      4  C   UNL     1      -0.361  18.081  50.931  1.00  0.00     0.039 C 
BRANCH   3   5
ATOM      5  C   UNL     1      -1.835  17.537  53.012  1.00  0.00     0.034 C 
BRANCH   5   6
ATOM      6  C   UNL     1      -2.268  16.180  53.579  1.00  0.00     0.032 C 
BRANCH   6   7
ATOM      7  C   UNL     1      -3.249  16.347  54.715  1.00  0.00    -0.028 C 
ATOM      8  C   UNL     1      -5.508  16.445  55.726  1.00  0.00     0.039 C 
ATOM      9  C   UNL     1      -4.587  16.268  54.547  1.00  0.00    -0.080 C 
ATOM     10  C   UNL     1      -5.200  16.003  53.195  1.00  0.00     0.039 C 
ENDBRANCH   6   7
ENDBRANCH   5   6
ENDBRANCH   3   5
ENDBRANCH   1   2
BRANCH   1  11
ATOM     11  C   UNL     1      -1.625  15.417  48.859  1.00  0.00     0.034 C 
BRANCH  11  12
ATOM     12  C   UNL     1      -0.959  15.607  47.510  1.00  0.00    -0.077 C 
ATOM     13  C   UNL     1       0.380  15.531  47.331  1.00  0.00    -0.028 C 
ATOM     14  C   UNL     1      -1.818  15.970  46.327  1.00  0.00     0.039 C 
BRANCH  13  15
ATOM     15  C   UNL     1       1.377  15.160  48.404  1.00  0.00     0.035 C 
BRANCH  15  16
ATOM     16  C   UNL     1       2.811  15.512  47.988  1.00  0.00     0.079 C 
BRANCH  16  17
ATOM     17  C   UNL     1       3.530  16.279  49.069  1.00  0.00     0.130 C 
ATOM     18  O   UNL     1       3.078  16.286  50.204  1.00  0.00    -0.300 OA
ATOM     19  C   UNL     1       4.794  17.034  48.779  1.00  0.00     0.087 C 
ENDBRANCH  16  17
ENDBRANCH  15  16
ENDBRANCH  13  15
ENDBRANCH  11  12
ENDBRANCH   1  11
TORSDOF 9
ENDMDL
MODEL 5
REMARK VINA RESULT:    -5.247     18.087     20.094
REMARK INTER + INTRA:          -9.341
REMARK INTER:                  -7.915
REMARK INTRA:                  -1.426
REMARK UNBOUND:                -1.334
REMARK SMILES CC(=O)CCC=C(C)CCC=C(C)CCC=C(C)C
REMARK SMILES IDX 10 1 11 2 12 3 13 4 14 5 15 6 16 7 18 8 17 9 19 10 9 11 7 12
REMARK SMILES IDX 6 13 8 14 5 15 4 16 2 17 3 18 1 19
REMARK H PARENT
REMARK Flexibility Score: inf
ROOT
ATOM      1  C   UNL     1      -2.873  17.135  49.359  1.00  0.00     0.032 C 
ENDROOT
BRANCH   1   2
ATOM      2  C   UNL     1      -1.700  16.248  49.024  1.00  0.00    -0.028 C 
ATOM      3  C   UNL     1      -1.446  15.747  47.793  1.00  0.00    -0.077 C 
ATOM      4  C   UNL     1      -2.370  15.996  46.624  1.00  0.00     0.039 C 
BRANCH   3   5
ATOM      5  C   UNL     1      -0.206  14.903  47.585  1.00  0.00     0.034 C 
BRANCH   5   6
ATOM      6  C   UNL     1       0.655  14.876  48.852  1.00  0.00     0.032 C 
BRANCH   6   7
ATOM      7  C   UNL     1       2.039  15.420  48.587  1.00  0.00    -0.028 C 
ATOM      8  C   UNL     1       4.131  16.606  49.182  1.00  0.00     0.039 C 
ATOM      9  C   UNL     1       2.755  16.090  49.516  1.00  0.00    -0.080 C 
ATOM     10  C   UNL     1       2.215  16.342  50.901  1.00  0.00     0.039 C 
ENDBRANCH   6   7
ENDBRANCH   5   6
ENDBRANCH   3   5
ENDBRANCH   1   2
BRANCH   1  11
ATOM     11  C   UNL     1      -2.994  17.322  50.875  1.00  0.00     0.034 C 
BRANCH  11  12
ATOM     12  C   UNL     1      -1.631  17.568  51.492  1.00  0.00    -0.077 C 
ATOM     13  C   UNL     1      -1.182  16.901  52.580  1.00  0.00    -0.028 C 
ATOM     14  C   UNL     1      -0.764  18.656  50.912  1.00  0.00     0.039 C 
BRANCH  13  15
ATOM     15  C   UNL     1      -1.915  15.774  53.267  1.00  0.00     0.035 C 
BRANCH  15  16
ATOM     16  C   UNL     1      -2.221  16.109  54.733  1.00  0.00     0.079 C 
BRANCH  16  17
ATOM     17  C   UNL     1      -3.121  17.313  54.851  1.00  0.00     0.130 C 
ATOM     18  O   UNL     1      -4.193  17.323  54.265  1.00  0.00    -0.300 OA
ATOM     19  C   UNL     1      -2.728  18.502  55.677  1.00  0.00     0.087 C 
ENDBRANCH  16  17
ENDBRANCH  15  16
ENDBRANCH  13  15
ENDBRANCH  11  12
ENDBRANCH   1  11
TORSDOF 9
ENDMDL
MODEL 6
REMARK VINA RESULT:    -5.155     18.891     21.130
REMARK INTER + INTRA:          -9.201
REMARK INTER:                  -7.677
REMARK INTRA:                  -1.525
REMARK UNBOUND:                -1.334
REMARK SMILES CC(=O)CCC=C(C)CCC=C(C)CCC=C(C)C
REMARK SMILES IDX 10 1 11 2 12 3 13 4 14 5 15 6 16 7 18 8 17 9 19 10 9 11 7 12
REMARK SMILES IDX 6 13 8 14 5 15 4 16 2 17 3 18 1 19
REMARK H PARENT
REMARK Flexibility Score: inf
ROOT
ATOM      1  C   UNL     1      -1.968  15.285  51.154  1.00  0.00     0.032 C 
ENDROOT
BRANCH   1   2
ATOM      2  C   UNL     1      -3.142  15.132  52.089  1.00  0.00    -0.028 C 
ATOM      3  C   UNL     1      -4.125  16.049  52.240  1.00  0.00    -0.077 C 
ATOM      4  C   UNL     1      -4.107  17.367  51.502  1.00  0.00     0.039 C 
BRANCH   3   5
ATOM      5  C   UNL     1      -5.270  15.749  53.184  1.00  0.00     0.034 C 
BRANCH   5   6
ATOM      6  C   UNL     1      -4.783  15.704  54.637  1.00  0.00     0.032 C 
BRANCH   6   7
ATOM      7  C   UNL     1      -4.504  17.091  55.165  1.00  0.00    -0.028 C 
ATOM      8  C   UNL     1      -3.054  18.925  55.985  1.00  0.00     0.039 C 
ATOM      9  C   UNL     1      -3.260  17.527  55.461  1.00  0.00    -0.080 C 
ATOM     10  C   UNL     1      -2.049  16.646  55.280  1.00  0.00     0.039 C 
ENDBRANCH   6   7
ENDBRANCH   5   6
ENDBRANCH   3   5
ENDBRANCH   1   2
BRANCH   1  11
ATOM     11  C   UNL     1      -0.714  15.710  51.924  1.00  0.00     0.034 C 
BRANCH  11  12
ATOM     12  C   UNL     1      -0.142  16.989  51.345  1.00  0.00    -0.077 C 
ATOM     13  C   UNL     1       1.136  17.097  50.914  1.00  0.00    -0.028 C 
ATOM     14  C   UNL     1      -1.013  18.218  51.313  1.00  0.00     0.039 C 
BRANCH  13  15
ATOM     15  C   UNL     1       2.130  15.962  50.860  1.00  0.00     0.035 C 
BRANCH  15  16
ATOM     16  C   UNL     1       2.073  15.225  49.515  1.00  0.00     0.079 C 
BRANCH  16  17
ATOM     17  C   UNL     1       3.061  15.794  48.529  1.00  0.00     0.130 C 
ATOM     18  O   UNL     1       2.909  15.586  47.335  1.00  0.00    -0.300 OA
ATOM     19  C   UNL     1       4.230  16.617  48.985  1.00  0.00     0.087 C 
ENDBRANCH  16  17
ENDBRANCH  15  16
ENDBRANCH  13  15
ENDBRANCH  11  12
ENDBRANCH   1  11
TORSDOF 9
ENDMDL
MODEL 7
REMARK VINA RESULT:    -5.124      1.356      5.358
REMARK INTER + INTRA:          -9.155
REMARK INTER:                  -8.422
REMARK INTRA:                  -0.732
REMARK UNBOUND:                -1.334
REMARK SMILES CC(=O)CCC=C(C)CCC=C(C)CCC=C(C)C
REMARK SMILES IDX 10 1 11 2 12 3 13 4 14 5 15 6 16 7 18 8 17 9 19 10 9 11 7 12
REMARK SMILES IDX 6 13 8 14 5 15 4 16 2 17 3 18 1 19
REMARK H PARENT
REMARK Flexibility Score: inf
ROOT
ATOM      1  C   UNL     1      -8.655  31.126  38.479  1.00  0.00     0.032 C 
ENDROOT
BRANCH   1   2
ATOM      2  C   UNL     1      -8.830  29.944  39.400  1.00  0.00    -0.028 C 
ATOM      3  C   UNL     1      -8.212  29.806  40.595  1.00  0.00    -0.077 C 
ATOM      4  C   UNL     1      -7.226  30.829  41.106  1.00  0.00     0.039 C 
BRANCH   3   5
ATOM      5  C   UNL     1      -8.511  28.585  41.440  1.00  0.00     0.034 C 
BRANCH   5   6
ATOM      6  C   UNL     1      -8.378  28.907  42.932  1.00  0.00     0.032 C 
BRANCH   6   7
ATOM      7  C   UNL     1      -9.244  30.082  43.320  1.00  0.00    -0.028 C 
ATOM      8  C   UNL     1      -9.766  32.171  44.544  1.00  0.00     0.039 C 
ATOM      9  C   UNL     1      -8.850  31.025  44.204  1.00  0.00    -0.080 C 
ATOM     10  C   UNL     1      -7.500  30.967  44.873  1.00  0.00     0.039 C 
ENDBRANCH   6   7
ENDBRANCH   5   6
ENDBRANCH   3   5
ENDBRANCH   1   2
BRANCH   1  11
ATOM     11  C   UNL     1      -9.913  32.001  38.477  1.00  0.00     0.034 C 
BRANCH  11  12
ATOM     12  C   UNL     1      -9.652  33.305  37.748  1.00  0.00    -0.077 C 
ATOM     13  C   UNL     1      -9.486  34.486  38.387  1.00  0.00    -0.028 C 
ATOM     14  C   UNL     1      -9.648  33.300  36.242  1.00  0.00     0.039 C 
BRANCH  13  15
ATOM     15  C   UNL     1      -9.443  34.661  39.886  1.00  0.00     0.035 C 
BRANCH  15  16
ATOM     16  C   UNL     1      -8.237  33.941  40.505  1.00  0.00     0.079 C 
BRANCH  16  17
ATOM     17  C   UNL     1      -7.929  34.462  41.886  1.00  0.00     0.130 C 
ATOM     18  O   UNL     1      -6.799  34.346  42.335  1.00  0.00    -0.300 OA
ATOM     19  C   UNL     1      -8.984  35.125  42.722  1.00  0.00     0.087 C 
ENDBRANCH  16  17
ENDBRANCH  15  16
ENDBRANCH  13  15
ENDBRANCH  11  12
ENDBRANCH   1  11
TORSDOF 9
ENDMDL
MODEL 8
REMARK VINA RESULT:    -5.107     18.730     20.590
REMARK INTER + INTRA:          -9.128
REMARK INTER:                  -7.262
REMARK INTRA:                  -1.866
REMARK UNBOUND:                -1.334
REMARK SMILES CC(=O)CCC=C(C)CCC=C(C)CCC=C(C)C
REMARK SMILES IDX 10 1 11 2 12 3 13 4 14 5 15 6 16 7 18 8 17 9 19 10 9 11 7 12
REMARK SMILES IDX 6 13 8 14 5 15 4 16 2 17 3 18 1 19
REMARK H PARENT
REMARK Flexibility Score: inf
ROOT
ATOM      1  C   UNL     1      -1.268  15.768  52.674  1.00  0.00     0.032 C 
ENDROOT
BRANCH   1   2
ATOM      2  C   UNL     1       0.026  15.609  51.914  1.00  0.00    -0.028 C 
ATOM      3  C   UNL     1       0.632  16.599  51.220  1.00  0.00    -0.077 C 
ATOM      4  C   UNL     1       0.024  17.976  51.098  1.00  0.00     0.039 C 
BRANCH   3   5
ATOM      5  C   UNL     1       1.953  16.314  50.536  1.00  0.00     0.034 C 
BRANCH   5   6
ATOM      6  C   UNL     1       1.918  14.957  49.824  1.00  0.00     0.032 C 
BRANCH   6   7
ATOM      7  C   UNL     1       1.972  15.123  48.324  1.00  0.00    -0.028 C 
ATOM      8  C   UNL     1       0.998  15.294  46.053  1.00  0.00     0.039 C 
ATOM      9  C   UNL     1       0.869  15.124  47.545  1.00  0.00    -0.080 C 
ATOM     10  C   UNL     1      -0.512  14.958  48.128  1.00  0.00     0.039 C 
ENDBRANCH   6   7
ENDBRANCH   5   6
ENDBRANCH   3   5
ENDBRANCH   1   2
BRANCH   1  11
ATOM     11  C   UNL     1      -2.419  15.081  51.933  1.00  0.00     0.034 C 
BRANCH  11  12
ATOM     12  C   UNL     1      -3.528  16.072  51.639  1.00  0.00    -0.077 C 
ATOM     13  C   UNL     1      -4.645  16.175  52.396  1.00  0.00    -0.028 C 
ATOM     14  C   UNL     1      -3.418  16.933  50.408  1.00  0.00     0.039 C 
BRANCH  13  15
ATOM     15  C   UNL     1      -4.903  15.403  53.668  1.00  0.00     0.035 C 
BRANCH  15  16
ATOM     16  C   UNL     1      -5.266  16.336  54.831  1.00  0.00     0.079 C 
BRANCH  16  17
ATOM     17  C   UNL     1      -4.086  17.167  55.265  1.00  0.00     0.130 C 
ATOM     18  O   UNL     1      -4.126  18.382  55.138  1.00  0.00    -0.300 OA
ATOM     19  C   UNL     1      -2.860  16.533  55.853  1.00  0.00     0.087 C 
ENDBRANCH  16  17
ENDBRANCH  15  16
ENDBRANCH  13  15
ENDBRANCH  11  12
ENDBRANCH   1  11
TORSDOF 9
ENDMDL
MODEL 9
REMARK VINA RESULT:    -5.048     18.023     20.905
REMARK INTER + INTRA:          -9.038
REMARK INTER:                  -7.496
REMARK INTRA:                  -1.542
REMARK UNBOUND:                -1.334
REMARK SMILES CC(=O)CCC=C(C)CCC=C(C)CCC=C(C)C
REMARK SMILES IDX 10 1 11 2 12 3 13 4 14 5 15 6 16 7 18 8 17 9 19 10 9 11 7 12
REMARK SMILES IDX 6 13 8 14 5 15 4 16 2 17 3 18 1 19
REMARK H PARENT
REMARK Flexibility Score: inf
ROOT
ATOM      1  C   UNL     1      -1.520  17.420  50.789  1.00  0.00     0.032 C 
ENDROOT
BRANCH   1   2
ATOM      2  C   UNL     1      -1.189  16.709  52.077  1.00  0.00    -0.028 C 
ATOM      3  C   UNL     1      -1.942  15.728  52.627  1.00  0.00    -0.077 C 
ATOM      4  C   UNL     1      -3.245  15.282  52.007  1.00  0.00     0.039 C 
BRANCH   3   5
ATOM      5  C   UNL     1      -1.470  15.068  53.905  1.00  0.00     0.034 C 
BRANCH   5   6
ATOM      6  C   UNL     1      -2.426  15.373  55.063  1.00  0.00     0.032 C 
BRANCH   6   7
ATOM      7  C   UNL     1      -2.212  16.769  55.599  1.00  0.00    -0.028 C 
ATOM      8  C   UNL     1      -2.884  19.097  56.114  1.00  0.00     0.039 C 
ATOM      9  C   UNL     1      -3.166  17.724  55.560  1.00  0.00    -0.080 C 
ATOM     10  C   UNL     1      -4.529  17.458  54.972  1.00  0.00     0.039 C 
ENDBRANCH   6   7
ENDBRANCH   5   6
ENDBRANCH   3   5
ENDBRANCH   1   2
BRANCH   1  11
ATOM     11  C   UNL     1      -0.810  16.755  49.605  1.00  0.00     0.034 C 
BRANCH  11  12
ATOM     12  C   UNL     1      -1.811  16.362  48.537  1.00  0.00    -0.077 C 
ATOM     13  C   UNL     1      -1.500  15.559  47.494  1.00  0.00    -0.028 C 
ATOM     14  C   UNL     1      -3.197  16.949  48.598  1.00  0.00     0.039 C 
BRANCH  13  15
ATOM     15  C   UNL     1      -0.167  14.875  47.296  1.00  0.00     0.035 C 
BRANCH  15  16
ATOM     16  C   UNL     1       0.565  15.413  46.059  1.00  0.00     0.079 C 
BRANCH  16  17
ATOM     17  C   UNL     1       2.058  15.447  46.270  1.00  0.00     0.130 C 
ATOM     18  O   UNL     1       2.794  15.694  45.327  1.00  0.00    -0.300 OA
ATOM     19  C   UNL     1       2.660  15.187  47.620  1.00  0.00     0.087 C 
ENDBRANCH  16  17
ENDBRANCH  15  16
ENDBRANCH  13  15
ENDBRANCH  11  12
ENDBRANCH   1  11
TORSDOF 9
ENDMDL
