MODEL 1
REMARK VINA RESULT:    -5.549      0.000      0.000
REMARK INTER + INTRA:          -7.285
REMARK INTER:                  -7.819
REMARK INTRA:                   0.534
REMARK UNBOUND:                 0.534
REMARK SMILES CC1=CCC(=C(C)C)C(=O)CC(C)=CCC1
REMARK SMILES IDX 12 1 14 2 13 3 15 4 16 5 2 6 1 7 3 8 11 10 9 11 10 12 5 13
REMARK SMILES IDX 6 14 7 15 8 16 4 17
REMARK H PARENT
REMARK Flexibility Score: 60.00
ROOT
ATOM      1  C   UNL     1      -8.072  29.272  42.163  1.00  0.00    -0.070 C 
ATOM      2  C   UNL     1      -8.717  28.502  41.239  1.00  0.00    -0.027 C 
ATOM      3  C   UNL     1      -7.866  28.659  43.529  1.00  0.00     0.039 C 
ENDROOT
BRANCH   2   4
ATOM      4  C   UNL     1      -9.145  28.793  39.805  1.00  0.00     0.032 C 
BRANCH   4   5
ATOM      5  C   UNL     1      -8.232  29.696  38.967  1.00  0.00     0.034 C 
BRANCH   5   6
ATOM      6  C   UNL     1      -8.808  31.011  38.423  1.00  0.00    -0.077 C 
ATOM      7  C   UNL     1      -8.394  31.367  37.011  1.00  0.00     0.039 C 
ATOM      8  C   UNL     1      -9.574  31.944  39.063  1.00  0.00    -0.023 CG0
ATOM      9  G   UNL     1     -10.128  31.976  40.475  1.00  0.00     0.000 G0
ENDBRANCH   5   6
ENDBRANCH   4   5
ENDBRANCH   2   4
BRANCH   1  10
ATOM     10  C   UNL     1      -7.532  30.679  41.961  1.00  0.00     0.111 C 
BRANCH  10  11
ATOM     11  C   UNL     1      -8.504  31.721  42.421  1.00  0.00     0.163 C 
ATOM     12  O   UNL     1      -8.780  31.800  43.649  1.00  0.00    -0.294 OA
BRANCH  11  13
ATOM     13  C   UNL     1      -9.170  32.622  41.446  1.00  0.00    -0.002 C 
ATOM     14  C   UNL     1      -8.943  33.968  41.447  1.00  0.00    -0.069 C 
ATOM     15  C   UNL     1      -9.699  34.902  40.529  1.00  0.00     0.039 C 
ATOM     16  C   UNL     1      -7.908  34.585  42.362  1.00  0.00     0.039 C 
BRANCH  13  17
ATOM     17  C   UNL     1     -10.124  31.962  40.473  1.00  0.00     0.066 CG0
ATOM     18  G   UNL     1      -9.578  31.959  39.057  1.00  0.00     0.000 G0
ENDBRANCH  13  17
ENDBRANCH  11  13
ENDBRANCH  10  11
ENDBRANCH   1  10
TORSDOF 0
ENDMDL
MODEL 2
REMARK VINA RESULT:    -5.519      1.568      3.693
REMARK INTER + INTRA:          -7.243
REMARK INTER:                  -7.494
REMARK INTRA:                   0.250
REMARK UNBOUND:                 0.534
REMARK SMILES CC1=CCC(=C(C)C)C(=O)CC(C)=CCC1
REMARK SMILES IDX 12 1 14 2 13 3 15 4 16 5 2 6 1 7 3 8 11 10 9 11 10 12 5 13
REMARK SMILES IDX 6 14 7 15 8 16 4 17
REMARK H PARENT
REMARK Flexibility Score: 60.00
ROOT
ATOM      1  C   UNL     1      -8.114  29.672  42.870  1.00  0.00    -0.070 C 
ATOM      2  C   UNL     1      -9.010  30.280  43.700  1.00  0.00    -0.027 C 
ATOM      3  C   UNL     1      -7.496  28.386  43.368  1.00  0.00     0.039 C 
ENDROOT
BRANCH   2   4
ATOM      4  C   UNL     1      -9.780  31.590  43.569  1.00  0.00     0.032 C 
BRANCH   4   5
ATOM      5  C   UNL     1      -8.978  32.891  43.689  1.00  0.00     0.034 C 
BRANCH   5   6
ATOM      6  C   UNL     1      -8.629  33.653  42.401  1.00  0.00    -0.077 C 
ATOM      7  C   UNL     1      -7.760  34.878  42.587  1.00  0.00     0.039 C 
ATOM      8  C   UNL     1      -9.059  33.426  41.125  1.00  0.00    -0.023 CG0
ATOM      9  G   UNL     1      -9.973  32.355  40.560  1.00  0.00     0.000 G0
ENDBRANCH   5   6
ENDBRANCH   4   5
ENDBRANCH   2   4
BRANCH   1  10
ATOM     10  C   UNL     1      -7.676  30.149  41.494  1.00  0.00     0.111 C 
BRANCH  10  11
ATOM     11  C   UNL     1      -8.796  30.088  40.501  1.00  0.00     0.163 C 
ATOM     12  O   UNL     1      -9.358  28.982  40.280  1.00  0.00    -0.294 OA
BRANCH  11  13
ATOM     13  C   UNL     1      -9.214  31.302  39.753  1.00  0.00    -0.002 C 
ATOM     14  C   UNL     1      -8.902  31.470  38.435  1.00  0.00    -0.069 C 
ATOM     15  C   UNL     1      -9.231  32.749  37.699  1.00  0.00     0.039 C 
ATOM     16  C   UNL     1      -8.225  30.371  37.646  1.00  0.00     0.039 C 
BRANCH  13  17
ATOM     17  C   UNL     1      -9.982  32.339  40.544  1.00  0.00     0.066 CG0
ATOM     18  G   UNL     1      -9.069  33.406  41.118  1.00  0.00     0.000 G0
ENDBRANCH  13  17
ENDBRANCH  11  13
ENDBRANCH  10  11
ENDBRANCH   1  10
TORSDOF 0
ENDMDL
MODEL 3
REMARK VINA RESULT:    -5.385      1.753      2.727
REMARK INTER + INTRA:          -7.054
REMARK INTER:                  -7.131
REMARK INTRA:                   0.076
REMARK UNBOUND:                 0.534
REMARK SMILES CC1=CCC(=C(C)C)C(=O)CC(C)=CCC1
REMARK SMILES IDX 12 1 14 2 13 3 15 4 16 5 2 6 1 7 3 8 11 10 9 11 10 12 5 13
REMARK SMILES IDX 6 14 7 15 8 16 4 17
REMARK H PARENT
REMARK Flexibility Score: 60.00
ROOT
ATOM      1  C   UNL     1      -8.861  29.593  39.605  1.00  0.00    -0.070 C 
ATOM      2  C   UNL     1      -8.526  29.812  38.300  1.00  0.00    -0.027 C 
ATOM      3  C   UNL     1      -8.679  28.185  40.123  1.00  0.00     0.039 C 
ENDROOT
BRANCH   2   4
ATOM      4  C   UNL     1      -8.624  31.059  37.428  1.00  0.00     0.032 C 
BRANCH   4   5
ATOM      5  C   UNL     1      -7.814  32.286  37.862  1.00  0.00     0.034 C 
BRANCH   5   6
ATOM      6  C   UNL     1      -8.560  33.456  38.520  1.00  0.00    -0.077 C 
ATOM      7  C   UNL     1      -9.506  34.213  37.613  1.00  0.00     0.039 C 
ATOM      8  C   UNL     1      -8.429  33.958  39.783  1.00  0.00    -0.023 CG0
ATOM      9  G   UNL     1      -7.551  33.520  40.941  1.00  0.00     0.000 G0
ENDBRANCH   5   6
ENDBRANCH   4   5
ENDBRANCH   2   4
BRANCH   1  10
ATOM     10  C   UNL     1      -9.391  30.619  40.594  1.00  0.00     0.111 C 
BRANCH  10  11
ATOM     11  C   UNL     1      -8.307  31.149  41.482  1.00  0.00     0.163 C 
ATOM     12  O   UNL     1      -7.429  30.355  41.915  1.00  0.00    -0.294 OA
BRANCH  11  13
ATOM     13  C   UNL     1      -8.286  32.578  41.885  1.00  0.00    -0.002 C 
ATOM     14  C   UNL     1      -8.910  33.009  43.021  1.00  0.00    -0.069 C 
ATOM     15  C   UNL     1      -8.984  34.476  43.378  1.00  0.00     0.039 C 
ATOM     16  C   UNL     1      -9.544  32.029  43.983  1.00  0.00     0.039 C 
BRANCH  13  17
ATOM     17  C   UNL     1      -7.554  33.522  40.955  1.00  0.00     0.066 CG0
ATOM     18  G   UNL     1      -8.422  33.956  39.789  1.00  0.00     0.000 G0
ENDBRANCH  13  17
ENDBRANCH  11  13
ENDBRANCH  10  11
ENDBRANCH   1  10
TORSDOF 0
ENDMDL
MODEL 4
REMARK VINA RESULT:    -5.331      1.495      3.615
REMARK INTER + INTRA:          -6.978
REMARK INTER:                  -7.428
REMARK INTRA:                   0.450
REMARK UNBOUND:                 0.534
REMARK SMILES CC1=CCC(=C(C)C)C(=O)CC(C)=CCC1
REMARK SMILES IDX 12 1 14 2 13 3 15 4 16 5 2 6 1 7 3 8 11 10 9 11 10 12 5 13
REMARK SMILES IDX 6 14 7 15 8 16 4 17
REMARK H PARENT
REMARK Flexibility Score: 60.00
ROOT
ATOM      1  C   UNL     1      -8.022  33.475  41.255  1.00  0.00    -0.070 C 
ATOM      2  C   UNL     1      -7.773  33.425  39.915  1.00  0.00    -0.027 C 
ATOM      3  C   UNL     1      -6.836  33.731  42.155  1.00  0.00     0.039 C 
ENDROOT
BRANCH   2   4
ATOM      4  C   UNL     1      -8.686  33.139  38.728  1.00  0.00     0.032 C 
BRANCH   4   5
ATOM      5  C   UNL     1      -9.561  31.882  38.801  1.00  0.00     0.034 C 
BRANCH   5   6
ATOM      6  C   UNL     1      -8.924  30.580  39.309  1.00  0.00    -0.077 C 
ATOM      7  C   UNL     1      -8.033  29.863  38.318  1.00  0.00     0.039 C 
ATOM      8  C   UNL     1      -9.113  29.939  40.500  1.00  0.00    -0.023 CG0
ATOM      9  G   UNL     1      -9.965  30.304  41.701  1.00  0.00     0.000 G0
ENDBRANCH   5   6
ENDBRANCH   4   5
ENDBRANCH   2   4
BRANCH   1  10
ATOM     10  C   UNL     1      -9.370  33.307  41.939  1.00  0.00     0.111 C 
BRANCH  10  11
ATOM     11  C   UNL     1      -9.300  32.340  43.080  1.00  0.00     0.163 C 
ATOM     12  O   UNL     1      -9.348  32.783  44.260  1.00  0.00    -0.294 OA
BRANCH  11  13
ATOM     13  C   UNL     1      -9.132  30.885  42.834  1.00  0.00    -0.002 C 
ATOM     14  C   UNL     1      -8.263  30.132  43.570  1.00  0.00    -0.069 C 
ATOM     15  C   UNL     1      -8.009  28.676  43.253  1.00  0.00     0.039 C 
ATOM     16  C   UNL     1      -7.526  30.723  44.751  1.00  0.00     0.039 C 
BRANCH  13  17
ATOM     17  C   UNL     1      -9.963  30.300  41.712  1.00  0.00     0.066 CG0
ATOM     18  G   UNL     1      -9.113  29.929  40.511  1.00  0.00     0.000 G0
ENDBRANCH  13  17
ENDBRANCH  11  13
ENDBRANCH  10  11
ENDBRANCH   1  10
TORSDOF 0
ENDMDL
MODEL 5
REMARK VINA RESULT:    -4.861      2.062      3.825
REMARK INTER + INTRA:          -6.316
REMARK INTER:                  -6.777
REMARK INTRA:                   0.460
REMARK UNBOUND:                 0.534
REMARK SMILES CC1=CCC(=C(C)C)C(=O)CC(C)=CCC1
REMARK SMILES IDX 12 1 14 2 13 3 15 4 16 5 2 6 1 7 3 8 11 10 9 11 10 12 5 13
REMARK SMILES IDX 6 14 7 15 8 16 4 17
REMARK H PARENT
REMARK Flexibility Score: 60.00
ROOT
ATOM      1  C   UNL     1      -8.348  29.037  41.084  1.00  0.00    -0.070 C 
ATOM      2  C   UNL     1      -7.992  28.788  42.378  1.00  0.00    -0.027 C 
ATOM      3  C   UNL     1      -7.675  28.195  40.024  1.00  0.00     0.039 C 
ENDROOT
BRANCH   2   4
ATOM      4  C   UNL     1      -8.406  29.456  43.685  1.00  0.00     0.032 C 
BRANCH   4   5
ATOM      5  C   UNL     1      -7.852  30.858  43.964  1.00  0.00     0.034 C 
BRANCH   5   6
ATOM      6  C   UNL     1      -8.726  32.070  43.613  1.00  0.00    -0.077 C 
ATOM      7  C   UNL     1      -9.813  32.399  44.613  1.00  0.00     0.039 C 
ATOM      8  C   UNL     1      -8.711  32.843  42.487  1.00  0.00    -0.023 CG0
ATOM      9  G   UNL     1      -7.829  32.787  41.254  1.00  0.00     0.000 G0
ENDBRANCH   5   6
ENDBRANCH   4   5
ENDBRANCH   2   4
BRANCH   1  10
ATOM     10  C   UNL     1      -9.356  30.066  40.597  1.00  0.00     0.111 C 
BRANCH  10  11
ATOM     11  C   UNL     1      -8.741  31.036  39.635  1.00  0.00     0.163 C 
ATOM     12  O   UNL     1      -8.302  30.609  38.533  1.00  0.00    -0.294 OA
BRANCH  11  13
ATOM     13  C   UNL     1      -8.608  32.473  39.986  1.00  0.00    -0.002 C 
ATOM     14  C   UNL     1      -9.148  33.452  39.203  1.00  0.00    -0.069 C 
ATOM     15  C   UNL     1      -8.924  34.918  39.497  1.00  0.00     0.039 C 
ATOM     16  C   UNL     1     -10.012  33.109  38.010  1.00  0.00     0.039 C 
BRANCH  13  17
ATOM     17  C   UNL     1      -7.825  32.781  41.245  1.00  0.00     0.066 CG0
ATOM     18  G   UNL     1      -8.720  32.845  42.468  1.00  0.00     0.000 G0
ENDBRANCH  13  17
ENDBRANCH  11  13
ENDBRANCH  10  11
ENDBRANCH   1  10
TORSDOF 0
ENDMDL
MODEL 6
REMARK VINA RESULT:    -4.712      1.429      4.056
REMARK INTER + INTRA:          -6.107
REMARK INTER:                  -7.250
REMARK INTRA:                   1.143
REMARK UNBOUND:                 0.534
REMARK SMILES CC1=CCC(=C(C)C)C(=O)CC(C)=CCC1
REMARK SMILES IDX 12 1 14 2 13 3 15 4 16 5 2 6 1 7 3 8 11 10 9 11 10 12 5 13
REMARK SMILES IDX 6 14 7 15 8 16 4 17
REMARK H PARENT
REMARK Flexibility Score: 60.00
ROOT
ATOM      1  C   UNL     1      -8.048  31.894  43.084  1.00  0.00    -0.070 C 
ATOM      2  C   UNL     1      -7.890  33.248  43.008  1.00  0.00    -0.027 C 
ATOM      3  C   UNL     1      -8.614  31.351  44.376  1.00  0.00     0.039 C 
ENDROOT
BRANCH   2   4
ATOM      4  C   UNL     1      -7.310  34.137  41.913  1.00  0.00     0.032 C 
BRANCH   4   5
ATOM      5  C   UNL     1      -7.384  33.616  40.473  1.00  0.00     0.034 C 
BRANCH   5   6
ATOM      6  C   UNL     1      -8.768  33.449  39.828  1.00  0.00    -0.077 C 
ATOM      7  C   UNL     1      -9.737  34.587  40.067  1.00  0.00     0.039 C 
ATOM      8  C   UNL     1      -9.272  32.383  39.140  1.00  0.00    -0.023 CG0
ATOM      9  G   UNL     1      -8.642  31.056  38.761  1.00  0.00     0.000 G0
ENDBRANCH   5   6
ENDBRANCH   4   5
ENDBRANCH   2   4
BRANCH   1  10
ATOM     10  C   UNL     1      -7.723  30.876  42.002  1.00  0.00     0.111 C 
BRANCH  10  11
ATOM     11  C   UNL     1      -8.940  30.486  41.220  1.00  0.00     0.163 C 
ATOM     12  O   UNL     1     -10.069  30.545  41.777  1.00  0.00    -0.294 OA
BRANCH  11  13
ATOM     13  C   UNL     1      -8.819  29.994  39.824  1.00  0.00    -0.002 C 
ATOM     14  C   UNL     1      -8.845  28.661  39.532  1.00  0.00    -0.069 C 
ATOM     15  C   UNL     1      -8.614  28.151  38.127  1.00  0.00     0.039 C 
ATOM     16  C   UNL     1      -9.122  27.632  40.605  1.00  0.00     0.039 C 
BRANCH  13  17
ATOM     17  C   UNL     1      -8.647  31.054  38.757  1.00  0.00     0.066 CG0
ATOM     18  G   UNL     1      -9.297  32.367  39.151  1.00  0.00     0.000 G0
ENDBRANCH  13  17
ENDBRANCH  11  13
ENDBRANCH  10  11
ENDBRANCH   1  10
TORSDOF 0
ENDMDL
MODEL 7
REMARK VINA RESULT:    -4.471      1.987      3.863
REMARK INTER + INTRA:          -5.766
REMARK INTER:                  -6.918
REMARK INTRA:                   1.152
REMARK UNBOUND:                 0.534
REMARK SMILES CC1=CCC(=C(C)C)C(=O)CC(C)=CCC1
REMARK SMILES IDX 12 1 14 2 13 3 15 4 16 5 2 6 1 7 3 8 11 10 9 11 10 12 5 13
REMARK SMILES IDX 6 14 7 15 8 16 4 17
REMARK H PARENT
REMARK Flexibility Score: 60.00
ROOT
ATOM      1  C   UNL     1      -8.559  29.070  39.962  1.00  0.00    -0.070 C 
ATOM      2  C   UNL     1      -7.500  28.613  40.690  1.00  0.00    -0.027 C 
ATOM      3  C   UNL     1      -8.612  28.653  38.510  1.00  0.00     0.039 C 
ENDROOT
BRANCH   2   4
ATOM      4  C   UNL     1      -7.086  28.863  42.137  1.00  0.00     0.032 C 
BRANCH   4   5
ATOM      5  C   UNL     1      -8.202  28.937  43.185  1.00  0.00     0.034 C 
BRANCH   5   6
ATOM      6  C   UNL     1      -8.288  30.188  44.071  1.00  0.00    -0.077 C 
ATOM      7  C   UNL     1      -7.476  30.136  45.348  1.00  0.00     0.039 C 
ATOM      8  C   UNL     1      -9.057  31.305  43.909  1.00  0.00    -0.023 CG0
ATOM      9  G   UNL     1     -10.031  31.691  42.812  1.00  0.00     0.000 G0
ENDBRANCH   5   6
ENDBRANCH   4   5
ENDBRANCH   2   4
BRANCH   1  10
ATOM     10  C   UNL     1      -9.696  29.950  40.458  1.00  0.00     0.111 C 
BRANCH  10  11
ATOM     11  C   UNL     1      -9.352  31.406  40.374  1.00  0.00     0.163 C 
ATOM     12  O   UNL     1      -9.032  31.894  39.256  1.00  0.00    -0.294 OA
BRANCH  11  13
ATOM     13  C   UNL     1      -9.345  32.256  41.591  1.00  0.00    -0.002 C 
ATOM     14  C   UNL     1      -8.728  33.474  41.607  1.00  0.00    -0.069 C 
ATOM     15  C   UNL     1      -8.625  34.295  42.873  1.00  0.00     0.039 C 
ATOM     16  C   UNL     1      -8.132  34.064  40.349  1.00  0.00     0.039 C 
BRANCH  13  17
ATOM     17  C   UNL     1     -10.041  31.683  42.807  1.00  0.00     0.066 CG0
ATOM     18  G   UNL     1      -9.059  31.326  43.907  1.00  0.00     0.000 G0
ENDBRANCH  13  17
ENDBRANCH  11  13
ENDBRANCH  10  11
ENDBRANCH   1  10
TORSDOF 0
ENDMDL
MODEL 8
REMARK VINA RESULT:    -4.340      1.991      4.734
REMARK INTER + INTRA:          -5.581
REMARK INTER:                  -6.421
REMARK INTRA:                   0.839
REMARK UNBOUND:                 0.534
REMARK SMILES CC1=CCC(=C(C)C)C(=O)CC(C)=CCC1
REMARK SMILES IDX 12 1 14 2 13 3 15 4 16 5 2 6 1 7 3 8 11 10 9 11 10 12 5 13
REMARK SMILES IDX 6 14 7 15 8 16 4 17
REMARK H PARENT
REMARK Flexibility Score: 60.00
ROOT
ATOM      1  C   UNL     1      -9.076  31.927  39.795  1.00  0.00    -0.070 C 
ATOM      2  C   UNL     1      -8.863  33.257  39.581  1.00  0.00    -0.027 C 
ATOM      3  C   UNL     1      -8.230  30.968  38.989  1.00  0.00     0.039 C 
ENDROOT
BRANCH   2   4
ATOM      4  C   UNL     1      -9.547  34.494  40.154  1.00  0.00     0.032 C 
BRANCH   4   5
ATOM      5  C   UNL     1      -9.460  34.708  41.669  1.00  0.00     0.034 C 
BRANCH   5   6
ATOM      6  C   UNL     1      -8.251  34.128  42.418  1.00  0.00    -0.077 C 
ATOM      7  C   UNL     1      -6.956  34.892  42.250  1.00  0.00     0.039 C 
ATOM      8  C   UNL     1      -8.163  32.977  43.148  1.00  0.00    -0.023 CG0
ATOM      9  G   UNL     1      -9.210  31.930  43.483  1.00  0.00     0.000 G0
ENDBRANCH   5   6
ENDBRANCH   4   5
ENDBRANCH   2   4
BRANCH   1  10
ATOM     10  C   UNL     1     -10.070  31.307  40.765  1.00  0.00     0.111 C 
BRANCH  10  11
ATOM     11  C   UNL     1      -9.438  30.238  41.604  1.00  0.00     0.163 C 
ATOM     12  O   UNL     1      -9.452  29.048  41.189  1.00  0.00    -0.294 OA
BRANCH  11  13
ATOM     13  C   UNL     1      -8.842  30.563  42.925  1.00  0.00    -0.002 C 
ATOM     14  C   UNL     1      -8.041  29.676  43.583  1.00  0.00    -0.069 C 
ATOM     15  C   UNL     1      -7.520  29.958  44.975  1.00  0.00     0.039 C 
ATOM     16  C   UNL     1      -7.624  28.373  42.939  1.00  0.00     0.039 C 
BRANCH  13  17
ATOM     17  C   UNL     1      -9.193  31.920  43.498  1.00  0.00     0.066 CG0
ATOM     18  G   UNL     1      -8.162  32.973  43.138  1.00  0.00     0.000 G0
ENDBRANCH  13  17
ENDBRANCH  11  13
ENDBRANCH  10  11
ENDBRANCH   1  10
TORSDOF 0
ENDMDL
MODEL 9
REMARK VINA RESULT:    -4.209      1.765      3.699
REMARK INTER + INTRA:          -5.397
REMARK INTER:                  -6.622
REMARK INTRA:                   1.224
REMARK UNBOUND:                 0.534
REMARK SMILES CC1=CCC(=C(C)C)C(=O)CC(C)=CCC1
REMARK SMILES IDX 12 1 14 2 13 3 15 4 16 5 2 6 1 7 3 8 11 10 9 11 10 12 5 13
REMARK SMILES IDX 6 14 7 15 8 16 4 17
REMARK H PARENT
REMARK Flexibility Score: 60.00
ROOT
ATOM      1  C   UNL     1      -8.732  33.134  38.330  1.00  0.00    -0.070 C 
ATOM      2  C   UNL     1      -7.990  32.158  37.731  1.00  0.00    -0.027 C 
ATOM      3  C   UNL     1      -8.318  34.562  38.057  1.00  0.00     0.039 C 
ENDROOT
BRANCH   2   4
ATOM      4  C   UNL     1      -8.067  30.637  37.813  1.00  0.00     0.032 C 
BRANCH   4   5
ATOM      5  C   UNL     1      -9.119  30.036  38.753  1.00  0.00     0.034 C 
BRANCH   5   6
ATOM      6  C   UNL     1      -8.675  29.597  40.156  1.00  0.00    -0.077 C 
ATOM      7  C   UNL     1      -7.746  28.402  40.199  1.00  0.00     0.039 C 
ATOM      8  C   UNL     1      -9.064  30.082  41.372  1.00  0.00    -0.023 CG0
ATOM      9  G   UNL     1     -10.012  31.209  41.735  1.00  0.00     0.000 G0
ENDBRANCH   5   6
ENDBRANCH   4   5
ENDBRANCH   2   4
BRANCH   1  10
ATOM     10  C   UNL     1      -9.935  32.936  39.239  1.00  0.00     0.111 C 
BRANCH  10  11
ATOM     11  C   UNL     1      -9.688  33.473  40.616  1.00  0.00     0.163 C 
ATOM     12  O   UNL     1      -9.770  34.715  40.811  1.00  0.00    -0.294 OA
BRANCH  11  13
ATOM     13  C   UNL     1      -9.310  32.564  41.728  1.00  0.00    -0.002 C 
ATOM     14  C   UNL     1      -8.375  32.922  42.656  1.00  0.00    -0.069 C 
ATOM     15  C   UNL     1      -7.909  31.960  43.725  1.00  0.00     0.039 C 
ATOM     16  C   UNL     1      -7.774  34.310  42.664  1.00  0.00     0.039 C 
BRANCH  13  17
ATOM     17  C   UNL     1     -10.006  31.219  41.755  1.00  0.00     0.066 CG0
ATOM     18  G   UNL     1      -9.074  30.090  41.356  1.00  0.00     0.000 G0
ENDBRANCH  13  17
ENDBRANCH  11  13
ENDBRANCH  10  11
ENDBRANCH   1  10
TORSDOF 0
ENDMDL
