MODEL 1
REMARK VINA RESULT:    -3.836      0.000      0.000
REMARK INTER + INTRA:          -8.158
REMARK INTER:                  -6.527
REMARK INTRA:                  -1.631
REMARK UNBOUND:                -1.631
REMARK SMILES CCCCCCCCCCCCCC(=O)[O-]
REMARK SMILES IDX 8 1 9 2 10 3 11 4 12 5 13 6 14 7 15 8 16 9 7 10 6 11 5 12
REMARK SMILES IDX 4 13 3 14 2 15 1 16
REMARK H PARENT
REMARK Flexibility Score: inf
ROOT
ATOM      1  C   UNL     1      29.403 -22.263  24.326  1.00  0.00     0.000 C 
ENDROOT
BRANCH   1   2
ATOM      2  C   UNL     1      29.043 -22.391  22.839  1.00  0.00     0.000 C 
BRANCH   2   3
ATOM      3  C   UNL     1      28.595 -21.042  22.265  1.00  0.00     0.000 C 
BRANCH   3   4
ATOM      4  C   UNL     1      29.379 -19.886  22.898  1.00  0.00     0.000 C 
BRANCH   4   5
ATOM      5  C   UNL     1      29.540 -18.724  21.911  1.00  0.00     0.006 C 
BRANCH   5   6
ATOM      6  C   UNL     1      29.364 -17.376  22.615  1.00  0.00     0.053 C 
BRANCH   6   7
ATOM      7  C   UNL     1      28.865 -16.343  21.654  1.00  0.00     0.041 C 
ATOM      8  O   UNL     1      27.885 -16.596  20.905  1.00  0.00    -0.550 OA
ATOM      9  O   UNL     1      29.512 -15.119  21.551  1.00  0.00    -0.550 OA
ENDBRANCH   6   7
ENDBRANCH   5   6
ENDBRANCH   4   5
ENDBRANCH   3   4
ENDBRANCH   2   3
ENDBRANCH   1   2
BRANCH   1  10
ATOM     10  C   UNL     1      28.426 -23.019  25.244  1.00  0.00     0.000 C 
BRANCH  10  11
ATOM     11  C   UNL     1      27.639 -22.137  26.234  1.00  0.00    -0.000 C 
BRANCH  11  12
ATOM     12  C   UNL     1      27.040 -20.849  25.639  1.00  0.00    -0.000 C 
BRANCH  12  13
ATOM     13  C   UNL     1      27.570 -19.574  26.317  1.00  0.00    -0.000 C 
BRANCH  13  14
ATOM     14  C   UNL     1      28.926 -19.787  27.013  1.00  0.00    -0.000 C 
BRANCH  14  15
ATOM     15  C   UNL     1      30.084 -18.936  26.460  1.00  0.00    -0.003 C 
ATOM     16  C   UNL     1      29.700 -17.476  26.233  1.00  0.00     0.004 C 
ENDBRANCH  14  15
ENDBRANCH  13  14
ENDBRANCH  12  13
ENDBRANCH  11  12
ENDBRANCH  10  11
ENDBRANCH   1  10
TORSDOF 12
ENDMDL
MODEL 2
REMARK VINA RESULT:    -3.816      7.302     11.600
REMARK INTER + INTRA:          -8.124
REMARK INTER:                  -7.103
REMARK INTRA:                  -1.021
REMARK UNBOUND:                -1.631
REMARK SMILES CCCCCCCCCCCCCC(=O)[O-]
REMARK SMILES IDX 8 1 9 2 10 3 11 4 12 5 13 6 14 7 15 8 16 9 7 10 6 11 5 12
REMARK SMILES IDX 4 13 3 14 2 15 1 16
REMARK H PARENT
REMARK Flexibility Score: inf
ROOT
ATOM      1  C   UNL     1      32.627 -11.213  18.673  1.00  0.00     0.000 C 
ENDROOT
BRANCH   1   2
ATOM      2  C   UNL     1      31.764 -10.957  19.917  1.00  0.00     0.000 C 
BRANCH   2   3
ATOM      3  C   UNL     1      31.556 -12.248  20.717  1.00  0.00     0.000 C 
BRANCH   3   4
ATOM      4  C   UNL     1      30.964 -13.354  19.835  1.00  0.00     0.000 C 
BRANCH   4   5
ATOM      5  C   UNL     1      29.490 -13.599  20.174  1.00  0.00     0.006 C 
BRANCH   5   6
ATOM      6  C   UNL     1      29.225 -13.383  21.667  1.00  0.00     0.053 C 
BRANCH   6   7
ATOM      7  C   UNL     1      28.023 -14.158  22.105  1.00  0.00     0.041 C 
ATOM      8  O   UNL     1      27.185 -13.638  22.888  1.00  0.00    -0.550 OA
ATOM      9  O   UNL     1      27.853 -15.472  21.688  1.00  0.00    -0.550 OA
ENDBRANCH   6   7
ENDBRANCH   5   6
ENDBRANCH   4   5
ENDBRANCH   3   4
ENDBRANCH   2   3
ENDBRANCH   1   2
BRANCH   1  10
ATOM     10  C   UNL     1      33.089  -9.914  17.990  1.00  0.00     0.000 C 
BRANCH  10  11
ATOM     11  C   UNL     1      32.235  -9.466  16.786  1.00  0.00    -0.000 C 
BRANCH  11  12
ATOM     12  C   UNL     1      32.091  -7.943  16.609  1.00  0.00    -0.000 C 
BRANCH  12  13
ATOM     13  C   UNL     1      31.391  -7.267  17.800  1.00  0.00    -0.000 C 
BRANCH  13  14
ATOM     14  C   UNL     1      32.314  -6.302  18.568  1.00  0.00    -0.000 C 
BRANCH  14  15
ATOM     15  C   UNL     1      32.301  -6.466  20.098  1.00  0.00    -0.003 C 
ATOM     16  C   UNL     1      31.179  -7.376  20.595  1.00  0.00     0.004 C 
ENDBRANCH  14  15
ENDBRANCH  13  14
ENDBRANCH  12  13
ENDBRANCH  11  12
ENDBRANCH  10  11
ENDBRANCH   1  10
TORSDOF 12
ENDMDL
MODEL 3
REMARK VINA RESULT:    -3.740      3.871      5.465
REMARK INTER + INTRA:          -7.994
REMARK INTER:                  -5.976
REMARK INTRA:                  -2.018
REMARK UNBOUND:                -1.631
REMARK SMILES CCCCCCCCCCCCCC(=O)[O-]
REMARK SMILES IDX 8 1 9 2 10 3 11 4 12 5 13 6 14 7 15 8 16 9 7 10 6 11 5 12
REMARK SMILES IDX 4 13 3 14 2 15 1 16
REMARK H PARENT
REMARK Flexibility Score: inf
ROOT
ATOM      1  C   UNL     1      28.924 -22.763  25.534  1.00  0.00     0.000 C 
ENDROOT
BRANCH   1   2
ATOM      2  C   UNL     1      27.584 -22.339  26.151  1.00  0.00     0.000 C 
BRANCH   2   3
ATOM      3  C   UNL     1      27.222 -20.906  25.745  1.00  0.00     0.000 C 
BRANCH   3   4
ATOM      4  C   UNL     1      28.453 -19.992  25.793  1.00  0.00     0.000 C 
BRANCH   4   5
ATOM      5  C   UNL     1      28.707 -19.483  27.216  1.00  0.00     0.006 C 
BRANCH   5   6
ATOM      6  C   UNL     1      30.175 -19.662  27.611  1.00  0.00     0.053 C 
BRANCH   6   7
ATOM      7  C   UNL     1      30.291 -20.554  28.808  1.00  0.00     0.041 C 
ATOM      8  O   UNL     1      31.000 -20.207  29.789  1.00  0.00    -0.550 OA
ATOM      9  O   UNL     1      29.658 -21.789  28.818  1.00  0.00    -0.550 OA
ENDBRANCH   6   7
ENDBRANCH   5   6
ENDBRANCH   4   5
ENDBRANCH   3   4
ENDBRANCH   2   3
ENDBRANCH   1   2
BRANCH   1  10
ATOM     10  C   UNL     1      28.756 -23.723  24.342  1.00  0.00     0.000 C 
BRANCH  10  11
ATOM     11  C   UNL     1      29.261 -23.183  22.988  1.00  0.00    -0.000 C 
BRANCH  11  12
ATOM     12  C   UNL     1      28.579 -21.891  22.498  1.00  0.00    -0.000 C 
BRANCH  12  13
ATOM     13  C   UNL     1      29.584 -20.779  22.154  1.00  0.00    -0.000 C 
BRANCH  13  14
ATOM     14  C   UNL     1      31.010 -21.089  22.644  1.00  0.00    -0.000 C 
BRANCH  14  15
ATOM     15  C   UNL     1      31.452 -20.314  23.898  1.00  0.00    -0.003 C 
ATOM     16  C   UNL     1      32.259 -21.166  24.877  1.00  0.00     0.004 C 
ENDBRANCH  14  15
ENDBRANCH  13  14
ENDBRANCH  12  13
ENDBRANCH  11  12
ENDBRANCH  10  11
ENDBRANCH   1  10
TORSDOF 12
ENDMDL
MODEL 4
REMARK VINA RESULT:    -3.720      1.136      2.026
REMARK INTER + INTRA:          -7.960
REMARK INTER:                  -6.112
REMARK INTRA:                  -1.848
REMARK UNBOUND:                -1.631
REMARK SMILES CCCCCCCCCCCCCC(=O)[O-]
REMARK SMILES IDX 8 1 9 2 10 3 11 4 12 5 13 6 14 7 15 8 16 9 7 10 6 11 5 12
REMARK SMILES IDX 4 13 3 14 2 15 1 16
REMARK H PARENT
REMARK Flexibility Score: inf
ROOT
ATOM      1  C   UNL     1      28.663 -22.293  22.603  1.00  0.00     0.000 C 
ENDROOT
BRANCH   1   2
ATOM      2  C   UNL     1      28.941 -20.816  22.290  1.00  0.00     0.000 C 
BRANCH   2   3
ATOM      3  C   UNL     1      30.441 -20.512  22.368  1.00  0.00     0.000 C 
BRANCH   3   4
ATOM      4  C   UNL     1      30.722 -19.040  22.040  1.00  0.00     0.000 C 
BRANCH   4   5
ATOM      5  C   UNL     1      29.444 -18.200  22.137  1.00  0.00     0.006 C 
BRANCH   5   6
ATOM      6  C   UNL     1      29.617 -17.048  23.131  1.00  0.00     0.053 C 
BRANCH   6   7
ATOM      7  C   UNL     1      29.122 -15.766  22.539  1.00  0.00     0.041 C 
ATOM      8  O   UNL     1      29.809 -15.160  21.676  1.00  0.00    -0.550 OA
ATOM      9  O   UNL     1      27.925 -15.214  22.978  1.00  0.00    -0.550 OA
ENDBRANCH   6   7
ENDBRANCH   5   6
ENDBRANCH   4   5
ENDBRANCH   3   4
ENDBRANCH   2   3
ENDBRANCH   1   2
BRANCH   1  10
ATOM     10  C   UNL     1      29.797 -22.957  23.405  1.00  0.00     0.000 C 
BRANCH  10  11
ATOM     11  C   UNL     1      29.370 -23.584  24.749  1.00  0.00    -0.000 C 
BRANCH  11  12
ATOM     12  C   UNL     1      27.962 -23.198  25.240  1.00  0.00    -0.000 C 
BRANCH  12  13
ATOM     13  C   UNL     1      27.979 -22.045  26.257  1.00  0.00    -0.000 C 
BRANCH  13  14
ATOM     14  C   UNL     1      27.389 -20.740  25.692  1.00  0.00    -0.000 C 
BRANCH  14  15
ATOM     15  C   UNL     1      28.227 -19.476  25.957  1.00  0.00    -0.003 C 
ATOM     16  C   UNL     1      29.730 -19.716  25.831  1.00  0.00     0.004 C 
ENDBRANCH  14  15
ENDBRANCH  13  14
ENDBRANCH  12  13
ENDBRANCH  11  12
ENDBRANCH  10  11
ENDBRANCH   1  10
TORSDOF 12
ENDMDL
MODEL 5
REMARK VINA RESULT:    -3.682     11.643     13.942
REMARK INTER + INTRA:          -7.897
REMARK INTER:                  -5.833
REMARK INTRA:                  -2.064
REMARK UNBOUND:                -1.631
REMARK SMILES CCCCCCCCCCCCCC(=O)[O-]
REMARK SMILES IDX 8 1 9 2 10 3 11 4 12 5 13 6 14 7 15 8 16 9 7 10 6 11 5 12
REMARK SMILES IDX 4 13 3 14 2 15 1 16
REMARK H PARENT
REMARK Flexibility Score: inf
ROOT
ATOM      1  C   UNL     1      31.904  -7.737  16.411  1.00  0.00     0.000 C 
ENDROOT
BRANCH   1   2
ATOM      2  C   UNL     1      31.387  -7.330  17.798  1.00  0.00     0.000 C 
BRANCH   2   3
ATOM      3  C   UNL     1      32.225  -6.187  18.382  1.00  0.00     0.000 C 
BRANCH   3   4
ATOM      4  C   UNL     1      32.399  -6.349  19.897  1.00  0.00     0.000 C 
BRANCH   4   5
ATOM      5  C   UNL     1      31.553  -7.513  20.427  1.00  0.00     0.006 C 
BRANCH   5   6
ATOM      6  C   UNL     1      30.843  -7.130  21.728  1.00  0.00     0.053 C 
BRANCH   6   7
ATOM      7  C   UNL     1      30.306  -8.348  22.411  1.00  0.00     0.041 C 
ATOM      8  O   UNL     1      29.664  -8.238  23.489  1.00  0.00    -0.550 OA
ATOM      9  O   UNL     1      30.557  -9.608  21.885  1.00  0.00    -0.550 OA
ENDBRANCH   6   7
ENDBRANCH   5   6
ENDBRANCH   4   5
ENDBRANCH   3   4
ENDBRANCH   2   3
ENDBRANCH   1   2
BRANCH   1  10
ATOM     10  C   UNL     1      32.483  -9.163  16.385  1.00  0.00     0.000 C 
BRANCH  10  11
ATOM     11  C   UNL     1      32.409  -9.926  17.724  1.00  0.00    -0.000 C 
BRANCH  11  12
ATOM     12  C   UNL     1      33.757 -10.136  18.439  1.00  0.00    -0.000 C 
BRANCH  12  13
ATOM     13  C   UNL     1      34.894  -9.300  17.828  1.00  0.00    -0.000 C 
BRANCH  13  14
ATOM     14  C   UNL     1      35.420  -8.215  18.786  1.00  0.00    -0.000 C 
BRANCH  14  15
ATOM     15  C   UNL     1      35.726  -6.857  18.128  1.00  0.00    -0.003 C 
ATOM     16  C   UNL     1      35.533  -6.867  16.613  1.00  0.00     0.004 C 
ENDBRANCH  14  15
ENDBRANCH  13  14
ENDBRANCH  12  13
ENDBRANCH  11  12
ENDBRANCH  10  11
ENDBRANCH   1  10
TORSDOF 12
ENDMDL
MODEL 6
REMARK VINA RESULT:    -3.678      1.924      3.754
REMARK INTER + INTRA:          -7.889
REMARK INTER:                  -6.871
REMARK INTRA:                  -1.018
REMARK UNBOUND:                -1.631
REMARK SMILES CCCCCCCCCCCCCC(=O)[O-]
REMARK SMILES IDX 8 1 9 2 10 3 11 4 12 5 13 6 14 7 15 8 16 9 7 10 6 11 5 12
REMARK SMILES IDX 4 13 3 14 2 15 1 16
REMARK H PARENT
REMARK Flexibility Score: inf
ROOT
ATOM      1  C   UNL     1      29.958 -19.818  23.198  1.00  0.00     0.000 C 
ENDROOT
BRANCH   1   2
ATOM      2  C   UNL     1      30.262 -18.352  22.861  1.00  0.00     0.000 C 
BRANCH   2   3
ATOM      3  C   UNL     1      29.216 -17.782  21.896  1.00  0.00     0.000 C 
BRANCH   3   4
ATOM      4  C   UNL     1      28.777 -16.377  22.327  1.00  0.00     0.000 C 
BRANCH   4   5
ATOM      5  C   UNL     1      28.125 -15.622  21.162  1.00  0.00     0.006 C 
BRANCH   5   6
ATOM      6  C   UNL     1      27.933 -14.142  21.505  1.00  0.00     0.053 C 
BRANCH   6   7
ATOM      7  C   UNL     1      29.235 -13.411  21.422  1.00  0.00     0.041 C 
ATOM      8  O   UNL     1      29.783 -12.974  22.468  1.00  0.00    -0.550 OA
ATOM      9  O   UNL     1      29.819 -13.168  20.186  1.00  0.00    -0.550 OA
ENDBRANCH   6   7
ENDBRANCH   5   6
ENDBRANCH   4   5
ENDBRANCH   3   4
ENDBRANCH   2   3
ENDBRANCH   1   2
BRANCH   1  10
ATOM     10  C   UNL     1      28.697 -20.345  22.489  1.00  0.00     0.000 C 
BRANCH  10  11
ATOM     11  C   UNL     1      28.659 -21.871  22.265  1.00  0.00    -0.000 C 
BRANCH  11  12
ATOM     12  C   UNL     1      29.597 -22.694  23.168  1.00  0.00    -0.000 C 
BRANCH  12  13
ATOM     13  C   UNL     1      28.843 -23.483  24.251  1.00  0.00    -0.000 C 
BRANCH  13  14
ATOM     14  C   UNL     1      28.866 -22.787  25.624  1.00  0.00    -0.000 C 
BRANCH  14  15
ATOM     15  C   UNL     1      27.494 -22.315  26.140  1.00  0.00    -0.003 C 
ATOM     16  C   UNL     1      27.165 -20.878  25.740  1.00  0.00     0.004 C 
ENDBRANCH  14  15
ENDBRANCH  13  14
ENDBRANCH  12  13
ENDBRANCH  11  12
ENDBRANCH  10  11
ENDBRANCH   1  10
TORSDOF 12
ENDMDL
MODEL 7
REMARK VINA RESULT:    -3.677      1.243      3.562
REMARK INTER + INTRA:          -7.888
REMARK INTER:                  -6.251
REMARK INTRA:                  -1.637
REMARK UNBOUND:                -1.631
REMARK SMILES CCCCCCCCCCCCCC(=O)[O-]
REMARK SMILES IDX 8 1 9 2 10 3 11 4 12 5 13 6 14 7 15 8 16 9 7 10 6 11 5 12
REMARK SMILES IDX 4 13 3 14 2 15 1 16
REMARK H PARENT
REMARK Flexibility Score: inf
ROOT
ATOM      1  C   UNL     1      27.408 -20.861  25.612  1.00  0.00     0.000 C 
ENDROOT
BRANCH   1   2
ATOM      2  C   UNL     1      28.753 -20.121  25.625  1.00  0.00     0.000 C 
BRANCH   2   3
ATOM      3  C   UNL     1      28.619 -18.751  26.299  1.00  0.00     0.000 C 
BRANCH   3   4
ATOM      4  C   UNL     1      28.930 -17.619  25.313  1.00  0.00     0.000 C 
BRANCH   4   5
ATOM      5  C   UNL     1      30.022 -18.036  24.321  1.00  0.00     0.006 C 
BRANCH   5   6
ATOM      6  C   UNL     1      29.592 -17.754  22.879  1.00  0.00     0.053 C 
BRANCH   6   7
ATOM      7  C   UNL     1      29.478 -16.280  22.644  1.00  0.00     0.041 C 
ATOM      8  O   UNL     1      30.508 -15.557  22.647  1.00  0.00    -0.550 OA
ATOM      9  O   UNL     1      28.229 -15.698  22.473  1.00  0.00    -0.550 OA
ENDBRANCH   6   7
ENDBRANCH   5   6
ENDBRANCH   4   5
ENDBRANCH   3   4
ENDBRANCH   2   3
ENDBRANCH   1   2
BRANCH   1  10
ATOM     10  C   UNL     1      27.531 -22.331  26.052  1.00  0.00     0.000 C 
BRANCH  10  11
ATOM     11  C   UNL     1      28.815 -23.050  25.589  1.00  0.00    -0.000 C 
BRANCH  11  12
ATOM     12  C   UNL     1      28.638 -24.020  24.406  1.00  0.00    -0.000 C 
BRANCH  12  13
ATOM     13  C   UNL     1      29.660 -23.785  23.282  1.00  0.00    -0.000 C 
BRANCH  13  14
ATOM     14  C   UNL     1      30.419 -22.453  23.432  1.00  0.00    -0.000 C 
BRANCH  14  15
ATOM     15  C   UNL     1      30.107 -21.400  22.354  1.00  0.00    -0.003 C 
ATOM     16  C   UNL     1      28.612 -21.248  22.077  1.00  0.00     0.004 C 
ENDBRANCH  14  15
ENDBRANCH  13  14
ENDBRANCH  12  13
ENDBRANCH  11  12
ENDBRANCH  10  11
ENDBRANCH   1  10
TORSDOF 12
ENDMDL
MODEL 8
REMARK VINA RESULT:    -3.603      8.015     12.059
REMARK INTER + INTRA:          -7.763
REMARK INTER:                  -6.444
REMARK INTRA:                  -1.318
REMARK UNBOUND:                -1.631
REMARK SMILES CCCCCCCCCCCCCC(=O)[O-]
REMARK SMILES IDX 8 1 9 2 10 3 11 4 12 5 13 6 14 7 15 8 16 9 7 10 6 11 5 12
REMARK SMILES IDX 4 13 3 14 2 15 1 16
REMARK H PARENT
REMARK Flexibility Score: inf
ROOT
ATOM      1  C   UNL     1      32.158  -9.180  16.670  1.00  0.00     0.000 C 
ENDROOT
BRANCH   1   2
ATOM      2  C   UNL     1      32.014  -7.669  16.901  1.00  0.00     0.000 C 
BRANCH   2   3
ATOM      3  C   UNL     1      31.417  -7.378  18.282  1.00  0.00     0.000 C 
BRANCH   3   4
ATOM      4  C   UNL     1      32.335  -6.458  19.096  1.00  0.00     0.000 C 
BRANCH   4   5
ATOM      5  C   UNL     1      32.155  -6.691  20.601  1.00  0.00     0.006 C 
BRANCH   5   6
ATOM      6  C   UNL     1      30.807  -7.355  20.897  1.00  0.00     0.053 C 
BRANCH   6   7
ATOM      7  C   UNL     1      30.771  -7.864  22.304  1.00  0.00     0.041 C 
ATOM      8  O   UNL     1      29.680  -7.920  22.929  1.00  0.00    -0.550 OA
ATOM      9  O   UNL     1      31.949  -8.229  22.942  1.00  0.00    -0.550 OA
ENDBRANCH   6   7
ENDBRANCH   5   6
ENDBRANCH   4   5
ENDBRANCH   3   4
ENDBRANCH   2   3
ENDBRANCH   1   2
BRANCH   1  10
ATOM     10  C   UNL     1      33.091  -9.853  17.692  1.00  0.00     0.000 C 
BRANCH  10  11
ATOM     11  C   UNL     1      32.435 -10.949  18.558  1.00  0.00    -0.000 C 
BRANCH  11  12
ATOM     12  C   UNL     1      32.283 -10.607  20.051  1.00  0.00    -0.000 C 
BRANCH  12  13
ATOM     13  C   UNL     1      31.017 -11.217  20.678  1.00  0.00    -0.000 C 
BRANCH  13  14
ATOM     14  C   UNL     1      31.116 -12.742  20.860  1.00  0.00    -0.000 C 
BRANCH  14  15
ATOM     15  C   UNL     1      30.122 -13.566  20.022  1.00  0.00    -0.003 C 
ATOM     16  C   UNL     1      28.859 -13.948  20.792  1.00  0.00     0.004 C 
ENDBRANCH  14  15
ENDBRANCH  13  14
ENDBRANCH  12  13
ENDBRANCH  11  12
ENDBRANCH  10  11
ENDBRANCH   1  10
TORSDOF 12
ENDMDL
MODEL 9
REMARK VINA RESULT:    -3.528      7.011     11.405
REMARK INTER + INTRA:          -7.634
REMARK INTER:                  -6.393
REMARK INTRA:                  -1.242
REMARK UNBOUND:                -1.631
REMARK SMILES CCCCCCCCCCCCCC(=O)[O-]
REMARK SMILES IDX 8 1 9 2 10 3 11 4 12 5 13 6 14 7 15 8 16 9 7 10 6 11 5 12
REMARK SMILES IDX 4 13 3 14 2 15 1 16
REMARK H PARENT
REMARK Flexibility Score: inf
ROOT
ATOM      1  C   UNL     1      32.125 -11.099  19.109  1.00  0.00     0.000 C 
ENDROOT
BRANCH   1   2
ATOM      2  C   UNL     1      31.740 -10.854  20.574  1.00  0.00     0.000 C 
BRANCH   2   3
ATOM      3  C   UNL     1      30.629 -11.812  21.018  1.00  0.00     0.000 C 
BRANCH   3   4
ATOM      4  C   UNL     1      30.494 -12.988  20.043  1.00  0.00     0.000 C 
BRANCH   4   5
ATOM      5  C   UNL     1      29.295 -13.871  20.407  1.00  0.00     0.006 C 
BRANCH   5   6
ATOM      6  C   UNL     1      28.924 -13.713  21.884  1.00  0.00     0.053 C 
BRANCH   6   7
ATOM      7  C   UNL     1      28.267 -14.956  22.397  1.00  0.00     0.041 C 
ATOM      8  O   UNL     1      28.055 -15.925  21.622  1.00  0.00    -0.550 OA
ATOM      9  O   UNL     1      27.844 -15.025  23.718  1.00  0.00    -0.550 OA
ENDBRANCH   6   7
ENDBRANCH   5   6
ENDBRANCH   4   5
ENDBRANCH   3   4
ENDBRANCH   2   3
ENDBRANCH   1   2
BRANCH   1  10
ATOM     10  C   UNL     1      33.575 -10.689  18.796  1.00  0.00     0.000 C 
BRANCH  10  11
ATOM     11  C   UNL     1      33.778  -9.972  17.445  1.00  0.00    -0.000 C 
BRANCH  11  12
ATOM     12  C   UNL     1      32.526  -9.881  16.552  1.00  0.00    -0.000 C 
BRANCH  12  13
ATOM     13  C   UNL     1      32.170  -8.435  16.169  1.00  0.00    -0.000 C 
BRANCH  13  14
ATOM     14  C   UNL     1      32.446  -7.430  17.303  1.00  0.00    -0.000 C 
BRANCH  14  15
ATOM     15  C   UNL     1      31.361  -7.363  18.393  1.00  0.00    -0.003 C 
ATOM     16  C   UNL     1      31.930  -7.146  19.794  1.00  0.00     0.004 C 
ENDBRANCH  14  15
ENDBRANCH  13  14
ENDBRANCH  12  13
ENDBRANCH  11  12
ENDBRANCH  10  11
ENDBRANCH   1  10
TORSDOF 12
ENDMDL
