MODEL 1
REMARK VINA RESULT:    -4.276      0.000      0.000
REMARK INTER + INTRA:          -8.128
REMARK INTER:                  -6.526
REMARK INTRA:                  -1.602
REMARK UNBOUND:                -1.602
REMARK SMILES OC[C@@H]1O[C@H](O[C@]2(CO)O[C@@H](CO)[C@H](O)[C@H]2O)[C@H](O)[C@H](O)[C@H]1O
REMARK SMILES IDX 6 1 5 2 3 3 22 4 4 5 20 6 18 7 2 8 1 9 23 11 21 13 19 15
REMARK SMILES IDX 7 17 16 18 10 19 14 20 11 21 8 22 9 23 17 25 15 27 12 29
REMARK SMILES IDX 13 30
REMARK H PARENT 1 10 23 12 21 14 19 16 9 24 17 26 15 28 13 31
REMARK Flexibility Score: inf
ROOT
ATOM      1  O   UNL     1      23.834  53.991  79.150  1.00  0.00    -0.313 OA
ENDROOT
BRANCH   1   2
ATOM      2  C   UNL     1      24.868  54.200  80.102  1.00  0.00     0.285 C 
ATOM      3  C   UNL     1      25.943  56.016  78.969  1.00  0.00     0.178 C 
ATOM      4  C   UNL     1      25.429  57.046  80.012  1.00  0.00     0.177 C 
ATOM      5  O   UNL     1      26.049  54.690  79.479  1.00  0.00    -0.341 OA
ATOM      6  C   UNL     1      24.168  56.555  80.736  1.00  0.00     0.179 C 
ATOM      7  C   UNL     1      24.381  55.121  81.236  1.00  0.00     0.202 C 
BRANCH   3   8
ATOM      8  C   UNL     1      25.205  56.071  77.614  1.00  0.00     0.191 C 
BRANCH   8   9
ATOM      9  O   UNL     1      25.474  54.921  76.857  1.00  0.00    -0.394 OA
ATOM     10  H   UNL     1      24.972  55.013  76.006  1.00  0.00     0.210 HD
ENDBRANCH   8   9
ENDBRANCH   3   8
BRANCH   4  11
ATOM     11  O   UNL     1      26.432  57.284  80.968  1.00  0.00    -0.387 OA
ATOM     12  H   UNL     1      26.816  56.401  81.212  1.00  0.00     0.211 HD
ENDBRANCH   4  11
BRANCH   6  13
ATOM     13  O   UNL     1      23.058  56.632  79.876  1.00  0.00    -0.387 OA
ATOM     14  H   UNL     1      23.387  56.442  78.958  1.00  0.00     0.211 HD
ENDBRANCH   6  13
BRANCH   7  15
ATOM     15  O   UNL     1      23.187  54.627  81.789  1.00  0.00    -0.385 OA
ATOM     16  H   UNL     1      23.379  53.709  82.115  1.00  0.00     0.211 HD
ENDBRANCH   7  15
ENDBRANCH   1   2
BRANCH   1  17
ATOM     17  C   UNL     1      23.731  52.643  78.696  1.00  0.00     0.224 C 
ATOM     18  C   UNL     1      22.773  52.635  77.483  1.00  0.00     0.208 C 
ATOM     19  O   UNL     1      24.988  52.141  78.258  1.00  0.00    -0.337 OA
ATOM     20  C   UNL     1      23.411  51.646  76.544  1.00  0.00     0.180 C 
ATOM     21  C   UNL     1      24.883  51.782  76.898  1.00  0.00     0.179 C 
BRANCH  17  22
ATOM     22  C   UNL     1      23.214  51.755  79.858  1.00  0.00     0.225 C 
BRANCH  22  23
ATOM     23  O   UNL     1      22.070  52.305  80.457  1.00  0.00    -0.391 OA
ATOM     24  H   UNL     1      22.174  53.291  80.418  1.00  0.00     0.210 HD
ENDBRANCH  22  23
ENDBRANCH  17  22
BRANCH  18  25
ATOM     25  O   UNL     1      21.462  52.257  77.819  1.00  0.00    -0.385 OA
ATOM     26  H   UNL     1      21.372  52.385  78.799  1.00  0.00     0.211 HD
ENDBRANCH  18  25
BRANCH  20  27
ATOM     27  O   UNL     1      23.188  51.992  75.201  1.00  0.00    -0.387 OA
ATOM     28  H   UNL     1      23.842  52.705  74.982  1.00  0.00     0.211 HD
ENDBRANCH  20  27
BRANCH  21  29
ATOM     29  C   UNL     1      25.656  50.484  76.636  1.00  0.00     0.191 C 
BRANCH  29  30
ATOM     30  O   UNL     1      25.121  49.813  75.527  1.00  0.00    -0.394 OA
ATOM     31  H   UNL     1      25.335  48.851  75.644  1.00  0.00     0.210 HD
ENDBRANCH  29  30
ENDBRANCH  21  29
ENDBRANCH   1  17
TORSDOF 13
ENDMDL
MODEL 2
REMARK VINA RESULT:    -4.166      1.622      5.804
REMARK INTER + INTRA:          -7.959
REMARK INTER:                  -6.109
REMARK INTRA:                  -1.850
REMARK UNBOUND:                -1.602
REMARK SMILES OC[C@@H]1O[C@H](O[C@]2(CO)O[C@@H](CO)[C@H](O)[C@H]2O)[C@H](O)[C@H](O)[C@H]1O
REMARK SMILES IDX 6 1 5 2 3 3 22 4 4 5 20 6 18 7 2 8 1 9 23 11 21 13 19 15
REMARK SMILES IDX 7 17 16 18 10 19 14 20 11 21 8 22 9 23 17 25 15 27 12 29
REMARK SMILES IDX 13 30
REMARK H PARENT 1 10 23 12 21 14 19 16 9 24 17 26 15 28 13 31
REMARK Flexibility Score: inf
ROOT
ATOM      1  O   UNL     1      24.106  51.947  78.440  1.00  0.00    -0.313 OA
ENDROOT
BRANCH   1   2
ATOM      2  C   UNL     1      24.347  52.187  77.060  1.00  0.00     0.285 C 
ATOM      3  C   UNL     1      24.998  49.955  76.486  1.00  0.00     0.178 C 
ATOM      4  C   UNL     1      23.671  49.703  75.720  1.00  0.00     0.177 C 
ATOM      5  O   UNL     1      25.365  51.329  76.559  1.00  0.00    -0.341 OA
ATOM      6  C   UNL     1      22.542  50.624  76.203  1.00  0.00     0.179 C 
ATOM      7  C   UNL     1      23.039  52.073  76.254  1.00  0.00     0.202 C 
BRANCH   3   8
ATOM      8  C   UNL     1      25.076  49.248  77.858  1.00  0.00     0.191 C 
BRANCH   8   9
ATOM      9  O   UNL     1      26.192  49.695  78.581  1.00  0.00    -0.394 OA
ATOM     10  H   UNL     1      26.994  49.311  78.138  1.00  0.00     0.210 HD
ENDBRANCH   8   9
ENDBRANCH   3   8
BRANCH   4  11
ATOM     11  O   UNL     1      23.874  49.924  74.346  1.00  0.00    -0.387 OA
ATOM     12  H   UNL     1      22.984  49.870  73.909  1.00  0.00     0.211 HD
ENDBRANCH   4  11
BRANCH   6  13
ATOM     13  O   UNL     1      22.081  50.202  77.462  1.00  0.00    -0.387 OA
ATOM     14  H   UNL     1      22.588  50.714  78.145  1.00  0.00     0.211 HD
ENDBRANCH   6  13
BRANCH   7  15
ATOM     15  O   UNL     1      22.047  52.898  76.812  1.00  0.00    -0.385 OA
ATOM     16  H   UNL     1      22.394  53.828  76.779  1.00  0.00     0.211 HD
ENDBRANCH   7  15
ENDBRANCH   1   2
BRANCH   1  17
ATOM     17  C   UNL     1      24.371  53.070  79.277  1.00  0.00     0.224 C 
ATOM     18  C   UNL     1      25.542  53.854  78.643  1.00  0.00     0.208 C 
ATOM     19  O   UNL     1      23.252  53.946  79.348  1.00  0.00    -0.337 OA
ATOM     20  C   UNL     1      25.154  55.293  78.858  1.00  0.00     0.180 C 
ATOM     21  C   UNL     1      23.636  55.211  78.856  1.00  0.00     0.179 C 
BRANCH  17  22
ATOM     22  C   UNL     1      24.706  52.569  80.707  1.00  0.00     0.225 C 
BRANCH  22  23
ATOM     23  O   UNL     1      25.500  51.413  80.674  1.00  0.00    -0.391 OA
ATOM     24  H   UNL     1      26.125  51.473  81.442  1.00  0.00     0.210 HD
ENDBRANCH  22  23
ENDBRANCH  17  22
BRANCH  18  25
ATOM     25  O   UNL     1      26.784  53.560  79.231  1.00  0.00    -0.385 OA
ATOM     26  H   UNL     1      26.593  53.227  80.147  1.00  0.00     0.211 HD
ENDBRANCH  18  25
BRANCH  20  27
ATOM     27  O   UNL     1      25.609  56.112  77.813  1.00  0.00    -0.387 OA
ATOM     28  H   UNL     1      26.115  55.525  77.195  1.00  0.00     0.211 HD
ENDBRANCH  20  27
BRANCH  21  29
ATOM     29  C   UNL     1      23.004  56.320  79.707  1.00  0.00     0.191 C 
BRANCH  29  30
ATOM     30  O   UNL     1      23.991  57.195  80.180  1.00  0.00    -0.394 OA
ATOM     31  H   UNL     1      23.670  58.116  79.993  1.00  0.00     0.210 HD
ENDBRANCH  29  30
ENDBRANCH  21  29
ENDBRANCH   1  17
TORSDOF 13
ENDMDL
MODEL 3
REMARK VINA RESULT:    -4.145      1.574      2.948
REMARK INTER + INTRA:          -7.927
REMARK INTER:                  -6.091
REMARK INTRA:                  -1.836
REMARK UNBOUND:                -1.602
REMARK SMILES OC[C@@H]1O[C@H](O[C@]2(CO)O[C@@H](CO)[C@H](O)[C@H]2O)[C@H](O)[C@H](O)[C@H]1O
REMARK SMILES IDX 6 1 5 2 3 3 22 4 4 5 20 6 18 7 2 8 1 9 23 11 21 13 19 15
REMARK SMILES IDX 7 17 16 18 10 19 14 20 11 21 8 22 9 23 17 25 15 27 12 29
REMARK SMILES IDX 13 30
REMARK H PARENT 1 10 23 12 21 14 19 16 9 24 17 26 15 28 13 31
REMARK Flexibility Score: inf
ROOT
ATOM      1  O   UNL     1      23.167  52.941  79.497  1.00  0.00    -0.313 OA
ENDROOT
BRANCH   1   2
ATOM      2  C   UNL     1      22.845  54.046  78.663  1.00  0.00     0.285 C 
ATOM      3  C   UNL     1      21.285  55.089  80.152  1.00  0.00     0.178 C 
ATOM      4  C   UNL     1      22.279  56.238  80.480  1.00  0.00     0.177 C 
ATOM      5  O   UNL     1      21.509  54.484  78.883  1.00  0.00    -0.341 OA
ATOM      6  C   UNL     1      23.737  55.829  80.234  1.00  0.00     0.179 C 
ATOM      7  C   UNL     1      23.869  55.182  78.850  1.00  0.00     0.202 C 
BRANCH   3   8
ATOM      8  C   UNL     1      21.131  54.050  81.284  1.00  0.00     0.191 C 
BRANCH   8   9
ATOM      9  O   UNL     1      20.369  52.956  80.849  1.00  0.00    -0.394 OA
ATOM     10  H   UNL     1      20.039  53.178  79.940  1.00  0.00     0.210 HD
ENDBRANCH   8   9
ENDBRANCH   3   8
BRANCH   4  11
ATOM     11  O   UNL     1      21.984  57.354  79.677  1.00  0.00    -0.387 OA
ATOM     12  H   UNL     1      20.996  57.455  79.671  1.00  0.00     0.211 HD
ENDBRANCH   4  11
BRANCH   6  13
ATOM     13  O   UNL     1      24.168  54.952  81.246  1.00  0.00    -0.387 OA
ATOM     14  H   UNL     1      23.389  54.786  81.839  1.00  0.00     0.211 HD
ENDBRANCH   6  13
BRANCH   7  15
ATOM     15  O   UNL     1      25.176  54.696  78.674  1.00  0.00    -0.385 OA
ATOM     16  H   UNL     1      25.643  55.335  78.074  1.00  0.00     0.211 HD
ENDBRANCH   7  15
ENDBRANCH   1   2
BRANCH   1  17
ATOM     17  C   UNL     1      23.435  51.737  78.782  1.00  0.00     0.224 C 
ATOM     18  C   UNL     1      22.553  51.746  77.514  1.00  0.00     0.208 C 
ATOM     19  O   UNL     1      24.793  51.668  78.365  1.00  0.00    -0.337 OA
ATOM     20  C   UNL     1      23.457  51.167  76.458  1.00  0.00     0.180 C 
ATOM     21  C   UNL     1      24.830  51.588  76.957  1.00  0.00     0.179 C 
BRANCH  17  22
ATOM     22  C   UNL     1      23.131  50.525  79.701  1.00  0.00     0.225 C 
BRANCH  22  23
ATOM     23  O   UNL     1      21.967  50.732  80.458  1.00  0.00    -0.391 OA
ATOM     24  H   UNL     1      21.349  51.263  79.893  1.00  0.00     0.210 HD
ENDBRANCH  22  23
ENDBRANCH  17  22
BRANCH  18  25
ATOM     25  O   UNL     1      21.376  50.991  77.656  1.00  0.00    -0.385 OA
ATOM     26  H   UNL     1      20.621  51.595  77.431  1.00  0.00     0.211 HD
ENDBRANCH  18  25
BRANCH  20  27
ATOM     27  O   UNL     1      23.196  51.720  75.195  1.00  0.00    -0.387 OA
ATOM     28  H   UNL     1      23.628  51.124  74.531  1.00  0.00     0.211 HD
ENDBRANCH  20  27
BRANCH  21  29
ATOM     29  C   UNL     1      25.923  50.608  76.514  1.00  0.00     0.191 C 
BRANCH  29  30
ATOM     30  O   UNL     1      25.417  49.706  75.568  1.00  0.00    -0.394 OA
ATOM     31  H   UNL     1      24.616  50.134  75.166  1.00  0.00     0.210 HD
ENDBRANCH  29  30
ENDBRANCH  21  29
ENDBRANCH   1  17
TORSDOF 13
ENDMDL
MODEL 4
REMARK VINA RESULT:    -4.121      1.819      5.618
REMARK INTER + INTRA:          -7.891
REMARK INTER:                  -6.095
REMARK INTRA:                  -1.797
REMARK UNBOUND:                -1.602
REMARK SMILES OC[C@@H]1O[C@H](O[C@]2(CO)O[C@@H](CO)[C@H](O)[C@H]2O)[C@H](O)[C@H](O)[C@H]1O
REMARK SMILES IDX 6 1 5 2 3 3 22 4 4 5 20 6 18 7 2 8 1 9 23 11 21 13 19 15
REMARK SMILES IDX 7 17 16 18 10 19 14 20 11 21 8 22 9 23 17 25 15 27 12 29
REMARK SMILES IDX 13 30
REMARK H PARENT 1 10 23 12 21 14 19 16 9 24 17 26 15 28 13 31
REMARK Flexibility Score: inf
ROOT
ATOM      1  O   UNL     1      23.689  53.353  79.395  1.00  0.00    -0.313 OA
ENDROOT
BRANCH   1   2
ATOM      2  C   UNL     1      23.277  53.699  78.079  1.00  0.00     0.285 C 
ATOM      3  C   UNL     1      24.904  52.387  76.910  1.00  0.00     0.178 C 
ATOM      4  C   UNL     1      23.832  51.356  76.460  1.00  0.00     0.177 C 
ATOM      5  O   UNL     1      24.375  53.682  77.175  1.00  0.00    -0.341 OA
ATOM      6  C   UNL     1      22.610  51.351  77.387  1.00  0.00     0.179 C 
ATOM      7  C   UNL     1      22.125  52.787  77.616  1.00  0.00     0.202 C 
BRANCH   3   8
ATOM      8  C   UNL     1      25.826  51.881  78.040  1.00  0.00     0.191 C 
BRANCH   8   9
ATOM      9  O   UNL     1      26.540  52.946  78.609  1.00  0.00    -0.394 OA
ATOM     10  H   UNL     1      27.474  52.634  78.731  1.00  0.00     0.210 HD
ENDBRANCH   8   9
ENDBRANCH   3   8
BRANCH   4  11
ATOM     11  O   UNL     1      23.406  51.663  75.155  1.00  0.00    -0.387 OA
ATOM     12  H   UNL     1      22.740  52.396  75.233  1.00  0.00     0.211 HD
ENDBRANCH   4  11
BRANCH   6  13
ATOM     13  O   UNL     1      22.931  50.725  78.604  1.00  0.00    -0.387 OA
ATOM     14  H   UNL     1      22.078  50.407  79.003  1.00  0.00     0.211 HD
ENDBRANCH   6  13
BRANCH   7  15
ATOM     15  O   UNL     1      21.084  52.794  78.561  1.00  0.00    -0.385 OA
ATOM     16  H   UNL     1      21.456  52.416  79.400  1.00  0.00     0.211 HD
ENDBRANCH   7  15
ENDBRANCH   1   2
BRANCH   1  17
ATOM     17  C   UNL     1      23.415  54.356  80.369  1.00  0.00     0.224 C 
ATOM     18  C   UNL     1      23.490  55.726  79.657  1.00  0.00     0.208 C 
ATOM     19  O   UNL     1      22.106  54.219  80.908  1.00  0.00    -0.337 OA
ATOM     20  C   UNL     1      22.359  56.502  80.277  1.00  0.00     0.180 C 
ATOM     21  C   UNL     1      21.378  55.396  80.633  1.00  0.00     0.179 C 
BRANCH  17  22
ATOM     22  C   UNL     1      24.447  54.238  81.522  1.00  0.00     0.225 C 
BRANCH  22  23
ATOM     23  O   UNL     1      25.747  54.038  81.032  1.00  0.00    -0.391 OA
ATOM     24  H   UNL     1      26.031  54.895  80.620  1.00  0.00     0.210 HD
ENDBRANCH  22  23
ENDBRANCH  17  22
BRANCH  18  25
ATOM     25  O   UNL     1      24.723  56.375  79.839  1.00  0.00    -0.385 OA
ATOM     26  H   UNL     1      25.338  56.016  79.148  1.00  0.00     0.211 HD
ENDBRANCH  18  25
BRANCH  20  27
ATOM     27  O   UNL     1      21.785  57.399  79.362  1.00  0.00    -0.387 OA
ATOM     28  H   UNL     1      21.641  56.892  78.523  1.00  0.00     0.211 HD
ENDBRANCH  20  27
BRANCH  21  29
ATOM     29  C   UNL     1      20.508  55.770  81.839  1.00  0.00     0.191 C 
BRANCH  29  30
ATOM     30  O   UNL     1      19.878  57.003  81.622  1.00  0.00    -0.394 OA
ATOM     31  H   UNL     1      19.243  57.136  82.374  1.00  0.00     0.210 HD
ENDBRANCH  29  30
ENDBRANCH  21  29
ENDBRANCH   1  17
TORSDOF 13
ENDMDL
MODEL 5
REMARK VINA RESULT:    -4.041      1.258      2.076
REMARK INTER + INTRA:          -7.768
REMARK INTER:                  -6.372
REMARK INTRA:                  -1.396
REMARK UNBOUND:                -1.602
REMARK SMILES OC[C@@H]1O[C@H](O[C@]2(CO)O[C@@H](CO)[C@H](O)[C@H]2O)[C@H](O)[C@H](O)[C@H]1O
REMARK SMILES IDX 6 1 5 2 3 3 22 4 4 5 20 6 18 7 2 8 1 9 23 11 21 13 19 15
REMARK SMILES IDX 7 17 16 18 10 19 14 20 11 21 8 22 9 23 17 25 15 27 12 29
REMARK SMILES IDX 13 30
REMARK H PARENT 1 10 23 12 21 14 19 16 9 24 17 26 15 28 13 31
REMARK Flexibility Score: inf
ROOT
ATOM      1  O   UNL     1      24.566  53.554  79.105  1.00  0.00    -0.313 OA
ENDROOT
BRANCH   1   2
ATOM      2  C   UNL     1      25.679  54.005  78.344  1.00  0.00     0.285 C 
ATOM      3  C   UNL     1      25.210  56.349  78.505  1.00  0.00     0.178 C 
ATOM      4  C   UNL     1      26.396  56.576  79.484  1.00  0.00     0.177 C 
ATOM      5  O   UNL     1      25.377  55.215  77.659  1.00  0.00    -0.341 OA
ATOM      6  C   UNL     1      26.783  55.293  80.231  1.00  0.00     0.179 C 
ATOM      7  C   UNL     1      26.928  54.135  79.236  1.00  0.00     0.202 C 
BRANCH   3   8
ATOM      8  C   UNL     1      23.822  56.384  79.182  1.00  0.00     0.191 C 
BRANCH   8   9
ATOM      9  O   UNL     1      23.846  57.209  80.315  1.00  0.00    -0.394 OA
ATOM     10  H   UNL     1      23.308  58.014  80.096  1.00  0.00     0.210 HD
ENDBRANCH   8   9
ENDBRANCH   3   8
BRANCH   4  11
ATOM     11  O   UNL     1      27.515  57.032  78.764  1.00  0.00    -0.387 OA
ATOM     12  H   UNL     1      28.015  57.646  79.365  1.00  0.00     0.211 HD
ENDBRANCH   4  11
BRANCH   6  13
ATOM     13  O   UNL     1      25.821  54.999  81.213  1.00  0.00    -0.387 OA
ATOM     14  H   UNL     1      25.789  54.010  81.304  1.00  0.00     0.211 HD
ENDBRANCH   6  13
BRANCH   7  15
ATOM     15  O   UNL     1      27.160  52.936  79.931  1.00  0.00    -0.385 OA
ATOM     16  H   UNL     1      26.647  52.228  79.461  1.00  0.00     0.211 HD
ENDBRANCH   7  15
ENDBRANCH   1   2
BRANCH   1  17
ATOM     17  C   UNL     1      23.977  52.354  78.611  1.00  0.00     0.224 C 
ATOM     18  C   UNL     1      23.077  52.738  77.415  1.00  0.00     0.208 C 
ATOM     19  O   UNL     1      24.963  51.444  78.138  1.00  0.00    -0.337 OA
ATOM     20  C   UNL     1      23.306  51.618  76.435  1.00  0.00     0.180 C 
ATOM     21  C   UNL     1      24.728  51.196  76.768  1.00  0.00     0.179 C 
BRANCH  17  22
ATOM     22  C   UNL     1      23.177  51.675  79.754  1.00  0.00     0.225 C 
BRANCH  22  23
ATOM     23  O   UNL     1      22.555  52.623  80.581  1.00  0.00    -0.391 OA
ATOM     24  H   UNL     1      22.195  52.129  81.362  1.00  0.00     0.210 HD
ENDBRANCH  22  23
ENDBRANCH  17  22
BRANCH  18  25
ATOM     25  O   UNL     1      21.720  52.851  77.762  1.00  0.00    -0.385 OA
ATOM     26  H   UNL     1      21.634  52.509  78.689  1.00  0.00     0.211 HD
ENDBRANCH  18  25
BRANCH  20  27
ATOM     27  O   UNL     1      23.219  52.068  75.108  1.00  0.00    -0.387 OA
ATOM     28  H   UNL     1      23.520  53.012  75.111  1.00  0.00     0.211 HD
ENDBRANCH  20  27
BRANCH  21  29
ATOM     29  C   UNL     1      24.973  49.715  76.453  1.00  0.00     0.191 C 
BRANCH  29  30
ATOM     30  O   UNL     1      24.775  49.468  75.087  1.00  0.00    -0.394 OA
ATOM     31  H   UNL     1      24.341  48.578  75.018  1.00  0.00     0.210 HD
ENDBRANCH  29  30
ENDBRANCH  21  29
ENDBRANCH   1  17
TORSDOF 13
ENDMDL
MODEL 6
REMARK VINA RESULT:    -4.036      1.887      3.675
REMARK INTER + INTRA:          -7.761
REMARK INTER:                  -6.113
REMARK INTRA:                  -1.648
REMARK UNBOUND:                -1.602
REMARK SMILES OC[C@@H]1O[C@H](O[C@]2(CO)O[C@@H](CO)[C@H](O)[C@H]2O)[C@H](O)[C@H](O)[C@H]1O
REMARK SMILES IDX 6 1 5 2 3 3 22 4 4 5 20 6 18 7 2 8 1 9 23 11 21 13 19 15
REMARK SMILES IDX 7 17 16 18 10 19 14 20 11 21 8 22 9 23 17 25 15 27 12 29
REMARK SMILES IDX 13 30
REMARK H PARENT 1 10 23 12 21 14 19 16 9 24 17 26 15 28 13 31
REMARK Flexibility Score: inf
ROOT
ATOM      1  O   UNL     1      23.575  53.739  79.468  1.00  0.00    -0.313 OA
ENDROOT
BRANCH   1   2
ATOM      2  C   UNL     1      23.195  55.085  79.215  1.00  0.00     0.285 C 
ATOM      3  C   UNL     1      20.986  54.940  80.130  1.00  0.00     0.178 C 
ATOM      4  C   UNL     1      21.383  55.788  81.370  1.00  0.00     0.177 C 
ATOM      5  O   UNL     1      21.795  55.189  78.985  1.00  0.00    -0.341 OA
ATOM      6  C   UNL     1      22.891  55.734  81.649  1.00  0.00     0.179 C 
ATOM      7  C   UNL     1      23.669  56.005  80.356  1.00  0.00     0.202 C 
BRANCH   3   8
ATOM      8  C   UNL     1      20.826  53.433  80.425  1.00  0.00     0.191 C 
BRANCH   8   9
ATOM      9  O   UNL     1      20.588  52.720  79.240  1.00  0.00    -0.394 OA
ATOM     10  H   UNL     1      21.303  52.035  79.168  1.00  0.00     0.210 HD
ENDBRANCH   8   9
ENDBRANCH   3   8
BRANCH   4  11
ATOM     11  O   UNL     1      21.013  57.128  81.158  1.00  0.00    -0.387 OA
ATOM     12  H   UNL     1      20.284  57.124  80.483  1.00  0.00     0.211 HD
ENDBRANCH   4  11
BRANCH   6  13
ATOM     13  O   UNL     1      23.235  54.484  82.194  1.00  0.00    -0.387 OA
ATOM     14  H   UNL     1      22.434  54.146  82.675  1.00  0.00     0.211 HD
ENDBRANCH   6  13
BRANCH   7  15
ATOM     15  O   UNL     1      25.045  55.834  80.583  1.00  0.00    -0.385 OA
ATOM     16  H   UNL     1      25.177  54.886  80.846  1.00  0.00     0.211 HD
ENDBRANCH   7  15
ENDBRANCH   1   2
BRANCH   1  17
ATOM     17  C   UNL     1      24.052  53.047  78.316  1.00  0.00     0.224 C 
ATOM     18  C   UNL     1      24.858  51.825  78.811  1.00  0.00     0.208 C 
ATOM     19  O   UNL     1      22.980  52.564  77.516  1.00  0.00    -0.337 OA
ATOM     20  C   UNL     1      24.482  50.743  77.835  1.00  0.00     0.180 C 
ATOM     21  C   UNL     1      23.076  51.158  77.434  1.00  0.00     0.179 C 
BRANCH  17  22
ATOM     22  C   UNL     1      24.916  54.015  77.465  1.00  0.00     0.225 C 
BRANCH  22  23
ATOM     23  O   UNL     1      25.306  53.426  76.253  1.00  0.00    -0.391 OA
ATOM     24  H   UNL     1      25.041  54.053  75.531  1.00  0.00     0.210 HD
ENDBRANCH  22  23
ENDBRANCH  17  22
BRANCH  18  25
ATOM     25  O   UNL     1      26.246  52.050  78.824  1.00  0.00    -0.385 OA
ATOM     26  H   UNL     1      26.498  52.218  79.769  1.00  0.00     0.211 HD
ENDBRANCH  18  25
BRANCH  20  27
ATOM     27  O   UNL     1      24.472  49.478  78.446  1.00  0.00    -0.387 OA
ATOM     28  H   UNL     1      23.990  48.871  77.827  1.00  0.00     0.211 HD
ENDBRANCH  20  27
BRANCH  21  29
ATOM     29  C   UNL     1      22.725  50.689  76.017  1.00  0.00     0.191 C 
BRANCH  29  30
ATOM     30  O   UNL     1      23.212  51.598  75.067  1.00  0.00    -0.394 OA
ATOM     31  H   UNL     1      23.950  52.099  75.503  1.00  0.00     0.210 HD
ENDBRANCH  29  30
ENDBRANCH  21  29
ENDBRANCH   1  17
TORSDOF 13
ENDMDL
MODEL 7
REMARK VINA RESULT:    -3.940      1.737      3.368
REMARK INTER + INTRA:          -7.614
REMARK INTER:                  -6.080
REMARK INTRA:                  -1.535
REMARK UNBOUND:                -1.602
REMARK SMILES OC[C@@H]1O[C@H](O[C@]2(CO)O[C@@H](CO)[C@H](O)[C@H]2O)[C@H](O)[C@H](O)[C@H]1O
REMARK SMILES IDX 6 1 5 2 3 3 22 4 4 5 20 6 18 7 2 8 1 9 23 11 21 13 19 15
REMARK SMILES IDX 7 17 16 18 10 19 14 20 11 21 8 22 9 23 17 25 15 27 12 29
REMARK SMILES IDX 13 30
REMARK H PARENT 1 10 23 12 21 14 19 16 9 24 17 26 15 28 13 31
REMARK Flexibility Score: inf
ROOT
ATOM      1  O   UNL     1      23.540  54.268  79.085  1.00  0.00    -0.313 OA
ENDROOT
BRANCH   1   2
ATOM      2  C   UNL     1      23.124  53.702  80.320  1.00  0.00     0.285 C 
ATOM      3  C   UNL     1      23.756  55.544  81.714  1.00  0.00     0.178 C 
ATOM      4  C   UNL     1      22.275  55.949  81.948  1.00  0.00     0.177 C 
ATOM      5  O   UNL     1      23.929  54.166  81.397  1.00  0.00    -0.341 OA
ATOM      6  C   UNL     1      21.355  55.448  80.827  1.00  0.00     0.179 C 
ATOM      7  C   UNL     1      21.624  53.963  80.557  1.00  0.00     0.202 C 
BRANCH   3   8
ATOM      8  C   UNL     1      24.516  56.474  80.743  1.00  0.00     0.191 C 
BRANCH   8   9
ATOM      9  O   UNL     1      23.962  57.762  80.758  1.00  0.00    -0.394 OA
ATOM     10  H   UNL     1      24.181  58.180  79.884  1.00  0.00     0.210 HD
ENDBRANCH   8   9
ENDBRANCH   3   8
BRANCH   4  11
ATOM     11  O   UNL     1      21.830  55.411  83.169  1.00  0.00    -0.387 OA
ATOM     12  H   UNL     1      22.498  54.729  83.445  1.00  0.00     0.211 HD
ENDBRANCH   4  11
BRANCH   6  13
ATOM     13  O   UNL     1      21.548  56.217  79.665  1.00  0.00    -0.387 OA
ATOM     14  H   UNL     1      21.323  55.637  78.891  1.00  0.00     0.211 HD
ENDBRANCH   6  13
BRANCH   7  15
ATOM     15  O   UNL     1      20.872  53.536  79.450  1.00  0.00    -0.385 OA
ATOM     16  H   UNL     1      19.940  53.844  79.599  1.00  0.00     0.211 HD
ENDBRANCH   7  15
ENDBRANCH   1   2
BRANCH   1  17
ATOM     17  C   UNL     1      24.006  53.310  78.137  1.00  0.00     0.224 C 
ATOM     18  C   UNL     1      24.526  52.090  78.930  1.00  0.00     0.208 C 
ATOM     19  O   UNL     1      22.956  52.861  77.289  1.00  0.00    -0.337 OA
ATOM     20  C   UNL     1      24.069  50.918  78.103  1.00  0.00     0.180 C 
ATOM     21  C   UNL     1      22.809  51.467  77.452  1.00  0.00     0.179 C 
BRANCH  17  22
ATOM     22  C   UNL     1      25.112  53.958  77.264  1.00  0.00     0.225 C 
BRANCH  22  23
ATOM     23  O   UNL     1      25.485  53.121  76.201  1.00  0.00    -0.391 OA
ATOM     24  H   UNL     1      24.648  52.738  75.831  1.00  0.00     0.210 HD
ENDBRANCH  22  23
ENDBRANCH  17  22
BRANCH  18  25
ATOM     25  O   UNL     1      25.922  52.094  79.093  1.00  0.00    -0.385 OA
ATOM     26  H   UNL     1      26.156  52.959  79.518  1.00  0.00     0.211 HD
ENDBRANCH  18  25
BRANCH  20  27
ATOM     27  O   UNL     1      23.770  49.806  78.905  1.00  0.00    -0.387 OA
ATOM     28  H   UNL     1      24.001  49.003  78.370  1.00  0.00     0.211 HD
ENDBRANCH  20  27
BRANCH  21  29
ATOM     29  C   UNL     1      22.532  50.806  76.097  1.00  0.00     0.191 C 
BRANCH  29  30
ATOM     30  O   UNL     1      23.202  51.491  75.074  1.00  0.00    -0.394 OA
ATOM     31  H   UNL     1      22.804  52.399  75.029  1.00  0.00     0.210 HD
ENDBRANCH  29  30
ENDBRANCH  21  29
ENDBRANCH   1  17
TORSDOF 13
ENDMDL
MODEL 8
REMARK VINA RESULT:    -3.933      1.595      5.594
REMARK INTER + INTRA:          -7.604
REMARK INTER:                  -5.830
REMARK INTRA:                  -1.774
REMARK UNBOUND:                -1.602
REMARK SMILES OC[C@@H]1O[C@H](O[C@]2(CO)O[C@@H](CO)[C@H](O)[C@H]2O)[C@H](O)[C@H](O)[C@H]1O
REMARK SMILES IDX 6 1 5 2 3 3 22 4 4 5 20 6 18 7 2 8 1 9 23 11 21 13 19 15
REMARK SMILES IDX 7 17 16 18 10 19 14 20 11 21 8 22 9 23 17 25 15 27 12 29
REMARK SMILES IDX 13 30
REMARK H PARENT 1 10 23 12 21 14 19 16 9 24 17 26 15 28 13 31
REMARK Flexibility Score: inf
ROOT
ATOM      1  O   UNL     1      23.337  53.962  78.524  1.00  0.00    -0.313 OA
ENDROOT
BRANCH   1   2
ATOM      2  C   UNL     1      24.141  52.792  78.580  1.00  0.00     0.285 C 
ATOM      3  C   UNL     1      22.371  51.242  79.029  1.00  0.00     0.178 C 
ATOM      4  C   UNL     1      22.449  50.649  77.595  1.00  0.00     0.177 C 
ATOM      5  O   UNL     1      23.590  51.830  79.472  1.00  0.00    -0.341 OA
ATOM      6  C   UNL     1      23.063  51.637  76.594  1.00  0.00     0.179 C 
ATOM      7  C   UNL     1      24.361  52.218  77.167  1.00  0.00     0.202 C 
BRANCH   3   8
ATOM      8  C   UNL     1      21.152  52.161  79.264  1.00  0.00     0.191 C 
BRANCH   8   9
ATOM      9  O   UNL     1      21.335  52.940  80.417  1.00  0.00    -0.394 OA
ATOM     10  H   UNL     1      22.283  52.831  80.689  1.00  0.00     0.210 HD
ENDBRANCH   8   9
ENDBRANCH   3   8
BRANCH   4  11
ATOM     11  O   UNL     1      23.233  49.482  77.614  1.00  0.00    -0.387 OA
ATOM     12  H   UNL     1      23.448  49.262  76.669  1.00  0.00     0.211 HD
ENDBRANCH   4  11
BRANCH   6  13
ATOM     13  O   UNL     1      22.141  52.656  76.295  1.00  0.00    -0.387 OA
ATOM     14  H   UNL     1      22.666  53.464  76.058  1.00  0.00     0.211 HD
ENDBRANCH   6  13
BRANCH   7  15
ATOM     15  O   UNL     1      24.858  53.213  76.307  1.00  0.00    -0.385 OA
ATOM     16  H   UNL     1      25.505  53.751  76.833  1.00  0.00     0.211 HD
ENDBRANCH   7  15
ENDBRANCH   1   2
BRANCH   1  17
ATOM     17  C   UNL     1      23.930  55.101  79.144  1.00  0.00     0.224 C 
ATOM     18  C   UNL     1      24.486  54.646  80.512  1.00  0.00     0.208 C 
ATOM     19  O   UNL     1      25.018  55.605  78.379  1.00  0.00    -0.337 OA
ATOM     20  C   UNL     1      25.787  55.395  80.624  1.00  0.00     0.180 C 
ATOM     21  C   UNL     1      26.189  55.545  79.165  1.00  0.00     0.179 C 
BRANCH  17  22
ATOM     22  C   UNL     1      22.859  56.215  79.286  1.00  0.00     0.225 C 
BRANCH  22  23
ATOM     23  O   UNL     1      21.582  55.676  79.509  1.00  0.00    -0.391 OA
ATOM     24  H   UNL     1      21.067  56.360  80.011  1.00  0.00     0.210 HD
ENDBRANCH  22  23
ENDBRANCH  17  22
BRANCH  18  25
ATOM     25  O   UNL     1      23.625  54.944  81.582  1.00  0.00    -0.385 OA
ATOM     26  H   UNL     1      23.275  55.858  81.420  1.00  0.00     0.211 HD
ENDBRANCH  18  25
BRANCH  20  27
ATOM     27  O   UNL     1      26.749  54.656  81.330  1.00  0.00    -0.387 OA
ATOM     28  H   UNL     1      27.305  54.195  80.651  1.00  0.00     0.211 HD
ENDBRANCH  20  27
BRANCH  21  29
ATOM     29  C   UNL     1      27.042  56.798  78.933  1.00  0.00     0.191 C 
BRANCH  29  30
ATOM     30  O   UNL     1      28.352  56.587  79.386  1.00  0.00    -0.394 OA
ATOM     31  H   UNL     1      28.658  57.443  79.785  1.00  0.00     0.210 HD
ENDBRANCH  29  30
ENDBRANCH  21  29
ENDBRANCH   1  17
TORSDOF 13
ENDMDL
MODEL 9
REMARK VINA RESULT:    -3.909      1.625      5.778
REMARK INTER + INTRA:          -7.568
REMARK INTER:                  -6.143
REMARK INTRA:                  -1.425
REMARK UNBOUND:                -1.602
REMARK SMILES OC[C@@H]1O[C@H](O[C@]2(CO)O[C@@H](CO)[C@H](O)[C@H]2O)[C@H](O)[C@H](O)[C@H]1O
REMARK SMILES IDX 6 1 5 2 3 3 22 4 4 5 20 6 18 7 2 8 1 9 23 11 21 13 19 15
REMARK SMILES IDX 7 17 16 18 10 19 14 20 11 21 8 22 9 23 17 25 15 27 12 29
REMARK SMILES IDX 13 30
REMARK H PARENT 1 10 23 12 21 14 19 16 9 24 17 26 15 28 13 31
REMARK Flexibility Score: inf
ROOT
ATOM      1  O   UNL     1      23.991  53.975  78.449  1.00  0.00    -0.313 OA
ENDROOT
BRANCH   1   2
ATOM      2  C   UNL     1      24.574  52.681  78.384  1.00  0.00     0.285 C 
ATOM      3  C   UNL     1      22.713  51.477  79.291  1.00  0.00     0.178 C 
ATOM      4  C   UNL     1      22.361  50.865  77.908  1.00  0.00     0.177 C 
ATOM      5  O   UNL     1      24.083  51.842  79.423  1.00  0.00    -0.341 OA
ATOM      6  C   UNL     1      22.892  51.717  76.747  1.00  0.00     0.179 C 
ATOM      7  C   UNL     1      24.366  52.063  76.988  1.00  0.00     0.202 C 
BRANCH   3   8
ATOM      8  C   UNL     1      21.755  52.601  79.744  1.00  0.00     0.191 C 
BRANCH   8   9
ATOM      9  O   UNL     1      20.529  52.507  79.069  1.00  0.00    -0.394 OA
ATOM     10  H   UNL     1      19.973  53.269  79.376  1.00  0.00     0.210 HD
ENDBRANCH   8   9
ENDBRANCH   3   8
BRANCH   4  11
ATOM     11  O   UNL     1      22.916  49.577  77.810  1.00  0.00    -0.387 OA
ATOM     12  H   UNL     1      22.347  49.063  77.179  1.00  0.00     0.211 HD
ENDBRANCH   4  11
BRANCH   6  13
ATOM     13  O   UNL     1      22.115  52.881  76.609  1.00  0.00    -0.387 OA
ATOM     14  H   UNL     1      22.604  53.487  75.993  1.00  0.00     0.211 HD
ENDBRANCH   6  13
BRANCH   7  15
ATOM     15  O   UNL     1      24.818  52.944  75.990  1.00  0.00    -0.385 OA
ATOM     16  H   UNL     1      24.944  53.829  76.423  1.00  0.00     0.211 HD
ENDBRANCH   7  15
ENDBRANCH   1   2
BRANCH   1  17
ATOM     17  C   UNL     1      24.878  54.985  78.926  1.00  0.00     0.224 C 
ATOM     18  C   UNL     1      24.155  55.735  80.067  1.00  0.00     0.208 C 
ATOM     19  O   UNL     1      26.069  54.423  79.463  1.00  0.00    -0.337 OA
ATOM     20  C   UNL     1      25.249  55.976  81.072  1.00  0.00     0.180 C 
ATOM     21  C   UNL     1      26.171  54.794  80.821  1.00  0.00     0.179 C 
BRANCH  17  22
ATOM     22  C   UNL     1      25.254  55.925  77.751  1.00  0.00     0.225 C 
BRANCH  22  23
ATOM     23  O   UNL     1      26.269  56.824  78.115  1.00  0.00    -0.391 OA
ATOM     24  H   UNL     1      25.876  57.733  78.068  1.00  0.00     0.210 HD
ENDBRANCH  22  23
ENDBRANCH  17  22
BRANCH  18  25
ATOM     25  O   UNL     1      23.564  56.939  79.647  1.00  0.00    -0.385 OA
ATOM     26  H   UNL     1      22.885  57.176  80.331  1.00  0.00     0.211 HD
ENDBRANCH  18  25
BRANCH  20  27
ATOM     27  O   UNL     1      24.757  55.952  82.387  1.00  0.00    -0.387 OA
ATOM     28  H   UNL     1      23.788  56.156  82.329  1.00  0.00     0.211 HD
ENDBRANCH  20  27
BRANCH  21  29
ATOM     29  C   UNL     1      27.628  55.123  81.168  1.00  0.00     0.191 C 
BRANCH  29  30
ATOM     30  O   UNL     1      28.118  56.124  80.318  1.00  0.00    -0.394 OA
ATOM     31  H   UNL     1      27.836  55.881  79.398  1.00  0.00     0.210 HD
ENDBRANCH  29  30
ENDBRANCH  21  29
ENDBRANCH   1  17
TORSDOF 13
ENDMDL
