MODEL 1
REMARK VINA RESULT:    -5.747      0.000      0.000
REMARK INTER + INTRA:          -7.098
REMARK INTER:                  -6.586
REMARK INTRA:                  -0.511
REMARK UNBOUND:                -0.511
REMARK SMILES CCC=Cc1oc(O)c2ccccc12
REMARK SMILES IDX 7 1 6 2 5 3 14 4 13 5 12 6 11 7 10 8 9 9 8 10 4 12 3 13 2 14
REMARK SMILES IDX 1 15
REMARK H PARENT 8 11
REMARK Flexibility Score: inf
ROOT
ATOM      1  C   UNL     1       7.053  24.598  44.528  1.00  0.00     0.290 A 
ATOM      2  O   UNL     1       6.949  23.551  43.733  1.00  0.00    -0.425 OA
ATOM      3  C   UNL     1       7.264  23.917  42.503  1.00  0.00     0.138 A 
ATOM      4  C   UNL     1       7.609  25.259  42.508  1.00  0.00     0.032 A 
ATOM      5  C   UNL     1       8.072  26.104  41.498  1.00  0.00     0.013 A 
ATOM      6  C   UNL     1       8.359  27.439  41.840  1.00  0.00     0.001 A 
ATOM      7  C   UNL     1       8.194  27.889  43.169  1.00  0.00     0.001 A 
ATOM      8  C   UNL     1       7.746  27.008  44.170  1.00  0.00     0.016 A 
ATOM      9  C   UNL     1       7.466  25.694  43.799  1.00  0.00     0.066 A 
ENDROOT
BRANCH   1  10
ATOM     10  O   UNL     1       6.789  24.564  45.893  1.00  0.00    -0.480 OA
ATOM     11  H   UNL     1       6.093  23.936  46.279  1.00  0.00     0.297 HD
ENDBRANCH   1  10
BRANCH   3  12
ATOM     12  C   UNL     1       7.281  22.993  41.359  1.00  0.00     0.043 C 
ATOM     13  C   UNL     1       6.244  22.780  40.537  1.00  0.00    -0.023 C 
BRANCH  13  14
ATOM     14  C   UNL     1       4.858  23.342  40.733  1.00  0.00     0.024 C 
ATOM     15  C   UNL     1       4.750  24.732  40.116  1.00  0.00     0.008 C 
ENDBRANCH  13  14
ENDBRANCH   3  12
TORSDOF 3
ENDMDL
MODEL 2
REMARK VINA RESULT:    -5.686      1.399      1.957
REMARK INTER + INTRA:          -7.029
REMARK INTER:                  -6.629
REMARK INTRA:                  -0.400
REMARK UNBOUND:                -0.511
REMARK SMILES CCC=Cc1oc(O)c2ccccc12
REMARK SMILES IDX 7 1 6 2 5 3 14 4 13 5 12 6 11 7 10 8 9 9 8 10 4 12 3 13 2 14
REMARK SMILES IDX 1 15
REMARK H PARENT 8 11
REMARK Flexibility Score: inf
ROOT
ATOM      1  C   UNL     1       7.001  23.954  43.745  1.00  0.00     0.290 A 
ATOM      2  O   UNL     1       6.396  23.072  42.973  1.00  0.00    -0.425 OA
ATOM      3  C   UNL     1       6.180  23.621  41.791  1.00  0.00     0.138 A 
ATOM      4  C   UNL     1       6.687  24.909  41.791  1.00  0.00     0.032 A 
ATOM      5  C   UNL     1       6.771  25.877  40.789  1.00  0.00     0.013 A 
ATOM      6  C   UNL     1       7.378  27.106  41.112  1.00  0.00     0.001 A 
ATOM      7  C   UNL     1       7.894  27.330  42.408  1.00  0.00     0.001 A 
ATOM      8  C   UNL     1       7.814  26.328  43.392  1.00  0.00     0.016 A 
ATOM      9  C   UNL     1       7.204  25.124  43.042  1.00  0.00     0.066 A 
ENDROOT
BRANCH   1  10
ATOM     10  O   UNL     1       7.374  23.705  45.062  1.00  0.00    -0.480 OA
ATOM     11  H   UNL     1       6.781  23.168  45.683  1.00  0.00     0.297 HD
ENDBRANCH   1  10
BRANCH   3  12
ATOM     12  C   UNL     1       5.544  22.910  40.670  1.00  0.00     0.043 C 
ATOM     13  C   UNL     1       6.190  22.115  39.807  1.00  0.00    -0.023 C 
BRANCH  13  14
ATOM     14  C   UNL     1       7.686  21.932  39.757  1.00  0.00     0.024 C 
ATOM     15  C   UNL     1       8.146  21.655  38.331  1.00  0.00     0.008 C 
ENDBRANCH  13  14
ENDBRANCH   3  12
TORSDOF 3
ENDMDL
MODEL 3
REMARK VINA RESULT:    -5.647      2.748      4.195
REMARK INTER + INTRA:          -6.984
REMARK INTER:                  -6.594
REMARK INTRA:                  -0.390
REMARK UNBOUND:                -0.511
REMARK SMILES CCC=Cc1oc(O)c2ccccc12
REMARK SMILES IDX 7 1 6 2 5 3 14 4 13 5 12 6 11 7 10 8 9 9 8 10 4 12 3 13 2 14
REMARK SMILES IDX 1 15
REMARK H PARENT 8 11
REMARK Flexibility Score: inf
ROOT
ATOM      1  C   UNL     1      10.492  27.839  44.730  1.00  0.00     0.290 A 
ATOM      2  O   UNL     1       9.504  27.265  45.388  1.00  0.00    -0.425 OA
ATOM      3  C   UNL     1       8.441  27.221  44.605  1.00  0.00     0.138 A 
ATOM      4  C   UNL     1       8.763  27.773  43.376  1.00  0.00     0.032 A 
ATOM      5  C   UNL     1       8.029  27.909  42.197  1.00  0.00     0.013 A 
ATOM      6  C   UNL     1       8.667  28.508  41.093  1.00  0.00     0.001 A 
ATOM      7  C   UNL     1      10.009  28.936  41.188  1.00  0.00     0.001 A 
ATOM      8  C   UNL     1      10.731  28.766  42.384  1.00  0.00     0.016 A 
ATOM      9  C   UNL     1      10.070  28.174  43.459  1.00  0.00     0.066 A 
ENDROOT
BRANCH   1  10
ATOM     10  O   UNL     1      11.759  28.049  45.263  1.00  0.00    -0.480 OA
ATOM     11  H   UNL     1      12.573  27.575  44.888  1.00  0.00     0.297 HD
ENDBRANCH   1  10
BRANCH   3  12
ATOM     12  C   UNL     1       7.159  26.622  45.009  1.00  0.00     0.043 C 
ATOM     13  C   UNL     1       6.878  25.312  44.951  1.00  0.00    -0.023 C 
BRANCH  13  14
ATOM     14  C   UNL     1       7.772  24.265  44.336  1.00  0.00     0.024 C 
ATOM     15  C   UNL     1       6.949  23.086  43.831  1.00  0.00     0.008 C 
ENDBRANCH  13  14
ENDBRANCH   3  12
TORSDOF 3
ENDMDL
MODEL 4
REMARK VINA RESULT:    -5.512      5.781      7.834
REMARK INTER + INTRA:          -6.829
REMARK INTER:                  -6.401
REMARK INTRA:                  -0.429
REMARK UNBOUND:                -0.511
REMARK SMILES CCC=Cc1oc(O)c2ccccc12
REMARK SMILES IDX 7 1 6 2 5 3 14 4 13 5 12 6 11 7 10 8 9 9 8 10 4 12 3 13 2 14
REMARK SMILES IDX 1 15
REMARK H PARENT 8 11
REMARK Flexibility Score: inf
ROOT
ATOM      1  C   UNL     1      13.938  28.018  39.194  1.00  0.00     0.290 A 
ATOM      2  O   UNL     1      13.791  28.063  40.504  1.00  0.00    -0.425 OA
ATOM      3  C   UNL     1      12.712  27.375  40.834  1.00  0.00     0.138 A 
ATOM      4  C   UNL     1      12.147  26.844  39.687  1.00  0.00     0.032 A 
ATOM      5  C   UNL     1      11.051  26.003  39.493  1.00  0.00     0.013 A 
ATOM      6  C   UNL     1      10.743  25.619  38.174  1.00  0.00     0.001 A 
ATOM      7  C   UNL     1      11.538  26.065  37.095  1.00  0.00     0.001 A 
ATOM      8  C   UNL     1      12.651  26.896  37.323  1.00  0.00     0.016 A 
ATOM      9  C   UNL     1      12.925  27.262  38.640  1.00  0.00     0.066 A 
ENDROOT
BRANCH   1  10
ATOM     10  O   UNL     1      14.975  28.642  38.509  1.00  0.00    -0.480 OA
ATOM     11  H   UNL     1      15.773  28.118  38.170  1.00  0.00     0.297 HD
ENDBRANCH   1  10
BRANCH   3  12
ATOM     12  C   UNL     1      12.259  27.192  42.222  1.00  0.00     0.043 C 
ATOM     13  C   UNL     1      11.392  27.996  42.853  1.00  0.00    -0.023 C 
BRANCH  13  14
ATOM     14  C   UNL     1      10.852  29.289  42.294  1.00  0.00     0.024 C 
ATOM     15  C   UNL     1      11.625  30.478  42.852  1.00  0.00     0.008 C 
ENDBRANCH  13  14
ENDBRANCH   3  12
TORSDOF 3
ENDMDL
MODEL 5
REMARK VINA RESULT:    -5.490      1.556      4.500
REMARK INTER + INTRA:          -6.804
REMARK INTER:                  -6.419
REMARK INTRA:                  -0.385
REMARK UNBOUND:                -0.511
REMARK SMILES CCC=Cc1oc(O)c2ccccc12
REMARK SMILES IDX 7 1 6 2 5 3 14 4 13 5 12 6 11 7 10 8 9 9 8 10 4 12 3 13 2 14
REMARK SMILES IDX 1 15
REMARK H PARENT 8 11
REMARK Flexibility Score: inf
ROOT
ATOM      1  C   UNL     1       7.141  25.103  44.544  1.00  0.00     0.290 A 
ATOM      2  O   UNL     1       7.656  26.315  44.462  1.00  0.00    -0.425 OA
ATOM      3  C   UNL     1       7.856  26.605  43.189  1.00  0.00     0.138 A 
ATOM      4  C   UNL     1       7.433  25.540  42.411  1.00  0.00     0.032 A 
ATOM      5  C   UNL     1       7.369  25.366  41.028  1.00  0.00     0.013 A 
ATOM      6  C   UNL     1       6.856  24.147  40.543  1.00  0.00     0.001 A 
ATOM      7  C   UNL     1       6.410  23.151  41.440  1.00  0.00     0.001 A 
ATOM      8  C   UNL     1       6.467  23.364  42.830  1.00  0.00     0.016 A 
ATOM      9  C   UNL     1       6.984  24.579  43.277  1.00  0.00     0.066 A 
ENDROOT
BRANCH   1  10
ATOM     10  O   UNL     1       6.810  24.482  45.744  1.00  0.00    -0.480 OA
ATOM     11  H   UNL     1       6.834  24.987  46.622  1.00  0.00     0.297 HD
ENDBRANCH   1  10
BRANCH   3  12
ATOM     12  C   UNL     1       8.398  27.892  42.725  1.00  0.00     0.043 C 
ATOM     13  C   UNL     1       9.692  28.238  42.778  1.00  0.00    -0.023 C 
BRANCH  13  14
ATOM     14  C   UNL     1      10.774  27.427  43.447  1.00  0.00     0.024 C 
ATOM     15  C   UNL     1      10.902  27.813  44.916  1.00  0.00     0.008 C 
ENDBRANCH  13  14
ENDBRANCH   3  12
TORSDOF 3
ENDMDL
MODEL 6
REMARK VINA RESULT:    -5.453      5.933      8.053
REMARK INTER + INTRA:          -6.761
REMARK INTER:                  -6.198
REMARK INTRA:                  -0.563
REMARK UNBOUND:                -0.511
REMARK SMILES CCC=Cc1oc(O)c2ccccc12
REMARK SMILES IDX 7 1 6 2 5 3 14 4 13 5 12 6 11 7 10 8 9 9 8 10 4 12 3 13 2 14
REMARK SMILES IDX 1 15
REMARK H PARENT 8 11
REMARK Flexibility Score: inf
ROOT
ATOM      1  C   UNL     1      11.876  25.006  36.752  1.00  0.00     0.290 A 
ATOM      2  O   UNL     1      12.835  25.911  36.714  1.00  0.00    -0.425 OA
ATOM      3  C   UNL     1      12.413  27.002  37.329  1.00  0.00     0.138 A 
ATOM      4  C   UNL     1      11.131  26.784  37.805  1.00  0.00     0.032 A 
ATOM      5  C   UNL     1      10.273  27.580  38.566  1.00  0.00     0.013 A 
ATOM      6  C   UNL     1       9.017  27.047  38.912  1.00  0.00     0.001 A 
ATOM      7  C   UNL     1       8.658  25.742  38.507  1.00  0.00     0.001 A 
ATOM      8  C   UNL     1       9.552  24.954  37.759  1.00  0.00     0.016 A 
ATOM      9  C   UNL     1      10.786  25.513  37.430  1.00  0.00     0.066 A 
ENDROOT
BRANCH   1  10
ATOM     10  O   UNL     1      11.986  23.737  36.193  1.00  0.00    -0.480 OA
ATOM     11  H   UNL     1      12.812  23.459  35.677  1.00  0.00     0.297 HD
ENDBRANCH   1  10
BRANCH   3  12
ATOM     12  C   UNL     1      13.238  28.208  37.498  1.00  0.00     0.043 C 
ATOM     13  C   UNL     1      14.018  28.456  38.559  1.00  0.00    -0.023 C 
BRANCH  13  14
ATOM     14  C   UNL     1      14.068  27.612  39.808  1.00  0.00     0.024 C 
ATOM     15  C   UNL     1      13.172  28.203  40.891  1.00  0.00     0.008 C 
ENDBRANCH  13  14
ENDBRANCH   3  12
TORSDOF 3
ENDMDL
MODEL 7
REMARK VINA RESULT:    -5.425      2.227      3.414
REMARK INTER + INTRA:          -6.729
REMARK INTER:                  -6.296
REMARK INTRA:                  -0.433
REMARK UNBOUND:                -0.511
REMARK SMILES CCC=Cc1oc(O)c2ccccc12
REMARK SMILES IDX 7 1 6 2 5 3 14 4 13 5 12 6 11 7 10 8 9 9 8 10 4 12 3 13 2 14
REMARK SMILES IDX 1 15
REMARK H PARENT 8 11
REMARK Flexibility Score: inf
ROOT
ATOM      1  C   UNL     1       6.912  25.985  41.023  1.00  0.00     0.290 A 
ATOM      2  O   UNL     1       6.443  25.074  40.191  1.00  0.00    -0.425 OA
ATOM      3  C   UNL     1       6.329  23.928  40.838  1.00  0.00     0.138 A 
ATOM      4  C   UNL     1       6.723  24.110  42.153  1.00  0.00     0.032 A 
ATOM      5  C   UNL     1       6.734  23.247  43.249  1.00  0.00     0.013 A 
ATOM      6  C   UNL     1       7.183  23.758  44.483  1.00  0.00     0.001 A 
ATOM      7  C   UNL     1       7.590  25.106  44.593  1.00  0.00     0.001 A 
ATOM      8  C   UNL     1       7.547  25.959  43.475  1.00  0.00     0.016 A 
ATOM      9  C   UNL     1       7.103  25.422  42.268  1.00  0.00     0.066 A 
ENDROOT
BRANCH   1  10
ATOM     10  O   UNL     1       7.156  27.307  40.666  1.00  0.00    -0.480 OA
ATOM     11  H   UNL     1       7.693  27.538  39.838  1.00  0.00     0.297 HD
ENDBRANCH   1  10
BRANCH   3  12
ATOM     12  C   UNL     1       5.811  22.696  40.222  1.00  0.00     0.043 C 
ATOM     13  C   UNL     1       6.574  21.721  39.710  1.00  0.00    -0.023 C 
BRANCH  13  14
ATOM     14  C   UNL     1       8.072  21.789  39.555  1.00  0.00     0.024 C 
ATOM     15  C   UNL     1       8.447  22.182  38.131  1.00  0.00     0.008 C 
ENDBRANCH  13  14
ENDBRANCH   3  12
TORSDOF 3
ENDMDL
MODEL 8
REMARK VINA RESULT:    -5.371      5.796      7.938
REMARK INTER + INTRA:          -6.667
REMARK INTER:                  -6.251
REMARK INTRA:                  -0.416
REMARK UNBOUND:                -0.511
REMARK SMILES CCC=Cc1oc(O)c2ccccc12
REMARK SMILES IDX 7 1 6 2 5 3 14 4 13 5 12 6 11 7 10 8 9 9 8 10 4 12 3 13 2 14
REMARK SMILES IDX 1 15
REMARK H PARENT 8 11
REMARK Flexibility Score: inf
ROOT
ATOM      1  C   UNL     1       9.805  26.965  38.270  1.00  0.00     0.290 A 
ATOM      2  O   UNL     1      10.753  27.865  38.440  1.00  0.00    -0.425 OA
ATOM      3  C   UNL     1      11.891  27.375  37.983  1.00  0.00     0.138 A 
ATOM      4  C   UNL     1      11.664  26.107  37.475  1.00  0.00     0.032 A 
ATOM      5  C   UNL     1      12.505  25.199  36.830  1.00  0.00     0.013 A 
ATOM      6  C   UNL     1      11.949  23.976  36.406  1.00  0.00     0.001 A 
ATOM      7  C   UNL     1      10.580  23.700  36.621  1.00  0.00     0.001 A 
ATOM      8  C   UNL     1       9.752  24.644  37.255  1.00  0.00     0.016 A 
ATOM      9  C   UNL     1      10.334  25.843  37.666  1.00  0.00     0.066 A 
ENDROOT
BRANCH   1  10
ATOM     10  O   UNL     1       8.479  27.155  38.646  1.00  0.00    -0.480 OA
ATOM     11  H   UNL     1       8.081  26.663  39.437  1.00  0.00     0.297 HD
ENDBRANCH   1  10
BRANCH   3  12
ATOM     12  C   UNL     1      13.159  28.122  37.990  1.00  0.00     0.043 C 
ATOM     13  C   UNL     1      14.018  28.156  39.018  1.00  0.00    -0.023 C 
BRANCH  13  14
ATOM     14  C   UNL     1      13.761  27.553  40.376  1.00  0.00     0.024 C 
ATOM     15  C   UNL     1      12.971  28.519  41.252  1.00  0.00     0.008 C 
ENDBRANCH  13  14
ENDBRANCH   3  12
TORSDOF 3
ENDMDL
MODEL 9
REMARK VINA RESULT:    -5.295      5.895      7.098
REMARK INTER + INTRA:          -6.580
REMARK INTER:                  -6.060
REMARK INTRA:                  -0.520
REMARK UNBOUND:                -0.511
REMARK SMILES CCC=Cc1oc(O)c2ccccc12
REMARK SMILES IDX 7 1 6 2 5 3 14 4 13 5 12 6 11 7 10 8 9 9 8 10 4 12 3 13 2 14
REMARK SMILES IDX 1 15
REMARK H PARENT 8 11
REMARK Flexibility Score: inf
ROOT
ATOM      1  C   UNL     1      13.842  28.196  40.160  1.00  0.00     0.290 A 
ATOM      2  O   UNL     1      13.952  27.738  38.928  1.00  0.00    -0.425 OA
ATOM      3  C   UNL     1      12.741  27.507  38.452  1.00  0.00     0.138 A 
ATOM      4  C   UNL     1      11.805  27.851  39.413  1.00  0.00     0.032 A 
ATOM      5  C   UNL     1      10.410  27.858  39.393  1.00  0.00     0.013 A 
ATOM      6  C   UNL     1       9.739  28.295  40.551  1.00  0.00     0.001 A 
ATOM      7  C   UNL     1      10.468  28.723  41.682  1.00  0.00     0.001 A 
ATOM      8  C   UNL     1      11.875  28.725  41.666  1.00  0.00     0.016 A 
ATOM      9  C   UNL     1      12.509  28.283  40.506  1.00  0.00     0.066 A 
ENDROOT
BRANCH   1  10
ATOM     10  O   UNL     1      14.928  28.540  40.958  1.00  0.00    -0.480 OA
ATOM     11  H   UNL     1      15.353  29.458  40.903  1.00  0.00     0.297 HD
ENDBRANCH   1  10
BRANCH   3  12
ATOM     12  C   UNL     1      12.485  27.012  37.091  1.00  0.00     0.043 C 
ATOM     13  C   UNL     1      12.407  25.717  36.753  1.00  0.00    -0.023 C 
BRANCH  13  14
ATOM     14  C   UNL     1      12.709  24.565  37.678  1.00  0.00     0.024 C 
ATOM     15  C   UNL     1      11.423  24.010  38.280  1.00  0.00     0.008 C 
ENDBRANCH  13  14
ENDBRANCH   3  12
TORSDOF 3
ENDMDL
