MODEL 1
REMARK VINA RESULT:    -5.871      0.000      0.000
REMARK INTER + INTRA:         -12.038
REMARK INTER:                 -10.677
REMARK INTRA:                  -1.361
REMARK UNBOUND:                -1.361
REMARK SMILES CCCCCCCCCCCCCC[C@H](C)C(=O)[O-]
REMARK SMILES IDX 9 1 10 2 11 3 12 4 13 5 14 6 15 7 16 8 17 9 18 10 19 11 8 12
REMARK SMILES IDX 7 13 6 14 5 15 4 16 3 17 2 18 1 19
REMARK H PARENT
REMARK Flexibility Score: inf
ROOT
ATOM      1  C   UNL     1      -9.919 -15.374  26.702  1.00  0.00     0.000 C 
ENDROOT
BRANCH   1   2
ATOM      2  C   UNL     1     -11.424 -15.638  26.539  1.00  0.00     0.000 C 
BRANCH   2   3
ATOM      3  C   UNL     1     -11.890 -16.757  27.482  1.00  0.00     0.000 C 
BRANCH   3   4
ATOM      4  C   UNL     1     -12.946 -16.281  28.493  1.00  0.00     0.000 C 
BRANCH   4   5
ATOM      5  C   UNL     1     -12.438 -16.320  29.946  1.00  0.00     0.001 C 
BRANCH   5   6
ATOM      6  C   UNL     1     -10.903 -16.479  30.025  1.00  0.00     0.009 C 
BRANCH   6   7
ATOM      7  C   UNL     1     -10.403 -17.646  30.911  1.00  0.00     0.032 C 
ATOM      8  C   UNL     1     -10.234 -18.953  30.122  1.00  0.00     0.014 C 
BRANCH   7   9
ATOM      9  C   UNL     1     -11.262 -17.844  32.131  1.00  0.00     0.044 C 
ATOM     10  O   UNL     1     -11.838 -18.948  32.320  1.00  0.00    -0.550 OA
ATOM     11  O   UNL     1     -11.389 -16.837  33.082  1.00  0.00    -0.550 OA
ENDBRANCH   7   9
ENDBRANCH   6   7
ENDBRANCH   5   6
ENDBRANCH   4   5
ENDBRANCH   3   4
ENDBRANCH   2   3
ENDBRANCH   1   2
BRANCH   1  12
ATOM     12  C   UNL     1      -9.387 -14.329  25.708  1.00  0.00     0.000 C 
BRANCH  12  13
ATOM     13  C   UNL     1      -7.983 -13.821  26.080  1.00  0.00    -0.000 C 
BRANCH  13  14
ATOM     14  C   UNL     1      -7.045 -14.956  26.524  1.00  0.00    -0.000 C 
BRANCH  14  15
ATOM     15  C   UNL     1      -6.192 -14.570  27.746  1.00  0.00    -0.000 C 
BRANCH  15  16
ATOM     16  C   UNL     1      -7.040 -14.258  28.993  1.00  0.00    -0.000 C 
BRANCH  16  17
ATOM     17  C   UNL     1      -6.348 -14.541  30.339  1.00  0.00    -0.000 C 
BRANCH  17  18
ATOM     18  C   UNL     1      -7.050 -13.868  31.527  1.00  0.00    -0.003 C 
ATOM     19  C   UNL     1      -8.424 -14.484  31.775  1.00  0.00     0.004 C 
ENDBRANCH  17  18
ENDBRANCH  16  17
ENDBRANCH  15  16
ENDBRANCH  14  15
ENDBRANCH  13  14
ENDBRANCH  12  13
ENDBRANCH   1  12
TORSDOF 14
ENDMDL
MODEL 2
REMARK VINA RESULT:    -5.797      1.583      2.161
REMARK INTER + INTRA:         -11.902
REMARK INTER:                 -10.615
REMARK INTRA:                  -1.288
REMARK UNBOUND:                -1.361
REMARK SMILES CCCCCCCCCCCCCC[C@H](C)C(=O)[O-]
REMARK SMILES IDX 9 1 10 2 11 3 12 4 13 5 14 6 15 7 16 8 17 9 18 10 19 11 8 12
REMARK SMILES IDX 7 13 6 14 5 15 4 16 3 17 2 18 1 19
REMARK H PARENT
REMARK Flexibility Score: inf
ROOT
ATOM      1  C   UNL     1      -9.781 -15.372  26.826  1.00  0.00     0.000 C 
ENDROOT
BRANCH   1   2
ATOM      2  C   UNL     1     -11.264 -15.719  26.624  1.00  0.00     0.000 C 
BRANCH   2   3
ATOM      3  C   UNL     1     -11.819 -16.478  27.838  1.00  0.00     0.000 C 
BRANCH   3   4
ATOM      4  C   UNL     1     -10.717 -16.937  28.807  1.00  0.00     0.000 C 
BRANCH   4   5
ATOM      5  C   UNL     1     -11.178 -18.073  29.737  1.00  0.00     0.001 C 
BRANCH   5   6
ATOM      6  C   UNL     1     -10.051 -18.551  30.680  1.00  0.00     0.009 C 
BRANCH   6   7
ATOM      7  C   UNL     1      -9.947 -17.792  32.026  1.00  0.00     0.032 C 
ATOM      8  C   UNL     1     -11.321 -17.383  32.578  1.00  0.00     0.014 C 
BRANCH   7   9
ATOM      9  C   UNL     1      -9.012 -16.615  31.945  1.00  0.00     0.044 C 
ATOM     10  O   UNL     1      -7.768 -16.795  32.026  1.00  0.00    -0.550 OA
ATOM     11  O   UNL     1      -9.503 -15.331  31.732  1.00  0.00    -0.550 OA
ENDBRANCH   7   9
ENDBRANCH   6   7
ENDBRANCH   5   6
ENDBRANCH   4   5
ENDBRANCH   3   4
ENDBRANCH   2   3
ENDBRANCH   1   2
BRANCH   1  12
ATOM     12  C   UNL     1      -9.233 -14.443  25.730  1.00  0.00     0.000 C 
BRANCH  12  13
ATOM     13  C   UNL     1      -7.881 -13.813  26.110  1.00  0.00    -0.000 C 
BRANCH  13  14
ATOM     14  C   UNL     1      -6.872 -14.853  26.625  1.00  0.00    -0.000 C 
BRANCH  14  15
ATOM     15  C   UNL     1      -6.149 -14.389  27.902  1.00  0.00    -0.000 C 
BRANCH  15  16
ATOM     16  C   UNL     1      -7.067 -14.371  29.138  1.00  0.00    -0.000 C 
BRANCH  16  17
ATOM     17  C   UNL     1      -6.532 -13.566  30.336  1.00  0.00    -0.000 C 
BRANCH  17  18
ATOM     18  C   UNL     1      -5.697 -12.349  29.913  1.00  0.00    -0.003 C 
ATOM     19  C   UNL     1      -5.781 -11.236  30.954  1.00  0.00     0.004 C 
ENDBRANCH  17  18
ENDBRANCH  16  17
ENDBRANCH  15  16
ENDBRANCH  14  15
ENDBRANCH  13  14
ENDBRANCH  12  13
ENDBRANCH   1  12
TORSDOF 14
ENDMDL
MODEL 3
REMARK VINA RESULT:    -5.678      2.147      5.225
REMARK INTER + INTRA:         -11.686
REMARK INTER:                 -10.120
REMARK INTRA:                  -1.567
REMARK UNBOUND:                -1.361
REMARK SMILES CCCCCCCCCCCCCC[C@H](C)C(=O)[O-]
REMARK SMILES IDX 9 1 10 2 11 3 12 4 13 5 14 6 15 7 16 8 17 9 18 10 19 11 8 12
REMARK SMILES IDX 7 13 6 14 5 15 4 16 3 17 2 18 1 19
REMARK H PARENT
REMARK Flexibility Score: inf
ROOT
ATOM      1  C   UNL     1     -11.621 -18.733  28.977  1.00  0.00     0.000 C 
ENDROOT
BRANCH   1   2
ATOM      2  C   UNL     1     -10.405 -18.917  29.897  1.00  0.00     0.000 C 
BRANCH   2   3
ATOM      3  C   UNL     1     -10.720 -18.439  31.322  1.00  0.00     0.000 C 
BRANCH   3   4
ATOM      4  C   UNL     1      -9.689 -17.429  31.852  1.00  0.00     0.000 C 
BRANCH   4   5
ATOM      5  C   UNL     1      -9.425 -16.276  30.866  1.00  0.00     0.001 C 
BRANCH   5   6
ATOM      6  C   UNL     1      -9.179 -14.933  31.589  1.00  0.00     0.009 C 
BRANCH   6   7
ATOM      7  C   UNL     1      -7.810 -14.269  31.305  1.00  0.00     0.032 C 
ATOM      8  C   UNL     1      -7.252 -14.638  29.922  1.00  0.00     0.014 C 
BRANCH   7   9
ATOM      9  C   UNL     1      -6.807 -14.541  32.395  1.00  0.00     0.044 C 
ATOM     10  O   UNL     1      -6.523 -15.728  32.704  1.00  0.00    -0.550 OA
ATOM     11  O   UNL     1      -6.150 -13.494  33.033  1.00  0.00    -0.550 OA
ENDBRANCH   7   9
ENDBRANCH   6   7
ENDBRANCH   5   6
ENDBRANCH   4   5
ENDBRANCH   3   4
ENDBRANCH   2   3
ENDBRANCH   1   2
BRANCH   1  12
ATOM     12  C   UNL     1     -12.639 -17.722  29.530  1.00  0.00     0.000 C 
BRANCH  12  13
ATOM     13  C   UNL     1     -12.650 -16.402  28.741  1.00  0.00    -0.000 C 
BRANCH  13  14
ATOM     14  C   UNL     1     -11.828 -16.484  27.444  1.00  0.00    -0.000 C 
BRANCH  14  15
ATOM     15  C   UNL     1     -10.495 -15.722  27.542  1.00  0.00    -0.000 C 
BRANCH  15  16
ATOM     16  C   UNL     1     -10.074 -15.075  26.210  1.00  0.00    -0.000 C 
BRANCH  16  17
ATOM     17  C   UNL     1      -8.823 -14.180  26.285  1.00  0.00    -0.000 C 
BRANCH  17  18
ATOM     18  C   UNL     1      -8.716 -13.201  25.107  1.00  0.00    -0.003 C 
ATOM     19  C   UNL     1     -10.045 -13.083  24.367  1.00  0.00     0.004 C 
ENDBRANCH  17  18
ENDBRANCH  16  17
ENDBRANCH  15  16
ENDBRANCH  14  15
ENDBRANCH  13  14
ENDBRANCH  12  13
ENDBRANCH   1  12
TORSDOF 14
ENDMDL
MODEL 4
REMARK VINA RESULT:    -5.676      3.322      5.664
REMARK INTER + INTRA:         -11.683
REMARK INTER:                  -9.865
REMARK INTRA:                  -1.818
REMARK UNBOUND:                -1.361
REMARK SMILES CCCCCCCCCCCCCC[C@H](C)C(=O)[O-]
REMARK SMILES IDX 9 1 10 2 11 3 12 4 13 5 14 6 15 7 16 8 17 9 18 10 19 11 8 12
REMARK SMILES IDX 7 13 6 14 5 15 4 16 3 17 2 18 1 19
REMARK H PARENT
REMARK Flexibility Score: inf
ROOT
ATOM      1  C   UNL     1     -10.580 -18.949  29.957  1.00  0.00     0.000 C 
ENDROOT
BRANCH   1   2
ATOM      2  C   UNL     1     -11.486 -18.591  28.769  1.00  0.00     0.000 C 
BRANCH   2   3
ATOM      3  C   UNL     1     -12.464 -17.468  29.145  1.00  0.00     0.000 C 
BRANCH   3   4
ATOM      4  C   UNL     1     -12.285 -16.210  28.280  1.00  0.00     0.000 C 
BRANCH   4   5
ATOM      5  C   UNL     1     -10.836 -16.023  27.794  1.00  0.00     0.001 C 
BRANCH   5   6
ATOM      6  C   UNL     1     -10.771 -15.483  26.347  1.00  0.00     0.009 C 
BRANCH   6   7
ATOM      7  C   UNL     1      -9.383 -14.966  25.895  1.00  0.00     0.032 C 
ATOM      8  C   UNL     1      -8.368 -14.924  27.047  1.00  0.00     0.014 C 
BRANCH   7   9
ATOM      9  C   UNL     1      -9.471 -13.640  25.188  1.00  0.00     0.044 C 
ATOM     10  O   UNL     1      -8.507 -12.832  25.248  1.00  0.00    -0.550 OA
ATOM     11  O   UNL     1     -10.587 -13.315  24.424  1.00  0.00    -0.550 OA
ENDBRANCH   7   9
ENDBRANCH   6   7
ENDBRANCH   5   6
ENDBRANCH   4   5
ENDBRANCH   3   4
ENDBRANCH   2   3
ENDBRANCH   1   2
BRANCH   1  12
ATOM     12  C   UNL     1     -11.252 -18.694  31.315  1.00  0.00     0.000 C 
BRANCH  12  13
ATOM     13  C   UNL     1     -10.372 -17.862  32.264  1.00  0.00    -0.000 C 
BRANCH  13  14
ATOM     14  C   UNL     1     -11.014 -16.514  32.632  1.00  0.00    -0.000 C 
BRANCH  14  15
ATOM     15  C   UNL     1     -10.677 -15.405  31.620  1.00  0.00    -0.000 C 
BRANCH  15  16
ATOM     16  C   UNL     1      -9.252 -15.529  31.049  1.00  0.00    -0.000 C 
BRANCH  16  17
ATOM     17  C   UNL     1      -8.141 -14.935  31.934  1.00  0.00    -0.000 C 
BRANCH  17  18
ATOM     18  C   UNL     1      -7.164 -14.044  31.152  1.00  0.00    -0.003 C 
ATOM     19  C   UNL     1      -6.798 -12.797  31.951  1.00  0.00     0.004 C 
ENDBRANCH  17  18
ENDBRANCH  16  17
ENDBRANCH  15  16
ENDBRANCH  14  15
ENDBRANCH  13  14
ENDBRANCH  12  13
ENDBRANCH   1  12
TORSDOF 14
ENDMDL
MODEL 5
REMARK VINA RESULT:    -5.597      3.168      5.996
REMARK INTER + INTRA:         -11.539
REMARK INTER:                  -9.736
REMARK INTRA:                  -1.803
REMARK UNBOUND:                -1.361
REMARK SMILES CCCCCCCCCCCCCC[C@H](C)C(=O)[O-]
REMARK SMILES IDX 9 1 10 2 11 3 12 4 13 5 14 6 15 7 16 8 17 9 18 10 19 11 8 12
REMARK SMILES IDX 7 13 6 14 5 15 4 16 3 17 2 18 1 19
REMARK H PARENT
REMARK Flexibility Score: inf
ROOT
ATOM      1  C   UNL     1     -10.329 -15.990  27.607  1.00  0.00     0.000 C 
ENDROOT
BRANCH   1   2
ATOM      2  C   UNL     1     -10.214 -15.215  26.285  1.00  0.00     0.000 C 
BRANCH   2   3
ATOM      3  C   UNL     1      -8.956 -14.334  26.274  1.00  0.00     0.000 C 
BRANCH   3   4
ATOM      4  C   UNL     1      -7.656 -15.154  26.273  1.00  0.00     0.000 C 
BRANCH   4   5
ATOM      5  C   UNL     1      -6.594 -14.587  27.233  1.00  0.00     0.001 C 
BRANCH   5   6
ATOM      6  C   UNL     1      -7.166 -14.317  28.643  1.00  0.00     0.009 C 
BRANCH   6   7
ATOM      7  C   UNL     1      -6.126 -14.308  29.789  1.00  0.00     0.032 C 
ATOM      8  C   UNL     1      -6.764 -14.040  31.161  1.00  0.00     0.014 C 
BRANCH   7   9
ATOM      9  C   UNL     1      -4.986 -13.362  29.517  1.00  0.00     0.044 C 
ATOM     10  O   UNL     1      -3.843 -13.817  29.249  1.00  0.00    -0.550 OA
ATOM     11  O   UNL     1      -5.192 -11.986  29.507  1.00  0.00    -0.550 OA
ENDBRANCH   7   9
ENDBRANCH   6   7
ENDBRANCH   5   6
ENDBRANCH   4   5
ENDBRANCH   3   4
ENDBRANCH   2   3
ENDBRANCH   1   2
BRANCH   1  12
ATOM     12  C   UNL     1     -11.626 -16.808  27.706  1.00  0.00     0.000 C 
BRANCH  12  13
ATOM     13  C   UNL     1     -12.694 -16.120  28.574  1.00  0.00    -0.000 C 
BRANCH  13  14
ATOM     14  C   UNL     1     -13.183 -17.015  29.725  1.00  0.00    -0.000 C 
BRANCH  14  15
ATOM     15  C   UNL     1     -12.492 -18.390  29.736  1.00  0.00    -0.000 C 
BRANCH  15  16
ATOM     16  C   UNL     1     -11.584 -18.595  30.963  1.00  0.00    -0.000 C 
BRANCH  16  17
ATOM     17  C   UNL     1     -10.073 -18.538  30.672  1.00  0.00    -0.000 C 
BRANCH  17  18
ATOM     18  C   UNL     1      -9.340 -17.489  31.521  1.00  0.00    -0.003 C 
ATOM     19  C   UNL     1      -9.971 -16.109  31.355  1.00  0.00     0.004 C 
ENDBRANCH  17  18
ENDBRANCH  16  17
ENDBRANCH  15  16
ENDBRANCH  14  15
ENDBRANCH  13  14
ENDBRANCH  12  13
ENDBRANCH   1  12
TORSDOF 14
ENDMDL
MODEL 6
REMARK VINA RESULT:    -5.565      2.815      6.851
REMARK INTER + INTRA:         -11.480
REMARK INTER:                  -9.782
REMARK INTRA:                  -1.698
REMARK UNBOUND:                -1.361
REMARK SMILES CCCCCCCCCCCCCC[C@H](C)C(=O)[O-]
REMARK SMILES IDX 9 1 10 2 11 3 12 4 13 5 14 6 15 7 16 8 17 9 18 10 19 11 8 12
REMARK SMILES IDX 7 13 6 14 5 15 4 16 3 17 2 18 1 19
REMARK H PARENT
REMARK Flexibility Score: inf
ROOT
ATOM      1  C   UNL     1      -8.768 -17.224  31.903  1.00  0.00     0.000 C 
ENDROOT
BRANCH   1   2
ATOM      2  C   UNL     1      -8.683 -15.951  31.047  1.00  0.00     0.000 C 
BRANCH   2   3
ATOM      3  C   UNL     1      -9.233 -14.739  31.812  1.00  0.00     0.000 C 
BRANCH   3   4
ATOM      4  C   UNL     1      -8.164 -13.665  32.073  1.00  0.00     0.000 C 
BRANCH   4   5
ATOM      5  C   UNL     1      -6.760 -14.100  31.614  1.00  0.00     0.001 C 
BRANCH   5   6
ATOM      6  C   UNL     1      -6.322 -13.386  30.315  1.00  0.00     0.009 C 
BRANCH   6   7
ATOM      7  C   UNL     1      -5.447 -14.231  29.358  1.00  0.00     0.032 C 
ATOM      8  C   UNL     1      -4.057 -13.615  29.134  1.00  0.00     0.014 C 
BRANCH   7   9
ATOM      9  C   UNL     1      -6.141 -14.515  28.052  1.00  0.00     0.044 C 
ATOM     10  O   UNL     1      -5.462 -14.743  27.017  1.00  0.00    -0.550 OA
ATOM     11  O   UNL     1      -7.529 -14.578  27.985  1.00  0.00    -0.550 OA
ENDBRANCH   7   9
ENDBRANCH   6   7
ENDBRANCH   5   6
ENDBRANCH   4   5
ENDBRANCH   3   4
ENDBRANCH   2   3
ENDBRANCH   1   2
BRANCH   1  12
ATOM     12  C   UNL     1      -9.781 -18.242  31.354  1.00  0.00     0.000 C 
BRANCH  12  13
ATOM     13  C   UNL     1     -11.051 -18.337  32.218  1.00  0.00    -0.000 C 
BRANCH  13  14
ATOM     14  C   UNL     1     -12.047 -17.203  31.926  1.00  0.00    -0.000 C 
BRANCH  14  15
ATOM     15  C   UNL     1     -13.215 -17.660  31.034  1.00  0.00    -0.000 C 
BRANCH  15  16
ATOM     16  C   UNL     1     -13.159 -17.057  29.618  1.00  0.00    -0.000 C 
BRANCH  16  17
ATOM     17  C   UNL     1     -12.039 -16.025  29.392  1.00  0.00    -0.000 C 
BRANCH  17  18
ATOM     18  C   UNL     1     -11.107 -16.398  28.231  1.00  0.00    -0.003 C 
ATOM     19  C   UNL     1     -11.762 -16.104  26.884  1.00  0.00     0.004 C 
ENDBRANCH  17  18
ENDBRANCH  16  17
ENDBRANCH  15  16
ENDBRANCH  14  15
ENDBRANCH  13  14
ENDBRANCH  12  13
ENDBRANCH   1  12
TORSDOF 14
ENDMDL
MODEL 7
REMARK VINA RESULT:    -5.555      2.814      6.406
REMARK INTER + INTRA:         -11.463
REMARK INTER:                 -10.049
REMARK INTRA:                  -1.414
REMARK UNBOUND:                -1.361
REMARK SMILES CCCCCCCCCCCCCC[C@H](C)C(=O)[O-]
REMARK SMILES IDX 9 1 10 2 11 3 12 4 13 5 14 6 15 7 16 8 17 9 18 10 19 11 8 12
REMARK SMILES IDX 7 13 6 14 5 15 4 16 3 17 2 18 1 19
REMARK H PARENT
REMARK Flexibility Score: inf
ROOT
ATOM      1  C   UNL     1     -11.105 -18.115  31.908  1.00  0.00     0.000 C 
ENDROOT
BRANCH   1   2
ATOM      2  C   UNL     1      -9.623 -18.164  31.504  1.00  0.00     0.000 C 
BRANCH   2   3
ATOM      3  C   UNL     1      -9.009 -16.757  31.502  1.00  0.00     0.000 C 
BRANCH   3   4
ATOM      4  C   UNL     1      -7.608 -16.719  32.134  1.00  0.00     0.000 C 
BRANCH   4   5
ATOM      5  C   UNL     1      -6.755 -15.545  31.619  1.00  0.00     0.001 C 
BRANCH   5   6
ATOM      6  C   UNL     1      -7.589 -14.531  30.802  1.00  0.00     0.009 C 
BRANCH   6   7
ATOM      7  C   UNL     1      -6.781 -13.649  29.820  1.00  0.00     0.032 C 
ATOM      8  C   UNL     1      -5.797 -14.465  28.968  1.00  0.00     0.014 C 
BRANCH   7   9
ATOM      9  C   UNL     1      -6.091 -12.506  30.516  1.00  0.00     0.044 C 
ATOM     10  O   UNL     1      -5.176 -11.873  29.926  1.00  0.00    -0.550 OA
ATOM     11  O   UNL     1      -6.487 -12.106  31.788  1.00  0.00    -0.550 OA
ENDBRANCH   7   9
ENDBRANCH   6   7
ENDBRANCH   5   6
ENDBRANCH   4   5
ENDBRANCH   3   4
ENDBRANCH   2   3
ENDBRANCH   1   2
BRANCH   1  12
ATOM     12  C   UNL     1     -11.818 -16.850  31.402  1.00  0.00     0.000 C 
BRANCH  12  13
ATOM     13  C   UNL     1     -13.188 -17.156  30.773  1.00  0.00    -0.000 C 
BRANCH  13  14
ATOM     14  C   UNL     1     -13.227 -16.845  29.267  1.00  0.00    -0.000 C 
BRANCH  14  15
ATOM     15  C   UNL     1     -11.939 -17.277  28.543  1.00  0.00    -0.000 C 
BRANCH  15  16
ATOM     16  C   UNL     1     -11.554 -16.331  27.391  1.00  0.00    -0.000 C 
BRANCH  16  17
ATOM     17  C   UNL     1     -10.106 -15.809  27.432  1.00  0.00    -0.000 C 
BRANCH  17  18
ATOM     18  C   UNL     1      -9.741 -14.959  26.207  1.00  0.00    -0.003 C 
ATOM     19  C   UNL     1      -8.257 -14.601  26.208  1.00  0.00     0.004 C 
ENDBRANCH  17  18
ENDBRANCH  16  17
ENDBRANCH  15  16
ENDBRANCH  14  15
ENDBRANCH  13  14
ENDBRANCH  12  13
ENDBRANCH   1  12
TORSDOF 14
ENDMDL
MODEL 8
REMARK VINA RESULT:    -5.536      1.752      5.112
REMARK INTER + INTRA:         -11.427
REMARK INTER:                 -10.094
REMARK INTRA:                  -1.333
REMARK UNBOUND:                -1.361
REMARK SMILES CCCCCCCCCCCCCC[C@H](C)C(=O)[O-]
REMARK SMILES IDX 9 1 10 2 11 3 12 4 13 5 14 6 15 7 16 8 17 9 18 10 19 11 8 12
REMARK SMILES IDX 7 13 6 14 5 15 4 16 3 17 2 18 1 19
REMARK H PARENT
REMARK Flexibility Score: inf
ROOT
ATOM      1  C   UNL     1      -9.866 -14.478  25.846  1.00  0.00     0.000 C 
ENDROOT
BRANCH   1   2
ATOM      2  C   UNL     1      -8.459 -13.869  25.931  1.00  0.00     0.000 C 
BRANCH   2   3
ATOM      3  C   UNL     1      -7.419 -14.940  26.290  1.00  0.00     0.000 C 
BRANCH   3   4
ATOM      4  C   UNL     1      -6.442 -14.477  27.383  1.00  0.00     0.000 C 
BRANCH   4   5
ATOM      5  C   UNL     1      -7.077 -14.472  28.785  1.00  0.00     0.001 C 
BRANCH   5   6
ATOM      6  C   UNL     1      -6.179 -13.773  29.831  1.00  0.00     0.009 C 
BRANCH   6   7
ATOM      7  C   UNL     1      -6.914 -13.239  31.084  1.00  0.00     0.032 C 
ATOM      8  C   UNL     1      -5.967 -12.527  32.063  1.00  0.00     0.014 C 
BRANCH   7   9
ATOM      9  C   UNL     1      -7.717 -14.309  31.774  1.00  0.00     0.044 C 
ATOM     10  O   UNL     1      -8.955 -14.154  31.943  1.00  0.00    -0.550 OA
ATOM     11  O   UNL     1      -7.116 -15.495  32.183  1.00  0.00    -0.550 OA
ENDBRANCH   7   9
ENDBRANCH   6   7
ENDBRANCH   5   6
ENDBRANCH   4   5
ENDBRANCH   3   4
ENDBRANCH   2   3
ENDBRANCH   1   2
BRANCH   1  12
ATOM     12  C   UNL     1     -10.070 -15.644  26.827  1.00  0.00     0.000 C 
BRANCH  12  13
ATOM     13  C   UNL     1     -11.556 -15.958  27.072  1.00  0.00    -0.000 C 
BRANCH  13  14
ATOM     14  C   UNL     1     -11.835 -16.396  28.520  1.00  0.00    -0.000 C 
BRANCH  14  15
ATOM     15  C   UNL     1     -10.834 -17.454  29.018  1.00  0.00    -0.000 C 
BRANCH  15  16
ATOM     16  C   UNL     1     -10.097 -17.025  30.301  1.00  0.00    -0.000 C 
BRANCH  16  17
ATOM     17  C   UNL     1      -9.863 -18.150  31.325  1.00  0.00    -0.000 C 
BRANCH  17  18
ATOM     18  C   UNL     1     -10.853 -18.108  32.498  1.00  0.00    -0.003 C 
ATOM     19  C   UNL     1     -11.443 -16.711  32.670  1.00  0.00     0.004 C 
ENDBRANCH  17  18
ENDBRANCH  16  17
ENDBRANCH  15  16
ENDBRANCH  14  15
ENDBRANCH  13  14
ENDBRANCH  12  13
ENDBRANCH   1  12
TORSDOF 14
ENDMDL
MODEL 9
REMARK VINA RESULT:    -5.463      2.401      4.670
REMARK INTER + INTRA:         -11.294
REMARK INTER:                  -9.787
REMARK INTRA:                  -1.507
REMARK UNBOUND:                -1.361
REMARK SMILES CCCCCCCCCCCCCC[C@H](C)C(=O)[O-]
REMARK SMILES IDX 9 1 10 2 11 3 12 4 13 5 14 6 15 7 16 8 17 9 18 10 19 11 8 12
REMARK SMILES IDX 7 13 6 14 5 15 4 16 3 17 2 18 1 19
REMARK H PARENT
REMARK Flexibility Score: inf
ROOT
ATOM      1  C   UNL     1      -8.996 -16.135  31.566  1.00  0.00     0.000 C 
ENDROOT
BRANCH   1   2
ATOM      2  C   UNL     1     -10.379 -16.193  32.232  1.00  0.00     0.000 C 
BRANCH   2   3
ATOM      3  C   UNL     1     -10.963 -17.611  32.159  1.00  0.00     0.000 C 
BRANCH   3   4
ATOM      4  C   UNL     1     -10.267 -18.488  31.106  1.00  0.00     0.000 C 
BRANCH   4   5
ATOM      5  C   UNL     1     -11.117 -18.682  29.837  1.00  0.00     0.001 C 
BRANCH   5   6
ATOM      6  C   UNL     1     -10.803 -17.624  28.755  1.00  0.00     0.009 C 
BRANCH   6   7
ATOM      7  C   UNL     1     -11.838 -16.480  28.626  1.00  0.00     0.032 C 
ATOM      8  C   UNL     1     -13.192 -16.839  29.256  1.00  0.00     0.014 C 
BRANCH   7   9
ATOM      9  C   UNL     1     -11.997 -16.012  27.204  1.00  0.00     0.044 C 
ATOM     10  O   UNL     1     -10.979 -15.735  26.518  1.00  0.00    -0.550 OA
ATOM     11  O   UNL     1     -13.257 -15.931  26.620  1.00  0.00    -0.550 OA
ENDBRANCH   7   9
ENDBRANCH   6   7
ENDBRANCH   5   6
ENDBRANCH   4   5
ENDBRANCH   3   4
ENDBRANCH   2   3
ENDBRANCH   1   2
BRANCH   1  12
ATOM     12  C   UNL     1      -8.434 -14.707  31.485  1.00  0.00     0.000 C 
BRANCH  12  13
ATOM     13  C   UNL     1      -6.939 -14.679  31.122  1.00  0.00    -0.000 C 
BRANCH  13  14
ATOM     14  C   UNL     1      -6.615 -13.636  30.039  1.00  0.00    -0.000 C 
BRANCH  14  15
ATOM     15  C   UNL     1      -5.436 -14.061  29.146  1.00  0.00    -0.000 C 
BRANCH  15  16
ATOM     16  C   UNL     1      -5.888 -14.686  27.813  1.00  0.00    -0.000 C 
BRANCH  16  17
ATOM     17  C   UNL     1      -7.386 -14.527  27.494  1.00  0.00    -0.000 C 
BRANCH  17  18
ATOM     18  C   UNL     1      -7.677 -14.496  25.986  1.00  0.00    -0.003 C 
ATOM     19  C   UNL     1      -8.647 -13.371  25.637  1.00  0.00     0.004 C 
ENDBRANCH  17  18
ENDBRANCH  16  17
ENDBRANCH  15  16
ENDBRANCH  14  15
ENDBRANCH  13  14
ENDBRANCH  12  13
ENDBRANCH   1  12
TORSDOF 14
ENDMDL
