MODEL 1
REMARK VINA RESULT:    -1.557      0.000      0.000
REMARK INTER + INTRA:          -1.360
REMARK INTER:                  -1.830
REMARK INTRA:                   0.470
REMARK UNBOUND:                 0.470
REMARK SMILES O=c1c(O)c(-c2ccc(O)c(O)c2)oc2cc(O)ccc12
REMARK SMILES IDX 5 1 3 2 2 3 1 4 21 5 15 6 14 7 16 8 17 9 19 10 20 11 6 12
REMARK SMILES IDX 7 13 8 14 9 15 13 16 11 17 10 18 12 20 4 22 18 24
REMARK H PARENT 10 19 12 21 4 23 18 25
REMARK Flexibility Score: inf
ROOT
ATOM      1  C   UNL     1       2.401 -15.044   7.061  1.00  0.00     0.180 A 
ATOM      2  C   UNL     1       3.367 -14.997   6.035  1.00  0.00     0.208 A 
ATOM      3  C   UNL     1       2.934 -14.962   4.700  1.00  0.00     0.235 A 
ATOM      4  O   UNL     1       3.779 -14.909   3.765  1.00  0.00    -0.285 OA
ATOM      5  C   UNL     1       1.559 -14.994   4.419  1.00  0.00     0.069 A 
ATOM      6  C   UNL     1       0.657 -15.064   5.502  1.00  0.00     0.142 A 
ATOM      7  O   UNL     1       1.106 -15.088   6.751  1.00  0.00    -0.452 OA
ATOM      8  C   UNL     1      -0.722 -15.108   5.262  1.00  0.00     0.094 A 
ATOM      9  C   UNL     1      -1.211 -15.080   3.952  1.00  0.00     0.119 A 
ATOM     10  C   UNL     1      -0.317 -15.008   2.875  1.00  0.00     0.047 A 
ATOM     11  C   UNL     1       1.061 -14.966   3.103  1.00  0.00     0.020 A 
ENDROOT
BRANCH   1  12
ATOM     12  C   UNL     1       2.776 -15.065   8.494  1.00  0.00     0.025 A 
ATOM     13  C   UNL     1       4.120 -15.002   8.900  1.00  0.00     0.016 A 
ATOM     14  C   UNL     1       4.449 -14.998  10.258  1.00  0.00     0.051 A 
ATOM     15  C   UNL     1       3.440 -15.044  11.229  1.00  0.00     0.157 A 
ATOM     16  C   UNL     1       1.768 -15.088   9.472  1.00  0.00     0.062 A 
ATOM     17  C   UNL     1       2.093 -15.085  10.833  1.00  0.00     0.158 A 
BRANCH  15  18
ATOM     18  O   UNL     1       3.771 -15.043  12.584  1.00  0.00    -0.504 OA
ATOM     19  H   UNL     1       4.736 -15.028  12.894  1.00  0.00     0.293 HD
ENDBRANCH  15  18
BRANCH  17  20
ATOM     20  O   UNL     1       1.065 -15.124  11.775  1.00  0.00    -0.504 OA
ATOM     21  H   UNL     1       0.947 -15.904  12.410  1.00  0.00     0.293 HD
ENDBRANCH  17  20
ENDBRANCH   1  12
BRANCH   2  22
ATOM     22  O   UNL     1       4.730 -15.015   6.344  1.00  0.00    -0.502 OA
ATOM     23  H   UNL     1       5.447 -14.944   5.633  1.00  0.00     0.293 HD
ENDBRANCH   2  22
BRANCH   9  24
ATOM     24  O   UNL     1      -2.586 -15.125   3.732  1.00  0.00    -0.508 OA
ATOM     25  H   UNL     1      -3.072 -16.004   3.597  1.00  0.00     0.293 HD
ENDBRANCH   9  24
TORSDOF 5
ENDMDL
MODEL 2
REMARK VINA RESULT:    -0.712      1.384      6.707
REMARK INTER + INTRA:          -0.367
REMARK INTER:                  -0.920
REMARK INTRA:                   0.552
REMARK UNBOUND:                 0.470
REMARK SMILES O=c1c(O)c(-c2ccc(O)c(O)c2)oc2cc(O)ccc12
REMARK SMILES IDX 5 1 3 2 2 3 1 4 21 5 15 6 14 7 16 8 17 9 19 10 20 11 6 12
REMARK SMILES IDX 7 13 8 14 9 15 13 16 11 17 10 18 12 20 4 22 18 24
REMARK H PARENT 10 19 12 21 4 23 18 25
REMARK Flexibility Score: inf
ROOT
ATOM      1  C   UNL     1       1.658 -15.110   7.688  1.00  0.00     0.180 A 
ATOM      2  C   UNL     1       3.050 -15.084   7.461  1.00  0.00     0.208 A 
ATOM      3  C   UNL     1       3.915 -15.089   8.566  1.00  0.00     0.235 A 
ATOM      4  O   UNL     1       5.164 -15.076   8.389  1.00  0.00    -0.285 OA
ATOM      5  C   UNL     1       3.379 -15.100   9.863  1.00  0.00     0.069 A 
ATOM      6  C   UNL     1       1.975 -15.103  10.005  1.00  0.00     0.142 A 
ATOM      7  O   UNL     1       1.190 -15.106   8.934  1.00  0.00    -0.452 OA
ATOM      8  C   UNL     1       1.401 -15.104  11.282  1.00  0.00     0.094 A 
ATOM      9  C   UNL     1       2.214 -15.105  12.421  1.00  0.00     0.119 A 
ATOM     10  C   UNL     1       3.608 -15.105  12.282  1.00  0.00     0.047 A 
ATOM     11  C   UNL     1       4.191 -15.102  11.012  1.00  0.00     0.020 A 
ENDROOT
BRANCH   1  12
ATOM     12  C   UNL     1       0.681 -15.125   6.575  1.00  0.00     0.025 A 
ATOM     13  C   UNL     1      -0.703 -15.103   6.816  1.00  0.00     0.016 A 
ATOM     14  C   UNL     1      -1.606 -15.093   5.750  1.00  0.00     0.051 A 
ATOM     15  C   UNL     1      -1.140 -15.091   4.429  1.00  0.00     0.157 A 
ATOM     16  C   UNL     1       1.143 -15.100   5.249  1.00  0.00     0.062 A 
ATOM     17  C   UNL     1       0.242 -15.091   4.178  1.00  0.00     0.158 A 
BRANCH  15  18
ATOM     18  O   UNL     1      -2.043 -15.083   3.366  1.00  0.00    -0.504 OA
ATOM     19  H   UNL     1      -3.029 -15.271   3.507  1.00  0.00     0.293 HD
ENDBRANCH  15  18
BRANCH  17  20
ATOM     20  O   UNL     1       0.739 -15.082   2.875  1.00  0.00    -0.504 OA
ATOM     21  H   UNL     1       1.580 -15.584   2.616  1.00  0.00     0.293 HD
ENDBRANCH  17  20
ENDBRANCH   1  12
BRANCH   2  22
ATOM     22  O   UNL     1       3.554 -15.023   6.159  1.00  0.00    -0.502 OA
ATOM     23  H   UNL     1       3.558 -15.826   5.542  1.00  0.00     0.293 HD
ENDBRANCH   2  22
BRANCH   9  24
ATOM     24  O   UNL     1       1.626 -15.107  13.684  1.00  0.00    -0.508 OA
ATOM     25  H   UNL     1       0.974 -14.383  13.965  1.00  0.00     0.293 HD
ENDBRANCH   9  24
TORSDOF 5
ENDMDL
MODEL 3
REMARK VINA RESULT:    -0.583      1.272      2.074
REMARK INTER + INTRA:          -0.216
REMARK INTER:                  -0.768
REMARK INTRA:                   0.552
REMARK UNBOUND:                 0.470
REMARK SMILES O=c1c(O)c(-c2ccc(O)c(O)c2)oc2cc(O)ccc12
REMARK SMILES IDX 5 1 3 2 2 3 1 4 21 5 15 6 14 7 16 8 17 9 19 10 20 11 6 12
REMARK SMILES IDX 7 13 8 14 9 15 13 16 11 17 10 18 12 20 4 22 18 24
REMARK H PARENT 10 19 12 21 4 23 18 25
REMARK Flexibility Score: inf
ROOT
ATOM      1  C   UNL     1       2.915 -15.049   7.870  1.00  0.00     0.180 A 
ATOM      2  C   UNL     1       4.202 -15.053   7.293  1.00  0.00     0.208 A 
ATOM      3  C   UNL     1       4.317 -15.037   5.895  1.00  0.00     0.235 A 
ATOM      4  O   UNL     1       5.458 -15.030   5.355  1.00  0.00    -0.285 OA
ATOM      5  C   UNL     1       3.155 -15.037   5.107  1.00  0.00     0.069 A 
ATOM      6  C   UNL     1       1.905 -15.057   5.760  1.00  0.00     0.142 A 
ATOM      7  O   UNL     1       1.839 -15.063   7.086  1.00  0.00    -0.452 OA
ATOM      8  C   UNL     1       0.723 -15.067   5.009  1.00  0.00     0.094 A 
ATOM      9  C   UNL     1       0.776 -15.056   3.611  1.00  0.00     0.119 A 
ATOM     10  C   UNL     1       2.016 -15.035   2.960  1.00  0.00     0.047 A 
ATOM     11  C   UNL     1       3.202 -15.026   3.700  1.00  0.00     0.020 A 
ENDROOT
BRANCH   1  12
ATOM     12  C   UNL     1       2.711 -15.047   9.336  1.00  0.00     0.025 A 
ATOM     13  C   UNL     1       1.422 -15.070   9.896  1.00  0.00     0.016 A 
ATOM     14  C   UNL     1       1.254 -15.092  11.283  1.00  0.00     0.051 A 
ATOM     15  C   UNL     1       2.370 -15.105  12.130  1.00  0.00     0.157 A 
ATOM     16  C   UNL     1       3.826 -15.082  10.190  1.00  0.00     0.062 A 
ATOM     17  C   UNL     1       3.663 -15.104  11.579  1.00  0.00     0.158 A 
BRANCH  15  18
ATOM     18  O   UNL     1       2.201 -15.125  13.514  1.00  0.00    -0.504 OA
ATOM     19  H   UNL     1       2.988 -15.034  14.146  1.00  0.00     0.293 HD
ENDBRANCH  15  18
BRANCH  17  20
ATOM     20  O   UNL     1       4.794 -15.123  12.394  1.00  0.00    -0.504 OA
ATOM     21  H   UNL     1       4.882 -15.758  13.178  1.00  0.00     0.293 HD
ENDBRANCH  17  20
ENDBRANCH   1  12
BRANCH   2  22
ATOM     22  O   UNL     1       5.340 -15.103   8.103  1.00  0.00    -0.502 OA
ATOM     23  H   UNL     1       5.670 -15.964   8.521  1.00  0.00     0.293 HD
ENDBRANCH   2  22
BRANCH   9  24
ATOM     24  O   UNL     1      -0.410 -15.067   2.880  1.00  0.00    -0.508 OA
ATOM     25  H   UNL     1      -1.197 -14.483   3.139  1.00  0.00     0.293 HD
ENDBRANCH   9  24
TORSDOF 5
ENDMDL
MODEL 4
REMARK VINA RESULT:    -0.145      2.052      3.880
REMARK INTER + INTRA:           0.300
REMARK INTER:                  -0.252
REMARK INTRA:                   0.553
REMARK UNBOUND:                 0.470
REMARK SMILES O=c1c(O)c(-c2ccc(O)c(O)c2)oc2cc(O)ccc12
REMARK SMILES IDX 5 1 3 2 2 3 1 4 21 5 15 6 14 7 16 8 17 9 19 10 20 11 6 12
REMARK SMILES IDX 7 13 8 14 9 15 13 16 11 17 10 18 12 20 4 22 18 24
REMARK H PARENT 10 19 12 21 4 23 18 25
REMARK Flexibility Score: inf
ROOT
ATOM      1  C   UNL     1       2.672 -15.099   9.463  1.00  0.00     0.180 A 
ATOM      2  C   UNL     1       1.346 -15.109   8.980  1.00  0.00     0.208 A 
ATOM      3  C   UNL     1       1.132 -15.101   7.593  1.00  0.00     0.235 A 
ATOM      4  O   UNL     1      -0.043 -15.119   7.136  1.00  0.00    -0.285 OA
ATOM      5  C   UNL     1       2.235 -15.064   6.724  1.00  0.00     0.069 A 
ATOM      6  C   UNL     1       3.528 -15.033   7.287  1.00  0.00     0.142 A 
ATOM      7  O   UNL     1       3.689 -15.050   8.606  1.00  0.00    -0.452 OA
ATOM      8  C   UNL     1       4.653 -14.986   6.455  1.00  0.00     0.094 A 
ATOM      9  C   UNL     1       4.500 -14.972   5.064  1.00  0.00     0.119 A 
ATOM     10  C   UNL     1       3.217 -15.005   4.503  1.00  0.00     0.047 A 
ATOM     11  C   UNL     1       2.088 -15.050   5.325  1.00  0.00     0.020 A 
ENDROOT
BRANCH   1  12
ATOM     12  C   UNL     1       2.980 -15.125  10.911  1.00  0.00     0.025 A 
ATOM     13  C   UNL     1       4.306 -15.124  11.377  1.00  0.00     0.016 A 
ATOM     14  C   UNL     1       4.573 -15.124  12.749  1.00  0.00     0.051 A 
ATOM     15  C   UNL     1       3.520 -15.110  13.674  1.00  0.00     0.157 A 
ATOM     16  C   UNL     1       1.929 -15.089  11.842  1.00  0.00     0.062 A 
ATOM     17  C   UNL     1       2.192 -15.089  13.217  1.00  0.00     0.158 A 
BRANCH  15  18
ATOM     18  O   UNL     1       3.789 -15.113  15.042  1.00  0.00    -0.504 OA
ATOM     19  H   UNL     1       3.947 -15.975  15.550  1.00  0.00     0.293 HD
ENDBRANCH  15  18
BRANCH  17  20
ATOM     20  O   UNL     1       1.122 -15.069  14.111  1.00  0.00    -0.504 OA
ATOM     21  H   UNL     1       0.738 -14.203  14.470  1.00  0.00     0.293 HD
ENDBRANCH  17  20
ENDBRANCH   1  12
BRANCH   2  22
ATOM     22  O   UNL     1       0.268 -15.096   9.869  1.00  0.00    -0.502 OA
ATOM     23  H   UNL     1      -0.391 -15.862   9.932  1.00  0.00     0.293 HD
ENDBRANCH   2  22
BRANCH   9  24
ATOM     24  O   UNL     1       5.631 -14.925   4.251  1.00  0.00    -0.508 OA
ATOM     25  H   UNL     1       6.558 -14.799   4.641  1.00  0.00     0.293 HD
ENDBRANCH   9  24
TORSDOF 5
ENDMDL
MODEL 5
REMARK VINA RESULT:     0.008      2.829      5.456
REMARK INTER + INTRA:           0.479
REMARK INTER:                  -0.073
REMARK INTRA:                   0.552
REMARK UNBOUND:                 0.470
REMARK SMILES O=c1c(O)c(-c2ccc(O)c(O)c2)oc2cc(O)ccc12
REMARK SMILES IDX 5 1 3 2 2 3 1 4 21 5 15 6 14 7 16 8 17 9 19 10 20 11 6 12
REMARK SMILES IDX 7 13 8 14 9 15 13 16 11 17 10 18 12 20 4 22 18 24
REMARK H PARENT 10 19 12 21 4 23 18 25
REMARK Flexibility Score: inf
ROOT
ATOM      1  C   UNL     1       3.399 -15.101  11.654  1.00  0.00     0.180 A 
ATOM      2  C   UNL     1       1.998 -15.100  11.492  1.00  0.00     0.208 A 
ATOM      3  C   UNL     1       1.467 -15.115  10.193  1.00  0.00     0.235 A 
ATOM      4  O   UNL     1       0.217 -15.125  10.023  1.00  0.00    -0.285 OA
ATOM      5  C   UNL     1       2.337 -15.113   9.092  1.00  0.00     0.069 A 
ATOM      6  C   UNL     1       3.726 -15.092   9.338  1.00  0.00     0.142 A 
ATOM      7  O   UNL     1       4.189 -15.085  10.583  1.00  0.00    -0.452 OA
ATOM      8  C   UNL     1       4.627 -15.079   8.266  1.00  0.00     0.094 A 
ATOM      9  C   UNL     1       4.155 -15.090   6.949  1.00  0.00     0.119 A 
ATOM     10  C   UNL     1       2.776 -15.113   6.702  1.00  0.00     0.047 A 
ATOM     11  C   UNL     1       1.869 -15.125   7.765  1.00  0.00     0.020 A 
ENDROOT
BRANCH   1  12
ATOM     12  C   UNL     1       4.036 -15.103  12.991  1.00  0.00     0.025 A 
ATOM     13  C   UNL     1       5.433 -15.046  13.137  1.00  0.00     0.016 A 
ATOM     14  C   UNL     1       6.010 -15.025  14.409  1.00  0.00     0.051 A 
ATOM     15  C   UNL     1       5.201 -15.046  15.553  1.00  0.00     0.157 A 
ATOM     16  C   UNL     1       3.229 -15.102  14.141  1.00  0.00     0.062 A 
ATOM     17  C   UNL     1       3.803 -15.081  15.417  1.00  0.00     0.158 A 
BRANCH  15  18
ATOM     18  O   UNL     1       5.780 -15.027  16.821  1.00  0.00    -0.504 OA
ATOM     19  H   UNL     1       6.647 -15.514  17.016  1.00  0.00     0.293 HD
ENDBRANCH  15  18
BRANCH  17  20
ATOM     20  O   UNL     1       2.970 -15.097  16.535  1.00  0.00    -0.504 OA
ATOM     21  H   UNL     1       2.546 -14.253  16.901  1.00  0.00     0.293 HD
ENDBRANCH  17  20
ENDBRANCH   1  12
BRANCH   2  22
ATOM     22  O   UNL     1       1.157 -15.052  12.608  1.00  0.00    -0.502 OA
ATOM     23  H   UNL     1       1.465 -14.694  13.503  1.00  0.00     0.293 HD
ENDBRANCH   2  22
BRANCH   9  24
ATOM     24  O   UNL     1       5.065 -15.077   5.894  1.00  0.00    -0.508 OA
ATOM     25  H   UNL     1       5.060 -14.339   5.199  1.00  0.00     0.293 HD
ENDBRANCH   9  24
TORSDOF 5
ENDMDL
