MODEL 1
REMARK VINA RESULT:    -4.333      0.000      0.000
REMARK INTER + INTRA:          -9.496
REMARK INTER:                  -7.880
REMARK INTRA:                  -1.616
REMARK UNBOUND:                -1.616
REMARK SMILES CCCCCCCCCCCCCCCC(=O)[O-]
REMARK SMILES IDX 9 1 10 2 11 3 12 4 13 5 14 6 15 7 16 8 17 9 18 10 8 11 7 12
REMARK SMILES IDX 6 13 5 14 4 15 3 16 2 17 1 18
REMARK H PARENT
REMARK Flexibility Score: inf
ROOT
ATOM      1  C   UNL     1      49.698   5.100  24.865  1.00  0.00     0.000 C 
ENDROOT
BRANCH   1   2
ATOM      2  C   UNL     1      50.011   4.398  23.532  1.00  0.00     0.000 C 
BRANCH   2   3
ATOM      3  C   UNL     1      48.757   3.810  22.868  1.00  0.00     0.000 C 
BRANCH   3   4
ATOM      4  C   UNL     1      48.788   3.936  21.336  1.00  0.00     0.000 C 
BRANCH   4   5
ATOM      5  C   UNL     1      49.368   2.690  20.645  1.00  0.00     0.000 C 
BRANCH   5   6
ATOM      6  C   UNL     1      50.762   2.922  20.025  1.00  0.00     0.006 C 
BRANCH   6   7
ATOM      7  C   UNL     1      51.885   2.315  20.877  1.00  0.00     0.053 C 
BRANCH   7   8
ATOM      8  C   UNL     1      53.105   2.077  20.043  1.00  0.00     0.041 C 
ATOM      9  O   UNL     1      53.235   1.000  19.404  1.00  0.00    -0.550 OA
ATOM     10  O   UNL     1      54.075   3.066  19.933  1.00  0.00    -0.550 OA
ENDBRANCH   7   8
ENDBRANCH   6   7
ENDBRANCH   5   6
ENDBRANCH   4   5
ENDBRANCH   3   4
ENDBRANCH   2   3
ENDBRANCH   1   2
BRANCH   1  11
ATOM     11  C   UNL     1      50.395   6.464  24.993  1.00  0.00     0.000 C 
BRANCH  11  12
ATOM     12  C   UNL     1      49.400   7.624  25.149  1.00  0.00    -0.000 C 
BRANCH  12  13
ATOM     13  C   UNL     1      49.215   8.371  23.822  1.00  0.00    -0.000 C 
BRANCH  13  14
ATOM     14  C   UNL     1      48.024   7.846  23.000  1.00  0.00    -0.000 C 
BRANCH  14  15
ATOM     15  C   UNL     1      48.252   7.792  21.476  1.00  0.00    -0.000 C 
BRANCH  15  16
ATOM     16  C   UNL     1      49.680   7.411  21.043  1.00  0.00    -0.000 C 
BRANCH  16  17
ATOM     17  C   UNL     1      50.202   8.276  19.887  1.00  0.00    -0.003 C 
ATOM     18  C   UNL     1      51.213   7.508  19.040  1.00  0.00     0.004 C 
ENDBRANCH  16  17
ENDBRANCH  15  16
ENDBRANCH  14  15
ENDBRANCH  13  14
ENDBRANCH  12  13
ENDBRANCH  11  12
ENDBRANCH   1  11
TORSDOF 14
ENDMDL
MODEL 2
REMARK VINA RESULT:    -4.162      2.790      5.453
REMARK INTER + INTRA:          -9.185
REMARK INTER:                  -7.501
REMARK INTRA:                  -1.684
REMARK UNBOUND:                -1.616
REMARK SMILES CCCCCCCCCCCCCCCC(=O)[O-]
REMARK SMILES IDX 9 1 10 2 11 3 12 4 13 5 14 6 15 7 16 8 17 9 18 10 8 11 7 12
REMARK SMILES IDX 6 13 5 14 4 15 3 16 2 17 1 18
REMARK H PARENT
REMARK Flexibility Score: inf
ROOT
ATOM      1  C   UNL     1      49.482   4.934  25.268  1.00  0.00     0.000 C 
ENDROOT
BRANCH   1   2
ATOM      2  C   UNL     1      50.347   6.154  24.907  1.00  0.00     0.000 C 
BRANCH   2   3
ATOM      3  C   UNL     1      49.525   7.448  24.802  1.00  0.00     0.000 C 
BRANCH   3   4
ATOM      4  C   UNL     1      48.830   7.594  23.438  1.00  0.00     0.000 C 
BRANCH   4   5
ATOM      5  C   UNL     1      49.814   7.536  22.257  1.00  0.00     0.000 C 
BRANCH   5   6
ATOM      6  C   UNL     1      49.143   7.745  20.883  1.00  0.00     0.006 C 
BRANCH   6   7
ATOM      7  C   UNL     1      50.169   7.961  19.763  1.00  0.00     0.053 C 
BRANCH   7   8
ATOM      8  C   UNL     1      49.596   8.832  18.688  1.00  0.00     0.041 C 
ATOM      9  O   UNL     1      49.015   9.907  18.988  1.00  0.00    -0.550 OA
ATOM     10  O   UNL     1      49.749   8.480  17.353  1.00  0.00    -0.550 OA
ENDBRANCH   7   8
ENDBRANCH   6   7
ENDBRANCH   5   6
ENDBRANCH   4   5
ENDBRANCH   3   4
ENDBRANCH   2   3
ENDBRANCH   1   2
BRANCH   1  11
ATOM     11  C   UNL     1      49.398   3.909  24.126  1.00  0.00     0.000 C 
BRANCH  11  12
ATOM     12  C   UNL     1      48.053   3.959  23.385  1.00  0.00    -0.000 C 
BRANCH  12  13
ATOM     13  C   UNL     1      48.265   4.052  21.868  1.00  0.00    -0.000 C 
BRANCH  13  14
ATOM     14  C   UNL     1      49.752   4.070  21.471  1.00  0.00    -0.000 C 
BRANCH  14  15
ATOM     15  C   UNL     1      50.186   2.952  20.502  1.00  0.00    -0.000 C 
BRANCH  15  16
ATOM     16  C   UNL     1      51.139   3.397  19.377  1.00  0.00    -0.000 C 
BRANCH  16  17
ATOM     17  C   UNL     1      52.435   2.576  19.335  1.00  0.00    -0.003 C 
ATOM     18  C   UNL     1      52.617   1.771  20.618  1.00  0.00     0.004 C 
ENDBRANCH  16  17
ENDBRANCH  15  16
ENDBRANCH  14  15
ENDBRANCH  13  14
ENDBRANCH  12  13
ENDBRANCH  11  12
ENDBRANCH   1  11
TORSDOF 14
ENDMDL
MODEL 3
REMARK VINA RESULT:    -4.139      3.813      6.032
REMARK INTER + INTRA:          -9.142
REMARK INTER:                  -6.596
REMARK INTRA:                  -2.546
REMARK UNBOUND:                -1.616
REMARK SMILES CCCCCCCCCCCCCCCC(=O)[O-]
REMARK SMILES IDX 9 1 10 2 11 3 12 4 13 5 14 6 15 7 16 8 17 9 18 10 8 11 7 12
REMARK SMILES IDX 6 13 5 14 4 15 3 16 2 17 1 18
REMARK H PARENT
REMARK Flexibility Score: inf
ROOT
ATOM      1  C   UNL     1      48.465   9.623  24.069  1.00  0.00     0.000 C 
ENDROOT
BRANCH   1   2
ATOM      2  C   UNL     1      47.217   9.207  24.865  1.00  0.00     0.000 C 
BRANCH   2   3
ATOM      3  C   UNL     1      46.119   8.612  23.971  1.00  0.00     0.000 C 
BRANCH   3   4
ATOM      4  C   UNL     1      46.422   8.783  22.473  1.00  0.00     0.000 C 
BRANCH   4   5
ATOM      5  C   UNL     1      46.418   7.450  21.707  1.00  0.00     0.000 C 
BRANCH   5   6
ATOM      6  C   UNL     1      47.437   7.400  20.549  1.00  0.00     0.006 C 
BRANCH   6   7
ATOM      7  C   UNL     1      48.135   8.748  20.332  1.00  0.00     0.053 C 
BRANCH   7   8
ATOM      8  C   UNL     1      49.490   8.546  19.729  1.00  0.00     0.041 C 
ATOM      9  O   UNL     1      49.957   9.394  18.924  1.00  0.00    -0.550 OA
ATOM     10  O   UNL     1      50.257   7.447  20.095  1.00  0.00    -0.550 OA
ENDBRANCH   7   8
ENDBRANCH   6   7
ENDBRANCH   5   6
ENDBRANCH   4   5
ENDBRANCH   3   4
ENDBRANCH   2   3
ENDBRANCH   1   2
BRANCH   1  11
ATOM     11  C   UNL     1      49.700   8.777  24.419  1.00  0.00     0.000 C 
BRANCH  11  12
ATOM     12  C   UNL     1      49.857   7.553  23.504  1.00  0.00    -0.000 C 
BRANCH  12  13
ATOM     13  C   UNL     1      49.973   6.263  24.327  1.00  0.00    -0.000 C 
BRANCH  13  14
ATOM     14  C   UNL     1      48.604   5.675  24.715  1.00  0.00    -0.000 C 
BRANCH  14  15
ATOM     15  C   UNL     1      48.173   5.923  26.174  1.00  0.00    -0.000 C 
BRANCH  15  16
ATOM     16  C   UNL     1      49.327   5.988  27.193  1.00  0.00    -0.000 C 
BRANCH  16  17
ATOM     17  C   UNL     1      49.358   7.310  27.973  1.00  0.00    -0.003 C 
ATOM     18  C   UNL     1      47.957   7.894  28.121  1.00  0.00     0.004 C 
ENDBRANCH  16  17
ENDBRANCH  15  16
ENDBRANCH  14  15
ENDBRANCH  13  14
ENDBRANCH  12  13
ENDBRANCH  11  12
ENDBRANCH   1  11
TORSDOF 14
ENDMDL
MODEL 4
REMARK VINA RESULT:    -4.129      3.479      6.138
REMARK INTER + INTRA:          -9.125
REMARK INTER:                  -7.213
REMARK INTRA:                  -1.912
REMARK UNBOUND:                -1.616
REMARK SMILES CCCCCCCCCCCCCCCC(=O)[O-]
REMARK SMILES IDX 9 1 10 2 11 3 12 4 13 5 14 6 15 7 16 8 17 9 18 10 8 11 7 12
REMARK SMILES IDX 6 13 5 14 4 15 3 16 2 17 1 18
REMARK H PARENT
REMARK Flexibility Score: inf
ROOT
ATOM      1  C   UNL     1      46.478  11.888  23.474  1.00  0.00     0.000 C 
ENDROOT
BRANCH   1   2
ATOM      2  C   UNL     1      45.298  11.558  22.544  1.00  0.00     0.000 C 
BRANCH   2   3
ATOM      3  C   UNL     1      45.688  11.602  21.059  1.00  0.00     0.000 C 
BRANCH   3   4
ATOM      4  C   UNL     1      46.981  10.821  20.767  1.00  0.00     0.000 C 
BRANCH   4   5
ATOM      5  C   UNL     1      46.743   9.309  20.614  1.00  0.00     0.000 C 
BRANCH   5   6
ATOM      6  C   UNL     1      47.619   8.654  19.525  1.00  0.00     0.006 C 
BRANCH   6   7
ATOM      7  C   UNL     1      48.908   9.443  19.264  1.00  0.00     0.053 C 
BRANCH   7   8
ATOM      8  C   UNL     1      49.837   8.657  18.392  1.00  0.00     0.041 C 
ATOM      9  O   UNL     1      49.556   8.466  17.179  1.00  0.00    -0.550 OA
ATOM     10  O   UNL     1      51.035   8.177  18.906  1.00  0.00    -0.550 OA
ENDBRANCH   7   8
ENDBRANCH   6   7
ENDBRANCH   5   6
ENDBRANCH   4   5
ENDBRANCH   3   4
ENDBRANCH   2   3
ENDBRANCH   1   2
BRANCH   1  11
ATOM     11  C   UNL     1      46.538  10.967  24.702  1.00  0.00     0.000 C 
BRANCH  11  12
ATOM     12  C   UNL     1      46.724   9.489  24.325  1.00  0.00    -0.000 C 
BRANCH  12  13
ATOM     13  C   UNL     1      47.358   8.703  25.481  1.00  0.00    -0.000 C 
BRANCH  13  14
ATOM     14  C   UNL     1      48.663   7.994  25.079  1.00  0.00    -0.000 C 
BRANCH  14  15
ATOM     15  C   UNL     1      49.431   8.647  23.911  1.00  0.00    -0.000 C 
BRANCH  15  16
ATOM     16  C   UNL     1      49.517   7.797  22.631  1.00  0.00    -0.000 C 
BRANCH  16  17
ATOM     17  C   UNL     1      48.935   6.387  22.812  1.00  0.00    -0.003 C 
ATOM     18  C   UNL     1      48.671   5.725  21.463  1.00  0.00     0.004 C 
ENDBRANCH  16  17
ENDBRANCH  15  16
ENDBRANCH  14  15
ENDBRANCH  13  14
ENDBRANCH  12  13
ENDBRANCH  11  12
ENDBRANCH   1  11
TORSDOF 14
ENDMDL
MODEL 5
REMARK VINA RESULT:    -4.112      3.285      4.979
REMARK INTER + INTRA:          -9.093
REMARK INTER:                  -7.045
REMARK INTRA:                  -2.048
REMARK UNBOUND:                -1.616
REMARK SMILES CCCCCCCCCCCCCCCC(=O)[O-]
REMARK SMILES IDX 9 1 10 2 11 3 12 4 13 5 14 6 15 7 16 8 17 9 18 10 8 11 7 12
REMARK SMILES IDX 6 13 5 14 4 15 3 16 2 17 1 18
REMARK H PARENT
REMARK Flexibility Score: inf
ROOT
ATOM      1  C   UNL     1      49.466   5.097  26.211  1.00  0.00     0.000 C 
ENDROOT
BRANCH   1   2
ATOM      2  C   UNL     1      50.424   6.186  25.697  1.00  0.00     0.000 C 
BRANCH   2   3
ATOM      3  C   UNL     1      49.850   6.958  24.501  1.00  0.00     0.000 C 
BRANCH   3   4
ATOM      4  C   UNL     1      48.927   6.092  23.628  1.00  0.00     0.000 C 
BRANCH   4   5
ATOM      5  C   UNL     1      49.213   6.242  22.124  1.00  0.00     0.000 C 
BRANCH   5   6
ATOM      6  C   UNL     1      49.588   7.679  21.707  1.00  0.00     0.006 C 
BRANCH   6   7
ATOM      7  C   UNL     1      49.190   7.986  20.257  1.00  0.00     0.053 C 
BRANCH   7   8
ATOM      8  C   UNL     1      50.398   8.332  19.445  1.00  0.00     0.041 C 
ATOM      9  O   UNL     1      50.531   9.491  18.971  1.00  0.00    -0.550 OA
ATOM     10  O   UNL     1      51.402   7.390  19.253  1.00  0.00    -0.550 OA
ENDBRANCH   7   8
ENDBRANCH   6   7
ENDBRANCH   5   6
ENDBRANCH   4   5
ENDBRANCH   3   4
ENDBRANCH   2   3
ENDBRANCH   1   2
BRANCH   1  11
ATOM     11  C   UNL     1      48.405   5.650  27.175  1.00  0.00     0.000 C 
BRANCH  11  12
ATOM     12  C   UNL     1      48.923   6.829  28.012  1.00  0.00    -0.000 C 
BRANCH  12  13
ATOM     13  C   UNL     1      48.010   8.053  27.860  1.00  0.00    -0.000 C 
BRANCH  13  14
ATOM     14  C   UNL     1      46.634   7.704  27.264  1.00  0.00    -0.000 C 
BRANCH  14  15
ATOM     15  C   UNL     1      46.416   8.161  25.807  1.00  0.00    -0.000 C 
BRANCH  15  16
ATOM     16  C   UNL     1      47.208   9.414  25.391  1.00  0.00    -0.000 C 
BRANCH  16  17
ATOM     17  C   UNL     1      47.061   9.744  23.899  1.00  0.00    -0.003 C 
ATOM     18  C   UNL     1      46.285   8.651  23.170  1.00  0.00     0.004 C 
ENDBRANCH  16  17
ENDBRANCH  15  16
ENDBRANCH  14  15
ENDBRANCH  13  14
ENDBRANCH  12  13
ENDBRANCH  11  12
ENDBRANCH   1  11
TORSDOF 14
ENDMDL
MODEL 6
REMARK VINA RESULT:    -4.096      1.462      2.442
REMARK INTER + INTRA:          -9.064
REMARK INTER:                  -7.549
REMARK INTRA:                  -1.515
REMARK UNBOUND:                -1.616
REMARK SMILES CCCCCCCCCCCCCCCC(=O)[O-]
REMARK SMILES IDX 9 1 10 2 11 3 12 4 13 5 14 6 15 7 16 8 17 9 18 10 8 11 7 12
REMARK SMILES IDX 6 13 5 14 4 15 3 16 2 17 1 18
REMARK H PARENT
REMARK Flexibility Score: inf
ROOT
ATOM      1  C   UNL     1      49.471   6.434  22.193  1.00  0.00     0.000 C 
ENDROOT
BRANCH   1   2
ATOM      2  C   UNL     1      48.546   5.263  22.567  1.00  0.00     0.000 C 
BRANCH   2   3
ATOM      3  C   UNL     1      49.288   3.919  22.617  1.00  0.00     0.000 C 
BRANCH   3   4
ATOM      4  C   UNL     1      48.602   2.835  21.769  1.00  0.00     0.000 C 
BRANCH   4   5
ATOM      5  C   UNL     1      49.386   2.493  20.490  1.00  0.00     0.000 C 
BRANCH   5   6
ATOM      6  C   UNL     1      50.578   3.436  20.225  1.00  0.00     0.006 C 
BRANCH   6   7
ATOM      7  C   UNL     1      51.707   2.742  19.454  1.00  0.00     0.053 C 
BRANCH   7   8
ATOM      8  C   UNL     1      52.869   2.471  20.357  1.00  0.00     0.041 C 
ATOM      9  O   UNL     1      52.691   1.894  21.462  1.00  0.00    -0.550 OA
ATOM     10  O   UNL     1      54.156   2.810  19.957  1.00  0.00    -0.550 OA
ENDBRANCH   7   8
ENDBRANCH   6   7
ENDBRANCH   5   6
ENDBRANCH   4   5
ENDBRANCH   3   4
ENDBRANCH   2   3
ENDBRANCH   1   2
BRANCH   1  11
ATOM     11  C   UNL     1      48.967   7.782  22.732  1.00  0.00     0.000 C 
BRANCH  11  12
ATOM     12  C   UNL     1      48.268   8.626  21.655  1.00  0.00    -0.000 C 
BRANCH  12  13
ATOM     13  C   UNL     1      48.430   7.989  20.269  1.00  0.00    -0.000 C 
BRANCH  13  14
ATOM     14  C   UNL     1      48.793   9.013  19.178  1.00  0.00    -0.000 C 
BRANCH  14  15
ATOM     15  C   UNL     1      50.112   8.732  18.429  1.00  0.00    -0.000 C 
BRANCH  15  16
ATOM     16  C   UNL     1      51.098   7.809  19.168  1.00  0.00    -0.000 C 
BRANCH  16  17
ATOM     17  C   UNL     1      51.441   6.543  18.370  1.00  0.00    -0.003 C 
ATOM     18  C   UNL     1      52.893   6.130  18.593  1.00  0.00     0.004 C 
ENDBRANCH  16  17
ENDBRANCH  15  16
ENDBRANCH  14  15
ENDBRANCH  13  14
ENDBRANCH  12  13
ENDBRANCH  11  12
ENDBRANCH   1  11
TORSDOF 14
ENDMDL
MODEL 7
REMARK VINA RESULT:    -4.084      4.301      6.889
REMARK INTER + INTRA:          -9.043
REMARK INTER:                  -7.563
REMARK INTRA:                  -1.480
REMARK UNBOUND:                -1.616
REMARK SMILES CCCCCCCCCCCCCCCC(=O)[O-]
REMARK SMILES IDX 9 1 10 2 11 3 12 4 13 5 14 6 15 7 16 8 17 9 18 10 8 11 7 12
REMARK SMILES IDX 6 13 5 14 4 15 3 16 2 17 1 18
REMARK H PARENT
REMARK Flexibility Score: inf
ROOT
ATOM      1  C   UNL     1      43.397   2.499  21.823  1.00  0.00     0.000 C 
ENDROOT
BRANCH   1   2
ATOM      2  C   UNL     1      44.634   3.315  21.409  1.00  0.00     0.000 C 
BRANCH   2   3
ATOM      3  C   UNL     1      45.753   2.436  20.831  1.00  0.00     0.000 C 
BRANCH   3   4
ATOM      4  C   UNL     1      47.058   3.218  20.605  1.00  0.00     0.000 C 
BRANCH   4   5
ATOM      5  C   UNL     1      48.303   2.315  20.614  1.00  0.00     0.000 C 
BRANCH   5   6
ATOM      6  C   UNL     1      49.619   3.080  20.871  1.00  0.00     0.006 C 
BRANCH   6   7
ATOM      7  C   UNL     1      50.853   2.182  20.715  1.00  0.00     0.053 C 
BRANCH   7   8
ATOM      8  C   UNL     1      51.701   2.650  19.574  1.00  0.00     0.041 C 
ATOM      9  O   UNL     1      52.615   1.912  19.121  1.00  0.00    -0.550 OA
ATOM     10  O   UNL     1      51.449   3.880  18.980  1.00  0.00    -0.550 OA
ENDBRANCH   7   8
ENDBRANCH   6   7
ENDBRANCH   5   6
ENDBRANCH   4   5
ENDBRANCH   3   4
ENDBRANCH   2   3
ENDBRANCH   1   2
BRANCH   1  11
ATOM     11  C   UNL     1      43.331   1.130  21.128  1.00  0.00     0.000 C 
BRANCH  11  12
ATOM     12  C   UNL     1      43.042  -0.018  22.108  1.00  0.00    -0.000 C 
BRANCH  12  13
ATOM     13  C   UNL     1      43.225   0.442  23.561  1.00  0.00    -0.000 C 
BRANCH  13  14
ATOM     14  C   UNL     1      44.403  -0.254  24.266  1.00  0.00    -0.000 C 
BRANCH  14  15
ATOM     15  C   UNL     1      45.797   0.079  23.697  1.00  0.00    -0.000 C 
BRANCH  15  16
ATOM     16  C   UNL     1      46.514  -1.093  23.002  1.00  0.00    -0.000 C 
BRANCH  16  17
ATOM     17  C   UNL     1      47.713  -0.641  22.157  1.00  0.00    -0.003 C 
ATOM     18  C   UNL     1      48.830  -1.680  22.188  1.00  0.00     0.004 C 
ENDBRANCH  16  17
ENDBRANCH  15  16
ENDBRANCH  14  15
ENDBRANCH  13  14
ENDBRANCH  12  13
ENDBRANCH  11  12
ENDBRANCH   1  11
TORSDOF 14
ENDMDL
MODEL 8
REMARK VINA RESULT:    -4.059      3.321      4.932
REMARK INTER + INTRA:          -8.997
REMARK INTER:                  -6.768
REMARK INTRA:                  -2.229
REMARK UNBOUND:                -1.616
REMARK SMILES CCCCCCCCCCCCCCCC(=O)[O-]
REMARK SMILES IDX 9 1 10 2 11 3 12 4 13 5 14 6 15 7 16 8 17 9 18 10 8 11 7 12
REMARK SMILES IDX 6 13 5 14 4 15 3 16 2 17 1 18
REMARK H PARENT
REMARK Flexibility Score: inf
ROOT
ATOM      1  C   UNL     1      48.761   7.409  28.113  1.00  0.00     0.000 C 
ENDROOT
BRANCH   1   2
ATOM      2  C   UNL     1      48.991   6.018  27.497  1.00  0.00     0.000 C 
BRANCH   2   3
ATOM      3  C   UNL     1      50.332   5.917  26.756  1.00  0.00     0.000 C 
BRANCH   3   4
ATOM      4  C   UNL     1      50.175   6.047  25.232  1.00  0.00     0.000 C 
BRANCH   4   5
ATOM      5  C   UNL     1      50.309   7.499  24.740  1.00  0.00     0.000 C 
BRANCH   5   6
ATOM      6  C   UNL     1      49.565   7.774  23.416  1.00  0.00     0.006 C 
BRANCH   6   7
ATOM      7  C   UNL     1      48.751   6.561  22.945  1.00  0.00     0.053 C 
BRANCH   7   8
ATOM      8  C   UNL     1      49.201   6.123  21.587  1.00  0.00     0.041 C 
ATOM      9  O   UNL     1      49.174   4.904  21.274  1.00  0.00    -0.550 OA
ATOM     10  O   UNL     1      49.605   7.066  20.650  1.00  0.00    -0.550 OA
ENDBRANCH   7   8
ENDBRANCH   6   7
ENDBRANCH   5   6
ENDBRANCH   4   5
ENDBRANCH   3   4
ENDBRANCH   2   3
ENDBRANCH   1   2
BRANCH   1  11
ATOM     11  C   UNL     1      47.384   7.992  27.760  1.00  0.00     0.000 C 
BRANCH  11  12
ATOM     12  C   UNL     1      46.687   7.220  26.629  1.00  0.00    -0.000 C 
BRANCH  12  13
ATOM     13  C   UNL     1      46.372   8.145  25.446  1.00  0.00    -0.000 C 
BRANCH  13  14
ATOM     14  C   UNL     1      47.124   9.486  25.517  1.00  0.00    -0.000 C 
BRANCH  14  15
ATOM     15  C   UNL     1      46.931  10.411  24.298  1.00  0.00    -0.000 C 
BRANCH  15  16
ATOM     16  C   UNL     1      46.252   9.755  23.082  1.00  0.00    -0.000 C 
BRANCH  16  17
ATOM     17  C   UNL     1      47.040   9.955  21.780  1.00  0.00    -0.003 C 
ATOM     18  C   UNL     1      46.533  11.172  21.013  1.00  0.00     0.004 C 
ENDBRANCH  16  17
ENDBRANCH  15  16
ENDBRANCH  14  15
ENDBRANCH  13  14
ENDBRANCH  12  13
ENDBRANCH  11  12
ENDBRANCH   1  11
TORSDOF 14
ENDMDL
MODEL 9
REMARK VINA RESULT:    -4.043      2.817      5.823
REMARK INTER + INTRA:          -8.968
REMARK INTER:                  -6.999
REMARK INTRA:                  -1.970
REMARK UNBOUND:                -1.616
REMARK SMILES CCCCCCCCCCCCCCCC(=O)[O-]
REMARK SMILES IDX 9 1 10 2 11 3 12 4 13 5 14 6 15 7 16 8 17 9 18 10 8 11 7 12
REMARK SMILES IDX 6 13 5 14 4 15 3 16 2 17 1 18
REMARK H PARENT
REMARK Flexibility Score: inf
ROOT
ATOM      1  C   UNL     1      47.873   5.157  24.586  1.00  0.00     0.000 C 
ENDROOT
BRANCH   1   2
ATOM      2  C   UNL     1      49.257   4.980  25.232  1.00  0.00     0.000 C 
BRANCH   2   3
ATOM      3  C   UNL     1      49.951   6.321  25.515  1.00  0.00     0.000 C 
BRANCH   3   4
ATOM      4  C   UNL     1      50.367   7.052  24.228  1.00  0.00     0.000 C 
BRANCH   4   5
ATOM      5  C   UNL     1      49.576   8.351  23.995  1.00  0.00     0.000 C 
BRANCH   5   6
ATOM      6  C   UNL     1      48.848   8.396  22.635  1.00  0.00     0.006 C 
BRANCH   6   7
ATOM      7  C   UNL     1      49.453   7.417  21.621  1.00  0.00     0.053 C 
BRANCH   7   8
ATOM      8  C   UNL     1      49.523   8.045  20.264  1.00  0.00     0.041 C 
ATOM      9  O   UNL     1      50.639   8.273  19.728  1.00  0.00    -0.550 OA
ATOM     10  O   UNL     1      48.354   8.333  19.570  1.00  0.00    -0.550 OA
ENDBRANCH   7   8
ENDBRANCH   6   7
ENDBRANCH   5   6
ENDBRANCH   4   5
ENDBRANCH   3   4
ENDBRANCH   2   3
ENDBRANCH   1   2
BRANCH   1  11
ATOM     11  C   UNL     1      47.741   4.405  23.252  1.00  0.00     0.000 C 
BRANCH  11  12
ATOM     12  C   UNL     1      48.933   3.475  22.978  1.00  0.00    -0.000 C 
BRANCH  12  13
ATOM     13  C   UNL     1      49.576   3.792  21.621  1.00  0.00    -0.000 C 
BRANCH  13  14
ATOM     14  C   UNL     1      49.456   2.633  20.616  1.00  0.00    -0.000 C 
BRANCH  14  15
ATOM     15  C   UNL     1      48.331   1.621  20.913  1.00  0.00    -0.000 C 
BRANCH  15  16
ATOM     16  C   UNL     1      47.076   1.763  20.032  1.00  0.00    -0.000 C 
BRANCH  16  17
ATOM     17  C   UNL     1      45.847   2.240  20.819  1.00  0.00    -0.003 C 
ATOM     18  C   UNL     1      45.373   3.602  20.322  1.00  0.00     0.004 C 
ENDBRANCH  16  17
ENDBRANCH  15  16
ENDBRANCH  14  15
ENDBRANCH  13  14
ENDBRANCH  12  13
ENDBRANCH  11  12
ENDBRANCH   1  11
TORSDOF 14
ENDMDL
