MODEL 1
REMARK VINA RESULT:    -4.707      0.000      0.000
REMARK INTER + INTRA:         -10.322
REMARK INTER:                  -8.285
REMARK INTRA:                  -2.037
REMARK UNBOUND:                -2.037
REMARK SMILES CCCCCCCCCCCCCCC(=O)[O-]
REMARK SMILES IDX 9 1 10 2 11 3 12 4 13 5 14 6 15 7 16 8 17 9 8 10 7 11 6 12
REMARK SMILES IDX 5 13 4 14 3 15 2 16 1 17
REMARK H PARENT
REMARK Flexibility Score: inf
ROOT
ATOM      1  C   UNL     1       9.696  17.911  30.729  1.00  0.00     0.000 C 
ENDROOT
BRANCH   1   2
ATOM      2  C   UNL     1      10.140  18.609  32.026  1.00  0.00     0.000 C 
BRANCH   2   3
ATOM      3  C   UNL     1       9.747  17.807  33.287  1.00  0.00     0.000 C 
BRANCH   3   4
ATOM      4  C   UNL     1       8.295  18.042  33.743  1.00  0.00     0.000 C 
BRANCH   4   5
ATOM      5  C   UNL     1       8.085  19.285  34.629  1.00  0.00     0.006 C 
BRANCH   5   6
ATOM      6  C   UNL     1       9.216  19.538  35.639  1.00  0.00     0.053 C 
BRANCH   6   7
ATOM      7  C   UNL     1       8.965  18.849  36.944  1.00  0.00     0.041 C 
ATOM      8  O   UNL     1       9.723  17.918  37.326  1.00  0.00    -0.550 OA
ATOM      9  O   UNL     1       7.875  19.211  37.725  1.00  0.00    -0.550 OA
ENDBRANCH   6   7
ENDBRANCH   5   6
ENDBRANCH   4   5
ENDBRANCH   3   4
ENDBRANCH   2   3
ENDBRANCH   1   2
BRANCH   1  10
ATOM     10  C   UNL     1       8.960  18.860  29.770  1.00  0.00     0.000 C 
BRANCH  10  11
ATOM     11  C   UNL     1       8.179  19.956  30.515  1.00  0.00    -0.000 C 
BRANCH  11  12
ATOM     12  C   UNL     1       8.156  21.289  29.749  1.00  0.00    -0.000 C 
BRANCH  12  13
ATOM     13  C   UNL     1       8.547  22.486  30.628  1.00  0.00    -0.000 C 
BRANCH  13  14
ATOM     14  C   UNL     1       8.145  22.246  32.092  1.00  0.00    -0.000 C 
BRANCH  14  15
ATOM     15  C   UNL     1       9.340  22.321  33.055  1.00  0.00    -0.000 C 
BRANCH  15  16
ATOM     16  C   UNL     1      10.691  22.262  32.327  1.00  0.00    -0.003 C 
ATOM     17  C   UNL     1      11.801  21.799  33.265  1.00  0.00     0.004 C 
ENDBRANCH  15  16
ENDBRANCH  14  15
ENDBRANCH  13  14
ENDBRANCH  12  13
ENDBRANCH  11  12
ENDBRANCH  10  11
ENDBRANCH   1  10
TORSDOF 13
ENDMDL
MODEL 2
REMARK VINA RESULT:    -4.694      1.130      1.877
REMARK INTER + INTRA:         -10.298
REMARK INTER:                  -8.801
REMARK INTRA:                  -1.497
REMARK UNBOUND:                -2.037
REMARK SMILES CCCCCCCCCCCCCCC(=O)[O-]
REMARK SMILES IDX 9 1 10 2 11 3 12 4 13 5 14 6 15 7 16 8 17 9 8 10 7 11 6 12
REMARK SMILES IDX 5 13 4 14 3 15 2 16 1 17
REMARK H PARENT
REMARK Flexibility Score: inf
ROOT
ATOM      1  C   UNL     1      10.132  18.497  31.928  1.00  0.00     0.000 C 
ENDROOT
BRANCH   1   2
ATOM      2  C   UNL     1       9.536  17.803  33.165  1.00  0.00     0.000 C 
BRANCH   2   3
ATOM      3  C   UNL     1       8.221  18.466  33.631  1.00  0.00     0.000 C 
BRANCH   3   4
ATOM      4  C   UNL     1       8.395  19.401  34.843  1.00  0.00     0.000 C 
BRANCH   4   5
ATOM      5  C   UNL     1       7.875  18.838  36.179  1.00  0.00     0.006 C 
BRANCH   5   6
ATOM      6  C   UNL     1       8.907  18.860  37.318  1.00  0.00     0.053 C 
BRANCH   6   7
ATOM      7  C   UNL     1       9.980  17.835  37.122  1.00  0.00     0.041 C 
ATOM      8  O   UNL     1      11.157  18.069  37.502  1.00  0.00    -0.550 OA
ATOM      9  O   UNL     1       9.688  16.634  36.489  1.00  0.00    -0.550 OA
ENDBRANCH   6   7
ENDBRANCH   5   6
ENDBRANCH   4   5
ENDBRANCH   3   4
ENDBRANCH   2   3
ENDBRANCH   1   2
BRANCH   1  10
ATOM     10  C   UNL     1       9.894  17.702  30.633  1.00  0.00     0.000 C 
BRANCH  10  11
ATOM     11  C   UNL     1       9.063  18.492  29.606  1.00  0.00    -0.000 C 
BRANCH  11  12
ATOM     12  C   UNL     1       8.291  19.659  30.243  1.00  0.00    -0.000 C 
BRANCH  12  13
ATOM     13  C   UNL     1       7.899  20.739  29.224  1.00  0.00    -0.000 C 
BRANCH  13  14
ATOM     14  C   UNL     1       8.001  22.141  29.846  1.00  0.00    -0.000 C 
BRANCH  14  15
ATOM     15  C   UNL     1       8.363  22.103  31.338  1.00  0.00    -0.000 C 
BRANCH  15  16
ATOM     16  C   UNL     1       9.720  22.759  31.635  1.00  0.00    -0.003 C 
ATOM     17  C   UNL     1      10.418  22.072  32.805  1.00  0.00     0.004 C 
ENDBRANCH  15  16
ENDBRANCH  14  15
ENDBRANCH  13  14
ENDBRANCH  12  13
ENDBRANCH  11  12
ENDBRANCH  10  11
ENDBRANCH   1  10
TORSDOF 13
ENDMDL
MODEL 3
REMARK VINA RESULT:    -4.590      1.801      2.460
REMARK INTER + INTRA:         -10.116
REMARK INTER:                  -8.516
REMARK INTRA:                  -1.600
REMARK UNBOUND:                -2.037
REMARK SMILES CCCCCCCCCCCCCCC(=O)[O-]
REMARK SMILES IDX 9 1 10 2 11 3 12 4 13 5 14 6 15 7 16 8 17 9 8 10 7 11 6 12
REMARK SMILES IDX 5 13 4 14 3 15 2 16 1 17
REMARK H PARENT
REMARK Flexibility Score: inf
ROOT
ATOM      1  C   UNL     1      10.160  18.505  32.163  1.00  0.00     0.000 C 
ENDROOT
BRANCH   1   2
ATOM      2  C   UNL     1       9.620  17.787  33.412  1.00  0.00     0.000 C 
BRANCH   2   3
ATOM      3  C   UNL     1       8.188  18.238  33.773  1.00  0.00     0.000 C 
BRANCH   3   4
ATOM      4  C   UNL     1       8.123  19.176  34.994  1.00  0.00     0.000 C 
BRANCH   4   5
ATOM      5  C   UNL     1       8.927  20.482  34.854  1.00  0.00     0.006 C 
BRANCH   5   6
ATOM      6  C   UNL     1       9.595  20.956  36.155  1.00  0.00     0.053 C 
BRANCH   6   7
ATOM      7  C   UNL     1       9.323  22.403  36.429  1.00  0.00     0.041 C 
ATOM      8  O   UNL     1       9.816  23.292  35.685  1.00  0.00    -0.550 OA
ATOM      9  O   UNL     1       8.553  22.772  37.524  1.00  0.00    -0.550 OA
ENDBRANCH   6   7
ENDBRANCH   5   6
ENDBRANCH   4   5
ENDBRANCH   3   4
ENDBRANCH   2   3
ENDBRANCH   1   2
BRANCH   1  10
ATOM     10  C   UNL     1       9.940  17.696  30.875  1.00  0.00     0.000 C 
BRANCH  10  11
ATOM     11  C   UNL     1       9.218  18.511  29.788  1.00  0.00    -0.000 C 
BRANCH  11  12
ATOM     12  C   UNL     1       8.379  19.661  30.371  1.00  0.00    -0.000 C 
BRANCH  12  13
ATOM     13  C   UNL     1       7.990  20.707  29.316  1.00  0.00    -0.000 C 
BRANCH  13  14
ATOM     14  C   UNL     1       8.033  22.124  29.908  1.00  0.00    -0.000 C 
BRANCH  14  15
ATOM     15  C   UNL     1       8.268  22.125  31.426  1.00  0.00    -0.000 C 
BRANCH  15  16
ATOM     16  C   UNL     1       9.395  23.079  31.850  1.00  0.00    -0.003 C 
ATOM     17  C   UNL     1      10.634  22.304  32.290  1.00  0.00     0.004 C 
ENDBRANCH  15  16
ENDBRANCH  14  15
ENDBRANCH  13  14
ENDBRANCH  12  13
ENDBRANCH  11  12
ENDBRANCH  10  11
ENDBRANCH   1  10
TORSDOF 13
ENDMDL
MODEL 4
REMARK VINA RESULT:    -4.491      3.203      5.077
REMARK INTER + INTRA:          -9.942
REMARK INTER:                  -8.202
REMARK INTRA:                  -1.740
REMARK UNBOUND:                -2.037
REMARK SMILES CCCCCCCCCCCCCCC(=O)[O-]
REMARK SMILES IDX 9 1 10 2 11 3 12 4 13 5 14 6 15 7 16 8 17 9 8 10 7 11 6 12
REMARK SMILES IDX 5 13 4 14 3 15 2 16 1 17
REMARK H PARENT
REMARK Flexibility Score: inf
ROOT
ATOM      1  C   UNL     1       8.952  22.317  30.815  1.00  0.00     0.000 C 
ENDROOT
BRANCH   1   2
ATOM      2  C   UNL     1       8.254  22.888  32.062  1.00  0.00     0.000 C 
BRANCH   2   3
ATOM      3  C   UNL     1       8.635  22.124  33.349  1.00  0.00     0.000 C 
BRANCH   3   4
ATOM      4  C   UNL     1       9.038  23.043  34.518  1.00  0.00     0.000 C 
BRANCH   4   5
ATOM      5  C   UNL     1      10.553  23.146  34.772  1.00  0.00     0.006 C 
BRANCH   5   6
ATOM      6  C   UNL     1      11.191  24.451  34.270  1.00  0.00     0.053 C 
BRANCH   6   7
ATOM      7  C   UNL     1      11.531  24.384  32.813  1.00  0.00     0.041 C 
ATOM      8  O   UNL     1      11.015  25.199  32.003  1.00  0.00    -0.550 OA
ATOM      9  O   UNL     1      12.392  23.401  32.343  1.00  0.00    -0.550 OA
ENDBRANCH   6   7
ENDBRANCH   5   6
ENDBRANCH   4   5
ENDBRANCH   3   4
ENDBRANCH   2   3
ENDBRANCH   1   2
BRANCH   1  10
ATOM     10  C   UNL     1       7.959  21.919  29.712  1.00  0.00     0.000 C 
BRANCH  10  11
ATOM     11  C   UNL     1       8.098  20.442  29.304  1.00  0.00    -0.000 C 
BRANCH  11  12
ATOM     12  C   UNL     1       8.503  19.540  30.481  1.00  0.00    -0.000 C 
BRANCH  12  13
ATOM     13  C   UNL     1       9.386  18.360  30.049  1.00  0.00    -0.000 C 
BRANCH  13  14
ATOM     14  C   UNL     1       9.912  17.593  31.272  1.00  0.00    -0.000 C 
BRANCH  14  15
ATOM     15  C   UNL     1       9.432  18.196  32.601  1.00  0.00    -0.000 C 
BRANCH  15  16
ATOM     16  C   UNL     1      10.593  18.637  33.506  1.00  0.00    -0.003 C 
ATOM     17  C   UNL     1      11.270  19.890  32.958  1.00  0.00     0.004 C 
ENDBRANCH  15  16
ENDBRANCH  14  15
ENDBRANCH  13  14
ENDBRANCH  12  13
ENDBRANCH  11  12
ENDBRANCH  10  11
ENDBRANCH   1  10
TORSDOF 13
ENDMDL
MODEL 5
REMARK VINA RESULT:    -4.434      1.719      3.085
REMARK INTER + INTRA:          -9.842
REMARK INTER:                  -8.417
REMARK INTRA:                  -1.425
REMARK UNBOUND:                -2.037
REMARK SMILES CCCCCCCCCCCCCCC(=O)[O-]
REMARK SMILES IDX 9 1 10 2 11 3 12 4 13 5 14 6 15 7 16 8 17 9 8 10 7 11 6 12
REMARK SMILES IDX 5 13 4 14 3 15 2 16 1 17
REMARK H PARENT
REMARK Flexibility Score: inf
ROOT
ATOM      1  C   UNL     1       8.217  20.857  29.575  1.00  0.00     0.000 C 
ENDROOT
BRANCH   1   2
ATOM      2  C   UNL     1       8.273  19.641  30.516  1.00  0.00     0.000 C 
BRANCH   2   3
ATOM      3  C   UNL     1       9.334  18.609  30.077  1.00  0.00     0.000 C 
BRANCH   3   4
ATOM      4  C   UNL     1       9.850  17.723  31.227  1.00  0.00     0.000 C 
BRANCH   4   5
ATOM      5  C   UNL     1      10.118  18.466  32.549  1.00  0.00     0.006 C 
BRANCH   5   6
ATOM      6  C   UNL     1      10.070  17.571  33.798  1.00  0.00     0.053 C 
BRANCH   6   7
ATOM      7  C   UNL     1       8.725  17.601  34.456  1.00  0.00     0.041 C 
ATOM      8  O   UNL     1       7.893  18.498  34.159  1.00  0.00    -0.550 OA
ATOM      9  O   UNL     1       8.401  16.656  35.422  1.00  0.00    -0.550 OA
ENDBRANCH   6   7
ENDBRANCH   5   6
ENDBRANCH   4   5
ENDBRANCH   3   4
ENDBRANCH   2   3
ENDBRANCH   1   2
BRANCH   1  10
ATOM     10  C   UNL     1       7.998  22.178  30.330  1.00  0.00     0.000 C 
BRANCH  10  11
ATOM     11  C   UNL     1       8.560  22.134  31.761  1.00  0.00    -0.000 C 
BRANCH  11  12
ATOM     12  C   UNL     1       9.965  22.750  31.864  1.00  0.00    -0.000 C 
BRANCH  12  13
ATOM     13  C   UNL     1       9.933  24.269  32.092  1.00  0.00    -0.000 C 
BRANCH  13  14
ATOM     14  C   UNL     1       9.487  24.598  33.525  1.00  0.00    -0.000 C 
BRANCH  14  15
ATOM     15  C   UNL     1      10.254  23.792  34.585  1.00  0.00    -0.000 C 
BRANCH  15  16
ATOM     16  C   UNL     1       9.325  22.956  35.479  1.00  0.00    -0.003 C 
ATOM     17  C   UNL     1       9.680  21.474  35.405  1.00  0.00     0.004 C 
ENDBRANCH  15  16
ENDBRANCH  14  15
ENDBRANCH  13  14
ENDBRANCH  12  13
ENDBRANCH  11  12
ENDBRANCH  10  11
ENDBRANCH   1  10
TORSDOF 13
ENDMDL
MODEL 6
REMARK VINA RESULT:    -4.404      2.471      5.227
REMARK INTER + INTRA:          -9.789
REMARK INTER:                  -8.041
REMARK INTRA:                  -1.748
REMARK UNBOUND:                -2.037
REMARK SMILES CCCCCCCCCCCCCCC(=O)[O-]
REMARK SMILES IDX 9 1 10 2 11 3 12 4 13 5 14 6 15 7 16 8 17 9 8 10 7 11 6 12
REMARK SMILES IDX 5 13 4 14 3 15 2 16 1 17
REMARK H PARENT
REMARK Flexibility Score: inf
ROOT
ATOM      1  C   UNL     1       9.713  18.136  32.980  1.00  0.00     0.000 C 
ENDROOT
BRANCH   1   2
ATOM      2  C   UNL     1      10.097  18.846  31.670  1.00  0.00     0.000 C 
BRANCH   2   3
ATOM      3  C   UNL     1       9.070  18.594  30.544  1.00  0.00     0.000 C 
BRANCH   3   4
ATOM      4  C   UNL     1       8.527  19.884  29.901  1.00  0.00     0.000 C 
BRANCH   4   5
ATOM      5  C   UNL     1       7.949  20.912  30.892  1.00  0.00     0.006 C 
BRANCH   5   6
ATOM      6  C   UNL     1       8.616  22.295  30.828  1.00  0.00     0.053 C 
BRANCH   6   7
ATOM      7  C   UNL     1       9.303  22.646  32.112  1.00  0.00     0.041 C 
ATOM      8  O   UNL     1       8.678  23.256  33.019  1.00  0.00    -0.550 OA
ATOM      9  O   UNL     1      10.643  22.328  32.294  1.00  0.00    -0.550 OA
ENDBRANCH   6   7
ENDBRANCH   5   6
ENDBRANCH   4   5
ENDBRANCH   3   4
ENDBRANCH   2   3
ENDBRANCH   1   2
BRANCH   1  10
ATOM     10  C   UNL     1       8.210  18.235  33.287  1.00  0.00     0.000 C 
BRANCH  10  11
ATOM     11  C   UNL     1       7.931  18.957  34.617  1.00  0.00    -0.000 C 
BRANCH  11  12
ATOM     12  C   UNL     1       8.866  20.155  34.846  1.00  0.00    -0.000 C 
BRANCH  12  13
ATOM     13  C   UNL     1       9.075  20.471  36.335  1.00  0.00    -0.000 C 
BRANCH  13  14
ATOM     14  C   UNL     1       8.484  19.360  37.218  1.00  0.00    -0.000 C 
BRANCH  14  15
ATOM     15  C   UNL     1       9.521  18.747  38.172  1.00  0.00    -0.000 C 
BRANCH  15  16
ATOM     16  C   UNL     1      10.668  18.046  37.427  1.00  0.00    -0.003 C 
ATOM     17  C   UNL     1      10.152  16.863  36.613  1.00  0.00     0.004 C 
ENDBRANCH  15  16
ENDBRANCH  14  15
ENDBRANCH  13  14
ENDBRANCH  12  13
ENDBRANCH  11  12
ENDBRANCH  10  11
ENDBRANCH   1  10
TORSDOF 13
ENDMDL
MODEL 7
REMARK VINA RESULT:    -4.382      2.962      5.081
REMARK INTER + INTRA:          -9.750
REMARK INTER:                  -8.026
REMARK INTRA:                  -1.724
REMARK UNBOUND:                -2.037
REMARK SMILES CCCCCCCCCCCCCCC(=O)[O-]
REMARK SMILES IDX 9 1 10 2 11 3 12 4 13 5 14 6 15 7 16 8 17 9 8 10 7 11 6 12
REMARK SMILES IDX 5 13 4 14 3 15 2 16 1 17
REMARK H PARENT
REMARK Flexibility Score: inf
ROOT
ATOM      1  C   UNL     1      10.058  18.712  32.059  1.00  0.00     0.000 C 
ENDROOT
BRANCH   1   2
ATOM      2  C   UNL     1       9.455  18.416  30.675  1.00  0.00     0.000 C 
BRANCH   2   3
ATOM      3  C   UNL     1       8.630  19.602  30.129  1.00  0.00     0.000 C 
BRANCH   3   4
ATOM      4  C   UNL     1       8.265  20.647  31.201  1.00  0.00     0.000 C 
BRANCH   4   5
ATOM      5  C   UNL     1       8.594  22.104  30.826  1.00  0.00     0.006 C 
BRANCH   5   6
ATOM      6  C   UNL     1       8.495  23.096  31.996  1.00  0.00     0.053 C 
BRANCH   6   7
ATOM      7  C   UNL     1       9.715  23.958  32.105  1.00  0.00     0.041 C 
ATOM      8  O   UNL     1      10.814  23.562  31.635  1.00  0.00    -0.550 OA
ATOM      9  O   UNL     1       9.646  25.184  32.753  1.00  0.00    -0.550 OA
ENDBRANCH   6   7
ENDBRANCH   5   6
ENDBRANCH   4   5
ENDBRANCH   3   4
ENDBRANCH   2   3
ENDBRANCH   1   2
BRANCH   1  10
ATOM     10  C   UNL     1       9.576  17.728  33.136  1.00  0.00     0.000 C 
BRANCH  10  11
ATOM     11  C   UNL     1       8.254  18.173  33.786  1.00  0.00    -0.000 C 
BRANCH  11  12
ATOM     12  C   UNL     1       8.045  17.556  35.179  1.00  0.00    -0.000 C 
BRANCH  12  13
ATOM     13  C   UNL     1       7.928  18.615  36.286  1.00  0.00    -0.000 C 
BRANCH  13  14
ATOM     14  C   UNL     1       9.292  19.265  36.568  1.00  0.00    -0.000 C 
BRANCH  14  15
ATOM     15  C   UNL     1       9.211  20.796  36.662  1.00  0.00    -0.000 C 
BRANCH  15  16
ATOM     16  C   UNL     1       9.283  21.478  35.286  1.00  0.00    -0.003 C 
ATOM     17  C   UNL     1      10.630  21.223  34.617  1.00  0.00     0.004 C 
ENDBRANCH  15  16
ENDBRANCH  14  15
ENDBRANCH  13  14
ENDBRANCH  12  13
ENDBRANCH  11  12
ENDBRANCH  10  11
ENDBRANCH   1  10
TORSDOF 13
ENDMDL
MODEL 8
REMARK VINA RESULT:    -4.348      3.833      5.630
REMARK INTER + INTRA:          -9.689
REMARK INTER:                  -8.142
REMARK INTRA:                  -1.547
REMARK UNBOUND:                -2.037
REMARK SMILES CCCCCCCCCCCCCCC(=O)[O-]
REMARK SMILES IDX 9 1 10 2 11 3 12 4 13 5 14 6 15 7 16 8 17 9 8 10 7 11 6 12
REMARK SMILES IDX 5 13 4 14 3 15 2 16 1 17
REMARK H PARENT
REMARK Flexibility Score: inf
ROOT
ATOM      1  C   UNL     1       9.952  17.227  36.610  1.00  0.00     0.000 C 
ENDROOT
BRANCH   1   2
ATOM      2  C   UNL     1      11.426  16.831  36.412  1.00  0.00     0.000 C 
BRANCH   2   3
ATOM      3  C   UNL     1      12.210  17.881  35.595  1.00  0.00     0.000 C 
BRANCH   3   4
ATOM      4  C   UNL     1      13.541  18.303  36.244  1.00  0.00     0.000 C 
BRANCH   4   5
ATOM      5  C   UNL     1      13.681  17.940  37.735  1.00  0.00     0.006 C 
BRANCH   5   6
ATOM      6  C   UNL     1      14.967  17.170  38.079  1.00  0.00     0.053 C 
BRANCH   6   7
ATOM      7  C   UNL     1      15.266  16.101  37.074  1.00  0.00     0.041 C 
ATOM      8  O   UNL     1      14.544  15.072  37.009  1.00  0.00    -0.550 OA
ATOM      9  O   UNL     1      16.362  16.226  36.230  1.00  0.00    -0.550 OA
ENDBRANCH   6   7
ENDBRANCH   5   6
ENDBRANCH   4   5
ENDBRANCH   3   4
ENDBRANCH   2   3
ENDBRANCH   1   2
BRANCH   1  10
ATOM     10  C   UNL     1       9.095  16.956  35.364  1.00  0.00     0.000 C 
BRANCH  10  11
ATOM     11  C   UNL     1       8.082  18.083  35.095  1.00  0.00    -0.000 C 
BRANCH  11  12
ATOM     12  C   UNL     1       8.579  19.453  35.583  1.00  0.00    -0.000 C 
BRANCH  12  13
ATOM     13  C   UNL     1       9.411  20.195  34.527  1.00  0.00    -0.000 C 
BRANCH  13  14
ATOM     14  C   UNL     1       8.951  19.825  33.108  1.00  0.00    -0.000 C 
BRANCH  14  15
ATOM     15  C   UNL     1      10.112  19.376  32.207  1.00  0.00    -0.000 C 
BRANCH  15  16
ATOM     16  C   UNL     1      10.032  17.887  31.835  1.00  0.00    -0.003 C 
ATOM     17  C   UNL     1       9.712  17.707  30.354  1.00  0.00     0.004 C 
ENDBRANCH  15  16
ENDBRANCH  14  15
ENDBRANCH  13  14
ENDBRANCH  12  13
ENDBRANCH  11  12
ENDBRANCH  10  11
ENDBRANCH   1  10
TORSDOF 13
ENDMDL
