MODEL 1
REMARK VINA RESULT:    -3.924      0.000      0.000
REMARK INTER + INTRA:          -7.619
REMARK INTER:                  -5.989
REMARK INTRA:                  -1.630
REMARK UNBOUND:                -1.630
REMARK SMILES OC[C@@H]1O[C@@](CO)(O[C@@H]2O[C@H](CO)[C@@H](O)[C@@H](O)[C@H]2O)[C@H](O)[C@@H]1O
REMARK SMILES IDX 8 1 9 2 11 3 14 4 10 5 16 6 18 7 12 8 13 9 15 11 17 13 19 15
REMARK SMILES IDX 5 17 20 18 4 19 22 20 3 21 6 22 7 23 21 25 23 27 2 29 1 30
REMARK H PARENT 13 10 15 12 17 14 19 16 7 24 21 26 23 28 1 31
REMARK Flexibility Score: inf
ROOT
ATOM      1  O   UNL     1     168.208 170.562 161.609  1.00  0.00    -0.313 OA
ENDROOT
BRANCH   1   2
ATOM      2  C   UNL     1     167.726 171.463 160.616  1.00  0.00     0.285 C 
ATOM      3  C   UNL     1     165.478 171.541 161.462  1.00  0.00     0.178 C 
ATOM      4  C   UNL     1     164.909 170.748 160.254  1.00  0.00     0.177 C 
ATOM      5  O   UNL     1     166.682 172.254 161.171  1.00  0.00    -0.341 OA
ATOM      6  C   UNL     1     166.013 169.929 159.562  1.00  0.00     0.179 C 
ATOM      7  C   UNL     1     167.263 170.782 159.298  1.00  0.00     0.202 C 
BRANCH   3   8
ATOM      8  C   UNL     1     165.564 170.690 162.747  1.00  0.00     0.191 C 
BRANCH   8   9
ATOM      9  O   UNL     1     166.139 171.432 163.790  1.00  0.00    -0.394 OA
ATOM     10  H   UNL     1     166.580 172.218 163.377  1.00  0.00     0.210 HD
ENDBRANCH   8   9
ENDBRANCH   3   8
BRANCH   4  11
ATOM     11  O   UNL     1     164.315 171.635 159.337  1.00  0.00    -0.387 OA
ATOM     12  H   UNL     1     164.902 171.657 158.537  1.00  0.00     0.211 HD
ENDBRANCH   4  11
BRANCH   6  13
ATOM     13  O   UNL     1     165.545 169.307 158.389  1.00  0.00    -0.387 OA
ATOM     14  H   UNL     1     165.328 168.363 158.603  1.00  0.00     0.211 HD
ENDBRANCH   6  13
BRANCH   7  15
ATOM     15  O   UNL     1     167.040 171.731 158.279  1.00  0.00    -0.385 OA
ATOM     16  H   UNL     1     166.376 172.396 158.597  1.00  0.00     0.211 HD
ENDBRANCH   7  15
ENDBRANCH   1   2
BRANCH   1  17
ATOM     17  C   UNL     1     169.344 170.950 162.386  1.00  0.00     0.224 C 
ATOM     18  C   UNL     1     169.336 170.039 163.647  1.00  0.00     0.208 C 
ATOM     19  O   UNL     1     170.528 170.660 161.663  1.00  0.00    -0.337 OA
ATOM     20  C   UNL     1     170.724 169.443 163.679  1.00  0.00     0.180 C 
ATOM     21  C   UNL     1     171.092 169.491 162.204  1.00  0.00     0.179 C 
BRANCH  17  22
ATOM     22  C   UNL     1     169.363 172.459 162.772  1.00  0.00     0.225 C 
BRANCH  22  23
ATOM     23  O   UNL     1     170.551 172.781 163.444  1.00  0.00    -0.391 OA
ATOM     24  H   UNL     1     170.963 171.917 163.709  1.00  0.00     0.210 HD
ENDBRANCH  22  23
ENDBRANCH  17  22
BRANCH  18  25
ATOM     25  O   UNL     1     169.020 170.722 164.836  1.00  0.00    -0.385 OA
ATOM     26  H   UNL     1     168.268 171.334 164.621  1.00  0.00     0.211 HD
ENDBRANCH  18  25
BRANCH  20  27
ATOM     27  O   UNL     1     171.585 170.246 164.450  1.00  0.00    -0.387 OA
ATOM     28  H   UNL     1     172.390 170.418 163.896  1.00  0.00     0.211 HD
ENDBRANCH  20  27
BRANCH  21  29
ATOM     29  C   UNL     1     172.606 169.461 161.945  1.00  0.00     0.191 C 
BRANCH  29  30
ATOM     30  O   UNL     1     173.191 168.373 162.609  1.00  0.00    -0.394 OA
ATOM     31  H   UNL     1     173.627 167.816 161.913  1.00  0.00     0.210 HD
ENDBRANCH  29  30
ENDBRANCH  21  29
ENDBRANCH   1  17
TORSDOF 13
ENDMDL
MODEL 2
REMARK VINA RESULT:    -3.847      9.328     10.902
REMARK INTER + INTRA:          -7.502
REMARK INTER:                  -6.284
REMARK INTRA:                  -1.218
REMARK UNBOUND:                -1.630
REMARK SMILES OC[C@@H]1O[C@@](CO)(O[C@@H]2O[C@H](CO)[C@@H](O)[C@@H](O)[C@H]2O)[C@H](O)[C@@H]1O
REMARK SMILES IDX 8 1 9 2 11 3 14 4 10 5 16 6 18 7 12 8 13 9 15 11 17 13 19 15
REMARK SMILES IDX 5 17 20 18 4 19 22 20 3 21 6 22 7 23 21 25 23 27 2 29 1 30
REMARK H PARENT 13 10 15 12 17 14 19 16 7 24 21 26 23 28 1 31
REMARK Flexibility Score: inf
ROOT
ATOM      1  O   UNL     1     162.397 177.907 166.944  1.00  0.00    -0.313 OA
ENDROOT
BRANCH   1   2
ATOM      2  C   UNL     1     161.663 178.972 166.345  1.00  0.00     0.285 C 
ATOM      3  C   UNL     1     159.607 177.741 166.156  1.00  0.00     0.178 C 
ATOM      4  C   UNL     1     159.708 177.654 164.608  1.00  0.00     0.177 C 
ATOM      5  O   UNL     1     160.294 178.862 166.717  1.00  0.00    -0.341 OA
ATOM      6  C   UNL     1     161.160 177.843 164.138  1.00  0.00     0.179 C 
ATOM      7  C   UNL     1     161.810 179.067 164.801  1.00  0.00     0.202 C 
BRANCH   3   8
ATOM      8  C   UNL     1     159.940 176.405 166.852  1.00  0.00     0.191 C 
BRANCH   8   9
ATOM      9  O   UNL     1     160.005 176.578 168.243  1.00  0.00    -0.394 OA
ATOM     10  H   UNL     1     159.917 175.679 168.652  1.00  0.00     0.210 HD
ENDBRANCH   8   9
ENDBRANCH   3   8
BRANCH   4  11
ATOM     11  O   UNL     1     158.876 178.623 164.020  1.00  0.00    -0.387 OA
ATOM     12  H   UNL     1     159.437 179.426 163.861  1.00  0.00     0.211 HD
ENDBRANCH   4  11
BRANCH   6  13
ATOM     13  O   UNL     1     161.253 177.897 162.735  1.00  0.00    -0.387 OA
ATOM     14  H   UNL     1     160.383 177.610 162.354  1.00  0.00     0.211 HD
ENDBRANCH   6  13
BRANCH   7  15
ATOM     15  O   UNL     1     161.273 180.274 164.307  1.00  0.00    -0.385 OA
ATOM     16  H   UNL     1     160.376 180.414 164.704  1.00  0.00     0.211 HD
ENDBRANCH   7  15
ENDBRANCH   1   2
BRANCH   1  17
ATOM     17  C   UNL     1     163.632 178.216 167.598  1.00  0.00     0.224 C 
ATOM     18  C   UNL     1     164.737 177.448 166.817  1.00  0.00     0.208 C 
ATOM     19  O   UNL     1     163.901 179.600 167.460  1.00  0.00    -0.337 OA
ATOM     20  C   UNL     1     165.758 178.511 166.485  1.00  0.00     0.180 C 
ATOM     21  C   UNL     1     164.882 179.755 166.465  1.00  0.00     0.179 C 
BRANCH  17  22
ATOM     22  C   UNL     1     163.653 177.861 169.114  1.00  0.00     0.225 C 
BRANCH  22  23
ATOM     23  O   UNL     1     162.370 177.506 169.556  1.00  0.00    -0.391 OA
ATOM     24  H   UNL     1     161.733 178.051 169.024  1.00  0.00     0.210 HD
ENDBRANCH  22  23
ENDBRANCH  17  22
BRANCH  18  25
ATOM     25  O   UNL     1     165.297 176.376 167.537  1.00  0.00    -0.385 OA
ATOM     26  H   UNL     1     166.183 176.192 167.129  1.00  0.00     0.211 HD
ENDBRANCH  18  25
BRANCH  20  27
ATOM     27  O   UNL     1     166.735 178.586 167.495  1.00  0.00    -0.387 OA
ATOM     28  H   UNL     1     167.325 177.796 167.382  1.00  0.00     0.211 HD
ENDBRANCH  20  27
BRANCH  21  29
ATOM     29  C   UNL     1     165.661 181.061 166.682  1.00  0.00     0.191 C 
BRANCH  29  30
ATOM     30  O   UNL     1     166.914 180.990 166.055  1.00  0.00    -0.394 OA
ATOM     31  H   UNL     1     166.920 180.150 165.526  1.00  0.00     0.210 HD
ENDBRANCH  29  30
ENDBRANCH  21  29
ENDBRANCH   1  17
TORSDOF 13
ENDMDL
MODEL 3
REMARK VINA RESULT:    -3.824      1.620      2.863
REMARK INTER + INTRA:          -7.466
REMARK INTER:                  -6.055
REMARK INTRA:                  -1.410
REMARK UNBOUND:                -1.630
REMARK SMILES OC[C@@H]1O[C@@](CO)(O[C@@H]2O[C@H](CO)[C@@H](O)[C@@H](O)[C@H]2O)[C@H](O)[C@@H]1O
REMARK SMILES IDX 8 1 9 2 11 3 14 4 10 5 16 6 18 7 12 8 13 9 15 11 17 13 19 15
REMARK SMILES IDX 5 17 20 18 4 19 22 20 3 21 6 22 7 23 21 25 23 27 2 29 1 30
REMARK H PARENT 13 10 15 12 17 14 19 16 7 24 21 26 23 28 1 31
REMARK Flexibility Score: inf
ROOT
ATOM      1  O   UNL     1     168.305 171.565 161.420  1.00  0.00    -0.313 OA
ENDROOT
BRANCH   1   2
ATOM      2  C   UNL     1     167.239 171.937 162.289  1.00  0.00     0.285 C 
ATOM      3  C   UNL     1     165.537 170.765 161.061  1.00  0.00     0.178 C 
ATOM      4  C   UNL     1     164.878 172.079 160.562  1.00  0.00     0.177 C 
ATOM      5  O   UNL     1     166.256 170.909 162.288  1.00  0.00    -0.341 OA
ATOM      6  C   UNL     1     165.874 173.250 160.611  1.00  0.00     0.179 C 
ATOM      7  C   UNL     1     166.597 173.315 161.966  1.00  0.00     0.202 C 
BRANCH   3   8
ATOM      8  C   UNL     1     166.342 170.044 159.959  1.00  0.00     0.191 C 
BRANCH   8   9
ATOM      9  O   UNL     1     165.478 169.398 159.063  1.00  0.00    -0.394 OA
ATOM     10  H   UNL     1     165.017 170.105 158.543  1.00  0.00     0.210 HD
ENDBRANCH   8   9
ENDBRANCH   3   8
BRANCH   4  11
ATOM     11  O   UNL     1     163.744 172.372 161.341  1.00  0.00    -0.387 OA
ATOM     12  H   UNL     1     163.419 171.511 161.711  1.00  0.00     0.211 HD
ENDBRANCH   4  11
BRANCH   6  13
ATOM     13  O   UNL     1     165.260 174.474 160.286  1.00  0.00    -0.387 OA
ATOM     14  H   UNL     1     164.486 174.604 160.892  1.00  0.00     0.211 HD
ENDBRANCH   6  13
BRANCH   7  15
ATOM     15  O   UNL     1     165.732 173.735 162.998  1.00  0.00    -0.385 OA
ATOM     16  H   UNL     1     165.283 174.574 162.721  1.00  0.00     0.211 HD
ENDBRANCH   7  15
ENDBRANCH   1   2
BRANCH   1  17
ATOM     17  C   UNL     1     169.524 171.093 162.003  1.00  0.00     0.224 C 
ATOM     18  C   UNL     1     169.550 171.650 163.455  1.00  0.00     0.208 C 
ATOM     19  O   UNL     1     169.484 169.679 162.094  1.00  0.00    -0.337 OA
ATOM     20  C   UNL     1     169.794 170.431 164.313  1.00  0.00     0.180 C 
ATOM     21  C   UNL     1     169.210 169.338 163.430  1.00  0.00     0.179 C 
BRANCH  17  22
ATOM     22  C   UNL     1     170.804 171.497 161.213  1.00  0.00     0.225 C 
BRANCH  22  23
ATOM     23  O   UNL     1     171.925 170.818 161.710  1.00  0.00    -0.391 OA
ATOM     24  H   UNL     1     172.344 170.366 160.931  1.00  0.00     0.210 HD
ENDBRANCH  22  23
ENDBRANCH  17  22
BRANCH  18  25
ATOM     25  O   UNL     1     170.521 172.649 163.660  1.00  0.00    -0.385 OA
ATOM     26  H   UNL     1     171.147 172.599 162.890  1.00  0.00     0.211 HD
ENDBRANCH  18  25
BRANCH  20  27
ATOM     27  O   UNL     1     171.173 170.243 164.520  1.00  0.00    -0.387 OA
ATOM     28  H   UNL     1     171.298 170.085 165.492  1.00  0.00     0.211 HD
ENDBRANCH  20  27
BRANCH  21  29
ATOM     29  C   UNL     1     169.755 167.936 163.744  1.00  0.00     0.191 C 
BRANCH  29  30
ATOM     30  O   UNL     1     171.021 167.766 163.165  1.00  0.00    -0.394 OA
ATOM     31  H   UNL     1     170.872 167.609 162.196  1.00  0.00     0.210 HD
ENDBRANCH  29  30
ENDBRANCH  21  29
ENDBRANCH   1  17
TORSDOF 13
ENDMDL
MODEL 4
REMARK VINA RESULT:    -3.814      2.918      5.928
REMARK INTER + INTRA:          -7.450
REMARK INTER:                  -5.749
REMARK INTRA:                  -1.702
REMARK UNBOUND:                -1.630
REMARK SMILES OC[C@@H]1O[C@@](CO)(O[C@@H]2O[C@H](CO)[C@@H](O)[C@@H](O)[C@H]2O)[C@H](O)[C@@H]1O
REMARK SMILES IDX 8 1 9 2 11 3 14 4 10 5 16 6 18 7 12 8 13 9 15 11 17 13 19 15
REMARK SMILES IDX 5 17 20 18 4 19 22 20 3 21 6 22 7 23 21 25 23 27 2 29 1 30
REMARK H PARENT 13 10 15 12 17 14 19 16 7 24 21 26 23 28 1 31
REMARK Flexibility Score: inf
ROOT
ATOM      1  O   UNL     1     170.558 168.353 161.546  1.00  0.00    -0.313 OA
ENDROOT
BRANCH   1   2
ATOM      2  C   UNL     1     170.216 166.989 161.779  1.00  0.00     0.285 C 
ATOM      3  C   UNL     1     172.444 166.146 161.460  1.00  0.00     0.178 C 
ATOM      4  C   UNL     1     172.077 165.453 160.120  1.00  0.00     0.177 C 
ATOM      5  O   UNL     1     171.335 166.318 162.345  1.00  0.00    -0.341 OA
ATOM      6  C   UNL     1     170.824 166.088 159.494  1.00  0.00     0.179 C 
ATOM      7  C   UNL     1     169.694 166.233 160.526  1.00  0.00     0.202 C 
BRANCH   3   8
ATOM      8  C   UNL     1     173.273 167.433 161.260  1.00  0.00     0.191 C 
BRANCH   8   9
ATOM      9  O   UNL     1     173.518 168.056 162.493  1.00  0.00    -0.394 OA
ATOM     10  H   UNL     1     174.396 168.512 162.418  1.00  0.00     0.210 HD
ENDBRANCH   8   9
ENDBRANCH   3   8
BRANCH   4  11
ATOM     11  O   UNL     1     171.870 164.078 160.335  1.00  0.00    -0.387 OA
ATOM     12  H   UNL     1     171.296 163.995 161.139  1.00  0.00     0.211 HD
ENDBRANCH   4  11
BRANCH   6  13
ATOM     13  O   UNL     1     170.401 165.391 158.348  1.00  0.00    -0.387 OA
ATOM     14  H   UNL     1     170.248 164.443 158.599  1.00  0.00     0.211 HD
ENDBRANCH   6  13
BRANCH   7  15
ATOM     15  O   UNL     1     169.141 164.983 160.872  1.00  0.00    -0.385 OA
ATOM     16  H   UNL     1     169.854 164.410 161.253  1.00  0.00     0.211 HD
ENDBRANCH   7  15
ENDBRANCH   1   2
BRANCH   1  17
ATOM     17  C   UNL     1     170.040 169.346 162.436  1.00  0.00     0.224 C 
ATOM     18  C   UNL     1     171.224 170.306 162.747  1.00  0.00     0.208 C 
ATOM     19  O   UNL     1     169.046 170.103 161.767  1.00  0.00    -0.337 OA
ATOM     20  C   UNL     1     170.675 171.679 162.437  1.00  0.00     0.180 C 
ATOM     21  C   UNL     1     169.614 171.337 161.403  1.00  0.00     0.179 C 
BRANCH  17  22
ATOM     22  C   UNL     1     169.418 168.765 163.741  1.00  0.00     0.225 C 
BRANCH  22  23
ATOM     23  O   UNL     1     168.754 169.770 164.460  1.00  0.00    -0.391 OA
ATOM     24  H   UNL     1     169.353 170.562 164.447  1.00  0.00     0.210 HD
ENDBRANCH  22  23
ENDBRANCH  17  22
BRANCH  18  25
ATOM     25  O   UNL     1     171.700 170.206 164.068  1.00  0.00    -0.385 OA
ATOM     26  H   UNL     1     171.284 169.395 164.460  1.00  0.00     0.211 HD
ENDBRANCH  18  25
BRANCH  20  27
ATOM     27  O   UNL     1     170.105 172.251 163.590  1.00  0.00    -0.387 OA
ATOM     28  H   UNL     1     169.905 173.198 163.370  1.00  0.00     0.211 HD
ENDBRANCH  20  27
BRANCH  21  29
ATOM     29  C   UNL     1     168.519 172.406 161.267  1.00  0.00     0.191 C 
BRANCH  29  30
ATOM     30  O   UNL     1     167.555 172.246 162.273  1.00  0.00    -0.394 OA
ATOM     31  H   UNL     1     167.927 172.665 163.092  1.00  0.00     0.210 HD
ENDBRANCH  29  30
ENDBRANCH  21  29
ENDBRANCH   1  17
TORSDOF 13
ENDMDL
MODEL 5
REMARK VINA RESULT:    -3.765      8.107      9.730
REMARK INTER + INTRA:          -7.375
REMARK INTER:                  -5.489
REMARK INTRA:                  -1.886
REMARK UNBOUND:                -1.630
REMARK SMILES OC[C@@H]1O[C@@](CO)(O[C@@H]2O[C@H](CO)[C@@H](O)[C@@H](O)[C@H]2O)[C@H](O)[C@@H]1O
REMARK SMILES IDX 8 1 9 2 11 3 14 4 10 5 16 6 18 7 12 8 13 9 15 11 17 13 19 15
REMARK SMILES IDX 5 17 20 18 4 19 22 20 3 21 6 22 7 23 21 25 23 27 2 29 1 30
REMARK H PARENT 13 10 15 12 17 14 19 16 7 24 21 26 23 28 1 31
REMARK Flexibility Score: inf
ROOT
ATOM      1  O   UNL     1     162.700 177.970 164.979  1.00  0.00    -0.313 OA
ENDROOT
BRANCH   1   2
ATOM      2  C   UNL     1     163.372 177.090 164.082  1.00  0.00     0.285 C 
ATOM      3  C   UNL     1     162.835 178.341 162.102  1.00  0.00     0.178 C 
ATOM      4  C   UNL     1     161.852 177.255 161.585  1.00  0.00     0.177 C 
ATOM      5  O   UNL     1     163.852 177.834 162.969  1.00  0.00    -0.341 OA
ATOM      6  C   UNL     1     161.355 176.366 162.737  1.00  0.00     0.179 C 
ATOM      7  C   UNL     1     162.521 175.878 163.611  1.00  0.00     0.202 C 
BRANCH   3   8
ATOM      8  C   UNL     1     162.111 179.583 162.665  1.00  0.00     0.191 C 
BRANCH   8   9
ATOM      9  O   UNL     1     163.029 180.455 163.268  1.00  0.00    -0.394 OA
ATOM     10  H   UNL     1     162.602 180.800 164.093  1.00  0.00     0.210 HD
ENDBRANCH   8   9
ENDBRANCH   3   8
BRANCH   4  11
ATOM     11  O   UNL     1     162.481 176.471 160.601  1.00  0.00    -0.387 OA
ATOM     12  H   UNL     1     162.141 176.783 159.723  1.00  0.00     0.211 HD
ENDBRANCH   4  11
BRANCH   6  13
ATOM     13  O   UNL     1     160.567 175.297 162.271  1.00  0.00    -0.387 OA
ATOM     14  H   UNL     1     159.812 175.170 162.901  1.00  0.00     0.211 HD
ENDBRANCH   6  13
BRANCH   7  15
ATOM     15  O   UNL     1     163.313 174.923 162.939  1.00  0.00    -0.385 OA
ATOM     16  H   UNL     1     163.921 175.393 162.313  1.00  0.00     0.211 HD
ENDBRANCH   7  15
ENDBRANCH   1   2
BRANCH   1  17
ATOM     17  C   UNL     1     163.355 178.329 166.199  1.00  0.00     0.224 C 
ATOM     18  C   UNL     1     164.625 177.433 166.285  1.00  0.00     0.208 C 
ATOM     19  O   UNL     1     163.792 179.675 166.118  1.00  0.00    -0.337 OA
ATOM     20  C   UNL     1     165.751 178.413 166.516  1.00  0.00     0.180 C 
ATOM     21  C   UNL     1     165.177 179.667 165.874  1.00  0.00     0.179 C 
BRANCH  17  22
ATOM     22  C   UNL     1     162.463 178.179 167.467  1.00  0.00     0.225 C 
BRANCH  22  23
ATOM     23  O   UNL     1     163.088 178.758 168.581  1.00  0.00    -0.391 OA
ATOM     24  H   UNL     1     162.854 179.722 168.560  1.00  0.00     0.210 HD
ENDBRANCH  22  23
ENDBRANCH  17  22
BRANCH  18  25
ATOM     25  O   UNL     1     164.556 176.452 167.292  1.00  0.00    -0.385 OA
ATOM     26  H   UNL     1     163.679 176.567 167.742  1.00  0.00     0.211 HD
ENDBRANCH  18  25
BRANCH  20  27
ATOM     27  O   UNL     1     165.969 178.595 167.895  1.00  0.00    -0.387 OA
ATOM     28  H   UNL     1     165.414 179.369 168.173  1.00  0.00     0.211 HD
ENDBRANCH  20  27
BRANCH  21  29
ATOM     29  C   UNL     1     165.815 180.968 166.384  1.00  0.00     0.191 C 
BRANCH  29  30
ATOM     30  O   UNL     1     167.206 180.822 166.483  1.00  0.00    -0.394 OA
ATOM     31  H   UNL     1     167.585 181.737 166.538  1.00  0.00     0.210 HD
ENDBRANCH  29  30
ENDBRANCH  21  29
ENDBRANCH   1  17
TORSDOF 13
ENDMDL
MODEL 6
REMARK VINA RESULT:    -3.721      2.766      5.626
REMARK INTER + INTRA:          -7.309
REMARK INTER:                  -5.419
REMARK INTRA:                  -1.890
REMARK UNBOUND:                -1.630
REMARK SMILES OC[C@@H]1O[C@@](CO)(O[C@@H]2O[C@H](CO)[C@@H](O)[C@@H](O)[C@H]2O)[C@H](O)[C@@H]1O
REMARK SMILES IDX 8 1 9 2 11 3 14 4 10 5 16 6 18 7 12 8 13 9 15 11 17 13 19 15
REMARK SMILES IDX 5 17 20 18 4 19 22 20 3 21 6 22 7 23 21 25 23 27 2 29 1 30
REMARK H PARENT 13 10 15 12 17 14 19 16 7 24 21 26 23 28 1 31
REMARK Flexibility Score: inf
ROOT
ATOM      1  O   UNL     1     171.281 169.250 161.319  1.00  0.00    -0.313 OA
ENDROOT
BRANCH   1   2
ATOM      2  C   UNL     1     170.912 169.348 162.692  1.00  0.00     0.285 C 
ATOM      3  C   UNL     1     168.971 170.710 162.300  1.00  0.00     0.178 C 
ATOM      4  C   UNL     1     169.623 171.966 162.939  1.00  0.00     0.177 C 
ATOM      5  O   UNL     1     169.498 169.474 162.787  1.00  0.00    -0.341 OA
ATOM      6  C   UNL     1     171.158 171.854 162.935  1.00  0.00     0.179 C 
ATOM      7  C   UNL     1     171.622 170.490 163.470  1.00  0.00     0.202 C 
BRANCH   3   8
ATOM      8  C   UNL     1     168.909 170.787 160.760  1.00  0.00     0.191 C 
BRANCH   8   9
ATOM      9  O   UNL     1     168.478 169.565 160.224  1.00  0.00    -0.394 OA
ATOM     10  H   UNL     1     168.769 169.545 159.276  1.00  0.00     0.210 HD
ENDBRANCH   8   9
ENDBRANCH   3   8
BRANCH   4  11
ATOM     11  O   UNL     1     169.152 172.133 164.254  1.00  0.00    -0.387 OA
ATOM     12  H   UNL     1     168.178 171.942 164.237  1.00  0.00     0.211 HD
ENDBRANCH   4  11
BRANCH   6  13
ATOM     13  O   UNL     1     171.762 172.921 163.625  1.00  0.00    -0.387 OA
ATOM     14  H   UNL     1     172.736 172.899 163.440  1.00  0.00     0.211 HD
ENDBRANCH   6  13
BRANCH   7  15
ATOM     15  O   UNL     1     171.410 170.376 164.859  1.00  0.00    -0.385 OA
ATOM     16  H   UNL     1     170.652 170.961 165.119  1.00  0.00     0.211 HD
ENDBRANCH   7  15
ENDBRANCH   1   2
BRANCH   1  17
ATOM     17  C   UNL     1     171.673 167.972 160.810  1.00  0.00     0.224 C 
ATOM     18  C   UNL     1     171.807 167.038 162.046  1.00  0.00     0.208 C 
ATOM     19  O   UNL     1     170.634 167.452 159.998  1.00  0.00    -0.337 OA
ATOM     20  C   UNL     1     170.953 165.841 161.698  1.00  0.00     0.180 C 
ATOM     21  C   UNL     1     169.953 166.472 160.741  1.00  0.00     0.179 C 
BRANCH  17  22
ATOM     22  C   UNL     1     172.985 167.998 159.969  1.00  0.00     0.225 C 
BRANCH  22  23
ATOM     23  O   UNL     1     173.183 166.768 159.326  1.00  0.00    -0.391 OA
ATOM     24  H   UNL     1     173.018 166.068 160.010  1.00  0.00     0.210 HD
ENDBRANCH  22  23
ENDBRANCH  17  22
BRANCH  18  25
ATOM     25  O   UNL     1     173.136 166.678 162.341  1.00  0.00    -0.385 OA
ATOM     26  H   UNL     1     173.116 166.212 163.218  1.00  0.00     0.211 HD
ENDBRANCH  18  25
BRANCH  20  27
ATOM     27  O   UNL     1     171.726 164.855 161.058  1.00  0.00    -0.387 OA
ATOM     28  H   UNL     1     172.463 164.621 161.680  1.00  0.00     0.211 HD
ENDBRANCH  20  27
BRANCH  21  29
ATOM     29  C   UNL     1     169.280 165.462 159.799  1.00  0.00     0.191 C 
BRANCH  29  30
ATOM     30  O   UNL     1     168.883 164.321 160.512  1.00  0.00    -0.394 OA
ATOM     31  H   UNL     1     169.666 163.711 160.532  1.00  0.00     0.210 HD
ENDBRANCH  29  30
ENDBRANCH  21  29
ENDBRANCH   1  17
TORSDOF 13
ENDMDL
MODEL 7
REMARK VINA RESULT:    -3.708      7.821     10.724
REMARK INTER + INTRA:          -7.289
REMARK INTER:                  -5.449
REMARK INTRA:                  -1.840
REMARK UNBOUND:                -1.630
REMARK SMILES OC[C@@H]1O[C@@](CO)(O[C@@H]2O[C@H](CO)[C@@H](O)[C@@H](O)[C@H]2O)[C@H](O)[C@@H]1O
REMARK SMILES IDX 8 1 9 2 11 3 14 4 10 5 16 6 18 7 12 8 13 9 15 11 17 13 19 15
REMARK SMILES IDX 5 17 20 18 4 19 22 20 3 21 6 22 7 23 21 25 23 27 2 29 1 30
REMARK H PARENT 13 10 15 12 17 14 19 16 7 24 21 26 23 28 1 31
REMARK Flexibility Score: inf
ROOT
ATOM      1  O   UNL     1     163.491 177.879 164.278  1.00  0.00    -0.313 OA
ENDROOT
BRANCH   1   2
ATOM      2  C   UNL     1     163.546 177.042 165.430  1.00  0.00     0.285 C 
ATOM      3  C   UNL     1     162.731 178.712 166.953  1.00  0.00     0.178 C 
ATOM      4  C   UNL     1     164.108 178.860 167.655  1.00  0.00     0.177 C 
ATOM      5  O   UNL     1     162.527 177.437 166.342  1.00  0.00    -0.341 OA
ATOM      6  C   UNL     1     165.248 178.376 166.743  1.00  0.00     0.179 C 
ATOM      7  C   UNL     1     164.931 177.001 166.132  1.00  0.00     0.202 C 
BRANCH   3   8
ATOM      8  C   UNL     1     162.404 179.899 166.021  1.00  0.00     0.191 C 
BRANCH   8   9
ATOM      9  O   UNL     1     161.302 179.596 165.208  1.00  0.00    -0.394 OA
ATOM     10  H   UNL     1     161.497 179.962 164.308  1.00  0.00     0.210 HD
ENDBRANCH   8   9
ENDBRANCH   3   8
BRANCH   4  11
ATOM     11  O   UNL     1     164.110 178.137 168.862  1.00  0.00    -0.387 OA
ATOM     12  H   UNL     1     164.932 178.398 169.352  1.00  0.00     0.211 HD
ENDBRANCH   4  11
BRANCH   6  13
ATOM     13  O   UNL     1     166.488 178.380 167.407  1.00  0.00    -0.387 OA
ATOM     14  H   UNL     1     166.711 177.446 167.655  1.00  0.00     0.211 HD
ENDBRANCH   6  13
BRANCH   7  15
ATOM     15  O   UNL     1     164.989 175.976 167.098  1.00  0.00    -0.385 OA
ATOM     16  H   UNL     1     164.367 176.196 167.839  1.00  0.00     0.211 HD
ENDBRANCH   7  15
ENDBRANCH   1   2
BRANCH   1  17
ATOM     17  C   UNL     1     163.066 177.304 163.039  1.00  0.00     0.224 C 
ATOM     18  C   UNL     1     162.591 175.861 163.374  1.00  0.00     0.208 C 
ATOM     19  O   UNL     1     161.941 178.017 162.553  1.00  0.00    -0.337 OA
ATOM     20  C   UNL     1     161.204 175.783 162.779  1.00  0.00     0.180 C 
ATOM     21  C   UNL     1     160.794 177.247 162.814  1.00  0.00     0.179 C 
BRANCH  17  22
ATOM     22  C   UNL     1     164.161 177.302 161.931  1.00  0.00     0.225 C 
BRANCH  22  23
ATOM     23  O   UNL     1     163.612 176.930 160.695  1.00  0.00    -0.391 OA
ATOM     24  H   UNL     1     163.797 177.681 160.073  1.00  0.00     0.210 HD
ENDBRANCH  22  23
ENDBRANCH  17  22
BRANCH  18  25
ATOM     25  O   UNL     1     163.443 174.856 162.877  1.00  0.00    -0.385 OA
ATOM     26  H   UNL     1     164.367 175.120 163.123  1.00  0.00     0.211 HD
ENDBRANCH  18  25
BRANCH  20  27
ATOM     27  O   UNL     1     161.262 175.296 161.460  1.00  0.00    -0.387 OA
ATOM     28  H   UNL     1     161.007 176.048 160.865  1.00  0.00     0.211 HD
ENDBRANCH  20  27
BRANCH  21  29
ATOM     29  C   UNL     1     159.679 177.598 161.817  1.00  0.00     0.191 C 
BRANCH  29  30
ATOM     30  O   UNL     1     160.225 177.874 160.555  1.00  0.00    -0.394 OA
ATOM     31  H   UNL     1     160.188 178.859 160.438  1.00  0.00     0.210 HD
ENDBRANCH  29  30
ENDBRANCH  21  29
ENDBRANCH   1  17
TORSDOF 13
ENDMDL
MODEL 8
REMARK VINA RESULT:    -3.653      3.011      5.686
REMARK INTER + INTRA:          -7.206
REMARK INTER:                  -5.752
REMARK INTRA:                  -1.454
REMARK UNBOUND:                -1.630
REMARK SMILES OC[C@@H]1O[C@@](CO)(O[C@@H]2O[C@H](CO)[C@@H](O)[C@@H](O)[C@H]2O)[C@H](O)[C@@H]1O
REMARK SMILES IDX 8 1 9 2 11 3 14 4 10 5 16 6 18 7 12 8 13 9 15 11 17 13 19 15
REMARK SMILES IDX 5 17 20 18 4 19 22 20 3 21 6 22 7 23 21 25 23 27 2 29 1 30
REMARK H PARENT 13 10 15 12 17 14 19 16 7 24 21 26 23 28 1 31
REMARK Flexibility Score: inf
ROOT
ATOM      1  O   UNL     1     169.653 168.317 161.722  1.00  0.00    -0.313 OA
ENDROOT
BRANCH   1   2
ATOM      2  C   UNL     1     170.826 167.553 161.454  1.00  0.00     0.285 C 
ATOM      3  C   UNL     1     170.348 167.228 159.121  1.00  0.00     0.178 C 
ATOM      4  C   UNL     1     170.052 165.716 159.309  1.00  0.00     0.177 C 
ATOM      5  O   UNL     1     171.229 167.772 160.107  1.00  0.00    -0.341 OA
ATOM      6  C   UNL     1     169.683 165.402 160.769  1.00  0.00     0.179 C 
ATOM      7  C   UNL     1     170.685 166.033 161.749  1.00  0.00     0.202 C 
BRANCH   3   8
ATOM      8  C   UNL     1     169.069 168.066 158.912  1.00  0.00     0.191 C 
BRANCH   8   9
ATOM      9  O   UNL     1     168.068 167.292 158.307  1.00  0.00    -0.394 OA
ATOM     10  H   UNL     1     167.200 167.721 158.522  1.00  0.00     0.210 HD
ENDBRANCH   8   9
ENDBRANCH   3   8
BRANCH   4  11
ATOM     11  O   UNL     1     171.169 164.957 158.916  1.00  0.00    -0.387 OA
ATOM     12  H   UNL     1     171.281 164.239 159.591  1.00  0.00     0.211 HD
ENDBRANCH   4  11
BRANCH   6  13
ATOM     13  O   UNL     1     169.538 164.019 160.987  1.00  0.00    -0.387 OA
ATOM     14  H   UNL     1     168.783 163.695 160.431  1.00  0.00     0.211 HD
ENDBRANCH   6  13
BRANCH   7  15
ATOM     15  O   UNL     1     171.935 165.383 161.706  1.00  0.00    -0.385 OA
ATOM     16  H   UNL     1     172.043 164.950 160.821  1.00  0.00     0.211 HD
ENDBRANCH   7  15
ENDBRANCH   1   2
BRANCH   1  17
ATOM     17  C   UNL     1     169.786 169.522 162.481  1.00  0.00     0.224 C 
ATOM     18  C   UNL     1     169.740 170.688 161.452  1.00  0.00     0.208 C 
ATOM     19  O   UNL     1     168.663 169.666 163.333  1.00  0.00    -0.337 OA
ATOM     20  C   UNL     1     168.667 171.608 161.986  1.00  0.00     0.180 C 
ATOM     21  C   UNL     1     167.806 170.624 162.762  1.00  0.00     0.179 C 
BRANCH  17  22
ATOM     22  C   UNL     1     171.075 169.583 163.355  1.00  0.00     0.225 C 
BRANCH  22  23
ATOM     23  O   UNL     1     171.027 170.680 164.227  1.00  0.00    -0.391 OA
ATOM     24  H   UNL     1     171.645 170.467 164.975  1.00  0.00     0.210 HD
ENDBRANCH  22  23
ENDBRANCH  17  22
BRANCH  18  25
ATOM     25  O   UNL     1     170.974 171.345 161.287  1.00  0.00    -0.385 OA
ATOM     26  H   UNL     1     170.813 172.305 161.483  1.00  0.00     0.211 HD
ENDBRANCH  18  25
BRANCH  20  27
ATOM     27  O   UNL     1     169.231 172.579 162.834  1.00  0.00    -0.387 OA
ATOM     28  H   UNL     1     169.930 172.121 163.370  1.00  0.00     0.211 HD
ENDBRANCH  20  27
BRANCH  21  29
ATOM     29  C   UNL     1     166.946 171.284 163.850  1.00  0.00     0.191 C 
BRANCH  29  30
ATOM     30  O   UNL     1     166.295 172.415 163.336  1.00  0.00    -0.394 OA
ATOM     31  H   UNL     1     165.877 172.138 162.480  1.00  0.00     0.210 HD
ENDBRANCH  29  30
ENDBRANCH  21  29
ENDBRANCH   1  17
TORSDOF 13
ENDMDL
MODEL 9
REMARK VINA RESULT:    -3.579      1.725      2.901
REMARK INTER + INTRA:          -7.092
REMARK INTER:                  -5.196
REMARK INTRA:                  -1.896
REMARK UNBOUND:                -1.630
REMARK SMILES OC[C@@H]1O[C@@](CO)(O[C@@H]2O[C@H](CO)[C@@H](O)[C@@H](O)[C@H]2O)[C@H](O)[C@@H]1O
REMARK SMILES IDX 8 1 9 2 11 3 14 4 10 5 16 6 18 7 12 8 13 9 15 11 17 13 19 15
REMARK SMILES IDX 5 17 20 18 4 19 22 20 3 21 6 22 7 23 21 25 23 27 2 29 1 30
REMARK H PARENT 13 10 15 12 17 14 19 16 7 24 21 26 23 28 1 31
REMARK Flexibility Score: inf
ROOT
ATOM      1  O   UNL     1     168.879 171.273 162.193  1.00  0.00    -0.313 OA
ENDROOT
BRANCH   1   2
ATOM      2  C   UNL     1     167.648 170.641 161.856  1.00  0.00     0.285 C 
ATOM      3  C   UNL     1     167.285 171.922 159.855  1.00  0.00     0.178 C 
ATOM      4  C   UNL     1     166.096 172.705 160.475  1.00  0.00     0.177 C 
ATOM      5  O   UNL     1     167.498 170.636 160.441  1.00  0.00    -0.341 OA
ATOM      6  C   UNL     1     166.161 172.682 162.012  1.00  0.00     0.179 C 
ATOM      7  C   UNL     1     166.397 171.259 162.541  1.00  0.00     0.202 C 
BRANCH   3   8
ATOM      8  C   UNL     1     168.570 172.770 159.751  1.00  0.00     0.191 C 
BRANCH   8   9
ATOM      9  O   UNL     1     169.672 171.957 159.446  1.00  0.00    -0.394 OA
ATOM     10  H   UNL     1     169.658 171.806 158.466  1.00  0.00     0.210 HD
ENDBRANCH   8   9
ENDBRANCH   3   8
BRANCH   4  11
ATOM     11  O   UNL     1     164.879 172.158 160.031  1.00  0.00    -0.387 OA
ATOM     12  H   UNL     1     164.243 172.217 160.790  1.00  0.00     0.211 HD
ENDBRANCH   4  11
BRANCH   6  13
ATOM     13  O   UNL     1     165.024 173.274 162.592  1.00  0.00    -0.387 OA
ATOM     14  H   UNL     1     165.047 173.100 163.569  1.00  0.00     0.211 HD
ENDBRANCH   6  13
BRANCH   7  15
ATOM     15  O   UNL     1     165.260 170.443 162.369  1.00  0.00    -0.385 OA
ATOM     16  H   UNL     1     165.404 169.585 162.845  1.00  0.00     0.211 HD
ENDBRANCH   7  15
ENDBRANCH   1   2
BRANCH   1  17
ATOM     17  C   UNL     1     169.931 170.468 162.734  1.00  0.00     0.224 C 
ATOM     18  C   UNL     1     169.376 169.016 162.792  1.00  0.00     0.208 C 
ATOM     19  O   UNL     1     171.028 170.466 161.837  1.00  0.00    -0.337 OA
ATOM     20  C   UNL     1     170.421 168.194 162.074  1.00  0.00     0.180 C 
ATOM     21  C   UNL     1     171.022 169.241 161.148  1.00  0.00     0.179 C 
BRANCH  17  22
ATOM     22  C   UNL     1     170.439 170.941 164.129  1.00  0.00     0.225 C 
BRANCH  22  23
ATOM     23  O   UNL     1     171.610 170.257 164.485  1.00  0.00    -0.391 OA
ATOM     24  H   UNL     1     171.653 170.277 165.476  1.00  0.00     0.210 HD
ENDBRANCH  22  23
ENDBRANCH  17  22
BRANCH  18  25
ATOM     25  O   UNL     1     169.139 168.553 164.100  1.00  0.00    -0.385 OA
ATOM     26  H   UNL     1     169.900 167.961 164.334  1.00  0.00     0.211 HD
ENDBRANCH  18  25
BRANCH  20  27
ATOM     27  O   UNL     1     171.374 167.706 162.986  1.00  0.00    -0.387 OA
ATOM     28  H   UNL     1     171.003 167.853 163.895  1.00  0.00     0.211 HD
ENDBRANCH  20  27
BRANCH  21  29
ATOM     29  C   UNL     1     172.439 168.895 160.665  1.00  0.00     0.191 C 
BRANCH  29  30
ATOM     30  O   UNL     1     173.382 169.215 161.653  1.00  0.00    -0.394 OA
ATOM     31  H   UNL     1     173.432 170.206 161.687  1.00  0.00     0.210 HD
ENDBRANCH  29  30
ENDBRANCH  21  29
ENDBRANCH   1  17
TORSDOF 13
ENDMDL
