MODEL 1
REMARK VINA RESULT:    -6.160      0.000      0.000
REMARK INTER + INTRA:          -7.641
REMARK INTER:                  -7.421
REMARK INTRA:                  -0.220
REMARK UNBOUND:                -0.220
REMARK SMILES Oc1cc(O)c2c(c1)O[C@H](c1ccc(O)c(O)c1)[C@@H](O)C2
REMARK SMILES IDX 21 1 19 2 10 3 9 4 7 5 8 6 2 7 3 8 4 9 6 10 20 11 11 13
REMARK SMILES IDX 18 14 12 15 16 16 13 17 14 18 17 19 15 21 5 23 1 25
REMARK H PARENT 20 12 17 20 15 22 5 24 1 26
REMARK Flexibility Score: inf
ROOT
ATOM      1  C   UNL     1     -10.741 -18.470   1.676  1.00  0.00     0.079 C 
ATOM      2  C   UNL     1      -9.865 -19.732   1.795  1.00  0.00     0.164 C 
ATOM      3  C   UNL     1      -9.990 -20.591   0.520  1.00  0.00     0.232 C 
ATOM      4  O   UNL     1     -11.362 -20.915   0.293  1.00  0.00    -0.482 OA
ATOM      5  C   UNL     1     -12.396 -20.004   0.530  1.00  0.00     0.131 A 
ATOM      6  C   UNL     1     -13.689 -20.320   0.107  1.00  0.00     0.093 A 
ATOM      7  C   UNL     1     -14.740 -19.426   0.315  1.00  0.00     0.122 A 
ATOM      8  C   UNL     1     -14.495 -18.200   0.943  1.00  0.00     0.092 A 
ATOM      9  C   UNL     1     -13.206 -17.864   1.373  1.00  0.00     0.126 A 
ATOM     10  C   UNL     1     -12.146 -18.786   1.203  1.00  0.00     0.039 A 
ENDROOT
BRANCH   2  11
ATOM     11  O   UNL     1      -8.527 -19.383   2.050  1.00  0.00    -0.389 OA
ATOM     12  H   UNL     1      -7.990 -20.219   2.035  1.00  0.00     0.211 HD
ENDBRANCH   2  11
BRANCH   3  13
ATOM     13  C   UNL     1      -9.180 -21.861   0.636  1.00  0.00    -0.001 A 
ATOM     14  C   UNL     1      -7.847 -21.892   0.193  1.00  0.00     0.057 A 
ATOM     15  C   UNL     1      -9.730 -23.007   1.235  1.00  0.00     0.012 A 
ATOM     16  C   UNL     1      -7.081 -23.059   0.326  1.00  0.00     0.157 A 
ATOM     17  C   UNL     1      -8.968 -24.170   1.365  1.00  0.00     0.050 A 
ATOM     18  C   UNL     1      -7.642 -24.201   0.911  1.00  0.00     0.157 A 
BRANCH  16  19
ATOM     19  O   UNL     1      -5.761 -23.091  -0.121  1.00  0.00    -0.504 OA
ATOM     20  H   UNL     1      -5.255 -22.240  -0.340  1.00  0.00     0.293 HD
ENDBRANCH  16  19
BRANCH  18  21
ATOM     21  O   UNL     1      -6.879 -25.359   1.039  1.00  0.00    -0.504 OA
ATOM     22  H   UNL     1      -7.234 -26.263   0.750  1.00  0.00     0.293 HD
ENDBRANCH  18  21
ENDBRANCH   3  13
BRANCH   9  23
ATOM     23  O   UNL     1     -13.014 -16.607   1.952  1.00  0.00    -0.507 OA
ATOM     24  H   UNL     1     -13.763 -16.062   2.357  1.00  0.00     0.293 HD
ENDBRANCH   9  23
BRANCH   7  25
ATOM     25  O   UNL     1     -16.023 -19.762  -0.112  1.00  0.00    -0.508 OA
ATOM     26  H   UNL     1     -16.193 -20.119  -1.044  1.00  0.00     0.293 HD
ENDBRANCH   7  25
TORSDOF 6
ENDMDL
MODEL 2
REMARK VINA RESULT:    -6.076      3.549      7.186
REMARK INTER + INTRA:          -7.540
REMARK INTER:                  -7.190
REMARK INTRA:                  -0.350
REMARK UNBOUND:                -0.220
REMARK SMILES Oc1cc(O)c2c(c1)O[C@H](c1ccc(O)c(O)c1)[C@@H](O)C2
REMARK SMILES IDX 21 1 19 2 10 3 9 4 7 5 8 6 2 7 3 8 4 9 6 10 20 11 11 13
REMARK SMILES IDX 18 14 12 15 16 16 13 17 14 18 17 19 15 21 5 23 1 25
REMARK H PARENT 20 12 17 20 15 22 5 24 1 26
REMARK Flexibility Score: inf
ROOT
ATOM      1  C   UNL     1     -10.405 -15.718   1.927  1.00  0.00     0.079 C 
ATOM      2  C   UNL     1     -11.662 -16.375   1.324  1.00  0.00     0.164 C 
ATOM      3  C   UNL     1     -12.225 -17.436   2.290  1.00  0.00     0.232 C 
ATOM      4  O   UNL     1     -11.214 -18.398   2.589  1.00  0.00    -0.482 OA
ATOM      5  C   UNL     1      -9.873 -18.043   2.772  1.00  0.00     0.131 A 
ATOM      6  C   UNL     1      -8.977 -19.002   3.248  1.00  0.00     0.093 A 
ATOM      7  C   UNL     1      -7.636 -18.676   3.455  1.00  0.00     0.122 A 
ATOM      8  C   UNL     1      -7.189 -17.376   3.194  1.00  0.00     0.092 A 
ATOM      9  C   UNL     1      -8.072 -16.400   2.718  1.00  0.00     0.126 A 
ATOM     10  C   UNL     1      -9.423 -16.739   2.465  1.00  0.00     0.039 A 
ENDROOT
BRANCH   2  11
ATOM     11  O   UNL     1     -12.626 -15.401   1.009  1.00  0.00    -0.389 OA
ATOM     12  H   UNL     1     -13.222 -15.302   1.798  1.00  0.00     0.211 HD
ENDBRANCH   2  11
BRANCH   3  13
ATOM     13  C   UNL     1     -13.428 -18.131   1.695  1.00  0.00    -0.001 A 
ATOM     14  C   UNL     1     -14.656 -18.126   2.379  1.00  0.00     0.057 A 
ATOM     15  C   UNL     1     -13.348 -18.742   0.433  1.00  0.00     0.012 A 
ATOM     16  C   UNL     1     -15.784 -18.744   1.818  1.00  0.00     0.157 A 
ATOM     17  C   UNL     1     -14.471 -19.359  -0.125  1.00  0.00     0.050 A 
ATOM     18  C   UNL     1     -15.691 -19.363   0.565  1.00  0.00     0.157 A 
BRANCH  16  19
ATOM     19  O   UNL     1     -16.999 -18.745   2.500  1.00  0.00    -0.504 OA
ATOM     20  H   UNL     1     -17.864 -19.008   2.041  1.00  0.00     0.293 HD
ENDBRANCH  16  19
BRANCH  18  21
ATOM     21  O   UNL     1     -16.812 -19.977   0.013  1.00  0.00    -0.504 OA
ATOM     22  H   UNL     1     -16.735 -20.618  -0.769  1.00  0.00     0.293 HD
ENDBRANCH  18  21
ENDBRANCH   3  13
BRANCH   9  23
ATOM     23  O   UNL     1      -7.578 -15.109   2.519  1.00  0.00    -0.507 OA
ATOM     24  H   UNL     1      -7.346 -14.737   1.608  1.00  0.00     0.293 HD
ENDBRANCH   9  23
BRANCH   7  25
ATOM     25  O   UNL     1      -6.757 -19.648   3.929  1.00  0.00    -0.508 OA
ATOM     26  H   UNL     1      -7.093 -20.515   4.329  1.00  0.00     0.293 HD
ENDBRANCH   7  25
TORSDOF 6
ENDMDL
MODEL 3
REMARK VINA RESULT:    -5.700      2.564      7.237
REMARK INTER + INTRA:          -7.087
REMARK INTER:                  -6.792
REMARK INTRA:                  -0.295
REMARK UNBOUND:                -0.220
REMARK SMILES Oc1cc(O)c2c(c1)O[C@H](c1ccc(O)c(O)c1)[C@@H](O)C2
REMARK SMILES IDX 21 1 19 2 10 3 9 4 7 5 8 6 2 7 3 8 4 9 6 10 20 11 11 13
REMARK SMILES IDX 18 14 12 15 16 16 13 17 14 18 17 19 15 21 5 23 1 25
REMARK H PARENT 20 12 17 20 15 22 5 24 1 26
REMARK Flexibility Score: inf
ROOT
ATOM      1  C   UNL     1      -9.753 -20.183   0.890  1.00  0.00     0.079 C 
ATOM      2  C   UNL     1     -11.292 -20.117   0.909  1.00  0.00     0.164 C 
ATOM      3  C   UNL     1     -11.766 -18.661   0.732  1.00  0.00     0.232 C 
ATOM      4  O   UNL     1     -11.187 -17.841   1.747  1.00  0.00    -0.482 OA
ATOM      5  C   UNL     1      -9.872 -18.015   2.190  1.00  0.00     0.131 A 
ATOM      6  C   UNL     1      -9.312 -17.062   3.043  1.00  0.00     0.093 A 
ATOM      7  C   UNL     1      -7.997 -17.198   3.491  1.00  0.00     0.122 A 
ATOM      8  C   UNL     1      -7.231 -18.293   3.075  1.00  0.00     0.092 A 
ATOM      9  C   UNL     1      -7.774 -19.259   2.219  1.00  0.00     0.126 A 
ATOM     10  C   UNL     1      -9.120 -19.147   1.797  1.00  0.00     0.039 A 
ENDROOT
BRANCH   2  11
ATOM     11  O   UNL     1     -11.835 -20.959  -0.079  1.00  0.00    -0.389 OA
ATOM     12  H   UNL     1     -11.530 -21.884   0.113  1.00  0.00     0.211 HD
ENDBRANCH   2  11
BRANCH   3  13
ATOM     13  C   UNL     1     -13.273 -18.566   0.800  1.00  0.00    -0.001 A 
ATOM     14  C   UNL     1     -13.978 -19.237   1.813  1.00  0.00     0.057 A 
ATOM     15  C   UNL     1     -13.980 -17.767  -0.115  1.00  0.00     0.012 A 
ATOM     16  C   UNL     1     -15.374 -19.127   1.899  1.00  0.00     0.157 A 
ATOM     17  C   UNL     1     -15.370 -17.659  -0.031  1.00  0.00     0.050 A 
ATOM     18  C   UNL     1     -16.072 -18.339   0.975  1.00  0.00     0.157 A 
BRANCH  16  19
ATOM     19  O   UNL     1     -16.074 -19.799   2.900  1.00  0.00    -0.504 OA
ATOM     20  H   UNL     1     -16.157 -19.418   3.835  1.00  0.00     0.293 HD
ENDBRANCH  16  19
BRANCH  18  21
ATOM     21  O   UNL     1     -17.458 -18.235   1.061  1.00  0.00    -0.504 OA
ATOM     22  H   UNL     1     -17.904 -17.646   1.754  1.00  0.00     0.293 HD
ENDBRANCH  18  21
ENDBRANCH   3  13
BRANCH   9  23
ATOM     23  O   UNL     1      -6.947 -20.304   1.801  1.00  0.00    -0.507 OA
ATOM     24  H   UNL     1      -7.130 -21.276   2.013  1.00  0.00     0.293 HD
ENDBRANCH   9  23
BRANCH   7  25
ATOM     25  O   UNL     1      -7.458 -16.237   4.344  1.00  0.00    -0.508 OA
ATOM     26  H   UNL     1      -7.982 -15.412   4.609  1.00  0.00     0.293 HD
ENDBRANCH   7  25
TORSDOF 6
ENDMDL
MODEL 4
REMARK VINA RESULT:    -5.553      1.547      6.907
REMARK INTER + INTRA:          -6.909
REMARK INTER:                  -6.600
REMARK INTRA:                  -0.309
REMARK UNBOUND:                -0.220
REMARK SMILES Oc1cc(O)c2c(c1)O[C@H](c1ccc(O)c(O)c1)[C@@H](O)C2
REMARK SMILES IDX 21 1 19 2 10 3 9 4 7 5 8 6 2 7 3 8 4 9 6 10 20 11 11 13
REMARK SMILES IDX 18 14 12 15 16 16 13 17 14 18 17 19 15 21 5 23 1 25
REMARK H PARENT 20 12 17 20 15 22 5 24 1 26
REMARK Flexibility Score: inf
ROOT
ATOM      1  C   UNL     1      -9.294 -18.317   0.693  1.00  0.00     0.079 C 
ATOM      2  C   UNL     1     -10.825 -18.219   0.553  1.00  0.00     0.164 C 
ATOM      3  C   UNL     1     -11.511 -19.277   1.440  1.00  0.00     0.232 C 
ATOM      4  O   UNL     1     -11.028 -20.576   1.099  1.00  0.00    -0.482 OA
ATOM      5  C   UNL     1      -9.689 -20.815   0.772  1.00  0.00     0.131 A 
ATOM      6  C   UNL     1      -9.250 -22.134   0.635  1.00  0.00     0.093 A 
ATOM      7  C   UNL     1      -7.916 -22.406   0.325  1.00  0.00     0.122 A 
ATOM      8  C   UNL     1      -7.012 -21.351   0.158  1.00  0.00     0.092 A 
ATOM      9  C   UNL     1      -7.433 -20.023   0.292  1.00  0.00     0.126 A 
ATOM     10  C   UNL     1      -8.793 -19.742   0.564  1.00  0.00     0.039 A 
ENDROOT
BRANCH   2  11
ATOM     11  O   UNL     1     -11.268 -16.921   0.864  1.00  0.00    -0.389 OA
ATOM     12  H   UNL     1     -10.596 -16.511   1.470  1.00  0.00     0.211 HD
ENDBRANCH   2  11
BRANCH   3  13
ATOM     13  C   UNL     1     -13.013 -19.234   1.279  1.00  0.00    -0.001 A 
ATOM     14  C   UNL     1     -13.809 -18.588   2.240  1.00  0.00     0.057 A 
ATOM     15  C   UNL     1     -13.625 -19.792   0.144  1.00  0.00     0.012 A 
ATOM     16  C   UNL     1     -15.200 -18.519   2.080  1.00  0.00     0.157 A 
ATOM     17  C   UNL     1     -15.012 -19.725  -0.015  1.00  0.00     0.050 A 
ATOM     18  C   UNL     1     -15.804 -19.090   0.952  1.00  0.00     0.157 A 
BRANCH  16  19
ATOM     19  O   UNL     1     -15.990 -17.884   3.037  1.00  0.00    -0.504 OA
ATOM     20  H   UNL     1     -15.616 -17.619   3.941  1.00  0.00     0.293 HD
ENDBRANCH  16  19
BRANCH  18  21
ATOM     21  O   UNL     1     -17.186 -19.022   0.798  1.00  0.00    -0.504 OA
ATOM     22  H   UNL     1     -17.716 -19.795   0.414  1.00  0.00     0.293 HD
ENDBRANCH  18  21
ENDBRANCH   3  13
BRANCH   9  23
ATOM     23  O   UNL     1      -6.476 -19.015   0.160  1.00  0.00    -0.507 OA
ATOM     24  H   UNL     1      -5.480 -19.185   0.207  1.00  0.00     0.293 HD
ENDBRANCH   9  23
BRANCH   7  25
ATOM     25  O   UNL     1      -7.498 -23.729   0.191  1.00  0.00    -0.508 OA
ATOM     26  H   UNL     1      -7.033 -24.054  -0.648  1.00  0.00     0.293 HD
ENDBRANCH   7  25
TORSDOF 6
ENDMDL
MODEL 5
REMARK VINA RESULT:    -5.383      3.500      7.264
REMARK INTER + INTRA:          -6.705
REMARK INTER:                  -6.487
REMARK INTRA:                  -0.218
REMARK UNBOUND:                -0.220
REMARK SMILES Oc1cc(O)c2c(c1)O[C@H](c1ccc(O)c(O)c1)[C@@H](O)C2
REMARK SMILES IDX 21 1 19 2 10 3 9 4 7 5 8 6 2 7 3 8 4 9 6 10 20 11 11 13
REMARK SMILES IDX 18 14 12 15 16 16 13 17 14 18 17 19 15 21 5 23 1 25
REMARK H PARENT 20 12 17 20 15 22 5 24 1 26
REMARK Flexibility Score: inf
ROOT
ATOM      1  C   UNL     1      -9.683 -18.607   1.324  1.00  0.00     0.079 C 
ATOM      2  C   UNL     1     -11.180 -18.968   1.376  1.00  0.00     0.164 C 
ATOM      3  C   UNL     1     -12.027 -17.819   0.794  1.00  0.00     0.232 C 
ATOM      4  O   UNL     1     -11.746 -16.610   1.502  1.00  0.00    -0.482 OA
ATOM      5  C   UNL     1     -10.457 -16.276   1.929  1.00  0.00     0.131 A 
ATOM      6  C   UNL     1     -10.225 -14.998   2.443  1.00  0.00     0.093 A 
ATOM      7  C   UNL     1      -8.947 -14.627   2.865  1.00  0.00     0.122 A 
ATOM      8  C   UNL     1      -7.890 -15.539   2.763  1.00  0.00     0.092 A 
ATOM      9  C   UNL     1      -8.103 -16.824   2.250  1.00  0.00     0.126 A 
ATOM     10  C   UNL     1      -9.406 -17.217   1.862  1.00  0.00     0.039 A 
ENDROOT
BRANCH   2  11
ATOM     11  O   UNL     1     -11.421 -20.178   0.700  1.00  0.00    -0.389 OA
ATOM     12  H   UNL     1     -12.396 -20.233   0.521  1.00  0.00     0.211 HD
ENDBRANCH   2  11
BRANCH   3  13
ATOM     13  C   UNL     1     -13.503 -18.129   0.884  1.00  0.00    -0.001 A 
ATOM     14  C   UNL     1     -14.017 -18.801   2.006  1.00  0.00     0.057 A 
ATOM     15  C   UNL     1     -14.385 -17.706  -0.125  1.00  0.00     0.012 A 
ATOM     16  C   UNL     1     -15.391 -19.065   2.109  1.00  0.00     0.157 A 
ATOM     17  C   UNL     1     -15.752 -17.970  -0.024  1.00  0.00     0.050 A 
ATOM     18  C   UNL     1     -16.260 -18.651   1.092  1.00  0.00     0.157 A 
BRANCH  16  19
ATOM     19  O   UNL     1     -15.899 -19.738   3.219  1.00  0.00    -0.504 OA
ATOM     20  H   UNL     1     -16.134 -20.723   3.179  1.00  0.00     0.293 HD
ENDBRANCH  16  19
BRANCH  18  21
ATOM     21  O   UNL     1     -17.623 -18.918   1.195  1.00  0.00    -0.504 OA
ATOM     22  H   UNL     1     -17.974 -19.865   1.272  1.00  0.00     0.293 HD
ENDBRANCH  18  21
ENDBRANCH   3  13
BRANCH   9  23
ATOM     23  O   UNL     1      -7.001 -17.673   2.130  1.00  0.00    -0.507 OA
ATOM     24  H   UNL     1      -7.080 -18.679   2.059  1.00  0.00     0.293 HD
ENDBRANCH   9  23
BRANCH   7  25
ATOM     25  O   UNL     1      -8.736 -13.349   3.376  1.00  0.00    -0.508 OA
ATOM     26  H   UNL     1      -7.816 -12.924   3.377  1.00  0.00     0.293 HD
ENDBRANCH   7  25
TORSDOF 6
ENDMDL
MODEL 6
REMARK VINA RESULT:    -5.352      1.864      2.830
REMARK INTER + INTRA:          -6.667
REMARK INTER:                  -6.315
REMARK INTRA:                  -0.352
REMARK UNBOUND:                -0.220
REMARK SMILES Oc1cc(O)c2c(c1)O[C@H](c1ccc(O)c(O)c1)[C@@H](O)C2
REMARK SMILES IDX 21 1 19 2 10 3 9 4 7 5 8 6 2 7 3 8 4 9 6 10 20 11 11 13
REMARK SMILES IDX 18 14 12 15 16 16 13 17 14 18 17 19 15 21 5 23 1 25
REMARK H PARENT 20 12 17 20 15 22 5 24 1 26
REMARK Flexibility Score: inf
ROOT
ATOM      1  C   UNL     1     -12.951 -17.665   2.698  1.00  0.00     0.079 C 
ATOM      2  C   UNL     1     -11.602 -18.370   2.457  1.00  0.00     0.164 C 
ATOM      3  C   UNL     1     -11.396 -18.630   0.952  1.00  0.00     0.232 C 
ATOM      4  O   UNL     1     -12.491 -19.390   0.442  1.00  0.00    -0.482 OA
ATOM      5  C   UNL     1     -13.809 -19.177   0.860  1.00  0.00     0.131 A 
ATOM      6  C   UNL     1     -14.847 -19.823   0.184  1.00  0.00     0.093 A 
ATOM      7  C   UNL     1     -16.174 -19.620   0.566  1.00  0.00     0.122 A 
ATOM      8  C   UNL     1     -16.467 -18.757   1.628  1.00  0.00     0.092 A 
ATOM      9  C   UNL     1     -15.441 -18.101   2.318  1.00  0.00     0.126 A 
ATOM     10  C   UNL     1     -14.092 -18.337   1.961  1.00  0.00     0.039 A 
ENDROOT
BRANCH   2  11
ATOM     11  O   UNL     1     -10.546 -17.614   2.998  1.00  0.00    -0.389 OA
ATOM     12  H   UNL     1     -10.492 -16.764   2.487  1.00  0.00     0.211 HD
ENDBRANCH   2  11
BRANCH   3  13
ATOM     13  C   UNL     1     -10.102 -19.368   0.698  1.00  0.00    -0.001 A 
ATOM     14  C   UNL     1     -10.007 -20.742   0.975  1.00  0.00     0.057 A 
ATOM     15  C   UNL     1      -8.999 -18.703   0.135  1.00  0.00     0.012 A 
ATOM     16  C   UNL     1      -8.818 -21.439   0.712  1.00  0.00     0.157 A 
ATOM     17  C   UNL     1      -7.815 -19.397  -0.125  1.00  0.00     0.050 A 
ATOM     18  C   UNL     1      -7.719 -20.765   0.164  1.00  0.00     0.157 A 
BRANCH  16  19
ATOM     19  O   UNL     1      -8.722 -22.800   0.994  1.00  0.00    -0.504 OA
ATOM     20  H   UNL     1      -8.030 -23.160   1.642  1.00  0.00     0.293 HD
ENDBRANCH  16  19
BRANCH  18  21
ATOM     21  O   UNL     1      -6.540 -21.460  -0.093  1.00  0.00    -0.504 OA
ATOM     22  H   UNL     1      -6.524 -22.277  -0.691  1.00  0.00     0.293 HD
ENDBRANCH  18  21
ENDBRANCH   3  13
BRANCH   9  23
ATOM     23  O   UNL     1     -15.797 -17.217   3.338  1.00  0.00    -0.507 OA
ATOM     24  H   UNL     1     -16.326 -17.495   4.155  1.00  0.00     0.293 HD
ENDBRANCH   9  23
BRANCH   7  25
ATOM     25  O   UNL     1     -17.195 -20.274  -0.120  1.00  0.00    -0.508 OA
ATOM     26  H   UNL     1     -17.378 -20.089  -1.099  1.00  0.00     0.293 HD
ENDBRANCH   7  25
TORSDOF 6
ENDMDL
MODEL 7
REMARK VINA RESULT:    -5.230     13.699     16.520
REMARK INTER + INTRA:          -6.521
REMARK INTER:                  -6.786
REMARK INTRA:                   0.266
REMARK UNBOUND:                -0.220
REMARK SMILES Oc1cc(O)c2c(c1)O[C@H](c1ccc(O)c(O)c1)[C@@H](O)C2
REMARK SMILES IDX 21 1 19 2 10 3 9 4 7 5 8 6 2 7 3 8 4 9 6 10 20 11 11 13
REMARK SMILES IDX 18 14 12 15 16 16 13 17 14 18 17 19 15 21 5 23 1 25
REMARK H PARENT 20 12 17 20 15 22 5 24 1 26
REMARK Flexibility Score: inf
ROOT
ATOM      1  C   UNL     1     -23.855 -22.641   6.129  1.00  0.00     0.079 C 
ATOM      2  C   UNL     1     -23.897 -22.624   7.669  1.00  0.00     0.164 C 
ATOM      3  C   UNL     1     -25.092 -21.783   8.161  1.00  0.00     0.232 C 
ATOM      4  O   UNL     1     -25.008 -20.465   7.617  1.00  0.00    -0.482 OA
ATOM      5  C   UNL     1     -24.575 -20.222   6.309  1.00  0.00     0.131 A 
ATOM      6  C   UNL     1     -24.699 -18.934   5.784  1.00  0.00     0.093 A 
ATOM      7  C   UNL     1     -24.290 -18.661   4.477  1.00  0.00     0.122 A 
ATOM      8  C   UNL     1     -23.762 -19.686   3.686  1.00  0.00     0.092 A 
ATOM      9  C   UNL     1     -23.630 -20.984   4.194  1.00  0.00     0.126 A 
ATOM     10  C   UNL     1     -24.003 -21.255   5.532  1.00  0.00     0.039 A 
ENDROOT
BRANCH   2  11
ATOM     11  O   UNL     1     -23.946 -23.934   8.176  1.00  0.00    -0.389 OA
ATOM     12  H   UNL     1     -24.500 -23.917   9.001  1.00  0.00     0.211 HD
ENDBRANCH   2  11
BRANCH   3  13
ATOM     13  C   UNL     1     -25.122 -21.709   9.669  1.00  0.00    -0.001 A 
ATOM     14  C   UNL     1     -25.099 -22.887  10.435  1.00  0.00     0.057 A 
ATOM     15  C   UNL     1     -25.122 -20.466  10.324  1.00  0.00     0.012 A 
ATOM     16  C   UNL     1     -25.097 -22.824  11.836  1.00  0.00     0.157 A 
ATOM     17  C   UNL     1     -25.121 -20.402  11.719  1.00  0.00     0.050 A 
ATOM     18  C   UNL     1     -25.110 -21.580  12.480  1.00  0.00     0.157 A 
BRANCH  16  19
ATOM     19  O   UNL     1     -25.081 -23.993  12.595  1.00  0.00    -0.504 OA
ATOM     20  H   UNL     1     -24.221 -24.499  12.771  1.00  0.00     0.293 HD
ENDBRANCH  16  19
BRANCH  18  21
ATOM     21  O   UNL     1     -25.110 -21.521  13.872  1.00  0.00    -0.504 OA
ATOM     22  H   UNL     1     -25.821 -21.989  14.422  1.00  0.00     0.293 HD
ENDBRANCH  18  21
ENDBRANCH   3  13
BRANCH   9  23
ATOM     23  O   UNL     1     -23.139 -21.976   3.343  1.00  0.00    -0.507 OA
ATOM     24  H   UNL     1     -23.658 -22.809   3.102  1.00  0.00     0.293 HD
ENDBRANCH   9  23
BRANCH   7  25
ATOM     25  O   UNL     1     -24.421 -17.369   3.972  1.00  0.00    -0.508 OA
ATOM     26  H   UNL     1     -23.668 -16.696   4.040  1.00  0.00     0.293 HD
ENDBRANCH   7  25
TORSDOF 6
ENDMDL
MODEL 8
REMARK VINA RESULT:    -5.140     14.231     16.644
REMARK INTER + INTRA:          -6.411
REMARK INTER:                  -6.618
REMARK INTRA:                   0.207
REMARK UNBOUND:                -0.220
REMARK SMILES Oc1cc(O)c2c(c1)O[C@H](c1ccc(O)c(O)c1)[C@@H](O)C2
REMARK SMILES IDX 21 1 19 2 10 3 9 4 7 5 8 6 2 7 3 8 4 9 6 10 20 11 11 13
REMARK SMILES IDX 18 14 12 15 16 16 13 17 14 18 17 19 15 21 5 23 1 25
REMARK H PARENT 20 12 17 20 15 22 5 24 1 26
REMARK Flexibility Score: inf
ROOT
ATOM      1  C   UNL     1     -24.567 -24.030   8.269  1.00  0.00     0.079 C 
ATOM      2  C   UNL     1     -24.814 -23.133   7.041  1.00  0.00     0.164 C 
ATOM      3  C   UNL     1     -24.016 -21.820   7.170  1.00  0.00     0.232 C 
ATOM      4  O   UNL     1     -24.367 -21.163   8.388  1.00  0.00    -0.482 OA
ATOM      5  C   UNL     1     -24.603 -21.863   9.575  1.00  0.00     0.131 A 
ATOM      6  C   UNL     1     -24.754 -21.148  10.765  1.00  0.00     0.093 A 
ATOM      7  C   UNL     1     -24.976 -21.818  11.969  1.00  0.00     0.122 A 
ATOM      8  C   UNL     1     -25.040 -23.216  11.986  1.00  0.00     0.092 A 
ATOM      9  C   UNL     1     -24.891 -23.950  10.803  1.00  0.00     0.126 A 
ATOM     10  C   UNL     1     -24.709 -23.273   9.574  1.00  0.00     0.039 A 
ENDROOT
BRANCH   2  11
ATOM     11  O   UNL     1     -24.491 -23.817   5.856  1.00  0.00    -0.389 OA
ATOM     12  H   UNL     1     -25.156 -24.546   5.738  1.00  0.00     0.211 HD
ENDBRANCH   2  11
BRANCH   3  13
ATOM     13  C   UNL     1     -24.284 -20.902   6.001  1.00  0.00    -0.001 A 
ATOM     14  C   UNL     1     -24.015 -21.330   4.689  1.00  0.00     0.057 A 
ATOM     15  C   UNL     1     -24.852 -19.633   6.205  1.00  0.00     0.012 A 
ATOM     16  C   UNL     1     -24.290 -20.493   3.598  1.00  0.00     0.157 A 
ATOM     17  C   UNL     1     -25.125 -18.798   5.118  1.00  0.00     0.050 A 
ATOM     18  C   UNL     1     -24.844 -19.224   3.812  1.00  0.00     0.157 A 
BRANCH  16  19
ATOM     19  O   UNL     1     -24.016 -20.915   2.298  1.00  0.00    -0.504 OA
ATOM     20  H   UNL     1     -24.330 -20.387   1.492  1.00  0.00     0.293 HD
ENDBRANCH  16  19
BRANCH  18  21
ATOM     21  O   UNL     1     -25.114 -18.394   2.727  1.00  0.00    -0.504 OA
ATOM     22  H   UNL     1     -26.050 -18.056   2.536  1.00  0.00     0.293 HD
ENDBRANCH  18  21
ENDBRANCH   3  13
BRANCH   9  23
ATOM     23  O   UNL     1     -24.919 -25.344  10.889  1.00  0.00    -0.507 OA
ATOM     24  H   UNL     1     -24.853 -25.848  11.763  1.00  0.00     0.293 HD
ENDBRANCH   9  23
BRANCH   7  25
ATOM     25  O   UNL     1     -25.125 -21.086  13.146  1.00  0.00    -0.508 OA
ATOM     26  H   UNL     1     -24.439 -20.398  13.432  1.00  0.00     0.293 HD
ENDBRANCH   7  25
TORSDOF 6
ENDMDL
MODEL 9
REMARK VINA RESULT:    -4.796      1.489      3.411
REMARK INTER + INTRA:          -5.997
REMARK INTER:                  -5.921
REMARK INTRA:                  -0.076
REMARK UNBOUND:                -0.220
REMARK SMILES Oc1cc(O)c2c(c1)O[C@H](c1ccc(O)c(O)c1)[C@@H](O)C2
REMARK SMILES IDX 21 1 19 2 10 3 9 4 7 5 8 6 2 7 3 8 4 9 6 10 20 11 11 13
REMARK SMILES IDX 18 14 12 15 16 16 13 17 14 18 17 19 15 21 5 23 1 25
REMARK H PARENT 20 12 17 20 15 22 5 24 1 26
REMARK Flexibility Score: inf
ROOT
ATOM      1  C   UNL     1     -12.112 -19.448   0.735  1.00  0.00     0.079 C 
ATOM      2  C   UNL     1     -10.917 -20.329   0.321  1.00  0.00     0.164 C 
ATOM      3  C   UNL     1      -9.923 -20.465   1.491  1.00  0.00     0.232 C 
ATOM      4  O   UNL     1      -9.505 -19.168   1.918  1.00  0.00    -0.482 OA
ATOM      5  C   UNL     1     -10.381 -18.079   1.972  1.00  0.00     0.131 A 
ATOM      6  C   UNL     1      -9.953 -16.895   2.577  1.00  0.00     0.093 A 
ATOM      7  C   UNL     1     -10.808 -15.795   2.660  1.00  0.00     0.122 A 
ATOM      8  C   UNL     1     -12.105 -15.882   2.142  1.00  0.00     0.092 A 
ATOM      9  C   UNL     1     -12.553 -17.060   1.533  1.00  0.00     0.126 A 
ATOM     10  C   UNL     1     -11.675 -18.163   1.408  1.00  0.00     0.039 A 
ENDROOT
BRANCH   2  11
ATOM     11  O   UNL     1     -11.362 -21.587  -0.125  1.00  0.00    -0.389 OA
ATOM     12  H   UNL     1     -10.671 -22.255   0.123  1.00  0.00     0.211 HD
ENDBRANCH   2  11
BRANCH   3  13
ATOM     13  C   UNL     1      -8.717 -21.282   1.090  1.00  0.00    -0.001 A 
ATOM     14  C   UNL     1      -8.795 -22.684   1.053  1.00  0.00     0.057 A 
ATOM     15  C   UNL     1      -7.524 -20.650   0.701  1.00  0.00     0.012 A 
ATOM     16  C   UNL     1      -7.688 -23.447   0.653  1.00  0.00     0.157 A 
ATOM     17  C   UNL     1      -6.420 -21.409   0.305  1.00  0.00     0.050 A 
ATOM     18  C   UNL     1      -6.498 -22.809   0.280  1.00  0.00     0.157 A 
BRANCH  16  19
ATOM     19  O   UNL     1      -7.763 -24.838   0.623  1.00  0.00    -0.504 OA
ATOM     20  H   UNL     1      -8.113 -25.333  -0.190  1.00  0.00     0.293 HD
ENDBRANCH  16  19
BRANCH  18  21
ATOM     21  O   UNL     1      -5.399 -23.569  -0.114  1.00  0.00    -0.504 OA
ATOM     22  H   UNL     1      -5.188 -23.729  -1.092  1.00  0.00     0.293 HD
ENDBRANCH  18  21
ENDBRANCH   3  13
BRANCH   9  23
ATOM     23  O   UNL     1     -13.872 -17.103   1.077  1.00  0.00    -0.507 OA
ATOM     24  H   UNL     1     -14.480 -16.295   1.059  1.00  0.00     0.293 HD
ENDBRANCH   9  23
BRANCH   7  25
ATOM     25  O   UNL     1     -10.362 -14.622   3.266  1.00  0.00    -0.508 OA
ATOM     26  H   UNL     1     -10.991 -14.022   3.785  1.00  0.00     0.293 HD
ENDBRANCH   7  25
TORSDOF 6
ENDMDL
