MODEL 1
REMARK VINA RESULT:     7.653      0.000      0.000
REMARK INTER + INTRA:           8.660
REMARK INTER:                   8.324
REMARK INTRA:                   0.337
REMARK UNBOUND:                 0.337
REMARK SMILES CC1(C)CC[C@@]2(C(=O)[O-])CC[C@]3(C)C(=CC[C@H]4[C@@]5(C)CC[C@@H](O)C(C)(C)[C@@H]5CC[C@]43C)[C@@H]2C1
REMARK SMILES IDX 6 1 5 2 10 3 32 4 4 5 11 6 14 7 33 8 2 9 12 10 15 11 1 12
REMARK SMILES IDX 3 13 13 14 30 15 16 16 17 17 29 18 31 19 18 20 28 21 27 22
REMARK SMILES IDX 20 23 19 24 24 25 21 26 22 27 25 28 26 29 7 30 8 31 9 32
REMARK SMILES IDX 23 33
REMARK H PARENT 23 34
REMARK Flexibility Score: inf
ROOT
ATOM      1  C   UNL     1      95.748 112.089 110.217  1.00  0.00     0.017 C 
ATOM      2  C   UNL     1      95.196 112.851 108.982  1.00  0.00     0.014 C 
ATOM      3  C   UNL     1      97.284 111.865 110.095  1.00  0.00     0.014 C 
ATOM      4  C   UNL     1      95.541 113.038 111.435  1.00  0.00     0.028 C 
ATOM      5  C   UNL     1      93.691 113.176 109.151  1.00  0.00     0.007 C 
ATOM      6  C   UNL     1      97.997 111.329 111.387  1.00  0.00     0.013 C 
ATOM      7  C   UNL     1      96.423 112.766 112.664  1.00  0.00    -0.064 C 
ATOM      8  C   UNL     1      94.067 113.375 111.723  1.00  0.00     0.015 C 
ATOM      9  C   UNL     1      93.338 113.953 110.463  1.00  0.00    -0.035 C 
ATOM     10  C   UNL     1      97.244 111.472 112.774  1.00  0.00    -0.006 C 
ATOM     11  C   UNL     1      96.745 113.861 113.371  1.00  0.00    -0.027 C 
ATOM     12  C   UNL     1      93.686 115.451 110.282  1.00  0.00     0.011 C 
ATOM     13  C   UNL     1      91.817 113.856 110.699  1.00  0.00     0.011 C 
ATOM     14  C   UNL     1      96.259 110.260 112.934  1.00  0.00     0.017 C 
ATOM     15  C   UNL     1      98.275 111.470 114.036  1.00  0.00    -0.020 C 
ATOM     16  C   UNL     1      97.987 114.042 114.170  1.00  0.00     0.032 C 
ATOM     17  C   UNL     1      99.014 112.868 114.178  1.00  0.00     0.006 C 
ATOM     18  C   UNL     1      97.556 111.219 115.414  1.00  0.00     0.008 C 
ATOM     19  C   UNL     1      99.279 110.292 113.778  1.00  0.00     0.012 C 
ATOM     20  C   UNL     1     100.009 112.998 115.438  1.00  0.00    -0.025 C 
ATOM     21  C   UNL     1      98.478 111.290 116.651  1.00  0.00     0.005 C 
ATOM     22  C   UNL     1      99.222 112.639 116.762  1.00  0.00     0.003 C 
ATOM     23  C   UNL     1     100.543 114.467 115.587  1.00  0.00     0.010 C 
ATOM     24  C   UNL     1     101.263 112.093 115.195  1.00  0.00     0.012 C 
ATOM     25  C   UNL     1     100.005 112.874 118.119  1.00  0.00    -0.006 C 
ATOM     26  C   UNL     1     101.340 114.719 116.883  1.00  0.00     0.033 C 
ATOM     27  C   UNL     1     100.542 114.344 118.146  1.00  0.00     0.120 C 
ATOM     28  C   UNL     1      99.040 112.699 119.328  1.00  0.00     0.014 C 
ATOM     29  C   UNL     1     101.172 111.879 118.355  1.00  0.00     0.014 C 
ENDROOT
BRANCH   1  30
ATOM     30  C   UNL     1      95.026 110.741 110.220  1.00  0.00     0.048 C 
ATOM     31  O   UNL     1      95.368 109.847 109.393  1.00  0.00    -0.550 OA
ATOM     32  O   UNL     1      93.930 110.488 111.036  1.00  0.00    -0.550 OA
ENDBRANCH   1  30
BRANCH  27  33
ATOM     33  O   UNL     1      99.474 115.249 118.297  1.00  0.00    -0.393 OA
ATOM     34  H   UNL     1      98.759 114.776 118.796  1.00  0.00     0.210 HD
ENDBRANCH  27  33
TORSDOF 2
ENDMDL
MODEL 2
REMARK VINA RESULT:     8.102      0.164      0.164
REMARK INTER + INTRA:           9.150
REMARK INTER:                   8.581
REMARK INTRA:                   0.569
REMARK UNBOUND:                 0.337
REMARK SMILES CC1(C)CC[C@@]2(C(=O)[O-])CC[C@]3(C)C(=CC[C@H]4[C@@]5(C)CC[C@@H](O)C(C)(C)[C@@H]5CC[C@]43C)[C@@H]2C1
REMARK SMILES IDX 6 1 5 2 10 3 32 4 4 5 11 6 14 7 33 8 2 9 12 10 15 11 1 12
REMARK SMILES IDX 3 13 13 14 30 15 16 16 17 17 29 18 31 19 18 20 28 21 27 22
REMARK SMILES IDX 20 23 19 24 24 25 21 26 22 27 25 28 26 29 7 30 8 31 9 32
REMARK SMILES IDX 23 33
REMARK H PARENT 23 34
REMARK Flexibility Score: inf
ROOT
ATOM      1  C   UNL     1      95.839 112.052 110.121  1.00  0.00     0.017 C 
ATOM      2  C   UNL     1      95.305 112.812 108.876  1.00  0.00     0.014 C 
ATOM      3  C   UNL     1      97.382 111.866 110.043  1.00  0.00     0.014 C 
ATOM      4  C   UNL     1      95.573 112.985 111.340  1.00  0.00     0.028 C 
ATOM      5  C   UNL     1      93.789 113.099 109.003  1.00  0.00     0.007 C 
ATOM      6  C   UNL     1      98.069 111.335 111.351  1.00  0.00     0.013 C 
ATOM      7  C   UNL     1      96.425 112.722 112.593  1.00  0.00    -0.064 C 
ATOM      8  C   UNL     1      94.083 113.284 111.587  1.00  0.00     0.015 C 
ATOM      9  C   UNL     1      93.379 113.856 110.310  1.00  0.00    -0.035 C 
ATOM     10  C   UNL     1      97.272 111.448 112.716  1.00  0.00    -0.006 C 
ATOM     11  C   UNL     1      96.699 113.818 113.318  1.00  0.00    -0.027 C 
ATOM     12  C   UNL     1      93.696 115.363 110.152  1.00  0.00     0.011 C 
ATOM     13  C   UNL     1      91.854 113.721 110.500  1.00  0.00     0.011 C 
ATOM     14  C   UNL     1      96.312 110.211 112.836  1.00  0.00     0.017 C 
ATOM     15  C   UNL     1      98.265 111.458 114.008  1.00  0.00    -0.020 C 
ATOM     16  C   UNL     1      97.912 114.021 114.155  1.00  0.00     0.032 C 
ATOM     17  C   UNL     1      98.966 112.873 114.184  1.00  0.00     0.006 C 
ATOM     18  C   UNL     1      97.512 111.178 115.362  1.00  0.00     0.008 C 
ATOM     19  C   UNL     1      99.305 110.307 113.770  1.00  0.00     0.012 C 
ATOM     20  C   UNL     1      99.919 113.014 115.474  1.00  0.00    -0.025 C 
ATOM     21  C   UNL     1      98.395 111.260 116.627  1.00  0.00     0.005 C 
ATOM     22  C   UNL     1      99.103 112.624 116.771  1.00  0.00     0.003 C 
ATOM     23  C   UNL     1     100.414 114.494 115.651  1.00  0.00     0.010 C 
ATOM     24  C   UNL     1     101.202 112.142 115.261  1.00  0.00     0.012 C 
ATOM     25  C   UNL     1      99.840 112.866 118.153  1.00  0.00    -0.006 C 
ATOM     26  C   UNL     1     101.166 114.753 116.973  1.00  0.00     0.033 C 
ATOM     27  C   UNL     1     100.340 114.347 118.208  1.00  0.00     0.120 C 
ATOM     28  C   UNL     1      98.844 112.657 119.331  1.00  0.00     0.014 C 
ATOM     29  C   UNL     1     101.023 111.896 118.414  1.00  0.00     0.014 C 
ENDROOT
BRANCH   1  30
ATOM     30  C   UNL     1      95.149 110.687 110.090  1.00  0.00     0.048 C 
ATOM     31  O   UNL     1      95.318 109.924 109.096  1.00  0.00    -0.550 OA
ATOM     32  O   UNL     1      94.255 110.286 111.076  1.00  0.00    -0.550 OA
ENDBRANCH   1  30
BRANCH  27  33
ATOM     33  O   UNL     1      99.247 115.226 118.335  1.00  0.00    -0.393 OA
ATOM     34  H   UNL     1      98.664 115.082 117.545  1.00  0.00     0.210 HD
ENDBRANCH  27  33
TORSDOF 2
ENDMDL
MODEL 3
REMARK VINA RESULT:     9.635      3.616      7.097
REMARK INTER + INTRA:          10.817
REMARK INTER:                   9.035
REMARK INTRA:                   1.781
REMARK UNBOUND:                 0.337
REMARK SMILES CC1(C)CC[C@@]2(C(=O)[O-])CC[C@]3(C)C(=CC[C@H]4[C@@]5(C)CC[C@@H](O)C(C)(C)[C@@H]5CC[C@]43C)[C@@H]2C1
REMARK SMILES IDX 6 1 5 2 10 3 32 4 4 5 11 6 14 7 33 8 2 9 12 10 15 11 1 12
REMARK SMILES IDX 3 13 13 14 30 15 16 16 17 17 29 18 31 19 18 20 28 21 27 22
REMARK SMILES IDX 20 23 19 24 24 25 21 26 22 27 25 28 26 29 7 30 8 31 9 32
REMARK SMILES IDX 23 33
REMARK H PARENT 23 34
REMARK Flexibility Score: inf
ROOT
ATOM      1  C   UNL     1     100.065 111.134 116.671  1.00  0.00     0.017 C 
ATOM      2  C   UNL     1     100.492 110.895 115.197  1.00  0.00     0.014 C 
ATOM      3  C   UNL     1     101.288 111.033 117.630  1.00  0.00     0.014 C 
ATOM      4  C   UNL     1      99.577 112.611 116.742  1.00  0.00     0.028 C 
ATOM      5  C   UNL     1      99.303 111.107 114.228  1.00  0.00     0.007 C 
ATOM      6  C   UNL     1     101.032 111.497 119.107  1.00  0.00     0.013 C 
ATOM      7  C   UNL     1      99.571 113.256 118.138  1.00  0.00    -0.064 C 
ATOM      8  C   UNL     1      98.354 112.911 115.855  1.00  0.00     0.015 C 
ATOM      9  C   UNL     1      98.594 112.496 114.364  1.00  0.00    -0.035 C 
ATOM     10  C   UNL     1      99.767 112.404 119.400  1.00  0.00    -0.006 C 
ATOM     11  C   UNL     1      99.811 114.577 118.141  1.00  0.00    -0.027 C 
ATOM     12  C   UNL     1      99.435 113.575 113.637  1.00  0.00     0.011 C 
ATOM     13  C   UNL     1      97.225 112.422 113.658  1.00  0.00     0.011 C 
ATOM     14  C   UNL     1      98.516 111.472 119.581  1.00  0.00     0.017 C 
ATOM     15  C   UNL     1      99.948 113.293 120.754  1.00  0.00    -0.020 C 
ATOM     16  C   UNL     1     100.455 115.338 119.245  1.00  0.00     0.032 C 
ATOM     17  C   UNL     1     100.906 114.535 120.504  1.00  0.00     0.006 C 
ATOM     18  C   UNL     1      98.591 113.893 121.279  1.00  0.00     0.008 C 
ATOM     19  C   UNL     1     100.515 112.318 121.845  1.00  0.00     0.012 C 
ATOM     20  C   UNL     1     101.101 115.521 121.762  1.00  0.00    -0.025 C 
ATOM     21  C   UNL     1      98.721 114.813 122.514  1.00  0.00     0.005 C 
ATOM     22  C   UNL     1      99.683 115.997 122.275  1.00  0.00     0.003 C 
ATOM     23  C   UNL     1     101.914 116.801 121.355  1.00  0.00     0.010 C 
ATOM     24  C   UNL     1     101.947 114.790 122.859  1.00  0.00     0.012 C 
ATOM     25  C   UNL     1      99.692 117.106 123.407  1.00  0.00    -0.006 C 
ATOM     26  C   UNL     1     101.970 117.886 122.451  1.00  0.00     0.033 C 
ATOM     27  C   UNL     1     100.569 118.310 122.930  1.00  0.00     0.120 C 
ATOM     28  C   UNL     1      98.248 117.635 123.646  1.00  0.00     0.014 C 
ATOM     29  C   UNL     1     100.195 116.596 124.784  1.00  0.00     0.014 C 
ENDROOT
BRANCH   1  30
ATOM     30  C   UNL     1      99.063 110.023 116.989  1.00  0.00     0.048 C 
ATOM     31  O   UNL     1      99.147 108.915 116.385  1.00  0.00    -0.550 OA
ATOM     32  O   UNL     1      97.991 110.217 117.852  1.00  0.00    -0.550 OA
ENDBRANCH   1  30
BRANCH  27  33
ATOM     33  O   UNL     1      99.921 119.002 121.889  1.00  0.00    -0.393 OA
ATOM     34  H   UNL     1      99.016 118.607 121.795  1.00  0.00     0.210 HD
ENDBRANCH  27  33
TORSDOF 2
ENDMDL
