MODEL 1
REMARK VINA RESULT:    -7.611      0.000      0.000
REMARK INTER + INTRA:         -11.152
REMARK INTER:                 -10.059
REMARK INTRA:                  -1.093
REMARK UNBOUND:                -1.093
REMARK SMILES CC[C@H](C=C[C@@H](C)[C@H]1CC[C@H]2C3=CC[C@H]4C[C@@H](O)CC[C@@]4(C)[C@H]3CC[C@]12C)C(C)C
REMARK SMILES IDX 6 1 7 2 5 3 4 4 3 5 2 6 1 7 28 8 29 9 30 10 8 11 9 12 26 13
REMARK SMILES IDX 10 14 11 15 25 16 27 17 12 18 24 19 23 20 13 21 21 22 14 23
REMARK SMILES IDX 15 24 20 25 22 26 16 27 19 28 17 29 18 30
REMARK H PARENT 18 31
REMARK Flexibility Score: inf
ROOT
ATOM      1  C   UNL     1     119.320 128.394 130.227  1.00  0.00     0.012 C 
ATOM      2  C   UNL     1     118.404 129.121 131.222  1.00  0.00     0.012 C 
ENDROOT
BRANCH   1   3
ATOM      3  C   UNL     1     120.104 129.411 129.422  1.00  0.00    -0.028 C 
ATOM      4  C   UNL     1     119.703 130.685 129.274  1.00  0.00    -0.027 C 
BRANCH   4   5
ATOM      5  C   UNL     1     120.475 131.665 128.412  1.00  0.00     0.014 C 
BRANCH   5   6
ATOM      6  C   UNL     1     119.510 132.800 127.970  1.00  0.00     0.004 C 
ATOM      7  C   UNL     1     118.178 132.822 128.717  1.00  0.00     0.004 C 
ENDBRANCH   5   6
BRANCH   5   8
ATOM      8  C   UNL     1     121.771 132.123 129.163  1.00  0.00    -0.011 C 
ATOM      9  C   UNL     1     123.062 131.735 128.425  1.00  0.00     0.008 C 
ATOM     10  C   UNL     1     121.780 133.614 129.534  1.00  0.00     0.008 C 
ENDBRANCH   5   8
ENDBRANCH   4   5
ENDBRANCH   1   3
BRANCH   1  11
ATOM     11  C   UNL     1     118.549 127.412 129.283  1.00  0.00     0.002 C 
ATOM     12  C   UNL     1     119.257 127.253 127.909  1.00  0.00     0.005 C 
ATOM     13  C   UNL     1     118.336 125.947 129.765  1.00  0.00    -0.023 C 
ATOM     14  C   UNL     1     119.048 125.802 127.457  1.00  0.00     0.009 C 
ATOM     15  C   UNL     1     118.013 125.258 128.434  1.00  0.00     0.021 C 
ATOM     16  C   UNL     1     117.112 125.726 130.690  1.00  0.00     0.008 C 
ATOM     17  C   UNL     1     119.637 125.377 130.417  1.00  0.00     0.012 C 
ATOM     18  C   UNL     1     117.817 123.765 128.608  1.00  0.00    -0.067 C 
ATOM     19  C   UNL     1     116.861 124.221 130.939  1.00  0.00     0.009 C 
ATOM     20  C   UNL     1     116.746 123.371 129.629  1.00  0.00     0.021 C 
ATOM     21  C   UNL     1     118.263 122.898 127.683  1.00  0.00    -0.027 C 
ATOM     22  C   UNL     1     116.582 121.814 129.879  1.00  0.00    -0.023 C 
ATOM     23  C   UNL     1     118.057 121.425 127.795  1.00  0.00     0.031 C 
ATOM     24  C   UNL     1     116.747 121.051 128.523  1.00  0.00     0.002 C 
ATOM     25  C   UNL     1     117.620 121.257 130.899  1.00  0.00     0.010 C 
ATOM     26  C   UNL     1     115.142 121.585 130.433  1.00  0.00     0.012 C 
ATOM     27  C   UNL     1     116.657 119.511 128.688  1.00  0.00     0.036 C 
ATOM     28  C   UNL     1     117.530 119.731 131.091  1.00  0.00     0.032 C 
ATOM     29  C   UNL     1     117.589 118.934 129.775  1.00  0.00     0.114 C 
BRANCH  29  30
ATOM     30  O   UNL     1     118.907 118.862 129.298  1.00  0.00    -0.393 OA
ATOM     31  H   UNL     1     118.867 118.977 128.313  1.00  0.00     0.210 HD
ENDBRANCH  29  30
ENDBRANCH   1  11
TORSDOF 6
ENDMDL
MODEL 2
REMARK VINA RESULT:    -7.461      0.729      1.614
REMARK INTER + INTRA:         -10.953
REMARK INTER:                  -9.827
REMARK INTRA:                  -1.126
REMARK UNBOUND:                -1.093
REMARK SMILES CC[C@H](C=C[C@@H](C)[C@H]1CC[C@H]2C3=CC[C@H]4C[C@@H](O)CC[C@@]4(C)[C@H]3CC[C@]12C)C(C)C
REMARK SMILES IDX 6 1 7 2 5 3 4 4 3 5 2 6 1 7 28 8 29 9 30 10 8 11 9 12 26 13
REMARK SMILES IDX 10 14 11 15 25 16 27 17 12 18 24 19 23 20 13 21 21 22 14 23
REMARK SMILES IDX 15 24 20 25 22 26 16 27 19 28 17 29 18 30
REMARK H PARENT 18 31
REMARK Flexibility Score: inf
ROOT
ATOM      1  C   UNL     1     119.035 128.280 130.229  1.00  0.00     0.012 C 
ATOM      2  C   UNL     1     117.939 128.949 131.071  1.00  0.00     0.012 C 
ENDROOT
BRANCH   1   3
ATOM      3  C   UNL     1     119.882 129.345 129.560  1.00  0.00    -0.028 C 
ATOM      4  C   UNL     1     119.769 130.652 129.852  1.00  0.00    -0.027 C 
BRANCH   4   5
ATOM      5  C   UNL     1     120.586 131.701 129.123  1.00  0.00     0.014 C 
BRANCH   5   6
ATOM      6  C   UNL     1     121.773 130.995 128.409  1.00  0.00     0.004 C 
ATOM      7  C   UNL     1     123.082 131.781 128.436  1.00  0.00     0.004 C 
ENDBRANCH   5   6
BRANCH   5   8
ATOM      8  C   UNL     1     119.648 132.558 128.206  1.00  0.00    -0.011 C 
ATOM      9  C   UNL     1     118.204 132.633 128.727  1.00  0.00     0.008 C 
ATOM     10  C   UNL     1     120.192 133.962 127.899  1.00  0.00     0.008 C 
ENDBRANCH   5   8
ENDBRANCH   4   5
ENDBRANCH   1   3
BRANCH   1  11
ATOM     11  C   UNL     1     118.472 127.273 129.171  1.00  0.00     0.002 C 
ATOM     12  C   UNL     1     119.343 127.235 127.885  1.00  0.00     0.005 C 
ATOM     13  C   UNL     1     118.344 125.776 129.581  1.00  0.00    -0.023 C 
ATOM     14  C   UNL     1     119.324 125.791 127.368  1.00  0.00     0.009 C 
ATOM     15  C   UNL     1     118.241 125.116 128.200  1.00  0.00     0.021 C 
ATOM     16  C   UNL     1     117.049 125.408 130.349  1.00  0.00     0.008 C 
ATOM     17  C   UNL     1     119.610 125.299 130.362  1.00  0.00     0.012 C 
ATOM     18  C   UNL     1     118.167 123.605 128.304  1.00  0.00    -0.067 C 
ATOM     19  C   UNL     1     116.914 123.877 130.521  1.00  0.00     0.009 C 
ATOM     20  C   UNL     1     117.028 123.075 129.181  1.00  0.00     0.021 C 
ATOM     21  C   UNL     1     118.795 122.821 127.412  1.00  0.00    -0.027 C 
ATOM     22  C   UNL     1     116.984 121.501 129.362  1.00  0.00    -0.023 C 
ATOM     23  C   UNL     1     118.717 121.332 127.454  1.00  0.00     0.031 C 
ATOM     24  C   UNL     1     117.373 120.812 128.013  1.00  0.00     0.002 C 
ATOM     25  C   UNL     1     117.948 120.998 130.479  1.00  0.00     0.010 C 
ATOM     26  C   UNL     1     115.519 121.121 129.738  1.00  0.00     0.012 C 
ATOM     27  C   UNL     1     117.410 119.265 128.119  1.00  0.00     0.036 C 
ATOM     28  C   UNL     1     117.981 119.463 130.613  1.00  0.00     0.032 C 
ATOM     29  C   UNL     1     118.263 118.729 129.289  1.00  0.00     0.114 C 
BRANCH  29  30
ATOM     30  O   UNL     1     119.628 118.796 128.968  1.00  0.00    -0.393 OA
ATOM     31  H   UNL     1     119.723 118.471 128.035  1.00  0.00     0.210 HD
ENDBRANCH  29  30
ENDBRANCH   1  11
TORSDOF 6
ENDMDL
MODEL 3
REMARK VINA RESULT:    -6.628      3.007      8.921
REMARK INTER + INTRA:          -9.852
REMARK INTER:                  -9.000
REMARK INTRA:                  -0.852
REMARK UNBOUND:                -1.093
REMARK SMILES CC[C@H](C=C[C@@H](C)[C@H]1CC[C@H]2C3=CC[C@H]4C[C@@H](O)CC[C@@]4(C)[C@H]3CC[C@]12C)C(C)C
REMARK SMILES IDX 6 1 7 2 5 3 4 4 3 5 2 6 1 7 28 8 29 9 30 10 8 11 9 12 26 13
REMARK SMILES IDX 10 14 11 15 25 16 27 17 12 18 24 19 23 20 13 21 21 22 14 23
REMARK SMILES IDX 15 24 20 25 22 26 16 27 19 28 17 29 18 30
REMARK H PARENT 18 31
REMARK Flexibility Score: inf
ROOT
ATOM      1  C   UNL     1     117.623 118.750 129.275  1.00  0.00     0.012 C 
ATOM      2  C   UNL     1     118.816 118.519 130.215  1.00  0.00     0.012 C 
ENDROOT
BRANCH   1   3
ATOM      3  C   UNL     1     118.113 118.827 127.843  1.00  0.00    -0.028 C 
ATOM      4  C   UNL     1     119.396 118.611 127.501  1.00  0.00    -0.027 C 
BRANCH   4   5
ATOM      5  C   UNL     1     119.870 118.756 126.069  1.00  0.00     0.014 C 
BRANCH   5   6
ATOM      6  C   UNL     1     118.894 117.977 125.143  1.00  0.00     0.004 C 
ATOM      7  C   UNL     1     119.223 116.494 124.984  1.00  0.00     0.004 C 
ENDBRANCH   5   6
BRANCH   5   8
ATOM      8  C   UNL     1     120.071 120.272 125.729  1.00  0.00    -0.011 C 
ATOM      9  C   UNL     1     121.045 120.978 126.687  1.00  0.00     0.008 C 
ATOM     10  C   UNL     1     120.457 120.536 124.265  1.00  0.00     0.008 C 
ENDBRANCH   5   8
ENDBRANCH   4   5
ENDBRANCH   1   3
BRANCH   1  11
ATOM     11  C   UNL     1     116.783 120.018 129.644  1.00  0.00     0.002 C 
ATOM     12  C   UNL     1     116.487 120.094 131.167  1.00  0.00     0.005 C 
ATOM     13  C   UNL     1     117.381 121.415 129.308  1.00  0.00    -0.023 C 
ATOM     14  C   UNL     1     116.502 121.578 131.557  1.00  0.00     0.009 C 
ATOM     15  C   UNL     1     116.532 122.310 130.221  1.00  0.00     0.021 C 
ATOM     16  C   UNL     1     117.143 121.907 127.857  1.00  0.00     0.008 C 
ATOM     17  C   UNL     1     118.898 121.479 129.676  1.00  0.00     0.012 C 
ATOM     18  C   UNL     1     116.959 123.762 130.138  1.00  0.00    -0.067 C 
ATOM     19  C   UNL     1     117.580 123.379 127.684  1.00  0.00     0.009 C 
ATOM     20  C   UNL     1     116.944 124.358 128.727  1.00  0.00     0.021 C 
ATOM     21  C   UNL     1     116.971 124.540 131.233  1.00  0.00    -0.027 C 
ATOM     22  C   UNL     1     117.460 125.852 128.613  1.00  0.00    -0.023 C 
ATOM     23  C   UNL     1     117.347 125.983 131.190  1.00  0.00     0.031 C 
ATOM     24  C   UNL     1     116.971 126.667 129.856  1.00  0.00     0.002 C 
ATOM     25  C   UNL     1     119.014 125.946 128.531  1.00  0.00     0.010 C 
ATOM     26  C   UNL     1     116.839 126.457 127.317  1.00  0.00     0.012 C 
ATOM     27  C   UNL     1     117.483 128.132 129.852  1.00  0.00     0.036 C 
ATOM     28  C   UNL     1     119.539 127.395 128.504  1.00  0.00     0.032 C 
ATOM     29  C   UNL     1     119.008 128.270 129.654  1.00  0.00     0.114 C 
BRANCH  29  30
ATOM     30  O   UNL     1     119.683 127.978 130.850  1.00  0.00    -0.393 OA
ATOM     31  H   UNL     1     120.611 128.314 130.749  1.00  0.00     0.210 HD
ENDBRANCH  29  30
ENDBRANCH   1  11
TORSDOF 6
ENDMDL
MODEL 4
REMARK VINA RESULT:    -6.622      4.685      8.620
REMARK INTER + INTRA:          -9.844
REMARK INTER:                  -8.980
REMARK INTRA:                  -0.865
REMARK UNBOUND:                -1.093
REMARK SMILES CC[C@H](C=C[C@@H](C)[C@H]1CC[C@H]2C3=CC[C@H]4C[C@@H](O)CC[C@@]4(C)[C@H]3CC[C@]12C)C(C)C
REMARK SMILES IDX 6 1 7 2 5 3 4 4 3 5 2 6 1 7 28 8 29 9 30 10 8 11 9 12 26 13
REMARK SMILES IDX 10 14 11 15 25 16 27 17 12 18 24 19 23 20 13 21 21 22 14 23
REMARK SMILES IDX 15 24 20 25 22 26 16 27 19 28 17 29 18 30
REMARK H PARENT 18 31
REMARK Flexibility Score: inf
ROOT
ATOM      1  C   UNL     1     116.031 119.909 133.996  1.00  0.00     0.012 C 
ATOM      2  C   UNL     1     115.703 121.060 134.958  1.00  0.00     0.012 C 
ENDROOT
BRANCH   1   3
ATOM      3  C   UNL     1     117.503 119.564 134.101  1.00  0.00    -0.028 C 
ATOM      4  C   UNL     1     118.294 120.043 135.077  1.00  0.00    -0.027 C 
BRANCH   4   5
ATOM      5  C   UNL     1     119.776 119.730 135.123  1.00  0.00     0.014 C 
BRANCH   5   6
ATOM      6  C   UNL     1     120.020 118.381 134.390  1.00  0.00     0.004 C 
ATOM      7  C   UNL     1     121.019 117.457 135.084  1.00  0.00     0.004 C 
ENDBRANCH   5   6
BRANCH   5   8
ATOM      8  C   UNL     1     120.591 120.956 134.587  1.00  0.00    -0.011 C 
ATOM      9  C   UNL     1     120.698 120.983 133.054  1.00  0.00     0.008 C 
ATOM     10  C   UNL     1     120.103 122.310 135.125  1.00  0.00     0.008 C 
ENDBRANCH   5   8
ENDBRANCH   4   5
ENDBRANCH   1   3
BRANCH   1  11
ATOM     11  C   UNL     1     115.637 120.214 132.512  1.00  0.00     0.002 C 
ATOM     12  C   UNL     1     114.401 121.151 132.421  1.00  0.00     0.005 C 
ATOM     13  C   UNL     1     116.695 120.901 131.600  1.00  0.00    -0.023 C 
ATOM     14  C   UNL     1     114.604 122.052 131.196  1.00  0.00     0.009 C 
ATOM     15  C   UNL     1     115.795 121.430 130.476  1.00  0.00     0.021 C 
ATOM     16  C   UNL     1     117.719 119.945 130.936  1.00  0.00     0.008 C 
ATOM     17  C   UNL     1     117.422 122.057 132.357  1.00  0.00     0.012 C 
ATOM     18  C   UNL     1     116.583 122.220 129.450  1.00  0.00    -0.067 C 
ATOM     19  C   UNL     1     118.585 120.686 129.892  1.00  0.00     0.009 C 
ATOM     20  C   UNL     1     117.754 121.463 128.816  1.00  0.00     0.021 C 
ATOM     21  C   UNL     1     116.066 123.323 128.884  1.00  0.00    -0.027 C 
ATOM     22  C   UNL     1     118.635 122.300 127.798  1.00  0.00    -0.023 C 
ATOM     23  C   UNL     1     116.790 124.108 127.842  1.00  0.00     0.031 C 
ATOM     24  C   UNL     1     117.706 123.235 126.955  1.00  0.00     0.002 C 
ATOM     25  C   UNL     1     119.712 123.173 128.511  1.00  0.00     0.010 C 
ATOM     26  C   UNL     1     119.343 121.281 126.854  1.00  0.00     0.012 C 
ATOM     27  C   UNL     1     118.497 124.135 125.969  1.00  0.00     0.036 C 
ATOM     28  C   UNL     1     120.521 124.057 127.544  1.00  0.00     0.032 C 
ATOM     29  C   UNL     1     119.651 124.927 126.619  1.00  0.00     0.114 C 
BRANCH  29  30
ATOM     30  O   UNL     1     119.147 126.037 127.316  1.00  0.00    -0.393 OA
ATOM     31  H   UNL     1     119.002 126.758 126.649  1.00  0.00     0.210 HD
ENDBRANCH  29  30
ENDBRANCH   1  11
TORSDOF 6
ENDMDL
MODEL 5
REMARK VINA RESULT:    -6.505      5.771      8.582
REMARK INTER + INTRA:          -9.689
REMARK INTER:                  -8.569
REMARK INTRA:                  -1.120
REMARK UNBOUND:                -1.093
REMARK SMILES CC[C@H](C=C[C@@H](C)[C@H]1CC[C@H]2C3=CC[C@H]4C[C@@H](O)CC[C@@]4(C)[C@H]3CC[C@]12C)C(C)C
REMARK SMILES IDX 6 1 7 2 5 3 4 4 3 5 2 6 1 7 28 8 29 9 30 10 8 11 9 12 26 13
REMARK SMILES IDX 10 14 11 15 25 16 27 17 12 18 24 19 23 20 13 21 21 22 14 23
REMARK SMILES IDX 15 24 20 25 22 26 16 27 19 28 17 29 18 30
REMARK H PARENT 18 31
REMARK Flexibility Score: inf
ROOT
ATOM      1  C   UNL     1     122.081 119.752 126.954  1.00  0.00     0.012 C 
ATOM      2  C   UNL     1     123.030 120.939 127.177  1.00  0.00     0.012 C 
ENDROOT
BRANCH   1   3
ATOM      3  C   UNL     1     122.450 119.042 125.667  1.00  0.00    -0.028 C 
ATOM      4  C   UNL     1     122.888 119.695 124.577  1.00  0.00    -0.027 C 
BRANCH   4   5
ATOM      5  C   UNL     1     123.192 118.966 123.283  1.00  0.00     0.014 C 
BRANCH   5   6
ATOM      6  C   UNL     1     122.208 119.469 122.190  1.00  0.00     0.004 C 
ATOM      7  C   UNL     1     120.957 120.155 122.736  1.00  0.00     0.004 C 
ENDBRANCH   5   6
BRANCH   5   8
ATOM      8  C   UNL     1     124.715 119.100 122.946  1.00  0.00    -0.011 C 
ATOM      9  C   UNL     1     124.979 119.374 121.456  1.00  0.00     0.008 C 
ATOM     10  C   UNL     1     125.461 120.113 123.828  1.00  0.00     0.008 C 
ENDBRANCH   5   8
ENDBRANCH   4   5
ENDBRANCH   1   3
BRANCH   1  11
ATOM     11  C   UNL     1     120.570 120.162 126.949  1.00  0.00     0.002 C 
ATOM     12  C   UNL     1     119.675 119.071 126.300  1.00  0.00     0.005 C 
ATOM     13  C   UNL     1     119.883 120.444 128.317  1.00  0.00    -0.023 C 
ATOM     14  C   UNL     1     118.340 119.071 127.056  1.00  0.00     0.009 C 
ATOM     15  C   UNL     1     118.407 120.325 127.920  1.00  0.00     0.021 C 
ATOM     16  C   UNL     1     120.080 121.878 128.875  1.00  0.00     0.008 C 
ATOM     17  C   UNL     1     120.289 119.373 129.379  1.00  0.00     0.012 C 
ATOM     18  C   UNL     1     117.488 120.498 129.113  1.00  0.00    -0.067 C 
ATOM     19  C   UNL     1     119.192 122.124 130.116  1.00  0.00     0.009 C 
ATOM     20  C   UNL     1     117.676 121.806 129.886  1.00  0.00     0.021 C 
ATOM     21  C   UNL     1     116.373 119.758 129.237  1.00  0.00    -0.027 C 
ATOM     22  C   UNL     1     116.776 121.967 131.181  1.00  0.00    -0.023 C 
ATOM     23  C   UNL     1     115.422 119.922 130.374  1.00  0.00     0.031 C 
ATOM     24  C   UNL     1     115.356 121.372 130.904  1.00  0.00     0.002 C 
ATOM     25  C   UNL     1     117.385 121.257 132.428  1.00  0.00     0.010 C 
ATOM     26  C   UNL     1     116.653 123.495 131.470  1.00  0.00     0.012 C 
ATOM     27  C   UNL     1     114.426 121.439 132.145  1.00  0.00     0.036 C 
ATOM     28  C   UNL     1     116.483 121.332 133.675  1.00  0.00     0.032 C 
ATOM     29  C   UNL     1     115.042 120.849 133.431  1.00  0.00     0.114 C 
BRANCH  29  30
ATOM     30  O   UNL     1     114.990 119.446 133.397  1.00  0.00    -0.393 OA
ATOM     31  H   UNL     1     115.633 119.148 132.702  1.00  0.00     0.210 HD
ENDBRANCH  29  30
ENDBRANCH   1  11
TORSDOF 6
ENDMDL
MODEL 6
REMARK VINA RESULT:    -6.437      1.544      2.147
REMARK INTER + INTRA:          -9.599
REMARK INTER:                  -9.297
REMARK INTRA:                  -0.302
REMARK UNBOUND:                -1.093
REMARK SMILES CC[C@H](C=C[C@@H](C)[C@H]1CC[C@H]2C3=CC[C@H]4C[C@@H](O)CC[C@@]4(C)[C@H]3CC[C@]12C)C(C)C
REMARK SMILES IDX 6 1 7 2 5 3 4 4 3 5 2 6 1 7 28 8 29 9 30 10 8 11 9 12 26 13
REMARK SMILES IDX 10 14 11 15 25 16 27 17 12 18 24 19 23 20 13 21 21 22 14 23
REMARK SMILES IDX 15 24 20 25 22 26 16 27 19 28 17 29 18 30
REMARK H PARENT 18 31
REMARK Flexibility Score: inf
ROOT
ATOM      1  C   UNL     1     119.277 128.803 130.278  1.00  0.00     0.012 C 
ATOM      2  C   UNL     1     117.786 129.161 130.190  1.00  0.00     0.012 C 
ENDROOT
BRANCH   1   3
ATOM      3  C   UNL     1     120.081 129.773 129.434  1.00  0.00    -0.028 C 
ATOM      4  C   UNL     1     119.661 131.020 129.162  1.00  0.00    -0.027 C 
BRANCH   4   5
ATOM      5  C   UNL     1     120.457 131.947 128.265  1.00  0.00     0.014 C 
BRANCH   5   6
ATOM      6  C   UNL     1     119.509 133.062 127.741  1.00  0.00     0.004 C 
ATOM      7  C   UNL     1     118.177 133.158 128.484  1.00  0.00     0.004 C 
ENDBRANCH   5   6
BRANCH   5   8
ATOM      8  C   UNL     1     121.740 132.439 129.018  1.00  0.00    -0.011 C 
ATOM      9  C   UNL     1     123.035 131.825 128.462  1.00  0.00     0.008 C 
ATOM     10  C   UNL     1     121.857 133.968 129.113  1.00  0.00     0.008 C 
ENDBRANCH   5   8
ENDBRANCH   4   5
ENDBRANCH   1   3
BRANCH   1  11
ATOM     11  C   UNL     1     119.582 127.324 129.867  1.00  0.00     0.002 C 
ATOM     12  C   UNL     1     120.865 126.784 130.556  1.00  0.00     0.005 C 
ATOM     13  C   UNL     1     118.507 126.242 130.177  1.00  0.00    -0.023 C 
ATOM     14  C   UNL     1     120.632 125.295 130.846  1.00  0.00     0.009 C 
ATOM     15  C   UNL     1     119.356 124.968 130.080  1.00  0.00     0.021 C 
ATOM     16  C   UNL     1     117.379 126.106 129.122  1.00  0.00     0.008 C 
ATOM     17  C   UNL     1     117.911 126.437 131.608  1.00  0.00     0.012 C 
ATOM     18  C   UNL     1     118.548 123.728 130.409  1.00  0.00    -0.067 C 
ATOM     19  C   UNL     1     116.490 124.874 129.406  1.00  0.00     0.009 C 
ATOM     20  C   UNL     1     117.288 123.536 129.558  1.00  0.00     0.021 C 
ATOM     21  C   UNL     1     119.092 122.714 131.103  1.00  0.00    -0.027 C 
ATOM     22  C   UNL     1     116.392 122.286 129.941  1.00  0.00    -0.023 C 
ATOM     23  C   UNL     1     118.346 121.461 131.415  1.00  0.00     0.031 C 
ATOM     24  C   UNL     1     117.315 121.084 130.327  1.00  0.00     0.002 C 
ATOM     25  C   UNL     1     115.427 122.580 131.129  1.00  0.00     0.010 C 
ATOM     26  C   UNL     1     115.554 121.916 128.678  1.00  0.00     0.012 C 
ATOM     27  C   UNL     1     116.514 119.832 130.771  1.00  0.00     0.036 C 
ATOM     28  C   UNL     1     114.607 121.352 131.570  1.00  0.00     0.032 C 
ATOM     29  C   UNL     1     115.463 120.107 131.867  1.00  0.00     0.114 C 
BRANCH  29  30
ATOM     30  O   UNL     1     116.085 120.224 133.121  1.00  0.00    -0.393 OA
ATOM     31  H   UNL     1     116.188 121.193 133.305  1.00  0.00     0.210 HD
ENDBRANCH  29  30
ENDBRANCH   1  11
TORSDOF 6
ENDMDL
MODEL 7
REMARK VINA RESULT:    -6.416      5.098      9.474
REMARK INTER + INTRA:          -9.572
REMARK INTER:                  -8.429
REMARK INTRA:                  -1.143
REMARK UNBOUND:                -1.093
REMARK SMILES CC[C@H](C=C[C@@H](C)[C@H]1CC[C@H]2C3=CC[C@H]4C[C@@H](O)CC[C@@]4(C)[C@H]3CC[C@]12C)C(C)C
REMARK SMILES IDX 6 1 7 2 5 3 4 4 3 5 2 6 1 7 28 8 29 9 30 10 8 11 9 12 26 13
REMARK SMILES IDX 10 14 11 15 25 16 27 17 12 18 24 19 23 20 13 21 21 22 14 23
REMARK SMILES IDX 15 24 20 25 22 26 16 27 19 28 17 29 18 30
REMARK H PARENT 18 31
REMARK Flexibility Score: inf
ROOT
ATOM      1  C   UNL     1     120.512 119.843 124.745  1.00  0.00     0.012 C 
ATOM      2  C   UNL     1     119.781 118.506 124.551  1.00  0.00     0.012 C 
ENDROOT
BRANCH   1   3
ATOM      3  C   UNL     1     121.857 119.792 124.049  1.00  0.00    -0.028 C 
ATOM      4  C   UNL     1     121.981 119.734 122.711  1.00  0.00    -0.027 C 
BRANCH   4   5
ATOM      5  C   UNL     1     123.337 119.622 122.044  1.00  0.00     0.014 C 
BRANCH   5   6
ATOM      6  C   UNL     1     124.411 119.391 123.144  1.00  0.00     0.004 C 
ATOM      7  C   UNL     1     125.732 120.118 122.898  1.00  0.00     0.004 C 
ENDBRANCH   5   6
BRANCH   5   8
ATOM      8  C   UNL     1     123.280 118.545 120.908  1.00  0.00    -0.011 C 
ATOM      9  C   UNL     1     123.898 119.032 119.587  1.00  0.00     0.008 C 
ATOM     10  C   UNL     1     123.861 117.182 121.314  1.00  0.00     0.008 C 
ENDBRANCH   5   8
ENDBRANCH   4   5
ENDBRANCH   1   3
BRANCH   1  11
ATOM     11  C   UNL     1     120.680 120.242 126.249  1.00  0.00     0.002 C 
ATOM     12  C   UNL     1     122.145 120.634 126.585  1.00  0.00     0.005 C 
ATOM     13  C   UNL     1     119.840 121.437 126.788  1.00  0.00    -0.023 C 
ATOM     14  C   UNL     1     122.086 121.754 127.633  1.00  0.00     0.009 C 
ATOM     15  C   UNL     1     120.624 121.779 128.061  1.00  0.00     0.021 C 
ATOM     16  C   UNL     1     118.397 121.085 127.234  1.00  0.00     0.008 C 
ATOM     17  C   UNL     1     119.834 122.622 125.771  1.00  0.00     0.012 C 
ATOM     18  C   UNL     1     120.042 122.984 128.772  1.00  0.00    -0.067 C 
ATOM     19  C   UNL     1     117.723 122.279 127.947  1.00  0.00     0.009 C 
ATOM     20  C   UNL     1     118.558 122.864 129.135  1.00  0.00     0.021 C 
ATOM     21  C   UNL     1     120.841 123.890 129.360  1.00  0.00    -0.027 C 
ATOM     22  C   UNL     1     117.916 124.147 129.809  1.00  0.00    -0.023 C 
ATOM     23  C   UNL     1     120.310 125.070 130.103  1.00  0.00     0.031 C 
ATOM     24  C   UNL     1     118.952 124.794 130.787  1.00  0.00     0.002 C 
ATOM     25  C   UNL     1     117.474 125.217 128.766  1.00  0.00     0.010 C 
ATOM     26  C   UNL     1     116.669 123.668 130.615  1.00  0.00     0.012 C 
ATOM     27  C   UNL     1     118.421 126.092 131.449  1.00  0.00     0.036 C 
ATOM     28  C   UNL     1     116.924 126.506 129.407  1.00  0.00     0.032 C 
ATOM     29  C   UNL     1     117.865 127.131 130.452  1.00  0.00     0.114 C 
BRANCH  29  30
ATOM     30  O   UNL     1     118.918 127.815 129.823  1.00  0.00    -0.393 OA
ATOM     31  H   UNL     1     118.522 128.332 129.074  1.00  0.00     0.210 HD
ENDBRANCH  29  30
ENDBRANCH   1  11
TORSDOF 6
ENDMDL
MODEL 8
REMARK VINA RESULT:    -6.339      2.936      4.694
REMARK INTER + INTRA:          -9.471
REMARK INTER:                  -8.372
REMARK INTRA:                  -1.099
REMARK UNBOUND:                -1.093
REMARK SMILES CC[C@H](C=C[C@@H](C)[C@H]1CC[C@H]2C3=CC[C@H]4C[C@@H](O)CC[C@@]4(C)[C@H]3CC[C@]12C)C(C)C
REMARK SMILES IDX 6 1 7 2 5 3 4 4 3 5 2 6 1 7 28 8 29 9 30 10 8 11 9 12 26 13
REMARK SMILES IDX 10 14 11 15 25 16 27 17 12 18 24 19 23 20 13 21 21 22 14 23
REMARK SMILES IDX 15 24 20 25 22 26 16 27 19 28 17 29 18 30
REMARK H PARENT 18 31
REMARK Flexibility Score: inf
ROOT
ATOM      1  C   UNL     1     117.762 124.821 130.166  1.00  0.00     0.012 C 
ATOM      2  C   UNL     1     116.853 124.251 131.265  1.00  0.00     0.012 C 
ENDROOT
BRANCH   1   3
ATOM      3  C   UNL     1     117.469 126.296 129.978  1.00  0.00    -0.028 C 
ATOM      4  C   UNL     1     118.247 127.263 130.494  1.00  0.00    -0.027 C 
BRANCH   4   5
ATOM      5  C   UNL     1     117.896 128.730 130.342  1.00  0.00     0.014 C 
BRANCH   5   6
ATOM      6  C   UNL     1     116.963 129.138 131.516  1.00  0.00     0.004 C 
ATOM      7  C   UNL     1     117.468 128.724 132.897  1.00  0.00     0.004 C 
ENDBRANCH   5   6
BRANCH   5   8
ATOM      8  C   UNL     1     119.207 129.573 130.186  1.00  0.00    -0.011 C 
ATOM      9  C   UNL     1     120.389 128.752 129.647  1.00  0.00     0.008 C 
ATOM     10  C   UNL     1     119.022 130.865 129.374  1.00  0.00     0.008 C 
ENDBRANCH   5   8
ENDBRANCH   4   5
ENDBRANCH   1   3
BRANCH   1  11
ATOM     11  C   UNL     1     117.643 124.053 128.807  1.00  0.00     0.002 C 
ATOM     12  C   UNL     1     117.963 124.969 127.594  1.00  0.00     0.005 C 
ATOM     13  C   UNL     1     118.553 122.809 128.587  1.00  0.00    -0.023 C 
ATOM     14  C   UNL     1     118.665 124.100 126.542  1.00  0.00     0.009 C 
ATOM     15  C   UNL     1     118.484 122.678 127.060  1.00  0.00     0.021 C 
ATOM     16  C   UNL     1     118.011 121.480 129.173  1.00  0.00     0.008 C 
ATOM     17  C   UNL     1     120.008 123.084 129.082  1.00  0.00     0.012 C 
ATOM     18  C   UNL     1     119.357 121.548 126.553  1.00  0.00    -0.067 C 
ATOM     19  C   UNL     1     118.870 120.276 128.721  1.00  0.00     0.009 C 
ATOM     20  C   UNL     1     119.060 120.178 127.170  1.00  0.00     0.021 C 
ATOM     21  C   UNL     1     120.048 121.671 125.407  1.00  0.00    -0.027 C 
ATOM     22  C   UNL     1     120.015 119.000 126.707  1.00  0.00    -0.023 C 
ATOM     23  C   UNL     1     120.888 120.571 124.852  1.00  0.00     0.031 C 
ATOM     24  C   UNL     1     120.342 119.164 125.186  1.00  0.00     0.002 C 
ATOM     25  C   UNL     1     121.352 118.962 127.508  1.00  0.00     0.010 C 
ATOM     26  C   UNL     1     119.242 117.664 126.933  1.00  0.00     0.012 C 
ATOM     27  C   UNL     1     121.321 118.080 124.664  1.00  0.00     0.036 C 
ATOM     28  C   UNL     1     122.328 117.876 127.015  1.00  0.00     0.032 C 
ATOM     29  C   UNL     1     122.609 117.931 125.503  1.00  0.00     0.114 C 
BRANCH  29  30
ATOM     30  O   UNL     1     123.507 118.968 125.204  1.00  0.00    -0.393 OA
ATOM     31  H   UNL     1     123.826 119.335 126.069  1.00  0.00     0.210 HD
ENDBRANCH  29  30
ENDBRANCH   1  11
TORSDOF 6
ENDMDL
MODEL 9
REMARK VINA RESULT:    -6.333     12.032     14.417
REMARK INTER + INTRA:          -9.462
REMARK INTER:                  -8.264
REMARK INTRA:                  -1.198
REMARK UNBOUND:                -1.093
REMARK SMILES CC[C@H](C=C[C@@H](C)[C@H]1CC[C@H]2C3=CC[C@H]4C[C@@H](O)CC[C@@]4(C)[C@H]3CC[C@]12C)C(C)C
REMARK SMILES IDX 6 1 7 2 5 3 4 4 3 5 2 6 1 7 28 8 29 9 30 10 8 11 9 12 26 13
REMARK SMILES IDX 10 14 11 15 25 16 27 17 12 18 24 19 23 20 13 21 21 22 14 23
REMARK SMILES IDX 15 24 20 25 22 26 16 27 19 28 17 29 18 30
REMARK H PARENT 18 31
REMARK Flexibility Score: inf
ROOT
ATOM      1  C   UNL     1     126.199 118.817 122.903  1.00  0.00     0.012 C 
ATOM      2  C   UNL     1     124.836 118.111 122.948  1.00  0.00     0.012 C 
ENDROOT
BRANCH   1   3
ATOM      3  C   UNL     1     126.723 118.821 121.480  1.00  0.00    -0.028 C 
ATOM      4  C   UNL     1     126.550 119.861 120.646  1.00  0.00    -0.027 C 
BRANCH   4   5
ATOM      5  C   UNL     1     127.030 119.814 119.209  1.00  0.00     0.014 C 
BRANCH   5   6
ATOM      6  C   UNL     1     125.824 120.113 118.275  1.00  0.00     0.004 C 
ATOM      7  C   UNL     1     124.460 119.791 118.884  1.00  0.00     0.004 C 
ENDBRANCH   5   6
BRANCH   5   8
ATOM      8  C   UNL     1     128.276 120.749 119.037  1.00  0.00    -0.011 C 
ATOM      9  C   UNL     1     127.988 122.209 119.419  1.00  0.00     0.008 C 
ATOM     10  C   UNL     1     129.540 120.237 119.745  1.00  0.00     0.008 C 
ENDBRANCH   5   8
ENDBRANCH   4   5
ENDBRANCH   1   3
BRANCH   1  11
ATOM     11  C   UNL     1     127.251 118.192 123.879  1.00  0.00     0.002 C 
ATOM     12  C   UNL     1     128.528 117.721 123.132  1.00  0.00     0.005 C 
ATOM     13  C   UNL     1     127.799 119.082 125.033  1.00  0.00    -0.023 C 
ATOM     14  C   UNL     1     129.718 117.967 124.069  1.00  0.00     0.009 C 
ATOM     15  C   UNL     1     129.070 118.308 125.405  1.00  0.00     0.021 C 
ATOM     16  C   UNL     1     126.918 119.131 126.308  1.00  0.00     0.008 C 
ATOM     17  C   UNL     1     128.122 120.523 124.523  1.00  0.00     0.012 C 
ATOM     18  C   UNL     1     129.856 119.009 126.495  1.00  0.00    -0.067 C 
ATOM     19  C   UNL     1     127.643 119.859 127.463  1.00  0.00     0.009 C 
ATOM     20  C   UNL     1     129.067 119.290 127.778  1.00  0.00     0.021 C 
ATOM     21  C   UNL     1     131.199 119.027 126.474  1.00  0.00    -0.027 C 
ATOM     22  C   UNL     1     129.852 120.091 128.898  1.00  0.00    -0.023 C 
ATOM     23  C   UNL     1     132.012 119.671 127.545  1.00  0.00     0.031 C 
ATOM     24  C   UNL     1     131.340 119.609 128.935  1.00  0.00     0.002 C 
ATOM     25  C   UNL     1     129.830 121.632 128.663  1.00  0.00     0.010 C 
ATOM     26  C   UNL     1     129.166 119.769 130.261  1.00  0.00     0.012 C 
ATOM     27  C   UNL     1     132.196 120.385 129.971  1.00  0.00     0.036 C 
ATOM     28  C   UNL     1     130.658 122.420 129.695  1.00  0.00     0.032 C 
ATOM     29  C   UNL     1     132.106 121.921 129.843  1.00  0.00     0.114 C 
BRANCH  29  30
ATOM     30  O   UNL     1     132.896 122.367 128.771  1.00  0.00    -0.393 OA
ATOM     31  H   UNL     1     133.335 123.208 129.064  1.00  0.00     0.210 HD
ENDBRANCH  29  30
ENDBRANCH   1  11
TORSDOF 6
ENDMDL
