MODEL 1
REMARK VINA RESULT:    -4.596      0.000      0.000
REMARK INTER + INTRA:          -6.707
REMARK INTER:                  -6.209
REMARK INTRA:                  -0.499
REMARK UNBOUND:                -0.499
REMARK SMILES O=C[C@H](O)[C@H](O)[C@H](O)CO
REMARK SMILES IDX 7 1 9 2 10 3 5 5 3 6 2 7 1 8 4 9 6 11 8 13
REMARK H PARENT 10 4 4 10 6 12 8 14
REMARK Flexibility Score: inf
ROOT
ATOM      1  C   UNL     1      52.651   4.275 137.801  1.00  0.00     0.171 C 
ENDROOT
BRANCH   1   2
ATOM      2  C   UNL     1      54.136   3.935 138.022  1.00  0.00     0.190 C 
BRANCH   2   3
ATOM      3  O   UNL     1      54.374   3.631 139.371  1.00  0.00    -0.394 OA
ATOM      4  H   UNL     1      53.519   3.775 139.854  1.00  0.00     0.210 HD
ENDBRANCH   2   3
ENDBRANCH   1   2
BRANCH   1   5
ATOM      5  C   UNL     1      52.402   5.797 137.932  1.00  0.00     0.181 C 
BRANCH   5   6
ATOM      6  C   UNL     1      52.772   6.552 136.632  1.00  0.00     0.209 C 
BRANCH   6   7
ATOM      7  C   UNL     1      52.032   7.861 136.539  1.00  0.00     0.258 C 
ATOM      8  O   UNL     1      52.247   8.755 137.341  1.00  0.00    -0.300 OA
ENDBRANCH   6   7
BRANCH   6   9
ATOM      9  O   UNL     1      52.459   5.769 135.510  1.00  0.00    -0.383 OA
ATOM     10  H   UNL     1      53.288   5.284 135.257  1.00  0.00     0.211 HD
ENDBRANCH   6   9
ENDBRANCH   5   6
BRANCH   5  11
ATOM     11  O   UNL     1      53.182   6.295 138.993  1.00  0.00    -0.387 OA
ATOM     12  H   UNL     1      52.910   7.239 139.141  1.00  0.00     0.211 HD
ENDBRANCH   5  11
ENDBRANCH   1   5
BRANCH   1  13
ATOM     13  O   UNL     1      51.876   3.586 138.751  1.00  0.00    -0.388 OA
ATOM     14  H   UNL     1      52.062   2.617 138.633  1.00  0.00     0.211 HD
ENDBRANCH   1  13
TORSDOF 8
ENDMDL
MODEL 2
REMARK VINA RESULT:    -4.393     20.441     21.536
REMARK INTER + INTRA:          -6.433
REMARK INTER:                  -5.821
REMARK INTRA:                  -0.612
REMARK UNBOUND:                -0.499
REMARK SMILES O=C[C@H](O)[C@H](O)[C@H](O)CO
REMARK SMILES IDX 7 1 9 2 10 3 5 5 3 6 2 7 1 8 4 9 6 11 8 13
REMARK H PARENT 10 4 4 10 6 12 8 14
REMARK Flexibility Score: inf
ROOT
ATOM      1  C   UNL     1      67.559   3.902 123.824  1.00  0.00     0.171 C 
ENDROOT
BRANCH   1   2
ATOM      2  C   UNL     1      66.466   4.948 124.109  1.00  0.00     0.190 C 
BRANCH   2   3
ATOM      3  O   UNL     1      66.425   5.906 123.085  1.00  0.00    -0.394 OA
ATOM      4  H   UNL     1      66.217   5.421 122.245  1.00  0.00     0.210 HD
ENDBRANCH   2   3
ENDBRANCH   1   2
BRANCH   1   5
ATOM      5  C   UNL     1      68.969   4.536 123.894  1.00  0.00     0.181 C 
BRANCH   5   6
ATOM      6  C   UNL     1      70.073   3.463 124.057  1.00  0.00     0.209 C 
BRANCH   6   7
ATOM      7  C   UNL     1      71.435   4.099 124.145  1.00  0.00     0.258 C 
ATOM      8  O   UNL     1      71.792   4.668 125.164  1.00  0.00    -0.300 OA
ENDBRANCH   6   7
BRANCH   6   9
ATOM      9  O   UNL     1      70.051   2.575 122.970  1.00  0.00    -0.383 OA
ATOM     10  H   UNL     1      70.261   3.107 122.159  1.00  0.00     0.211 HD
ENDBRANCH   6   9
ENDBRANCH   5   6
BRANCH   5  11
ATOM     11  O   UNL     1      69.016   5.418 124.991  1.00  0.00    -0.387 OA
ATOM     12  H   UNL     1      69.473   4.941 125.733  1.00  0.00     0.211 HD
ENDBRANCH   5  11
ENDBRANCH   1   5
BRANCH   1  13
ATOM     13  O   UNL     1      67.350   3.356 122.544  1.00  0.00    -0.388 OA
ATOM     14  H   UNL     1      67.255   2.374 122.658  1.00  0.00     0.211 HD
ENDBRANCH   1  13
TORSDOF 8
ENDMDL
MODEL 3
REMARK VINA RESULT:    -4.264     20.910     21.919
REMARK INTER + INTRA:          -6.258
REMARK INTER:                  -5.608
REMARK INTRA:                  -0.651
REMARK UNBOUND:                -0.499
REMARK SMILES O=C[C@H](O)[C@H](O)[C@H](O)CO
REMARK SMILES IDX 7 1 9 2 10 3 5 5 3 6 2 7 1 8 4 9 6 11 8 13
REMARK H PARENT 10 4 4 10 6 12 8 14
REMARK Flexibility Score: inf
ROOT
ATOM      1  C   UNL     1      70.835   4.942 123.881  1.00  0.00     0.171 C 
ENDROOT
BRANCH   1   2
ATOM      2  C   UNL     1      71.598   6.182 123.383  1.00  0.00     0.190 C 
BRANCH   2   3
ATOM      3  O   UNL     1      71.359   6.389 122.015  1.00  0.00    -0.394 OA
ATOM      4  H   UNL     1      70.380   6.513 121.910  1.00  0.00     0.210 HD
ENDBRANCH   2   3
ENDBRANCH   1   2
BRANCH   1   5
ATOM      5  C   UNL     1      69.332   5.254 124.077  1.00  0.00     0.181 C 
BRANCH   5   6
ATOM      6  C   UNL     1      68.437   4.087 123.594  1.00  0.00     0.209 C 
BRANCH   6   7
ATOM      7  C   UNL     1      67.062   4.172 124.204  1.00  0.00     0.258 C 
ATOM      8  O   UNL     1      66.459   5.234 124.232  1.00  0.00    -0.300 OA
ENDBRANCH   6   7
BRANCH   6   9
ATOM      9  O   UNL     1      69.015   2.855 123.941  1.00  0.00    -0.383 OA
ATOM     10  H   UNL     1      69.993   2.943 123.790  1.00  0.00     0.211 HD
ENDBRANCH   6   9
ENDBRANCH   5   6
BRANCH   5  11
ATOM     11  O   UNL     1      69.011   6.414 123.348  1.00  0.00    -0.387 OA
ATOM     12  H   UNL     1      69.867   6.836 123.073  1.00  0.00     0.211 HD
ENDBRANCH   5  11
ENDBRANCH   1   5
BRANCH   1  13
ATOM     13  O   UNL     1      71.393   4.520 125.102  1.00  0.00    -0.388 OA
ATOM     14  H   UNL     1      70.668   4.550 125.780  1.00  0.00     0.211 HD
ENDBRANCH   1  13
TORSDOF 8
ENDMDL
MODEL 4
REMARK VINA RESULT:    -4.185      1.313      3.848
REMARK INTER + INTRA:          -6.152
REMARK INTER:                  -5.763
REMARK INTRA:                  -0.389
REMARK UNBOUND:                -0.499
REMARK SMILES O=C[C@H](O)[C@H](O)[C@H](O)CO
REMARK SMILES IDX 7 1 9 2 10 3 5 5 3 6 2 7 1 8 4 9 6 11 8 13
REMARK H PARENT 10 4 4 10 6 12 8 14
REMARK Flexibility Score: inf
ROOT
ATOM      1  C   UNL     1      52.015   8.104 137.272  1.00  0.00     0.171 C 
ENDROOT
BRANCH   1   2
ATOM      2  C   UNL     1      52.625   9.378 137.885  1.00  0.00     0.190 C 
BRANCH   2   3
ATOM      3  O   UNL     1      53.695   9.051 138.732  1.00  0.00    -0.394 OA
ATOM      4  H   UNL     1      54.016   8.153 138.457  1.00  0.00     0.210 HD
ENDBRANCH   2   3
ENDBRANCH   1   2
BRANCH   1   5
ATOM      5  C   UNL     1      52.908   6.870 137.547  1.00  0.00     0.181 C 
BRANCH   5   6
ATOM      6  C   UNL     1      52.353   5.597 136.864  1.00  0.00     0.209 C 
BRANCH   6   7
ATOM      7  C   UNL     1      52.960   4.355 137.462  1.00  0.00     0.258 C 
ATOM      8  O   UNL     1      54.133   4.336 137.799  1.00  0.00    -0.300 OA
ENDBRANCH   6   7
BRANCH   6   9
ATOM      9  O   UNL     1      52.630   5.625 135.488  1.00  0.00    -0.383 OA
ATOM     10  H   UNL     1      53.604   5.791 135.393  1.00  0.00     0.211 HD
ENDBRANCH   6   9
ENDBRANCH   5   6
BRANCH   5  11
ATOM     11  O   UNL     1      52.972   6.658 138.938  1.00  0.00    -0.387 OA
ATOM     12  H   UNL     1      53.327   7.491 139.347  1.00  0.00     0.211 HD
ENDBRANCH   5  11
ENDBRANCH   1   5
BRANCH   1  13
ATOM     13  O   UNL     1      51.875   8.285 135.884  1.00  0.00    -0.388 OA
ATOM     14  H   UNL     1      52.192   9.203 135.676  1.00  0.00     0.211 HD
ENDBRANCH   1  13
TORSDOF 8
ENDMDL
MODEL 5
REMARK VINA RESULT:    -4.084     21.083     22.097
REMARK INTER + INTRA:          -6.016
REMARK INTER:                  -5.456
REMARK INTRA:                  -0.560
REMARK UNBOUND:                -0.499
REMARK SMILES O=C[C@H](O)[C@H](O)[C@H](O)CO
REMARK SMILES IDX 7 1 9 2 10 3 5 5 3 6 2 7 1 8 4 9 6 11 8 13
REMARK H PARENT 10 4 4 10 6 12 8 14
REMARK Flexibility Score: inf
ROOT
ATOM      1  C   UNL     1      70.837   5.500 123.881  1.00  0.00     0.171 C 
ENDROOT
BRANCH   1   2
ATOM      2  C   UNL     1      72.125   4.940 124.512  1.00  0.00     0.190 C 
BRANCH   2   3
ATOM      3  O   UNL     1      71.900   4.580 125.849  1.00  0.00    -0.394 OA
ATOM      4  H   UNL     1      72.656   3.996 126.121  1.00  0.00     0.210 HD
ENDBRANCH   2   3
ENDBRANCH   1   2
BRANCH   1   5
ATOM      5  C   UNL     1      69.825   4.368 123.581  1.00  0.00     0.181 C 
BRANCH   5   6
ATOM      6  C   UNL     1      68.405   4.721 124.088  1.00  0.00     0.209 C 
BRANCH   6   7
ATOM      7  C   UNL     1      67.418   3.645 123.720  1.00  0.00     0.258 C 
ATOM      8  O   UNL     1      67.752   2.711 123.008  1.00  0.00    -0.300 OA
ENDBRANCH   6   7
BRANCH   6   9
ATOM      9  O   UNL     1      67.981   5.940 123.536  1.00  0.00    -0.383 OA
ATOM     10  H   UNL     1      68.077   5.858 122.551  1.00  0.00     0.211 HD
ENDBRANCH   6   9
ENDBRANCH   5   6
BRANCH   5  11
ATOM     11  O   UNL     1      70.262   3.190 124.215  1.00  0.00    -0.387 OA
ATOM     12  H   UNL     1      70.968   3.449 124.865  1.00  0.00     0.211 HD
ENDBRANCH   5  11
ENDBRANCH   1   5
BRANCH   1  13
ATOM     13  O   UNL     1      71.165   6.169 122.687  1.00  0.00    -0.388 OA
ATOM     14  H   UNL     1      71.636   7.006 122.941  1.00  0.00     0.211 HD
ENDBRANCH   1  13
TORSDOF 8
ENDMDL
MODEL 6
REMARK VINA RESULT:    -4.084     20.948     22.000
REMARK INTER + INTRA:          -6.015
REMARK INTER:                  -5.451
REMARK INTRA:                  -0.564
REMARK UNBOUND:                -0.499
REMARK SMILES O=C[C@H](O)[C@H](O)[C@H](O)CO
REMARK SMILES IDX 7 1 9 2 10 3 5 5 3 6 2 7 1 8 4 9 6 11 8 13
REMARK H PARENT 10 4 4 10 6 12 8 14
REMARK Flexibility Score: inf
ROOT
ATOM      1  C   UNL     1      68.524   4.864 124.072  1.00  0.00     0.171 C 
ENDROOT
BRANCH   1   2
ATOM      2  C   UNL     1      67.353   3.869 123.972  1.00  0.00     0.190 C 
BRANCH   2   3
ATOM      3  O   UNL     1      66.911   3.762 122.644  1.00  0.00    -0.394 OA
ATOM      4  H   UNL     1      66.604   2.827 122.518  1.00  0.00     0.210 HD
ENDBRANCH   2   3
ENDBRANCH   1   2
BRANCH   1   5
ATOM      5  C   UNL     1      69.885   4.128 124.030  1.00  0.00     0.181 C 
BRANCH   5   6
ATOM      6  C   UNL     1      70.994   5.009 123.407  1.00  0.00     0.209 C 
BRANCH   6   7
ATOM      7  C   UNL     1      72.124   5.223 124.379  1.00  0.00     0.258 C 
ATOM      8  O   UNL     1      72.060   4.779 125.514  1.00  0.00    -0.300 OA
ENDBRANCH   6   7
BRANCH   6   9
ATOM      9  O   UNL     1      70.470   6.257 123.033  1.00  0.00    -0.383 OA
ATOM     10  H   UNL     1      69.866   6.096 122.261  1.00  0.00     0.211 HD
ENDBRANCH   6   9
ENDBRANCH   5   6
BRANCH   5  11
ATOM     11  O   UNL     1      69.743   2.954 123.265  1.00  0.00    -0.387 OA
ATOM     12  H   UNL     1      69.731   3.225 122.309  1.00  0.00     0.211 HD
ENDBRANCH   5  11
ENDBRANCH   1   5
BRANCH   1  13
ATOM     13  O   UNL     1      68.413   5.584 125.275  1.00  0.00    -0.388 OA
ATOM     14  H   UNL     1      67.445   5.647 125.489  1.00  0.00     0.211 HD
ENDBRANCH   1  13
TORSDOF 8
ENDMDL
MODEL 7
REMARK VINA RESULT:    -3.946     12.477     13.927
REMARK INTER + INTRA:          -5.829
REMARK INTER:                  -5.330
REMARK INTRA:                  -0.498
REMARK UNBOUND:                -0.499
REMARK SMILES O=C[C@H](O)[C@H](O)[C@H](O)CO
REMARK SMILES IDX 7 1 9 2 10 3 5 5 3 6 2 7 1 8 4 9 6 11 8 13
REMARK H PARENT 10 4 4 10 6 12 8 14
REMARK Flexibility Score: inf
ROOT
ATOM      1  C   UNL     1      52.884   4.027 125.352  1.00  0.00     0.171 C 
ENDROOT
BRANCH   1   2
ATOM      2  C   UNL     1      53.229   2.531 125.462  1.00  0.00     0.190 C 
BRANCH   2   3
ATOM      3  O   UNL     1      53.758   2.241 126.729  1.00  0.00    -0.394 OA
ATOM      4  H   UNL     1      53.845   3.105 127.209  1.00  0.00     0.210 HD
ENDBRANCH   2   3
ENDBRANCH   1   2
BRANCH   1   5
ATOM      5  C   UNL     1      52.064   4.317 124.072  1.00  0.00     0.181 C 
BRANCH   5   6
ATOM      6  C   UNL     1      52.781   3.798 122.802  1.00  0.00     0.209 C 
BRANCH   6   7
ATOM      7  C   UNL     1      53.181   4.939 121.903  1.00  0.00     0.258 C 
ATOM      8  O   UNL     1      54.097   5.684 122.214  1.00  0.00    -0.300 OA
ENDBRANCH   6   7
BRANCH   6   9
ATOM      9  O   UNL     1      51.940   2.928 122.091  1.00  0.00    -0.383 OA
ATOM     10  H   UNL     1      51.058   3.378 122.014  1.00  0.00     0.211 HD
ENDBRANCH   6   9
ENDBRANCH   5   6
BRANCH   5  11
ATOM     11  O   UNL     1      51.875   5.708 123.960  1.00  0.00    -0.387 OA
ATOM     12  H   UNL     1      52.749   6.104 123.704  1.00  0.00     0.211 HD
ENDBRANCH   5  11
ENDBRANCH   1   5
BRANCH   1  13
ATOM     13  O   UNL     1      54.077   4.773 125.329  1.00  0.00    -0.388 OA
ATOM     14  H   UNL     1      54.731   4.259 124.786  1.00  0.00     0.211 HD
ENDBRANCH   1  13
TORSDOF 8
ENDMDL
MODEL 8
REMARK VINA RESULT:    -3.727     12.510     14.342
REMARK INTER + INTRA:          -5.533
REMARK INTER:                  -4.867
REMARK INTRA:                  -0.666
REMARK UNBOUND:                -0.499
REMARK SMILES O=C[C@H](O)[C@H](O)[C@H](O)CO
REMARK SMILES IDX 7 1 9 2 10 3 5 5 3 6 2 7 1 8 4 9 6 11 8 13
REMARK H PARENT 10 4 4 10 6 12 8 14
REMARK Flexibility Score: inf
ROOT
ATOM      1  C   UNL     1      53.632   4.521 123.120  1.00  0.00     0.171 C 
ENDROOT
BRANCH   1   2
ATOM      2  C   UNL     1      53.370   5.490 121.953  1.00  0.00     0.190 C 
BRANCH   2   3
ATOM      3  O   UNL     1      52.010   5.826 121.889  1.00  0.00    -0.394 OA
ATOM      4  H   UNL     1      51.821   6.411 122.668  1.00  0.00     0.210 HD
ENDBRANCH   2   3
ENDBRANCH   1   2
BRANCH   1   5
ATOM      5  C   UNL     1      52.334   3.788 123.538  1.00  0.00     0.181 C 
BRANCH   5   6
ATOM      6  C   UNL     1      52.567   2.856 124.751  1.00  0.00     0.209 C 
BRANCH   6   7
ATOM      7  C   UNL     1      51.975   3.443 126.005  1.00  0.00     0.258 C 
ATOM      8  O   UNL     1      52.295   4.559 126.381  1.00  0.00    -0.300 OA
ENDBRANCH   6   7
BRANCH   6   9
ATOM      9  O   UNL     1      53.942   2.649 124.948  1.00  0.00    -0.383 OA
ATOM     10  H   UNL     1      54.052   2.301 125.871  1.00  0.00     0.211 HD
ENDBRANCH   6   9
ENDBRANCH   5   6
BRANCH   5  11
ATOM     11  O   UNL     1      51.875   3.023 122.449  1.00  0.00    -0.387 OA
ATOM     12  H   UNL     1      51.844   2.076 122.747  1.00  0.00     0.211 HD
ENDBRANCH   5  11
ENDBRANCH   1   5
BRANCH   1  13
ATOM     13  O   UNL     1      54.137   5.247 124.214  1.00  0.00    -0.388 OA
ATOM     14  H   UNL     1      54.238   6.189 123.918  1.00  0.00     0.211 HD
ENDBRANCH   1  13
TORSDOF 8
ENDMDL
