MODEL 1
REMARK VINA RESULT:    -3.586      0.000      0.000
REMARK INTER + INTRA:          -4.019
REMARK INTER:                  -4.005
REMARK INTRA:                  -0.013
REMARK UNBOUND:                -0.013
REMARK SMILES CCCC(=O)[O-]
REMARK SMILES IDX 3 1 4 2 5 3 6 4 2 5 1 6
REMARK H PARENT
REMARK Flexibility Score: inf
ROOT
ATOM      1  C   UNL     1      17.228 115.762 291.982  1.00  0.00     0.052 C 
ENDROOT
BRANCH   1   2
ATOM      2  C   UNL     1      18.073 115.428 290.792  1.00  0.00     0.041 C 
ATOM      3  O   UNL     1      19.293 115.740 290.773  1.00  0.00    -0.550 OA
ATOM      4  O   UNL     1      17.522 114.744 289.715  1.00  0.00    -0.550 OA
ENDBRANCH   1   2
BRANCH   1   5
ATOM      5  C   UNL     1      17.759 116.990 292.731  1.00  0.00     0.003 C 
ATOM      6  C   UNL     1      17.253 117.058 294.171  1.00  0.00     0.004 C 
ENDBRANCH   1   5
TORSDOF 2
ENDMDL
MODEL 2
REMARK VINA RESULT:    -3.564      2.508      3.459
REMARK INTER + INTRA:          -3.994
REMARK INTER:                  -3.988
REMARK INTRA:                  -0.006
REMARK UNBOUND:                -0.013
REMARK SMILES CCCC(=O)[O-]
REMARK SMILES IDX 3 1 4 2 5 3 6 4 2 5 1 6
REMARK H PARENT
REMARK Flexibility Score: inf
ROOT
ATOM      1  C   UNL     1      17.271 116.127 292.490  1.00  0.00     0.052 C 
ENDROOT
BRANCH   1   2
ATOM      2  C   UNL     1      17.659 117.421 293.136  1.00  0.00     0.041 C 
ATOM      3  O   UNL     1      18.855 117.629 293.471  1.00  0.00    -0.550 OA
ATOM      4  O   UNL     1      16.706 118.412 293.339  1.00  0.00    -0.550 OA
ENDBRANCH   1   2
BRANCH   1   5
ATOM      5  C   UNL     1      18.100 115.850 291.230  1.00  0.00     0.003 C 
ATOM      6  C   UNL     1      17.590 114.637 290.452  1.00  0.00     0.004 C 
ENDBRANCH   1   5
TORSDOF 2
ENDMDL
MODEL 3
REMARK VINA RESULT:    -3.562      2.592      3.632
REMARK INTER + INTRA:          -3.991
REMARK INTER:                  -3.986
REMARK INTRA:                  -0.005
REMARK UNBOUND:                -0.013
REMARK SMILES CCCC(=O)[O-]
REMARK SMILES IDX 3 1 4 2 5 3 6 4 2 5 1 6
REMARK H PARENT
REMARK Flexibility Score: inf
ROOT
ATOM      1  C   UNL     1      17.317 116.154 292.472  1.00  0.00     0.052 C 
ENDROOT
BRANCH   1   2
ATOM      2  C   UNL     1      17.640 117.452 293.145  1.00  0.00     0.041 C 
ATOM      3  O   UNL     1      16.737 118.309 293.334  1.00  0.00    -0.550 OA
ATOM      4  O   UNL     1      18.931 117.702 293.594  1.00  0.00    -0.550 OA
ENDBRANCH   1   2
BRANCH   1   5
ATOM      5  C   UNL     1      18.171 115.936 291.217  1.00  0.00     0.003 C 
ATOM      6  C   UNL     1      17.658 114.783 290.356  1.00  0.00     0.004 C 
ENDBRANCH   1   5
TORSDOF 2
ENDMDL
MODEL 4
REMARK VINA RESULT:    -3.436      2.814      3.688
REMARK INTER + INTRA:          -3.851
REMARK INTER:                  -3.845
REMARK INTRA:                  -0.006
REMARK UNBOUND:                -0.013
REMARK SMILES CCCC(=O)[O-]
REMARK SMILES IDX 3 1 4 2 5 3 6 4 2 5 1 6
REMARK H PARENT
REMARK Flexibility Score: inf
ROOT
ATOM      1  C   UNL     1      18.027 116.659 292.223  1.00  0.00     0.052 C 
ENDROOT
BRANCH   1   2
ATOM      2  C   UNL     1      17.232 117.177 293.382  1.00  0.00     0.041 C 
ATOM      3  O   UNL     1      16.685 118.310 293.320  1.00  0.00    -0.550 OA
ATOM      4  O   UNL     1      17.066 116.394 294.518  1.00  0.00    -0.550 OA
ENDBRANCH   1   2
BRANCH   1   5
ATOM      5  C   UNL     1      17.347 115.456 291.559  1.00  0.00     0.003 C 
ATOM      6  C   UNL     1      17.621 115.388 290.057  1.00  0.00     0.004 C 
ENDBRANCH   1   5
TORSDOF 2
ENDMDL
MODEL 5
REMARK VINA RESULT:    -3.422      2.782      3.701
REMARK INTER + INTRA:          -3.836
REMARK INTER:                  -3.830
REMARK INTRA:                  -0.005
REMARK UNBOUND:                -0.013
REMARK SMILES CCCC(=O)[O-]
REMARK SMILES IDX 3 1 4 2 5 3 6 4 2 5 1 6
REMARK H PARENT
REMARK Flexibility Score: inf
ROOT
ATOM      1  C   UNL     1      17.984 116.636 292.246  1.00  0.00     0.052 C 
ENDROOT
BRANCH   1   2
ATOM      2  C   UNL     1      17.190 117.144 293.410  1.00  0.00     0.041 C 
ATOM      3  O   UNL     1      17.065 116.442 294.448  1.00  0.00    -0.550 OA
ATOM      4  O   UNL     1      16.615 118.409 293.361  1.00  0.00    -0.550 OA
ENDBRANCH   1   2
BRANCH   1   5
ATOM      5  C   UNL     1      17.323 115.414 291.597  1.00  0.00     0.003 C 
ATOM      6  C   UNL     1      17.613 115.321 290.100  1.00  0.00     0.004 C 
ENDBRANCH   1   5
TORSDOF 2
ENDMDL
MODEL 6
REMARK VINA RESULT:    -3.125      6.708      7.358
REMARK INTER + INTRA:          -3.504
REMARK INTER:                  -3.476
REMARK INTRA:                  -0.027
REMARK UNBOUND:                -0.013
REMARK SMILES CCCC(=O)[O-]
REMARK SMILES IDX 3 1 4 2 5 3 6 4 2 5 1 6
REMARK H PARENT
REMARK Flexibility Score: inf
ROOT
ATOM      1  C   UNL     1      24.473 118.474 288.593  1.00  0.00     0.052 C 
ENDROOT
BRANCH   1   2
ATOM      2  C   UNL     1      24.184 117.601 289.775  1.00  0.00     0.041 C 
ATOM      3  O   UNL     1      24.858 117.721 290.832  1.00  0.00    -0.550 OA
ATOM      4  O   UNL     1      23.147 116.677 289.721  1.00  0.00    -0.550 OA
ENDBRANCH   1   2
BRANCH   1   5
ATOM      5  C   UNL     1      23.294 118.515 287.614  1.00  0.00     0.003 C 
ATOM      6  C   UNL     1      22.641 119.895 287.545  1.00  0.00     0.004 C 
ENDBRANCH   1   5
TORSDOF 2
ENDMDL
MODEL 7
REMARK VINA RESULT:    -3.070      7.107      7.465
REMARK INTER + INTRA:          -3.443
REMARK INTER:                  -3.436
REMARK INTRA:                  -0.006
REMARK UNBOUND:                -0.013
REMARK SMILES CCCC(=O)[O-]
REMARK SMILES IDX 3 1 4 2 5 3 6 4 2 5 1 6
REMARK H PARENT
REMARK Flexibility Score: inf
ROOT
ATOM      1  C   UNL     1      24.571 118.960 288.693  1.00  0.00     0.052 C 
ENDROOT
BRANCH   1   2
ATOM      2  C   UNL     1      23.291 118.983 287.916  1.00  0.00     0.041 C 
ATOM      3  O   UNL     1      22.786 120.080 287.558  1.00  0.00    -0.550 OA
ATOM      4  O   UNL     1      22.673 117.791 287.558  1.00  0.00    -0.550 OA
ENDBRANCH   1   2
BRANCH   1   5
ATOM      5  C   UNL     1      24.496 117.997 289.884  1.00  0.00     0.003 C 
ATOM      6  C   UNL     1      25.215 118.539 291.119  1.00  0.00     0.004 C 
ENDBRANCH   1   5
TORSDOF 2
ENDMDL
MODEL 8
REMARK VINA RESULT:    -2.999      7.064      7.505
REMARK INTER + INTRA:          -3.363
REMARK INTER:                  -3.327
REMARK INTRA:                  -0.037
REMARK UNBOUND:                -0.013
REMARK SMILES CCCC(=O)[O-]
REMARK SMILES IDX 3 1 4 2 5 3 6 4 2 5 1 6
REMARK H PARENT
REMARK Flexibility Score: inf
ROOT
ATOM      1  C   UNL     1      24.655 118.721 288.644  1.00  0.00     0.052 C 
ENDROOT
BRANCH   1   2
ATOM      2  C   UNL     1      23.328 118.822 287.957  1.00  0.00     0.041 C 
ATOM      3  O   UNL     1      22.665 117.783 287.702  1.00  0.00    -0.550 OA
ATOM      4  O   UNL     1      22.808 120.068 287.627  1.00  0.00    -0.550 OA
ENDBRANCH   1   2
BRANCH   1   5
ATOM      5  C   UNL     1      24.506 118.297 290.110  1.00  0.00     0.003 C 
ATOM      6  C   UNL     1      25.101 116.916 290.381  1.00  0.00     0.004 C 
ENDBRANCH   1   5
TORSDOF 2
ENDMDL
MODEL 9
REMARK VINA RESULT:    -2.939      3.625      4.456
REMARK INTER + INTRA:          -3.296
REMARK INTER:                  -3.287
REMARK INTRA:                  -0.008
REMARK UNBOUND:                -0.013
REMARK SMILES CCCC(=O)[O-]
REMARK SMILES IDX 3 1 4 2 5 3 6 4 2 5 1 6
REMARK H PARENT
REMARK Flexibility Score: inf
ROOT
ATOM      1  C   UNL     1      17.129 116.867 294.321  1.00  0.00     0.052 C 
ENDROOT
BRANCH   1   2
ATOM      2  C   UNL     1      18.034 117.295 295.435  1.00  0.00     0.041 C 
ATOM      3  O   UNL     1      18.210 116.545 296.431  1.00  0.00    -0.550 OA
ATOM      4  O   UNL     1      18.710 118.506 295.357  1.00  0.00    -0.550 OA
ENDBRANCH   1   2
BRANCH   1   5
ATOM      5  C   UNL     1      17.706 117.230 292.948  1.00  0.00     0.003 C 
ATOM      6  C   UNL     1      17.553 116.098 291.933  1.00  0.00     0.004 C 
ENDBRANCH   1   5
TORSDOF 2
ENDMDL
