MODEL 1
REMARK VINA RESULT:    -6.278      0.000      0.000
REMARK INTER + INTRA:          -9.664
REMARK INTER:                  -8.297
REMARK INTRA:                  -1.367
REMARK UNBOUND:                -1.367
REMARK SMILES CC(C)=CCC[C@@H](C(=O)[O-])[C@@H]1CC[C@]2(C)C3=C(CC[C@@]12C)[C@@]1(C)CC[C@H](O)C(C)(C)[C@H]1CC3
REMARK SMILES IDX 6 1 7 2 8 3 9 4 10 5 11 6 12 7 20 8 13 9 14 10 19 11 21 12
REMARK SMILES IDX 15 13 16 14 18 15 17 16 33 17 22 18 32 19 31 20 24 21 23 22
REMARK SMILES IDX 28 23 25 24 26 25 29 26 30 27 27 28 5 30 4 31 2 32 1 33 3 34
REMARK H PARENT 27 29
REMARK Flexibility Score: inf
ROOT
ATOM      1  C   UNL     1     128.805 141.893 106.846  1.00  0.00     0.014 C 
ENDROOT
BRANCH   1   2
ATOM      2  C   UNL     1     129.733 141.695 108.074  1.00  0.00     0.039 C 
BRANCH   2   3
ATOM      3  C   UNL     1     130.936 140.888 107.633  1.00  0.00     0.045 C 
ATOM      4  O   UNL     1     131.475 140.075 108.430  1.00  0.00    -0.550 OA
ATOM      5  O   UNL     1     131.396 140.949 106.322  1.00  0.00    -0.550 OA
ENDBRANCH   2   3
BRANCH   2   6
ATOM      6  C   UNL     1     130.057 143.056 108.786  1.00  0.00     0.004 C 
ATOM      7  C   UNL     1     131.525 143.549 108.724  1.00  0.00     0.006 C 
ATOM      8  C   UNL     1     129.664 143.234 110.275  1.00  0.00    -0.020 C 
ATOM      9  C   UNL     1     131.785 144.338 110.028  1.00  0.00     0.012 C 
ATOM     10  C   UNL     1     130.392 144.561 110.644  1.00  0.00    -0.006 C 
ATOM     11  C   UNL     1     128.165 143.422 110.561  1.00  0.00     0.012 C 
ATOM     12  C   UNL     1     130.176 142.013 111.114  1.00  0.00     0.012 C 
ATOM     13  C   UNL     1     129.803 145.861 110.000  1.00  0.00     0.017 C 
ATOM     14  C   UNL     1     130.297 144.773 112.144  1.00  0.00    -0.064 C 
ATOM     15  C   UNL     1     127.925 143.871 112.032  1.00  0.00     0.032 C 
ATOM     16  C   UNL     1     129.098 144.563 112.774  1.00  0.00    -0.064 C 
ATOM     17  C   UNL     1     131.412 145.455 112.889  1.00  0.00     0.032 C 
ATOM     18  C   UNL     1     128.994 144.822 114.307  1.00  0.00    -0.008 C 
ATOM     19  C   UNL     1     130.811 146.617 113.657  1.00  0.00     0.009 C 
ATOM     20  C   UNL     1     129.806 146.138 114.760  1.00  0.00     0.007 C 
ATOM     21  C   UNL     1     129.533 143.518 114.965  1.00  0.00     0.014 C 
ATOM     22  C   UNL     1     127.496 145.001 114.687  1.00  0.00     0.016 C 
ATOM     23  C   UNL     1     130.373 146.139 116.266  1.00  0.00    -0.006 C 
ATOM     24  C   UNL     1     129.825 143.644 116.449  1.00  0.00     0.033 C 
ATOM     25  C   UNL     1     130.873 144.726 116.693  1.00  0.00     0.120 C 
ATOM     26  C   UNL     1     131.562 147.125 116.453  1.00  0.00     0.014 C 
ATOM     27  C   UNL     1     129.282 146.647 117.260  1.00  0.00     0.014 C 
BRANCH  25  28
ATOM     28  O   UNL     1     131.220 144.705 118.058  1.00  0.00    -0.393 OA
ATOM     29  H   UNL     1     130.564 144.123 118.523  1.00  0.00     0.210 HD
ENDBRANCH  25  28
ENDBRANCH   2   6
ENDBRANCH   1   2
BRANCH   1  30
ATOM     30  C   UNL     1     127.554 142.756 107.129  1.00  0.00     0.028 C 
BRANCH  30  31
ATOM     31  C   UNL     1     127.183 143.630 105.954  1.00  0.00    -0.028 C 
ATOM     32  C   UNL     1     127.722 144.845 105.708  1.00  0.00    -0.080 C 
ATOM     33  C   UNL     1     128.805 145.434 106.583  1.00  0.00     0.039 C 
ATOM     34  C   UNL     1     127.239 145.613 104.505  1.00  0.00     0.039 C 
ENDBRANCH  30  31
ENDBRANCH   1  30
TORSDOF 6
ENDMDL
MODEL 2
REMARK VINA RESULT:    -6.274      4.168      8.897
REMARK INTER + INTRA:          -9.659
REMARK INTER:                  -8.480
REMARK INTRA:                  -1.179
REMARK UNBOUND:                -1.367
REMARK SMILES CC(C)=CCC[C@@H](C(=O)[O-])[C@@H]1CC[C@]2(C)C3=C(CC[C@@]12C)[C@@]1(C)CC[C@H](O)C(C)(C)[C@H]1CC3
REMARK SMILES IDX 6 1 7 2 8 3 9 4 10 5 11 6 12 7 20 8 13 9 14 10 19 11 21 12
REMARK SMILES IDX 15 13 16 14 18 15 17 16 33 17 22 18 32 19 31 20 24 21 23 22
REMARK SMILES IDX 28 23 25 24 26 25 29 26 30 27 27 28 5 30 4 31 2 32 1 33 3 34
REMARK H PARENT 27 29
REMARK Flexibility Score: inf
ROOT
ATOM      1  C   UNL     1     131.540 145.859 108.088  1.00  0.00     0.014 C 
ENDROOT
BRANCH   1   2
ATOM      2  C   UNL     1     130.657 144.843 108.860  1.00  0.00     0.039 C 
BRANCH   2   3
ATOM      3  C   UNL     1     129.915 145.592 109.947  1.00  0.00     0.045 C 
ATOM      4  O   UNL     1     129.500 146.762 109.735  1.00  0.00    -0.550 OA
ATOM      5  O   UNL     1     129.586 144.970 111.146  1.00  0.00    -0.550 OA
ENDBRANCH   2   3
BRANCH   2   6
ATOM      6  C   UNL     1     129.759 143.996 107.891  1.00  0.00     0.004 C 
ATOM      7  C   UNL     1     128.233 143.998 108.165  1.00  0.00     0.006 C 
ATOM      8  C   UNL     1     130.099 142.499 107.672  1.00  0.00    -0.020 C 
ATOM      9  C   UNL     1     127.699 142.620 107.714  1.00  0.00     0.012 C 
ATOM     10  C   UNL     1     128.844 141.994 106.899  1.00  0.00    -0.006 C 
ATOM     11  C   UNL     1     131.337 142.206 106.809  1.00  0.00     0.012 C 
ATOM     12  C   UNL     1     130.283 141.784 109.055  1.00  0.00     0.012 C 
ATOM     13  C   UNL     1     128.701 142.508 105.427  1.00  0.00     0.017 C 
ATOM     14  C   UNL     1     128.908 140.481 106.795  1.00  0.00    -0.064 C 
ATOM     15  C   UNL     1     131.411 140.699 106.426  1.00  0.00     0.032 C 
ATOM     16  C   UNL     1     130.092 139.883 106.452  1.00  0.00    -0.064 C 
ATOM     17  C   UNL     1     127.645 139.663 106.803  1.00  0.00     0.032 C 
ATOM     18  C   UNL     1     130.142 138.333 106.307  1.00  0.00    -0.008 C 
ATOM     19  C   UNL     1     127.655 138.786 105.564  1.00  0.00     0.009 C 
ATOM     20  C   UNL     1     128.825 137.745 105.590  1.00  0.00     0.007 C 
ATOM     21  C   UNL     1     130.333 137.805 107.758  1.00  0.00     0.014 C 
ATOM     22  C   UNL     1     131.389 137.947 105.459  1.00  0.00     0.016 C 
ATOM     23  C   UNL     1     128.410 136.242 105.991  1.00  0.00    -0.006 C 
ATOM     24  C   UNL     1     130.097 136.314 107.916  1.00  0.00     0.033 C 
ATOM     25  C   UNL     1     128.674 135.956 107.499  1.00  0.00     0.120 C 
ATOM     26  C   UNL     1     126.906 135.949 105.721  1.00  0.00     0.014 C 
ATOM     27  C   UNL     1     129.175 135.210 105.105  1.00  0.00     0.014 C 
BRANCH  25  28
ATOM     28  O   UNL     1     128.454 134.598 107.802  1.00  0.00    -0.393 OA
ATOM     29  H   UNL     1     129.342 134.159 107.864  1.00  0.00     0.210 HD
ENDBRANCH  25  28
ENDBRANCH   2   6
ENDBRANCH   1   2
BRANCH   1  30
ATOM     30  C   UNL     1     131.454 145.733 106.549  1.00  0.00     0.028 C 
BRANCH  30  31
ATOM     31  C   UNL     1     132.655 146.332 105.857  1.00  0.00    -0.028 C 
ATOM     32  C   UNL     1     133.644 145.609 105.284  1.00  0.00    -0.080 C 
ATOM     33  C   UNL     1     133.611 144.099 105.244  1.00  0.00     0.039 C 
ATOM     34  C   UNL     1     134.792 146.345 104.645  1.00  0.00     0.039 C 
ENDBRANCH  30  31
ENDBRANCH   1  30
TORSDOF 6
ENDMDL
MODEL 3
REMARK VINA RESULT:    -6.152      6.696     11.431
REMARK INTER + INTRA:          -9.497
REMARK INTER:                  -9.050
REMARK INTRA:                  -0.446
REMARK UNBOUND:                -1.367
REMARK SMILES CC(C)=CCC[C@@H](C(=O)[O-])[C@@H]1CC[C@]2(C)C3=C(CC[C@@]12C)[C@@]1(C)CC[C@H](O)C(C)(C)[C@H]1CC3
REMARK SMILES IDX 6 1 7 2 8 3 9 4 10 5 11 6 12 7 20 8 13 9 14 10 19 11 21 12
REMARK SMILES IDX 15 13 16 14 18 15 17 16 33 17 22 18 32 19 31 20 24 21 23 22
REMARK SMILES IDX 28 23 25 24 26 25 29 26 30 27 27 28 5 30 4 31 2 32 1 33 3 34
REMARK H PARENT 27 29
REMARK Flexibility Score: inf
ROOT
ATOM      1  C   UNL     1     129.732 140.947 105.808  1.00  0.00     0.014 C 
ENDROOT
BRANCH   1   2
ATOM      2  C   UNL     1     129.264 139.753 106.682  1.00  0.00     0.039 C 
BRANCH   2   3
ATOM      3  C   UNL     1     128.006 140.168 107.415  1.00  0.00     0.045 C 
ATOM      4  O   UNL     1     128.000 140.224 108.673  1.00  0.00    -0.550 OA
ATOM      5  O   UNL     1     126.881 140.596 106.719  1.00  0.00    -0.550 OA
ENDBRANCH   2   3
BRANCH   2   6
ATOM      6  C   UNL     1     129.153 138.428 105.849  1.00  0.00     0.004 C 
ATOM      7  C   UNL     1     127.756 138.068 105.282  1.00  0.00     0.006 C 
ATOM      8  C   UNL     1     129.653 137.103 106.480  1.00  0.00    -0.020 C 
ATOM      9  C   UNL     1     127.674 136.525 105.245  1.00  0.00     0.012 C 
ATOM     10  C   UNL     1     129.118 136.043 105.472  1.00  0.00    -0.006 C 
ATOM     11  C   UNL     1     131.178 136.934 106.578  1.00  0.00     0.012 C 
ATOM     12  C   UNL     1     129.046 136.930 107.915  1.00  0.00     0.012 C 
ATOM     13  C   UNL     1     129.823 136.018 104.074  1.00  0.00     0.017 C 
ATOM     14  C   UNL     1     129.328 134.658 106.057  1.00  0.00    -0.064 C 
ATOM     15  C   UNL     1     131.559 135.472 106.956  1.00  0.00     0.032 C 
ATOM     16  C   UNL     1     130.527 134.357 106.647  1.00  0.00    -0.064 C 
ATOM     17  C   UNL     1     128.352 133.551 105.763  1.00  0.00     0.032 C 
ATOM     18  C   UNL     1     130.753 132.922 107.210  1.00  0.00    -0.008 C 
ATOM     19  C   UNL     1     129.136 132.381 105.200  1.00  0.00     0.009 C 
ATOM     20  C   UNL     1     130.139 131.785 106.246  1.00  0.00     0.007 C 
ATOM     21  C   UNL     1     130.098 132.942 108.621  1.00  0.00     0.014 C 
ATOM     22  C   UNL     1     132.282 132.676 107.362  1.00  0.00     0.016 C 
ATOM     23  C   UNL     1     129.667 130.424 106.965  1.00  0.00    -0.006 C 
ATOM     24  C   UNL     1     129.913 131.570 109.243  1.00  0.00     0.033 C 
ATOM     25  C   UNL     1     129.023 130.703 108.356  1.00  0.00     0.120 C 
ATOM     26  C   UNL     1     128.622 129.638 106.122  1.00  0.00     0.014 C 
ATOM     27  C   UNL     1     130.869 129.441 107.116  1.00  0.00     0.014 C 
BRANCH  25  28
ATOM     28  O   UNL     1     128.757 129.500 109.040  1.00  0.00    -0.393 OA
ATOM     29  H   UNL     1     129.248 129.533 109.902  1.00  0.00     0.210 HD
ENDBRANCH  25  28
ENDBRANCH   2   6
ENDBRANCH   1   2
BRANCH   1  30
ATOM     30  C   UNL     1     129.695 142.314 106.530  1.00  0.00     0.028 C 
BRANCH  30  31
ATOM     31  C   UNL     1     129.120 143.406 105.659  1.00  0.00    -0.028 C 
ATOM     32  C   UNL     1     128.035 144.146 105.983  1.00  0.00    -0.080 C 
ATOM     33  C   UNL     1     127.310 143.973 107.298  1.00  0.00     0.039 C 
ATOM     34  C   UNL     1     127.562 145.190 105.005  1.00  0.00     0.039 C 
ENDBRANCH  30  31
ENDBRANCH   1  30
TORSDOF 6
ENDMDL
MODEL 4
REMARK VINA RESULT:    -6.109      8.000     10.963
REMARK INTER + INTRA:          -9.440
REMARK INTER:                  -7.792
REMARK INTRA:                  -1.649
REMARK UNBOUND:                -1.367
REMARK SMILES CC(C)=CCC[C@@H](C(=O)[O-])[C@@H]1CC[C@]2(C)C3=C(CC[C@@]12C)[C@@]1(C)CC[C@H](O)C(C)(C)[C@H]1CC3
REMARK SMILES IDX 6 1 7 2 8 3 9 4 10 5 11 6 12 7 20 8 13 9 14 10 19 11 21 12
REMARK SMILES IDX 15 13 16 14 18 15 17 16 33 17 22 18 32 19 31 20 24 21 23 22
REMARK SMILES IDX 28 23 25 24 26 25 29 26 30 27 27 28 5 30 4 31 2 32 1 33 3 34
REMARK H PARENT 27 29
REMARK Flexibility Score: inf
ROOT
ATOM      1  C   UNL     1     133.115 146.507 107.752  1.00  0.00     0.014 C 
ENDROOT
BRANCH   1   2
ATOM      2  C   UNL     1     134.252 145.943 108.643  1.00  0.00     0.039 C 
BRANCH   2   3
ATOM      3  C   UNL     1     133.623 145.269 109.844  1.00  0.00     0.045 C 
ATOM      4  O   UNL     1     134.241 145.232 110.941  1.00  0.00    -0.550 OA
ATOM      5  O   UNL     1     132.322 144.782 109.790  1.00  0.00    -0.550 OA
ENDBRANCH   2   3
BRANCH   2   6
ATOM      6  C   UNL     1     135.254 145.057 107.821  1.00  0.00     0.004 C 
ATOM      7  C   UNL     1     135.384 143.570 108.239  1.00  0.00     0.006 C 
ATOM      8  C   UNL     1     136.722 145.533 107.668  1.00  0.00    -0.020 C 
ATOM      9  C   UNL     1     136.838 143.147 107.930  1.00  0.00     0.012 C 
ATOM     10  C   UNL     1     137.405 144.276 107.052  1.00  0.00    -0.006 C 
ATOM     11  C   UNL     1     136.953 146.714 106.711  1.00  0.00     0.012 C 
ATOM     12  C   UNL     1     137.311 145.913 109.070  1.00  0.00     0.012 C 
ATOM     13  C   UNL     1     137.018 143.949 105.570  1.00  0.00     0.017 C 
ATOM     14  C   UNL     1     138.908 144.490 107.040  1.00  0.00    -0.064 C 
ATOM     15  C   UNL     1     138.470 146.914 106.421  1.00  0.00     0.032 C 
ATOM     16  C   UNL     1     139.408 145.695 106.625  1.00  0.00    -0.064 C 
ATOM     17  C   UNL     1     139.844 143.326 107.221  1.00  0.00     0.032 C 
ATOM     18  C   UNL     1     140.952 145.897 106.576  1.00  0.00    -0.008 C 
ATOM     19  C   UNL     1     140.805 143.319 106.046  1.00  0.00     0.009 C 
ATOM     20  C   UNL     1     141.720 144.591 106.027  1.00  0.00     0.007 C 
ATOM     21  C   UNL     1     141.350 146.269 108.034  1.00  0.00     0.014 C 
ATOM     22  C   UNL     1     141.274 147.097 105.639  1.00  0.00     0.016 C 
ATOM     23  C   UNL     1     143.223 144.374 106.562  1.00  0.00    -0.006 C 
ATOM     24  C   UNL     1     142.841 146.208 108.309  1.00  0.00     0.033 C 
ATOM     25  C   UNL     1     143.369 144.799 108.054  1.00  0.00     0.120 C 
ATOM     26  C   UNL     1     143.683 142.892 106.457  1.00  0.00     0.014 C 
ATOM     27  C   UNL     1     144.237 145.163 105.676  1.00  0.00     0.014 C 
BRANCH  25  28
ATOM     28  O   UNL     1     144.716 144.752 108.463  1.00  0.00    -0.393 OA
ATOM     29  H   UNL     1     144.991 145.678 108.691  1.00  0.00     0.210 HD
ENDBRANCH  25  28
ENDBRANCH   2   6
ENDBRANCH   1   2
BRANCH   1  30
ATOM     30  C   UNL     1     133.056 145.891 106.334  1.00  0.00     0.028 C 
BRANCH  30  31
ATOM     31  C   UNL     1     131.885 144.952 106.166  1.00  0.00    -0.028 C 
ATOM     32  C   UNL     1     131.972 143.715 105.626  1.00  0.00    -0.080 C 
ATOM     33  C   UNL     1     133.290 143.130 105.172  1.00  0.00     0.039 C 
ATOM     34  C   UNL     1     130.714 142.896 105.503  1.00  0.00     0.039 C 
ENDBRANCH  30  31
ENDBRANCH   1  30
TORSDOF 6
ENDMDL
MODEL 5
REMARK VINA RESULT:    -6.052      2.353      4.248
REMARK INTER + INTRA:          -9.365
REMARK INTER:                  -7.916
REMARK INTRA:                  -1.449
REMARK UNBOUND:                -1.367
REMARK SMILES CC(C)=CCC[C@@H](C(=O)[O-])[C@@H]1CC[C@]2(C)C3=C(CC[C@@]12C)[C@@]1(C)CC[C@H](O)C(C)(C)[C@H]1CC3
REMARK SMILES IDX 6 1 7 2 8 3 9 4 10 5 11 6 12 7 20 8 13 9 14 10 19 11 21 12
REMARK SMILES IDX 15 13 16 14 18 15 17 16 33 17 22 18 32 19 31 20 24 21 23 22
REMARK SMILES IDX 28 23 25 24 26 25 29 26 30 27 27 28 5 30 4 31 2 32 1 33 3 34
REMARK H PARENT 27 29
REMARK Flexibility Score: inf
ROOT
ATOM      1  C   UNL     1     130.028 144.927 106.245  1.00  0.00     0.014 C 
ENDROOT
BRANCH   1   2
ATOM      2  C   UNL     1     128.739 145.437 106.939  1.00  0.00     0.039 C 
BRANCH   2   3
ATOM      3  C   UNL     1     127.601 145.356 105.943  1.00  0.00     0.045 C 
ATOM      4  O   UNL     1     126.934 146.387 105.663  1.00  0.00    -0.550 OA
ATOM      5  O   UNL     1     127.344 144.181 105.245  1.00  0.00    -0.550 OA
ENDBRANCH   2   3
BRANCH   2   6
ATOM      6  C   UNL     1     128.488 144.714 108.310  1.00  0.00     0.004 C 
ATOM      7  C   UNL     1     127.131 144.982 109.009  1.00  0.00     0.006 C 
ATOM      8  C   UNL     1     129.533 144.878 109.444  1.00  0.00    -0.020 C 
ATOM      9  C   UNL     1     127.388 144.893 110.530  1.00  0.00     0.012 C 
ATOM     10  C   UNL     1     128.784 144.258 110.662  1.00  0.00    -0.006 C 
ATOM     11  C   UNL     1     130.854 144.113 109.262  1.00  0.00     0.012 C 
ATOM     12  C   UNL     1     129.867 146.395 109.650  1.00  0.00     0.012 C 
ATOM     13  C   UNL     1     128.593 142.705 110.625  1.00  0.00     0.017 C 
ATOM     14  C   UNL     1     129.583 144.538 111.922  1.00  0.00    -0.064 C 
ATOM     15  C   UNL     1     131.694 144.121 110.573  1.00  0.00     0.032 C 
ATOM     16  C   UNL     1     130.940 144.354 111.909  1.00  0.00    -0.064 C 
ATOM     17  C   UNL     1     128.881 144.753 113.237  1.00  0.00     0.032 C 
ATOM     18  C   UNL     1     131.750 144.602 113.216  1.00  0.00    -0.008 C 
ATOM     19  C   UNL     1     129.466 143.775 114.238  1.00  0.00     0.009 C 
ATOM     20  C   UNL     1     130.981 144.059 114.523  1.00  0.00     0.007 C 
ATOM     21  C   UNL     1     131.991 146.139 113.247  1.00  0.00     0.014 C 
ATOM     22  C   UNL     1     133.122 143.876 113.105  1.00  0.00     0.016 C 
ATOM     23  C   UNL     1     131.297 144.825 115.904  1.00  0.00    -0.006 C 
ATOM     24  C   UNL     1     132.487 146.667 114.580  1.00  0.00     0.033 C 
ATOM     25  C   UNL     1     131.477 146.357 115.681  1.00  0.00     0.120 C 
ATOM     26  C   UNL     1     130.167 144.641 116.957  1.00  0.00     0.014 C 
ATOM     27  C   UNL     1     132.568 144.226 116.582  1.00  0.00     0.014 C 
BRANCH  25  28
ATOM     28  O   UNL     1     131.905 146.991 116.864  1.00  0.00    -0.393 OA
ATOM     29  H   UNL     1     132.850 146.730 117.017  1.00  0.00     0.210 HD
ENDBRANCH  25  28
ENDBRANCH   2   6
ENDBRANCH   1   2
BRANCH   1  30
ATOM     30  C   UNL     1     131.136 145.997 106.100  1.00  0.00     0.028 C 
BRANCH  30  31
ATOM     31  C   UNL     1     132.521 145.395 106.132  1.00  0.00    -0.028 C 
ATOM     32  C   UNL     1     133.480 145.737 107.022  1.00  0.00    -0.080 C 
ATOM     33  C   UNL     1     133.231 146.745 108.120  1.00  0.00     0.039 C 
ATOM     34  C   UNL     1     134.825 145.066 106.921  1.00  0.00     0.039 C 
ENDBRANCH  30  31
ENDBRANCH   1  30
TORSDOF 6
ENDMDL
MODEL 6
REMARK VINA RESULT:    -6.032      5.051      8.830
REMARK INTER + INTRA:          -9.339
REMARK INTER:                  -7.975
REMARK INTRA:                  -1.365
REMARK UNBOUND:                -1.367
REMARK SMILES CC(C)=CCC[C@@H](C(=O)[O-])[C@@H]1CC[C@]2(C)C3=C(CC[C@@]12C)[C@@]1(C)CC[C@H](O)C(C)(C)[C@H]1CC3
REMARK SMILES IDX 6 1 7 2 8 3 9 4 10 5 11 6 12 7 20 8 13 9 14 10 19 11 21 12
REMARK SMILES IDX 15 13 16 14 18 15 17 16 33 17 22 18 32 19 31 20 24 21 23 22
REMARK SMILES IDX 28 23 25 24 26 25 29 26 30 27 27 28 5 30 4 31 2 32 1 33 3 34
REMARK H PARENT 27 29
REMARK Flexibility Score: inf
ROOT
ATOM      1  C   UNL     1     130.283 134.297 107.228  1.00  0.00     0.014 C 
ENDROOT
BRANCH   1   2
ATOM      2  C   UNL     1     130.360 135.469 106.213  1.00  0.00     0.039 C 
BRANCH   2   3
ATOM      3  C   UNL     1     130.376 134.884 104.816  1.00  0.00     0.045 C 
ATOM      4  O   UNL     1     130.923 135.519 103.875  1.00  0.00    -0.550 OA
ATOM      5  O   UNL     1     129.892 133.604 104.571  1.00  0.00    -0.550 OA
ENDBRANCH   2   3
BRANCH   2   6
ATOM      6  C   UNL     1     129.251 136.546 106.481  1.00  0.00     0.004 C 
ATOM      7  C   UNL     1     128.182 136.745 105.376  1.00  0.00     0.006 C 
ATOM      8  C   UNL     1     129.683 137.990 106.847  1.00  0.00    -0.020 C 
ATOM      9  C   UNL     1     127.759 138.230 105.428  1.00  0.00     0.012 C 
ATOM     10  C   UNL     1     128.335 138.764 106.752  1.00  0.00    -0.006 C 
ATOM     11  C   UNL     1     130.243 138.189 108.266  1.00  0.00     0.012 C 
ATOM     12  C   UNL     1     130.749 138.508 105.821  1.00  0.00     0.012 C 
ATOM     13  C   UNL     1     127.289 138.448 107.873  1.00  0.00     0.017 C 
ATOM     14  C   UNL     1     128.613 140.252 106.864  1.00  0.00    -0.064 C 
ATOM     15  C   UNL     1     130.371 139.701 108.613  1.00  0.00     0.032 C 
ATOM     16  C   UNL     1     129.482 140.698 107.825  1.00  0.00    -0.064 C 
ATOM     17  C   UNL     1     127.759 141.245 106.124  1.00  0.00     0.032 C 
ATOM     18  C   UNL     1     129.734 142.229 107.964  1.00  0.00    -0.008 C 
ATOM     19  C   UNL     1     127.232 142.245 107.136  1.00  0.00     0.009 C 
ATOM     20  C   UNL     1     128.382 143.088 107.785  1.00  0.00     0.007 C 
ATOM     21  C   UNL     1     130.808 142.554 106.886  1.00  0.00     0.014 C 
ATOM     22  C   UNL     1     130.326 142.516 109.374  1.00  0.00     0.016 C 
ATOM     23  C   UNL     1     128.560 144.581 107.210  1.00  0.00    -0.006 C 
ATOM     24  C   UNL     1     130.990 144.036 106.613  1.00  0.00     0.033 C 
ATOM     25  C   UNL     1     129.680 144.650 106.129  1.00  0.00     0.120 C 
ATOM     26  C   UNL     1     127.257 145.127 106.560  1.00  0.00     0.014 C 
ATOM     27  C   UNL     1     128.868 145.580 108.369  1.00  0.00     0.014 C 
BRANCH  25  28
ATOM     28  O   UNL     1     129.932 145.983 105.748  1.00  0.00    -0.393 OA
ATOM     29  H   UNL     1     129.057 146.406 105.549  1.00  0.00     0.210 HD
ENDBRANCH  25  28
ENDBRANCH   2   6
ENDBRANCH   1   2
BRANCH   1  30
ATOM     30  C   UNL     1     128.928 134.184 107.964  1.00  0.00     0.028 C 
BRANCH  30  31
ATOM     31  C   UNL     1     128.436 132.758 108.045  1.00  0.00    -0.028 C 
ATOM     32  C   UNL     1     127.500 132.228 107.226  1.00  0.00    -0.080 C 
ATOM     33  C   UNL     1     126.879 133.021 106.099  1.00  0.00     0.039 C 
ATOM     34  C   UNL     1     127.093 130.793 107.437  1.00  0.00     0.039 C 
ENDBRANCH  30  31
ENDBRANCH   1  30
TORSDOF 6
ENDMDL
MODEL 7
REMARK VINA RESULT:    -5.955      1.628      2.133
REMARK INTER + INTRA:          -9.237
REMARK INTER:                  -7.992
REMARK INTRA:                  -1.245
REMARK UNBOUND:                -1.367
REMARK SMILES CC(C)=CCC[C@@H](C(=O)[O-])[C@@H]1CC[C@]2(C)C3=C(CC[C@@]12C)[C@@]1(C)CC[C@H](O)C(C)(C)[C@H]1CC3
REMARK SMILES IDX 6 1 7 2 8 3 9 4 10 5 11 6 12 7 20 8 13 9 14 10 19 11 21 12
REMARK SMILES IDX 15 13 16 14 18 15 17 16 33 17 22 18 32 19 31 20 24 21 23 22
REMARK SMILES IDX 28 23 25 24 26 25 29 26 30 27 27 28 5 30 4 31 2 32 1 33 3 34
REMARK H PARENT 27 29
REMARK Flexibility Score: inf
ROOT
ATOM      1  C   UNL     1     131.143 143.729 107.399  1.00  0.00     0.014 C 
ENDROOT
BRANCH   1   2
ATOM      2  C   UNL     1     132.084 143.520 108.614  1.00  0.00     0.039 C 
BRANCH   2   3
ATOM      3  C   UNL     1     133.475 143.230 108.090  1.00  0.00     0.045 C 
ATOM      4  O   UNL     1     134.048 142.148 108.389  1.00  0.00    -0.550 OA
ATOM      5  O   UNL     1     134.095 144.091 107.192  1.00  0.00    -0.550 OA
ENDBRANCH   2   3
BRANCH   2   6
ATOM      6  C   UNL     1     131.983 144.702 109.641  1.00  0.00     0.004 C 
ATOM      7  C   UNL     1     133.316 145.310 110.147  1.00  0.00     0.006 C 
ATOM      8  C   UNL     1     131.148 144.502 110.933  1.00  0.00    -0.020 C 
ATOM      9  C   UNL     1     133.063 145.796 111.592  1.00  0.00     0.012 C 
ATOM     10  C   UNL     1     131.534 145.762 111.764  1.00  0.00    -0.006 C 
ATOM     11  C   UNL     1     129.621 144.501 110.757  1.00  0.00     0.012 C 
ATOM     12  C   UNL     1     131.563 143.165 111.638  1.00  0.00     0.012 C 
ATOM     13  C   UNL     1     130.978 147.125 111.231  1.00  0.00     0.017 C 
ATOM     14  C   UNL     1     130.973 145.616 113.166  1.00  0.00    -0.064 C 
ATOM     15  C   UNL     1     128.896 144.581 112.133  1.00  0.00     0.032 C 
ATOM     16  C   UNL     1     129.686 145.175 113.329  1.00  0.00    -0.064 C 
ATOM     17  C   UNL     1     131.708 146.195 114.346  1.00  0.00     0.032 C 
ATOM     18  C   UNL     1     129.100 145.065 114.768  1.00  0.00    -0.008 C 
ATOM     19  C   UNL     1     130.745 147.099 115.092  1.00  0.00     0.009 C 
ATOM     20  C   UNL     1     129.542 146.302 115.702  1.00  0.00     0.007 C 
ATOM     21  C   UNL     1     129.606 143.692 115.299  1.00  0.00     0.014 C 
ATOM     22  C   UNL     1     127.547 145.035 114.679  1.00  0.00     0.016 C 
ATOM     23  C   UNL     1     129.635 146.002 117.281  1.00  0.00    -0.006 C 
ATOM     24  C   UNL     1     129.428 143.497 116.793  1.00  0.00     0.033 C 
ATOM     25  C   UNL     1     130.188 144.573 117.562  1.00  0.00     0.120 C 
ATOM     26  C   UNL     1     130.559 147.009 118.024  1.00  0.00     0.014 C 
ATOM     27  C   UNL     1     128.239 146.182 117.954  1.00  0.00     0.014 C 
BRANCH  25  28
ATOM     28  O   UNL     1     130.119 144.266 118.935  1.00  0.00    -0.393 OA
ATOM     29  H   UNL     1     129.164 144.112 119.158  1.00  0.00     0.210 HD
ENDBRANCH  25  28
ENDBRANCH   2   6
ENDBRANCH   1   2
BRANCH   1  30
ATOM     30  C   UNL     1     130.605 145.172 107.254  1.00  0.00     0.028 C 
BRANCH  30  31
ATOM     31  C   UNL     1     129.595 145.298 106.138  1.00  0.00    -0.028 C 
ATOM     32  C   UNL     1     128.267 145.092 106.285  1.00  0.00    -0.080 C 
ATOM     33  C   UNL     1     127.652 144.753 107.624  1.00  0.00     0.039 C 
ATOM     34  C   UNL     1     127.381 145.235 105.076  1.00  0.00     0.039 C 
ENDBRANCH  30  31
ENDBRANCH   1  30
TORSDOF 6
ENDMDL
MODEL 8
REMARK VINA RESULT:    -5.924      6.745     11.802
REMARK INTER + INTRA:          -9.196
REMARK INTER:                  -7.460
REMARK INTRA:                  -1.736
REMARK UNBOUND:                -1.367
REMARK SMILES CC(C)=CCC[C@@H](C(=O)[O-])[C@@H]1CC[C@]2(C)C3=C(CC[C@@]12C)[C@@]1(C)CC[C@H](O)C(C)(C)[C@H]1CC3
REMARK SMILES IDX 6 1 7 2 8 3 9 4 10 5 11 6 12 7 20 8 13 9 14 10 19 11 21 12
REMARK SMILES IDX 15 13 16 14 18 15 17 16 33 17 22 18 32 19 31 20 24 21 23 22
REMARK SMILES IDX 28 23 25 24 26 25 29 26 30 27 27 28 5 30 4 31 2 32 1 33 3 34
REMARK H PARENT 27 29
REMARK Flexibility Score: inf
ROOT
ATOM      1  C   UNL     1     130.474 140.506 106.507  1.00  0.00     0.014 C 
ENDROOT
BRANCH   1   2
ATOM      2  C   UNL     1     129.123 139.766 106.691  1.00  0.00     0.039 C 
BRANCH   2   3
ATOM      3  C   UNL     1     128.004 140.756 106.447  1.00  0.00     0.045 C 
ATOM      4  O   UNL     1     126.876 140.575 106.978  1.00  0.00    -0.550 OA
ATOM      5  O   UNL     1     128.229 141.926 105.731  1.00  0.00    -0.550 OA
ENDBRANCH   2   3
BRANCH   2   6
ATOM      6  C   UNL     1     129.058 138.450 105.838  1.00  0.00     0.004 C 
ATOM      7  C   UNL     1     127.685 138.081 105.220  1.00  0.00     0.006 C 
ATOM      8  C   UNL     1     129.553 137.123 106.470  1.00  0.00    -0.020 C 
ATOM      9  C   UNL     1     127.624 136.537 105.160  1.00  0.00     0.012 C 
ATOM     10  C   UNL     1     129.066 136.070 105.430  1.00  0.00    -0.006 C 
ATOM     11  C   UNL     1     131.076 136.972 106.618  1.00  0.00     0.012 C 
ATOM     12  C   UNL     1     128.899 136.924 107.881  1.00  0.00     0.012 C 
ATOM     13  C   UNL     1     129.818 136.071 104.058  1.00  0.00     0.017 C 
ATOM     14  C   UNL     1     129.273 134.680 106.005  1.00  0.00    -0.064 C 
ATOM     15  C   UNL     1     131.462 135.510 106.990  1.00  0.00     0.032 C 
ATOM     16  C   UNL     1     130.455 134.386 106.632  1.00  0.00    -0.064 C 
ATOM     17  C   UNL     1     128.322 133.565 105.664  1.00  0.00     0.032 C 
ATOM     18  C   UNL     1     130.680 132.947 107.184  1.00  0.00    -0.008 C 
ATOM     19  C   UNL     1     129.140 132.412 105.113  1.00  0.00     0.009 C 
ATOM     20  C   UNL     1     130.113 131.815 106.186  1.00  0.00     0.007 C 
ATOM     21  C   UNL     1     129.977 132.940 108.573  1.00  0.00     0.014 C 
ATOM     22  C   UNL     1     132.206 132.717 107.386  1.00  0.00     0.016 C 
ATOM     23  C   UNL     1     129.634 130.439 106.871  1.00  0.00    -0.006 C 
ATOM     24  C   UNL     1     129.788 131.558 109.170  1.00  0.00     0.033 C 
ATOM     25  C   UNL     1     128.940 130.692 108.243  1.00  0.00     0.120 C 
ATOM     26  C   UNL     1     128.629 129.652 105.983  1.00  0.00     0.014 C 
ATOM     27  C   UNL     1     130.844 129.469 107.050  1.00  0.00     0.014 C 
BRANCH  25  28
ATOM     28  O   UNL     1     128.667 129.477 108.902  1.00  0.00    -0.393 OA
ATOM     29  H   UNL     1     127.700 129.472 109.128  1.00  0.00     0.210 HD
ENDBRANCH  25  28
ENDBRANCH   2   6
ENDBRANCH   1   2
BRANCH   1  30
ATOM     30  C   UNL     1     131.391 140.471 107.752  1.00  0.00     0.028 C 
BRANCH  30  31
ATOM     31  C   UNL     1     130.640 140.092 109.007  1.00  0.00    -0.028 C 
ATOM     32  C   UNL     1     131.060 139.162 109.894  1.00  0.00    -0.080 C 
ATOM     33  C   UNL     1     132.374 138.434 109.730  1.00  0.00     0.039 C 
ATOM     34  C   UNL     1     130.195 138.874 111.094  1.00  0.00     0.039 C 
ENDBRANCH  30  31
ENDBRANCH   1  30
TORSDOF 6
ENDMDL
MODEL 9
REMARK VINA RESULT:    -5.919      5.066      8.137
REMARK INTER + INTRA:          -9.190
REMARK INTER:                  -7.537
REMARK INTRA:                  -1.653
REMARK UNBOUND:                -1.367
REMARK SMILES CC(C)=CCC[C@@H](C(=O)[O-])[C@@H]1CC[C@]2(C)C3=C(CC[C@@]12C)[C@@]1(C)CC[C@H](O)C(C)(C)[C@H]1CC3
REMARK SMILES IDX 6 1 7 2 8 3 9 4 10 5 11 6 12 7 20 8 13 9 14 10 19 11 21 12
REMARK SMILES IDX 15 13 16 14 18 15 17 16 33 17 22 18 32 19 31 20 24 21 23 22
REMARK SMILES IDX 28 23 25 24 26 25 29 26 30 27 27 28 5 30 4 31 2 32 1 33 3 34
REMARK H PARENT 27 29
REMARK Flexibility Score: inf
ROOT
ATOM      1  C   UNL     1     126.879 135.661 107.783  1.00  0.00     0.014 C 
ENDROOT
BRANCH   1   2
ATOM      2  C   UNL     1     127.846 136.498 108.661  1.00  0.00     0.039 C 
BRANCH   2   3
ATOM      3  C   UNL     1     128.429 135.589 109.723  1.00  0.00     0.045 C 
ATOM      4  O   UNL     1     128.556 136.003 110.906  1.00  0.00    -0.550 OA
ATOM      5  O   UNL     1     128.729 134.261 109.440  1.00  0.00    -0.550 OA
ENDBRANCH   2   3
BRANCH   2   6
ATOM      6  C   UNL     1     128.894 137.281 107.793  1.00  0.00     0.004 C 
ATOM      7  C   UNL     1     130.391 137.044 108.117  1.00  0.00     0.006 C 
ATOM      8  C   UNL     1     128.773 138.823 107.684  1.00  0.00    -0.020 C 
ATOM      9  C   UNL     1     131.129 138.363 107.795  1.00  0.00     0.012 C 
ATOM     10  C   UNL     1     130.118 139.203 106.995  1.00  0.00    -0.006 C 
ATOM     11  C   UNL     1     127.626 139.350 106.806  1.00  0.00     0.012 C 
ATOM     12  C   UNL     1     128.629 139.452 109.112  1.00  0.00     0.012 C 
ATOM     13  C   UNL     1     130.253 138.785 105.492  1.00  0.00     0.017 C 
ATOM     14  C   UNL     1     130.267 140.713 107.011  1.00  0.00    -0.064 C 
ATOM     15  C   UNL     1     127.776 140.877 106.543  1.00  0.00     0.032 C 
ATOM     16  C   UNL     1     129.193 141.495 106.678  1.00  0.00    -0.064 C 
ATOM     17  C   UNL     1     131.630 141.343 107.125  1.00  0.00     0.032 C 
ATOM     18  C   UNL     1     129.363 143.044 106.655  1.00  0.00    -0.008 C 
ATOM     19  C   UNL     1     131.794 142.302 105.961  1.00  0.00     0.009 C 
ATOM     20  C   UNL     1     130.779 143.493 106.031  1.00  0.00     0.007 C 
ATOM     21  C   UNL     1     129.183 143.483 108.137  1.00  0.00     0.014 C 
ATOM     22  C   UNL     1     128.220 143.663 105.800  1.00  0.00     0.016 C 
ATOM     23  C   UNL     1     131.379 144.889 106.564  1.00  0.00    -0.006 C 
ATOM     24  C   UNL     1     129.615 144.911 108.421  1.00  0.00     0.033 C 
ATOM     25  C   UNL     1     131.091 145.095 108.081  1.00  0.00     0.120 C 
ATOM     26  C   UNL     1     132.919 144.986 106.369  1.00  0.00     0.014 C 
ATOM     27  C   UNL     1     130.802 146.081 105.739  1.00  0.00     0.014 C 
BRANCH  25  28
ATOM     28  O   UNL     1     131.482 146.383 108.498  1.00  0.00    -0.393 OA
ATOM     29  H   UNL     1     130.918 147.038 108.010  1.00  0.00     0.210 HD
ENDBRANCH  25  28
ENDBRANCH   2   6
ENDBRANCH   1   2
BRANCH   1  30
ATOM     30  C   UNL     1     127.368 135.443 106.332  1.00  0.00     0.028 C 
BRANCH  30  31
ATOM     31  C   UNL     1     127.910 134.050 106.113  1.00  0.00    -0.028 C 
ATOM     32  C   UNL     1     129.103 133.778 105.539  1.00  0.00    -0.080 C 
ATOM     33  C   UNL     1     130.047 134.872 105.095  1.00  0.00     0.039 C 
ATOM     34  C   UNL     1     129.504 132.336 105.368  1.00  0.00     0.039 C 
ENDBRANCH  30  31
ENDBRANCH   1  30
TORSDOF 6
ENDMDL
