MODEL 1
REMARK VINA RESULT:    -3.801      0.000      0.000
REMARK INTER + INTRA:          -4.514
REMARK INTER:                  -4.468
REMARK INTRA:                  -0.046
REMARK UNBOUND:                -0.046
REMARK SMILES CCCCC(=O)[O-]
REMARK SMILES IDX 4 1 5 2 6 3 7 4 3 5 2 6 1 7
REMARK H PARENT
REMARK Flexibility Score: inf
ROOT
ATOM      1  C   UNL     1       2.428  22.679  45.304  1.00  0.00     0.053 C 
ENDROOT
BRANCH   1   2
ATOM      2  C   UNL     1       1.699  23.969  45.514  1.00  0.00     0.041 C 
ATOM      3  O   UNL     1       0.995  24.137  46.544  1.00  0.00    -0.550 OA
ATOM      4  O   UNL     1       1.838  25.003  44.597  1.00  0.00    -0.550 OA
ENDBRANCH   1   2
BRANCH   1   5
ATOM      5  C   UNL     1       2.674  22.439  43.812  1.00  0.00     0.006 C 
BRANCH   5   6
ATOM      6  C   UNL     1       1.657  21.443  43.241  1.00  0.00    -0.003 C 
ATOM      7  C   UNL     1       1.962  21.118  41.781  1.00  0.00     0.004 C 
ENDBRANCH   5   6
ENDBRANCH   1   5
TORSDOF 3
ENDMDL
MODEL 2
REMARK VINA RESULT:    -3.651      2.395      3.809
REMARK INTER + INTRA:          -4.338
REMARK INTER:                  -4.300
REMARK INTRA:                  -0.037
REMARK UNBOUND:                -0.046
REMARK SMILES CCCCC(=O)[O-]
REMARK SMILES IDX 4 1 5 2 6 3 7 4 3 5 2 6 1 7
REMARK H PARENT
REMARK Flexibility Score: inf
ROOT
ATOM      1  C   UNL     1       3.142  22.630  43.768  1.00  0.00     0.053 C 
ENDROOT
BRANCH   1   2
ATOM      2  C   UNL     1       2.291  21.848  42.818  1.00  0.00     0.041 C 
ATOM      3  O   UNL     1       1.370  21.108  43.255  1.00  0.00    -0.550 OA
ATOM      4  O   UNL     1       2.480  21.976  41.448  1.00  0.00    -0.550 OA
ENDBRANCH   1   2
BRANCH   1   5
ATOM      5  C   UNL     1       2.482  22.700  45.147  1.00  0.00     0.006 C 
BRANCH   5   6
ATOM      6  C   UNL     1       1.591  23.942  45.267  1.00  0.00    -0.003 C 
ATOM      7  C   UNL     1       1.255  24.242  46.726  1.00  0.00     0.004 C 
ENDBRANCH   5   6
ENDBRANCH   1   5
TORSDOF 3
ENDMDL
MODEL 3
REMARK VINA RESULT:    -3.587      1.353      2.043
REMARK INTER + INTRA:          -4.262
REMARK INTER:                  -4.195
REMARK INTRA:                  -0.067
REMARK UNBOUND:                -0.046
REMARK SMILES CCCCC(=O)[O-]
REMARK SMILES IDX 4 1 5 2 6 3 7 4 3 5 2 6 1 7
REMARK H PARENT
REMARK Flexibility Score: inf
ROOT
ATOM      1  C   UNL     1       3.475  22.871  43.817  1.00  0.00     0.053 C 
ENDROOT
BRANCH   1   2
ATOM      2  C   UNL     1       3.239  24.343  43.943  1.00  0.00     0.041 C 
ATOM      3  O   UNL     1       4.073  25.161  43.471  1.00  0.00    -0.550 OA
ATOM      4  O   UNL     1       2.075  24.813  44.536  1.00  0.00    -0.550 OA
ENDBRANCH   1   2
BRANCH   1   5
ATOM      5  C   UNL     1       2.281  22.088  44.367  1.00  0.00     0.006 C 
BRANCH   5   6
ATOM      6  C   UNL     1       1.503  21.406  43.235  1.00  0.00    -0.003 C 
ATOM      7  C   UNL     1       2.293  21.435  41.929  1.00  0.00     0.004 C 
ENDBRANCH   5   6
ENDBRANCH   1   5
TORSDOF 3
ENDMDL
MODEL 4
REMARK VINA RESULT:    -3.561     13.443     14.253
REMARK INTER + INTRA:          -4.231
REMARK INTER:                  -4.124
REMARK INTRA:                  -0.107
REMARK UNBOUND:                -0.046
REMARK SMILES CCCCC(=O)[O-]
REMARK SMILES IDX 4 1 5 2 6 3 7 4 3 5 2 6 1 7
REMARK H PARENT
REMARK Flexibility Score: inf
ROOT
ATOM      1  C   UNL     1      12.867  27.064  51.137  1.00  0.00     0.053 C 
ENDROOT
BRANCH   1   2
ATOM      2  C   UNL     1      14.338  26.835  51.285  1.00  0.00     0.041 C 
ATOM      3  O   UNL     1      15.122  27.125  50.343  1.00  0.00    -0.550 OA
ATOM      4  O   UNL     1      14.849  26.348  52.481  1.00  0.00    -0.550 OA
ENDBRANCH   1   2
BRANCH   1   5
ATOM      5  C   UNL     1      12.116  26.535  52.362  1.00  0.00     0.006 C 
BRANCH   5   6
ATOM      6  C   UNL     1      11.479  25.171  52.068  1.00  0.00    -0.003 C 
ATOM      7  C   UNL     1      12.209  24.051  52.804  1.00  0.00     0.004 C 
ENDBRANCH   5   6
ENDBRANCH   1   5
TORSDOF 3
ENDMDL
MODEL 5
REMARK VINA RESULT:    -3.447      2.980      3.523
REMARK INTER + INTRA:          -4.098
REMARK INTER:                  -3.993
REMARK INTRA:                  -0.104
REMARK UNBOUND:                -0.046
REMARK SMILES CCCCC(=O)[O-]
REMARK SMILES IDX 4 1 5 2 6 3 7 4 3 5 2 6 1 7
REMARK H PARENT
REMARK Flexibility Score: inf
ROOT
ATOM      1  C   UNL     1       3.201  24.226  43.191  1.00  0.00     0.053 C 
ENDROOT
BRANCH   1   2
ATOM      2  C   UNL     1       3.687  24.208  41.777  1.00  0.00     0.041 C 
ATOM      3  O   UNL     1       3.004  23.650  40.879  1.00  0.00    -0.550 OA
ATOM      4  O   UNL     1       4.870  24.854  41.441  1.00  0.00    -0.550 OA
ENDBRANCH   1   2
BRANCH   1   5
ATOM      5  C   UNL     1       3.541  22.907  43.892  1.00  0.00     0.006 C 
BRANCH   5   6
ATOM      6  C   UNL     1       2.274  22.219  44.412  1.00  0.00    -0.003 C 
ATOM      7  C   UNL     1       1.589  21.418  43.307  1.00  0.00     0.004 C 
ENDBRANCH   5   6
ENDBRANCH   1   5
TORSDOF 3
ENDMDL
MODEL 6
REMARK VINA RESULT:    -3.376      1.736      2.382
REMARK INTER + INTRA:          -4.014
REMARK INTER:                  -3.967
REMARK INTRA:                  -0.047
REMARK UNBOUND:                -0.046
REMARK SMILES CCCCC(=O)[O-]
REMARK SMILES IDX 4 1 5 2 6 3 7 4 3 5 2 6 1 7
REMARK H PARENT
REMARK Flexibility Score: inf
ROOT
ATOM      1  C   UNL     1       1.011  24.217  46.274  1.00  0.00     0.053 C 
ENDROOT
BRANCH   1   2
ATOM      2  C   UNL     1       1.614  24.774  47.524  1.00  0.00     0.041 C 
ATOM      3  O   UNL     1       1.681  24.068  48.565  1.00  0.00    -0.550 OA
ATOM      4  O   UNL     1       2.149  26.056  47.527  1.00  0.00    -0.550 OA
ENDBRANCH   1   2
BRANCH   1   5
ATOM      5  C   UNL     1       2.083  24.035  45.196  1.00  0.00     0.006 C 
BRANCH   5   6
ATOM      6  C   UNL     1       2.542  22.574  45.121  1.00  0.00    -0.003 C 
ATOM      7  C   UNL     1       1.994  21.887  43.873  1.00  0.00     0.004 C 
ENDBRANCH   5   6
ENDBRANCH   1   5
TORSDOF 3
ENDMDL
MODEL 7
REMARK VINA RESULT:    -3.302      1.439      2.035
REMARK INTER + INTRA:          -3.927
REMARK INTER:                  -3.814
REMARK INTRA:                  -0.113
REMARK UNBOUND:                -0.046
REMARK SMILES CCCCC(=O)[O-]
REMARK SMILES IDX 4 1 5 2 6 3 7 4 3 5 2 6 1 7
REMARK H PARENT
REMARK Flexibility Score: inf
ROOT
ATOM      1  C   UNL     1       2.624  22.517  45.485  1.00  0.00     0.053 C 
ENDROOT
BRANCH   1   2
ATOM      2  C   UNL     1       1.809  23.591  46.134  1.00  0.00     0.041 C 
ATOM      3  O   UNL     1       1.975  23.863  47.352  1.00  0.00    -0.550 OA
ATOM      4  O   UNL     1       0.903  24.327  45.382  1.00  0.00    -0.550 OA
ENDBRANCH   1   2
BRANCH   1   5
ATOM      5  C   UNL     1       2.593  22.667  43.961  1.00  0.00     0.006 C 
BRANCH   5   6
ATOM      6  C   UNL     1       3.776  23.510  43.469  1.00  0.00    -0.003 C 
ATOM      7  C   UNL     1       3.296  24.747  42.714  1.00  0.00     0.004 C 
ENDBRANCH   5   6
ENDBRANCH   1   5
TORSDOF 3
ENDMDL
MODEL 8
REMARK VINA RESULT:    -3.187      3.069      4.121
REMARK INTER + INTRA:          -3.792
REMARK INTER:                  -3.720
REMARK INTRA:                  -0.072
REMARK UNBOUND:                -0.046
REMARK SMILES CCCCC(=O)[O-]
REMARK SMILES IDX 4 1 5 2 6 3 7 4 3 5 2 6 1 7
REMARK H PARENT
REMARK Flexibility Score: inf
ROOT
ATOM      1  C   UNL     1       1.617  21.118  43.062  1.00  0.00     0.053 C 
ENDROOT
BRANCH   1   2
ATOM      2  C   UNL     1       2.190  21.200  41.682  1.00  0.00     0.041 C 
ATOM      3  O   UNL     1       2.893  20.258  41.232  1.00  0.00    -0.550 OA
ATOM      4  O   UNL     1       1.905  22.294  40.875  1.00  0.00    -0.550 OA
ENDBRANCH   1   2
BRANCH   1   5
ATOM      5  C   UNL     1       1.998  22.357  43.876  1.00  0.00     0.006 C 
BRANCH   5   6
ATOM      6  C   UNL     1       3.507  22.620  43.801  1.00  0.00    -0.003 C 
ATOM      7  C   UNL     1       3.796  24.054  43.367  1.00  0.00     0.004 C 
ENDBRANCH   5   6
ENDBRANCH   1   5
TORSDOF 3
ENDMDL
MODEL 9
REMARK VINA RESULT:    -2.990      2.378      4.096
REMARK INTER + INTRA:          -3.561
REMARK INTER:                  -3.474
REMARK INTRA:                  -0.087
REMARK UNBOUND:                -0.046
REMARK SMILES CCCCC(=O)[O-]
REMARK SMILES IDX 4 1 5 2 6 3 7 4 3 5 2 6 1 7
REMARK H PARENT
REMARK Flexibility Score: inf
ROOT
ATOM      1  C   UNL     1       2.367  23.075  45.628  1.00  0.00     0.053 C 
ENDROOT
BRANCH   1   2
ATOM      2  C   UNL     1       3.172  23.522  44.450  1.00  0.00     0.041 C 
ATOM      3  O   UNL     1       3.542  24.722  44.354  1.00  0.00    -0.550 OA
ATOM      4  O   UNL     1       3.558  22.604  43.482  1.00  0.00    -0.550 OA
ENDBRANCH   1   2
BRANCH   1   5
ATOM      5  C   UNL     1       1.246  24.076  45.923  1.00  0.00     0.006 C 
BRANCH   5   6
ATOM      6  C   UNL     1       1.208  24.435  47.413  1.00  0.00    -0.003 C 
ATOM      7  C   UNL     1       1.909  25.765  47.678  1.00  0.00     0.004 C 
ENDBRANCH   5   6
ENDBRANCH   1   5
TORSDOF 3
ENDMDL
