MODEL 1
REMARK VINA RESULT:     3.283      0.000      0.000
REMARK INTER + INTRA:           5.228
REMARK INTER:                   6.162
REMARK INTRA:                  -0.934
REMARK UNBOUND:                -0.934
REMARK SMILES CCCCCCCCC=CCCCCCCCC(=O)[O-]
REMARK SMILES IDX 10 1 9 2 11 3 12 4 13 5 14 6 15 7 16 8 17 9 18 10 19 11
REMARK SMILES IDX 20 12 8 13 7 14 6 15 5 16 4 17 3 18 2 19 1 20
REMARK H PARENT
REMARK Flexibility Score: inf
ROOT
ATOM      1  C   UNL     1      19.345   1.343  24.926  1.00  0.00    -0.031 C 
ATOM      2  C   UNL     1      20.392   1.148  25.748  1.00  0.00    -0.031 C 
ENDROOT
BRANCH   1   3
ATOM      3  C   UNL     1      17.896   1.303  25.354  1.00  0.00     0.027 C 
BRANCH   3   4
ATOM      4  C   UNL     1      17.136   2.552  24.886  1.00  0.00     0.004 C 
BRANCH   4   5
ATOM      5  C   UNL     1      16.576   3.363  26.066  1.00  0.00     0.000 C 
BRANCH   5   6
ATOM      6  C   UNL     1      15.058   3.584  25.971  1.00  0.00     0.000 C 
BRANCH   6   7
ATOM      7  C   UNL     1      14.300   2.319  25.539  1.00  0.00     0.000 C 
BRANCH   7   8
ATOM      8  C   UNL     1      13.291   2.633  24.429  1.00  0.00     0.006 C 
BRANCH   8   9
ATOM      9  C   UNL     1      13.951   3.417  23.290  1.00  0.00     0.053 C 
BRANCH   9  10
ATOM     10  C   UNL     1      13.038   4.497  22.802  1.00  0.00     0.041 C 
ATOM     11  O   UNL     1      11.938   4.200  22.263  1.00  0.00    -0.550 OA
ATOM     12  O   UNL     1      13.378   5.832  22.982  1.00  0.00    -0.550 OA
ENDBRANCH   9  10
ENDBRANCH   8   9
ENDBRANCH   7   8
ENDBRANCH   6   7
ENDBRANCH   5   6
ENDBRANCH   4   5
ENDBRANCH   3   4
ENDBRANCH   1   3
BRANCH   2  13
ATOM     13  C   UNL     1      20.256   0.828  27.219  1.00  0.00     0.027 C 
BRANCH  13  14
ATOM     14  C   UNL     1      19.198   1.703  27.911  1.00  0.00     0.004 C 
BRANCH  14  15
ATOM     15  C   UNL     1      19.438   1.894  29.420  1.00  0.00     0.000 C 
BRANCH  15  16
ATOM     16  C   UNL     1      19.414   3.372  29.842  1.00  0.00     0.000 C 
BRANCH  16  17
ATOM     17  C   UNL     1      18.585   3.566  31.118  1.00  0.00    -0.000 C 
BRANCH  17  18
ATOM     18  C   UNL     1      17.518   4.649  30.922  1.00  0.00    -0.000 C 
BRANCH  18  19
ATOM     19  C   UNL     1      16.964   4.624  29.493  1.00  0.00    -0.003 C 
ATOM     20  C   UNL     1      15.481   4.984  29.470  1.00  0.00     0.004 C 
ENDBRANCH  18  19
ENDBRANCH  17  18
ENDBRANCH  16  17
ENDBRANCH  15  16
ENDBRANCH  14  15
ENDBRANCH  13  14
ENDBRANCH   2  13
TORSDOF 15
ENDMDL
MODEL 2
REMARK VINA RESULT:     3.722      0.704      1.357
REMARK INTER + INTRA:           6.051
REMARK INTER:                   6.938
REMARK INTRA:                  -0.887
REMARK UNBOUND:                -0.934
REMARK SMILES CCCCCCCCC=CCCCCCCCC(=O)[O-]
REMARK SMILES IDX 10 1 9 2 11 3 12 4 13 5 14 6 15 7 16 8 17 9 18 10 19 11
REMARK SMILES IDX 20 12 8 13 7 14 6 15 5 16 4 17 3 18 2 19 1 20
REMARK H PARENT
REMARK Flexibility Score: inf
ROOT
ATOM      1  C   UNL     1      19.311   2.460  25.043  1.00  0.00    -0.031 C 
ATOM      2  C   UNL     1      20.559   2.315  25.525  1.00  0.00    -0.031 C 
ENDROOT
BRANCH   1   3
ATOM      3  C   UNL     1      18.383   1.320  24.695  1.00  0.00     0.027 C 
BRANCH   3   4
ATOM      4  C   UNL     1      16.918   1.681  24.972  1.00  0.00     0.004 C 
BRANCH   4   5
ATOM      5  C   UNL     1      16.786   3.002  25.749  1.00  0.00     0.000 C 
BRANCH   5   6
ATOM      6  C   UNL     1      15.328   3.467  25.892  1.00  0.00     0.000 C 
BRANCH   6   7
ATOM      7  C   UNL     1      14.317   2.342  25.624  1.00  0.00     0.000 C 
BRANCH   7   8
ATOM      8  C   UNL     1      13.258   2.782  24.607  1.00  0.00     0.006 C 
BRANCH   8   9
ATOM      9  C   UNL     1      13.910   3.406  23.368  1.00  0.00     0.053 C 
BRANCH   9  10
ATOM     10  C   UNL     1      13.047   4.496  22.817  1.00  0.00     0.041 C 
ATOM     11  O   UNL     1      11.934   4.220  22.295  1.00  0.00    -0.550 OA
ATOM     12  O   UNL     1      13.449   5.822  22.920  1.00  0.00    -0.550 OA
ENDBRANCH   9  10
ENDBRANCH   8   9
ENDBRANCH   7   8
ENDBRANCH   6   7
ENDBRANCH   5   6
ENDBRANCH   4   5
ENDBRANCH   3   4
ENDBRANCH   1   3
BRANCH   2  13
ATOM     13  C   UNL     1      21.218   0.973  25.753  1.00  0.00     0.027 C 
BRANCH  13  14
ATOM     14  C   UNL     1      20.788   0.331  27.082  1.00  0.00     0.004 C 
BRANCH  14  15
ATOM     15  C   UNL     1      19.457   0.876  27.636  1.00  0.00     0.000 C 
BRANCH  15  16
ATOM     16  C   UNL     1      19.603   1.476  29.043  1.00  0.00     0.000 C 
BRANCH  16  17
ATOM     17  C   UNL     1      18.975   2.874  29.112  1.00  0.00    -0.000 C 
BRANCH  17  18
ATOM     18  C   UNL     1      19.262   3.540  30.462  1.00  0.00    -0.000 C 
BRANCH  18  19
ATOM     19  C   UNL     1      18.003   4.210  31.024  1.00  0.00    -0.003 C 
ATOM     20  C   UNL     1      17.037   4.595  29.906  1.00  0.00     0.004 C 
ENDBRANCH  18  19
ENDBRANCH  17  18
ENDBRANCH  16  17
ENDBRANCH  15  16
ENDBRANCH  14  15
ENDBRANCH  13  14
ENDBRANCH   2  13
TORSDOF 15
ENDMDL
MODEL 3
REMARK VINA RESULT:     4.174      3.179      6.976
REMARK INTER + INTRA:           6.900
REMARK INTER:                   7.975
REMARK INTRA:                  -1.074
REMARK UNBOUND:                -0.934
REMARK SMILES CCCCCCCCC=CCCCCCCCC(=O)[O-]
REMARK SMILES IDX 10 1 9 2 11 3 12 4 13 5 14 6 15 7 16 8 17 9 18 10 19 11
REMARK SMILES IDX 20 12 8 13 7 14 6 15 5 16 4 17 3 18 2 19 1 20
REMARK H PARENT
REMARK Flexibility Score: inf
ROOT
ATOM      1  C   UNL     1      18.278   1.977  24.696  1.00  0.00    -0.031 C 
ATOM      2  C   UNL     1      17.007   2.212  25.072  1.00  0.00    -0.031 C 
ENDROOT
BRANCH   1   3
ATOM      3  C   UNL     1      19.480   2.742  25.198  1.00  0.00     0.027 C 
BRANCH   3   4
ATOM      4  C   UNL     1      20.705   1.830  25.351  1.00  0.00     0.004 C 
BRANCH   4   5
ATOM      5  C   UNL     1      20.437   0.661  26.315  1.00  0.00     0.000 C 
BRANCH   5   6
ATOM      6  C   UNL     1      19.249   0.923  27.254  1.00  0.00     0.000 C 
BRANCH   6   7
ATOM      7  C   UNL     1      19.602   0.706  28.733  1.00  0.00     0.000 C 
BRANCH   7   8
ATOM      8  C   UNL     1      19.914   2.037  29.427  1.00  0.00     0.006 C 
BRANCH   8   9
ATOM      9  C   UNL     1      18.779   3.045  29.219  1.00  0.00     0.053 C 
BRANCH   9  10
ATOM     10  C   UNL     1      18.564   3.852  30.461  1.00  0.00     0.041 C 
ATOM     11  O   UNL     1      19.472   3.931  31.330  1.00  0.00    -0.550 OA
ATOM     12  O   UNL     1      17.378   4.554  30.639  1.00  0.00    -0.550 OA
ENDBRANCH   9  10
ENDBRANCH   8   9
ENDBRANCH   7   8
ENDBRANCH   6   7
ENDBRANCH   5   6
ENDBRANCH   4   5
ENDBRANCH   3   4
ENDBRANCH   1   3
BRANCH   2  13
ATOM     13  C   UNL     1      16.607   3.309  26.032  1.00  0.00     0.027 C 
BRANCH  13  14
ATOM     14  C   UNL     1      15.089   3.554  26.038  1.00  0.00     0.004 C 
BRANCH  14  15
ATOM     15  C   UNL     1      14.254   2.297  25.731  1.00  0.00     0.000 C 
BRANCH  15  16
ATOM     16  C   UNL     1      13.219   2.530  24.619  1.00  0.00     0.000 C 
BRANCH  16  17
ATOM     17  C   UNL     1      13.846   3.270  23.430  1.00  0.00    -0.000 C 
BRANCH  17  18
ATOM     18  C   UNL     1      12.814   4.163  22.731  1.00  0.00    -0.000 C 
BRANCH  18  19
ATOM     19  C   UNL     1      13.275   5.624  22.710  1.00  0.00    -0.003 C 
ATOM     20  C   UNL     1      13.283   6.220  24.115  1.00  0.00     0.004 C 
ENDBRANCH  18  19
ENDBRANCH  17  18
ENDBRANCH  16  17
ENDBRANCH  15  16
ENDBRANCH  14  15
ENDBRANCH  13  14
ENDBRANCH   2  13
TORSDOF 15
ENDMDL
MODEL 4
REMARK VINA RESULT:     4.822      3.346      6.895
REMARK INTER + INTRA:           8.116
REMARK INTER:                   9.859
REMARK INTRA:                  -1.743
REMARK UNBOUND:                -0.934
REMARK SMILES CCCCCCCCC=CCCCCCCCC(=O)[O-]
REMARK SMILES IDX 10 1 9 2 11 3 12 4 13 5 14 6 15 7 16 8 17 9 18 10 19 11
REMARK SMILES IDX 20 12 8 13 7 14 6 15 5 16 4 17 3 18 2 19 1 20
REMARK H PARENT
REMARK Flexibility Score: inf
ROOT
ATOM      1  C   UNL     1      17.044   4.435  30.540  1.00  0.00    -0.031 C 
ATOM      2  C   UNL     1      15.966   4.765  29.805  1.00  0.00    -0.031 C 
ENDROOT
BRANCH   1   3
ATOM      3  C   UNL     1      18.461   4.386  30.017  1.00  0.00     0.027 C 
BRANCH   3   4
ATOM      4  C   UNL     1      19.232   3.190  30.590  1.00  0.00     0.004 C 
BRANCH   4   5
ATOM      5  C   UNL     1      19.510   2.117  29.522  1.00  0.00     0.000 C 
BRANCH   5   6
ATOM      6  C   UNL     1      19.052   2.541  28.118  1.00  0.00     0.000 C 
BRANCH   6   7
ATOM      7  C   UNL     1      18.635   1.348  27.244  1.00  0.00     0.000 C 
BRANCH   7   8
ATOM      8  C   UNL     1      18.753   1.688  25.755  1.00  0.00     0.006 C 
BRANCH   8   9
ATOM      9  C   UNL     1      20.188   2.086  25.393  1.00  0.00     0.053 C 
BRANCH   9  10
ATOM     10  C   UNL     1      21.122   0.940  25.622  1.00  0.00     0.041 C 
ATOM     11  O   UNL     1      20.799  -0.222  25.257  1.00  0.00    -0.550 OA
ATOM     12  O   UNL     1      22.368   1.160  26.195  1.00  0.00    -0.550 OA
ENDBRANCH   9  10
ENDBRANCH   8   9
ENDBRANCH   7   8
ENDBRANCH   6   7
ENDBRANCH   5   6
ENDBRANCH   4   5
ENDBRANCH   3   4
ENDBRANCH   1   3
BRANCH   2  13
ATOM     13  C   UNL     1      16.027   5.102  28.333  1.00  0.00     0.027 C 
BRANCH  13  14
ATOM     14  C   UNL     1      15.538   3.944  27.448  1.00  0.00     0.004 C 
BRANCH  14  15
ATOM     15  C   UNL     1      16.156   3.935  26.037  1.00  0.00     0.000 C 
BRANCH  15  16
ATOM     16  C   UNL     1      15.529   2.871  25.123  1.00  0.00     0.000 C 
BRANCH  16  17
ATOM     17  C   UNL     1      14.127   2.483  25.611  1.00  0.00    -0.000 C 
BRANCH  17  18
ATOM     18  C   UNL     1      13.123   2.476  24.453  1.00  0.00    -0.000 C 
BRANCH  18  19
ATOM     19  C   UNL     1      13.700   3.180  23.220  1.00  0.00    -0.003 C 
ATOM     20  C   UNL     1      13.096   4.571  23.045  1.00  0.00     0.004 C 
ENDBRANCH  18  19
ENDBRANCH  17  18
ENDBRANCH  16  17
ENDBRANCH  15  16
ENDBRANCH  14  15
ENDBRANCH  13  14
ENDBRANCH   2  13
TORSDOF 15
ENDMDL
MODEL 5
REMARK VINA RESULT:     5.012      0.823      4.086
REMARK INTER + INTRA:           8.472
REMARK INTER:                  10.034
REMARK INTRA:                  -1.562
REMARK UNBOUND:                -0.934
REMARK SMILES CCCCCCCCC=CCCCCCCCC(=O)[O-]
REMARK SMILES IDX 10 1 9 2 11 3 12 4 13 5 14 6 15 7 16 8 17 9 18 10 19 11
REMARK SMILES IDX 20 12 8 13 7 14 6 15 5 16 4 17 3 18 2 19 1 20
REMARK H PARENT
REMARK Flexibility Score: inf
ROOT
ATOM      1  C   UNL     1      15.906   4.869  29.685  1.00  0.00    -0.031 C 
ATOM      2  C   UNL     1      16.888   4.535  30.541  1.00  0.00    -0.031 C 
ENDROOT
BRANCH   1   3
ATOM      3  C   UNL     1      16.114   5.216  28.229  1.00  0.00     0.027 C 
BRANCH   3   4
ATOM      4  C   UNL     1      15.389   4.229  27.305  1.00  0.00     0.004 C 
BRANCH   4   5
ATOM      5  C   UNL     1      16.213   3.902  26.048  1.00  0.00     0.000 C 
BRANCH   5   6
ATOM      6  C   UNL     1      15.618   2.747  25.228  1.00  0.00     0.000 C 
BRANCH   6   7
ATOM      7  C   UNL     1      14.185   2.393  25.653  1.00  0.00     0.000 C 
BRANCH   7   8
ATOM      8  C   UNL     1      13.214   2.513  24.473  1.00  0.00     0.006 C 
BRANCH   8   9
ATOM      9  C   UNL     1      13.864   3.252  23.299  1.00  0.00     0.053 C 
BRANCH   9  10
ATOM     10  C   UNL     1      13.037   4.433  22.902  1.00  0.00     0.041 C 
ATOM     11  O   UNL     1      12.015   4.278  22.181  1.00  0.00    -0.550 OA
ATOM     12  O   UNL     1      13.364   5.701  23.366  1.00  0.00    -0.550 OA
ENDBRANCH   9  10
ENDBRANCH   8   9
ENDBRANCH   7   8
ENDBRANCH   6   7
ENDBRANCH   5   6
ENDBRANCH   4   5
ENDBRANCH   3   4
ENDBRANCH   1   3
BRANCH   2  13
ATOM     13  C   UNL     1      18.351   4.494  30.164  1.00  0.00     0.027 C 
BRANCH  13  14
ATOM     14  C   UNL     1      19.093   3.323  30.829  1.00  0.00     0.004 C 
BRANCH  14  15
ATOM     15  C   UNL     1      19.517   2.216  29.844  1.00  0.00     0.000 C 
BRANCH  15  16
ATOM     16  C   UNL     1      19.013   2.470  28.415  1.00  0.00     0.000 C 
BRANCH  16  17
ATOM     17  C   UNL     1      19.324   1.276  27.503  1.00  0.00    -0.000 C 
BRANCH  17  18
ATOM     18  C   UNL     1      18.887   1.557  26.060  1.00  0.00    -0.000 C 
BRANCH  18  19
ATOM     19  C   UNL     1      20.006   1.216  25.070  1.00  0.00    -0.003 C 
ATOM     20  C   UNL     1      21.257   0.731  25.797  1.00  0.00     0.004 C 
ENDBRANCH  18  19
ENDBRANCH  17  18
ENDBRANCH  16  17
ENDBRANCH  15  16
ENDBRANCH  14  15
ENDBRANCH  13  14
ENDBRANCH   2  13
TORSDOF 15
ENDMDL
MODEL 6
REMARK VINA RESULT:     5.226      2.124      6.473
REMARK INTER + INTRA:           8.874
REMARK INTER:                  10.039
REMARK INTRA:                  -1.165
REMARK UNBOUND:                -0.934
REMARK SMILES CCCCCCCCC=CCCCCCCCC(=O)[O-]
REMARK SMILES IDX 10 1 9 2 11 3 12 4 13 5 14 6 15 7 16 8 17 9 18 10 19 11
REMARK SMILES IDX 20 12 8 13 7 14 6 15 5 16 4 17 3 18 2 19 1 20
REMARK H PARENT
REMARK Flexibility Score: inf
ROOT
ATOM      1  C   UNL     1      16.643   4.586  30.208  1.00  0.00    -0.031 C 
ATOM      2  C   UNL     1      15.647   4.870  29.349  1.00  0.00    -0.031 C 
ENDROOT
BRANCH   1   3
ATOM      3  C   UNL     1      18.105   4.509  29.835  1.00  0.00     0.027 C 
BRANCH   3   4
ATOM      4  C   UNL     1      18.882   3.592  30.789  1.00  0.00     0.004 C 
BRANCH   4   5
ATOM      5  C   UNL     1      19.529   2.406  30.052  1.00  0.00     0.000 C 
BRANCH   5   6
ATOM      6  C   UNL     1      19.128   2.336  28.570  1.00  0.00     0.000 C 
BRANCH   6   7
ATOM      7  C   UNL     1      19.472   0.984  27.926  1.00  0.00     0.000 C 
BRANCH   7   8
ATOM      8  C   UNL     1      19.830   1.154  26.446  1.00  0.00     0.006 C 
BRANCH   8   9
ATOM      9  C   UNL     1      19.070   2.332  25.827  1.00  0.00     0.053 C 
BRANCH   9  10
ATOM     10  C   UNL     1      17.855   1.846  25.102  1.00  0.00     0.041 C 
ATOM     11  O   UNL     1      17.407   2.490  24.116  1.00  0.00    -0.550 OA
ATOM     12  O   UNL     1      17.243   0.659  25.485  1.00  0.00    -0.550 OA
ENDBRANCH   9  10
ENDBRANCH   8   9
ENDBRANCH   7   8
ENDBRANCH   6   7
ENDBRANCH   5   6
ENDBRANCH   4   5
ENDBRANCH   3   4
ENDBRANCH   1   3
BRANCH   2  13
ATOM     13  C   UNL     1      15.858   5.119  27.873  1.00  0.00     0.027 C 
BRANCH  13  14
ATOM     14  C   UNL     1      15.979   3.813  27.071  1.00  0.00     0.004 C 
BRANCH  14  15
ATOM     15  C   UNL     1      15.063   3.755  25.834  1.00  0.00     0.000 C 
BRANCH  15  16
ATOM     16  C   UNL     1      14.321   2.414  25.709  1.00  0.00     0.000 C 
BRANCH  16  17
ATOM     17  C   UNL     1      13.356   2.429  24.517  1.00  0.00    -0.000 C 
BRANCH  17  18
ATOM     18  C   UNL     1      13.884   3.326  23.392  1.00  0.00    -0.000 C 
BRANCH  18  19
ATOM     19  C   UNL     1      12.795   4.284  22.895  1.00  0.00    -0.003 C 
ATOM     20  C   UNL     1      13.279   5.731  22.925  1.00  0.00     0.004 C 
ENDBRANCH  18  19
ENDBRANCH  17  18
ENDBRANCH  16  17
ENDBRANCH  15  16
ENDBRANCH  14  15
ENDBRANCH  13  14
ENDBRANCH   2  13
TORSDOF 15
ENDMDL
MODEL 7
REMARK VINA RESULT:     5.314      0.831      4.187
REMARK INTER + INTRA:           9.040
REMARK INTER:                  10.431
REMARK INTRA:                  -1.391
REMARK UNBOUND:                -0.934
REMARK SMILES CCCCCCCCC=CCCCCCCCC(=O)[O-]
REMARK SMILES IDX 10 1 9 2 11 3 12 4 13 5 14 6 15 7 16 8 17 9 18 10 19 11
REMARK SMILES IDX 20 12 8 13 7 14 6 15 5 16 4 17 3 18 2 19 1 20
REMARK H PARENT
REMARK Flexibility Score: inf
ROOT
ATOM      1  C   UNL     1      16.871   4.540  30.247  1.00  0.00    -0.031 C 
ATOM      2  C   UNL     1      17.992   3.889  30.607  1.00  0.00    -0.031 C 
ENDROOT
BRANCH   1   3
ATOM      3  C   UNL     1      16.567   5.021  28.847  1.00  0.00     0.027 C 
BRANCH   3   4
ATOM      4  C   UNL     1      15.797   3.964  28.044  1.00  0.00     0.004 C 
BRANCH   4   5
ATOM      5  C   UNL     1      15.554   4.408  26.591  1.00  0.00     0.000 C 
BRANCH   5   6
ATOM      6  C   UNL     1      15.594   3.238  25.596  1.00  0.00     0.000 C 
BRANCH   6   7
ATOM      7  C   UNL     1      14.379   2.306  25.724  1.00  0.00     0.000 C 
BRANCH   7   8
ATOM      8  C   UNL     1      13.322   2.630  24.663  1.00  0.00     0.006 C 
BRANCH   8   9
ATOM      9  C   UNL     1      13.955   3.311  23.445  1.00  0.00     0.053 C 
BRANCH   9  10
ATOM     10  C   UNL     1      13.089   4.433  22.966  1.00  0.00     0.041 C 
ATOM     11  O   UNL     1      12.046   4.190  22.303  1.00  0.00    -0.550 OA
ATOM     12  O   UNL     1      13.407   5.746  23.290  1.00  0.00    -0.550 OA
ENDBRANCH   9  10
ENDBRANCH   8   9
ENDBRANCH   7   8
ENDBRANCH   6   7
ENDBRANCH   5   6
ENDBRANCH   4   5
ENDBRANCH   3   4
ENDBRANCH   1   3
BRANCH   2  13
ATOM     13  C   UNL     1      19.123   3.577  29.655  1.00  0.00     0.027 C 
BRANCH  13  14
ATOM     14  C   UNL     1      19.463   2.078  29.622  1.00  0.00     0.004 C 
BRANCH  14  15
ATOM     15  C   UNL     1      19.171   1.403  28.268  1.00  0.00     0.000 C 
BRANCH  15  16
ATOM     16  C   UNL     1      18.928   2.418  27.140  1.00  0.00     0.000 C 
BRANCH  16  17
ATOM     17  C   UNL     1      18.463   1.716  25.858  1.00  0.00    -0.000 C 
BRANCH  17  18
ATOM     18  C   UNL     1      19.606   0.916  25.223  1.00  0.00    -0.000 C 
BRANCH  18  19
ATOM     19  C   UNL     1      20.964   1.552  25.536  1.00  0.00    -0.003 C 
ATOM     20  C   UNL     1      21.950   0.515  26.068  1.00  0.00     0.004 C 
ENDBRANCH  18  19
ENDBRANCH  17  18
ENDBRANCH  16  17
ENDBRANCH  15  16
ENDBRANCH  14  15
ENDBRANCH  13  14
ENDBRANCH   2  13
TORSDOF 15
ENDMDL
MODEL 8
REMARK VINA RESULT:     5.402      2.138      6.110
REMARK INTER + INTRA:           9.205
REMARK INTER:                  10.370
REMARK INTRA:                  -1.166
REMARK UNBOUND:                -0.934
REMARK SMILES CCCCCCCCC=CCCCCCCCC(=O)[O-]
REMARK SMILES IDX 10 1 9 2 11 3 12 4 13 5 14 6 15 7 16 8 17 9 18 10 19 11
REMARK SMILES IDX 20 12 8 13 7 14 6 15 5 16 4 17 3 18 2 19 1 20
REMARK H PARENT
REMARK Flexibility Score: inf
ROOT
ATOM      1  C   UNL     1      19.444   1.416  25.896  1.00  0.00    -0.031 C 
ATOM      2  C   UNL     1      18.561   1.215  24.900  1.00  0.00    -0.031 C 
ENDROOT
BRANCH   1   3
ATOM      3  C   UNL     1      19.109   2.039  27.231  1.00  0.00     0.027 C 
BRANCH   3   4
ATOM      4  C   UNL     1      19.432   1.089  28.392  1.00  0.00     0.004 C 
BRANCH   4   5
ATOM      5  C   UNL     1      19.689   1.849  29.705  1.00  0.00     0.000 C 
BRANCH   5   6
ATOM      6  C   UNL     1      19.205   3.307  29.655  1.00  0.00     0.000 C 
BRANCH   6   7
ATOM      7  C   UNL     1      18.689   3.809  31.012  1.00  0.00     0.000 C 
BRANCH   7   8
ATOM      8  C   UNL     1      17.362   4.558  30.854  1.00  0.00     0.006 C 
BRANCH   8   9
ATOM      9  C   UNL     1      16.716   4.255  29.498  1.00  0.00     0.053 C 
BRANCH   9  10
ATOM     10  C   UNL     1      15.649   5.258  29.191  1.00  0.00     0.041 C 
ATOM     11  O   UNL     1      14.659   5.384  29.961  1.00  0.00    -0.550 OA
ATOM     12  O   UNL     1      15.768   6.086  28.083  1.00  0.00    -0.550 OA
ENDBRANCH   9  10
ENDBRANCH   8   9
ENDBRANCH   7   8
ENDBRANCH   6   7
ENDBRANCH   5   6
ENDBRANCH   4   5
ENDBRANCH   3   4
ENDBRANCH   1   3
BRANCH   2  13
ATOM     13  C   UNL     1      17.107   1.621  24.975  1.00  0.00     0.027 C 
BRANCH  13  14
ATOM     14  C   UNL     1      16.932   3.087  25.404  1.00  0.00     0.004 C 
BRANCH  14  15
ATOM     15  C   UNL     1      15.505   3.433  25.871  1.00  0.00     0.000 C 
BRANCH  15  16
ATOM     16  C   UNL     1      14.509   2.288  25.629  1.00  0.00     0.000 C 
BRANCH  16  17
ATOM     17  C   UNL     1      13.371   2.736  24.704  1.00  0.00    -0.000 C 
BRANCH  17  18
ATOM     18  C   UNL     1      13.912   3.178  23.339  1.00  0.00    -0.000 C 
BRANCH  18  19
ATOM     19  C   UNL     1      12.959   4.171  22.664  1.00  0.00    -0.003 C 
ATOM     20  C   UNL     1      13.207   5.594  23.155  1.00  0.00     0.004 C 
ENDBRANCH  18  19
ENDBRANCH  17  18
ENDBRANCH  16  17
ENDBRANCH  15  16
ENDBRANCH  14  15
ENDBRANCH  13  14
ENDBRANCH   2  13
TORSDOF 15
ENDMDL
MODEL 9
REMARK VINA RESULT:     5.890      2.865      6.437
REMARK INTER + INTRA:          10.120
REMARK INTER:                  11.494
REMARK INTRA:                  -1.374
REMARK UNBOUND:                -0.934
REMARK SMILES CCCCCCCCC=CCCCCCCCC(=O)[O-]
REMARK SMILES IDX 10 1 9 2 11 3 12 4 13 5 14 6 15 7 16 8 17 9 18 10 19 11
REMARK SMILES IDX 20 12 8 13 7 14 6 15 5 16 4 17 3 18 2 19 1 20
REMARK H PARENT
REMARK Flexibility Score: inf
ROOT
ATOM      1  C   UNL     1      20.568   1.999  25.340  1.00  0.00    -0.031 C 
ATOM      2  C   UNL     1      19.248   2.230  25.221  1.00  0.00    -0.031 C 
ENDROOT
BRANCH   1   3
ATOM      3  C   UNL     1      21.216   0.637  25.248  1.00  0.00     0.027 C 
BRANCH   3   4
ATOM      4  C   UNL     1      21.369  -0.008  26.632  1.00  0.00     0.004 C 
BRANCH   4   5
ATOM      5  C   UNL     1      21.083   0.989  27.768  1.00  0.00     0.000 C 
BRANCH   5   6
ATOM      6  C   UNL     1      19.692   0.797  28.393  1.00  0.00     0.000 C 
BRANCH   6   7
ATOM      7  C   UNL     1      18.995   2.129  28.710  1.00  0.00     0.000 C 
BRANCH   7   8
ATOM      8  C   UNL     1      19.414   2.658  30.086  1.00  0.00     0.006 C 
BRANCH   8   9
ATOM      9  C   UNL     1      19.109   4.154  30.218  1.00  0.00     0.053 C 
BRANCH   9  10
ATOM     10  C   UNL     1      17.660   4.367  30.517  1.00  0.00     0.041 C 
ATOM     11  O   UNL     1      16.879   4.772  29.615  1.00  0.00    -0.550 OA
ATOM     12  O   UNL     1      17.158   4.076  31.780  1.00  0.00    -0.550 OA
ENDBRANCH   9  10
ENDBRANCH   8   9
ENDBRANCH   7   8
ENDBRANCH   6   7
ENDBRANCH   5   6
ENDBRANCH   4   5
ENDBRANCH   3   4
ENDBRANCH   1   3
BRANCH   2  13
ATOM     13  C   UNL     1      18.222   1.139  25.011  1.00  0.00     0.027 C 
BRANCH  13  14
ATOM     14  C   UNL     1      16.801   1.595  25.381  1.00  0.00     0.004 C 
BRANCH  14  15
ATOM     15  C   UNL     1      16.682   3.107  25.648  1.00  0.00     0.000 C 
BRANCH  15  16
ATOM     16  C   UNL     1      15.223   3.580  25.735  1.00  0.00     0.000 C 
BRANCH  16  17
ATOM     17  C   UNL     1      14.255   2.391  25.681  1.00  0.00    -0.000 C 
BRANCH  17  18
ATOM     18  C   UNL     1      13.202   2.587  24.585  1.00  0.00    -0.000 C 
BRANCH  18  19
ATOM     19  C   UNL     1      13.809   3.268  23.354  1.00  0.00    -0.003 C 
ATOM     20  C   UNL     1      13.021   4.518  22.970  1.00  0.00     0.004 C 
ENDBRANCH  18  19
ENDBRANCH  17  18
ENDBRANCH  16  17
ENDBRANCH  15  16
ENDBRANCH  14  15
ENDBRANCH  13  14
ENDBRANCH   2  13
TORSDOF 15
ENDMDL
