MODEL 1
REMARK VINA RESULT:    -3.885      0.000      0.000
REMARK INTER + INTRA:          -9.114
REMARK INTER:                  -6.838
REMARK INTRA:                  -2.276
REMARK UNBOUND:                -2.276
REMARK SMILES CCCCCCC=CCCCCCCCC(=O)[O-]
REMARK SMILES IDX 10 1 11 2 12 3 13 4 14 5 15 6 16 7 17 8 18 9 9 10 8 11 7 12
REMARK SMILES IDX 6 13 5 14 4 15 3 16 2 17 1 18
REMARK H PARENT
REMARK Flexibility Score: inf
ROOT
ATOM      1  C   UNL     1       8.188  26.973   8.538  1.00  0.00     0.004 C 
ENDROOT
BRANCH   1   2
ATOM      2  C   UNL     1       7.466  27.538   9.772  1.00  0.00     0.000 C 
BRANCH   2   3
ATOM      3  C   UNL     1       8.446  27.899  10.903  1.00  0.00     0.000 C 
BRANCH   3   4
ATOM      4  C   UNL     1       8.812  26.692  11.784  1.00  0.00     0.000 C 
BRANCH   4   5
ATOM      5  C   UNL     1      10.276  26.231  11.626  1.00  0.00     0.006 C 
BRANCH   5   6
ATOM      6  C   UNL     1      10.425  25.123  10.576  1.00  0.00     0.053 C 
BRANCH   6   7
ATOM      7  C   UNL     1      11.036  23.901  11.187  1.00  0.00     0.041 C 
ATOM      8  O   UNL     1      11.462  22.971  10.452  1.00  0.00    -0.550 OA
ATOM      9  O   UNL     1      11.091  23.768  12.568  1.00  0.00    -0.550 OA
ENDBRANCH   6   7
ENDBRANCH   5   6
ENDBRANCH   4   5
ENDBRANCH   3   4
ENDBRANCH   2   3
ENDBRANCH   1   2
BRANCH   1  10
ATOM     10  C   UNL     1       9.125  28.003   7.889  1.00  0.00     0.027 C 
BRANCH  10  11
ATOM     11  C   UNL     1      10.532  27.466   7.803  1.00  0.00    -0.031 C 
ATOM     12  C   UNL     1      11.588  27.995   8.447  1.00  0.00    -0.031 C 
BRANCH  12  13
ATOM     13  C   UNL     1      11.509  29.153   9.411  1.00  0.00     0.027 C 
BRANCH  13  14
ATOM     14  C   UNL     1      12.439  28.930  10.608  1.00  0.00     0.004 C 
BRANCH  14  15
ATOM     15  C   UNL     1      12.803  30.263  11.279  1.00  0.00     0.000 C 
BRANCH  15  16
ATOM     16  C   UNL     1      12.347  30.321  12.752  1.00  0.00    -0.000 C 
BRANCH  16  17
ATOM     17  C   UNL     1      10.899  29.848  12.966  1.00  0.00    -0.003 C 
ATOM     18  C   UNL     1       9.869  30.955  12.757  1.00  0.00     0.004 C 
ENDBRANCH  16  17
ENDBRANCH  15  16
ENDBRANCH  14  15
ENDBRANCH  13  14
ENDBRANCH  12  13
ENDBRANCH  10  11
ENDBRANCH   1  10
TORSDOF 13
ENDMDL
MODEL 2
REMARK VINA RESULT:    -3.724      1.362      2.360
REMARK INTER + INTRA:          -8.830
REMARK INTER:                  -6.788
REMARK INTRA:                  -2.042
REMARK UNBOUND:                -2.276
REMARK SMILES CCCCCCC=CCCCCCCCC(=O)[O-]
REMARK SMILES IDX 10 1 11 2 12 3 13 4 14 5 15 6 16 7 17 8 18 9 9 10 8 11 7 12
REMARK SMILES IDX 6 13 5 14 4 15 3 16 2 17 1 18
REMARK H PARENT
REMARK Flexibility Score: inf
ROOT
ATOM      1  C   UNL     1      10.695  28.436   7.529  1.00  0.00     0.004 C 
ENDROOT
BRANCH   1   2
ATOM      2  C   UNL     1      10.705  26.994   8.063  1.00  0.00     0.000 C 
BRANCH   2   3
ATOM      3  C   UNL     1       9.304  26.524   8.493  1.00  0.00     0.000 C 
BRANCH   3   4
ATOM      4  C   UNL     1       9.163  26.388  10.019  1.00  0.00     0.000 C 
BRANCH   4   5
ATOM      5  C   UNL     1      10.504  26.151  10.747  1.00  0.00     0.006 C 
BRANCH   5   6
ATOM      6  C   UNL     1      10.381  25.110  11.866  1.00  0.00     0.053 C 
BRANCH   6   7
ATOM      7  C   UNL     1      11.092  23.849  11.489  1.00  0.00     0.041 C 
ATOM      8  O   UNL     1      11.559  23.094  12.383  1.00  0.00    -0.550 OA
ATOM      9  O   UNL     1      11.282  23.531  10.151  1.00  0.00    -0.550 OA
ENDBRANCH   6   7
ENDBRANCH   5   6
ENDBRANCH   4   5
ENDBRANCH   3   4
ENDBRANCH   2   3
ENDBRANCH   1   2
BRANCH   1  10
ATOM     10  C   UNL     1      11.954  29.216   7.935  1.00  0.00     0.027 C 
BRANCH  10  11
ATOM     11  C   UNL     1      12.553  28.647   9.196  1.00  0.00    -0.031 C 
ATOM     12  C   UNL     1      13.484  29.268   9.943  1.00  0.00    -0.031 C 
BRANCH  12  13
ATOM     13  C   UNL     1      14.007  30.657   9.675  1.00  0.00     0.027 C 
BRANCH  13  14
ATOM     14  C   UNL     1      13.163  31.707  10.405  1.00  0.00     0.004 C 
BRANCH  14  15
ATOM     15  C   UNL     1      12.977  31.334  11.883  1.00  0.00     0.000 C 
BRANCH  15  16
ATOM     16  C   UNL     1      11.505  31.443  12.333  1.00  0.00    -0.000 C 
BRANCH  16  17
ATOM     17  C   UNL     1      10.496  31.151  11.210  1.00  0.00    -0.003 C 
ATOM     18  C   UNL     1       9.790  29.807  11.372  1.00  0.00     0.004 C 
ENDBRANCH  16  17
ENDBRANCH  15  16
ENDBRANCH  14  15
ENDBRANCH  13  14
ENDBRANCH  12  13
ENDBRANCH  10  11
ENDBRANCH   1  10
TORSDOF 13
ENDMDL
MODEL 3
REMARK VINA RESULT:    -3.713      1.197      3.075
REMARK INTER + INTRA:          -8.811
REMARK INTER:                  -6.639
REMARK INTRA:                  -2.172
REMARK UNBOUND:                -2.276
REMARK SMILES CCCCCCC=CCCCCCCCC(=O)[O-]
REMARK SMILES IDX 10 1 11 2 12 3 13 4 14 5 15 6 16 7 17 8 18 9 9 10 8 11 7 12
REMARK SMILES IDX 6 13 5 14 4 15 3 16 2 17 1 18
REMARK H PARENT
REMARK Flexibility Score: inf
ROOT
ATOM      1  C   UNL     1       6.852  28.483   8.550  1.00  0.00     0.004 C 
ENDROOT
BRANCH   1   2
ATOM      2  C   UNL     1       7.974  27.443   8.401  1.00  0.00     0.000 C 
BRANCH   2   3
ATOM      3  C   UNL     1       9.348  28.099   8.175  1.00  0.00     0.000 C 
BRANCH   3   4
ATOM      4  C   UNL     1      10.520  27.146   8.466  1.00  0.00     0.000 C 
BRANCH   4   5
ATOM      5  C   UNL     1      10.083  25.793   9.068  1.00  0.00     0.006 C 
BRANCH   5   6
ATOM      6  C   UNL     1      10.417  25.688  10.561  1.00  0.00     0.053 C 
BRANCH   6   7
ATOM      7  C   UNL     1      10.907  24.314  10.893  1.00  0.00     0.041 C 
ATOM      8  O   UNL     1      10.799  23.870  12.066  1.00  0.00    -0.550 OA
ATOM      9  O   UNL     1      11.527  23.543   9.919  1.00  0.00    -0.550 OA
ENDBRANCH   6   7
ENDBRANCH   5   6
ENDBRANCH   4   5
ENDBRANCH   3   4
ENDBRANCH   2   3
ENDBRANCH   1   2
BRANCH   1  10
ATOM     10  C   UNL     1       6.171  28.414   9.925  1.00  0.00     0.027 C 
BRANCH  10  11
ATOM     11  C   UNL     1       6.984  27.580  10.882  1.00  0.00    -0.031 C 
ATOM     12  C   UNL     1       7.740  28.084  11.875  1.00  0.00    -0.031 C 
BRANCH  12  13
ATOM     13  C   UNL     1       7.823  29.549  12.227  1.00  0.00     0.027 C 
BRANCH  13  14
ATOM     14  C   UNL     1       9.136  30.157  11.725  1.00  0.00     0.004 C 
BRANCH  14  15
ATOM     15  C   UNL     1      10.259  29.110  11.714  1.00  0.00     0.000 C 
BRANCH  15  16
ATOM     16  C   UNL     1      11.524  29.615  10.987  1.00  0.00    -0.000 C 
BRANCH  16  17
ATOM     17  C   UNL     1      12.804  29.505  11.833  1.00  0.00    -0.003 C 
ATOM     18  C   UNL     1      12.708  30.248  13.163  1.00  0.00     0.004 C 
ENDBRANCH  16  17
ENDBRANCH  15  16
ENDBRANCH  14  15
ENDBRANCH  13  14
ENDBRANCH  12  13
ENDBRANCH  10  11
ENDBRANCH   1  10
TORSDOF 13
ENDMDL
MODEL 4
REMARK VINA RESULT:    -3.683      8.566     10.952
REMARK INTER + INTRA:          -8.758
REMARK INTER:                  -6.402
REMARK INTRA:                  -2.356
REMARK UNBOUND:                -2.276
REMARK SMILES CCCCCCC=CCCCCCCCC(=O)[O-]
REMARK SMILES IDX 10 1 11 2 12 3 13 4 14 5 15 6 16 7 17 8 18 9 9 10 8 11 7 12
REMARK SMILES IDX 6 13 5 14 4 15 3 16 2 17 1 18
REMARK H PARENT
REMARK Flexibility Score: inf
ROOT
ATOM      1  C   UNL     1       6.755  31.599  19.796  1.00  0.00     0.004 C 
ENDROOT
BRANCH   1   2
ATOM      2  C   UNL     1       5.412  32.320  19.997  1.00  0.00     0.000 C 
BRANCH   2   3
ATOM      3  C   UNL     1       4.261  31.338  20.277  1.00  0.00     0.000 C 
BRANCH   3   4
ATOM      4  C   UNL     1       4.653  30.225  21.263  1.00  0.00     0.000 C 
BRANCH   4   5
ATOM      5  C   UNL     1       4.276  28.808  20.779  1.00  0.00     0.006 C 
BRANCH   5   6
ATOM      6  C   UNL     1       5.386  28.168  19.937  1.00  0.00     0.053 C 
BRANCH   6   7
ATOM      7  C   UNL     1       5.840  26.884  20.557  1.00  0.00     0.041 C 
ATOM      8  O   UNL     1       6.393  26.001  19.850  1.00  0.00    -0.550 OA
ATOM      9  O   UNL     1       5.608  26.642  21.904  1.00  0.00    -0.550 OA
ENDBRANCH   6   7
ENDBRANCH   5   6
ENDBRANCH   4   5
ENDBRANCH   3   4
ENDBRANCH   2   3
ENDBRANCH   1   2
BRANCH   1  10
ATOM     10  C   UNL     1       7.260  31.699  18.349  1.00  0.00     0.027 C 
BRANCH  10  11
ATOM     11  C   UNL     1       7.305  30.338  17.703  1.00  0.00    -0.031 C 
ATOM     12  C   UNL     1       6.386  29.878  16.834  1.00  0.00    -0.031 C 
BRANCH  12  13
ATOM     13  C   UNL     1       5.221  30.684  16.317  1.00  0.00     0.027 C 
BRANCH  13  14
ATOM     14  C   UNL     1       3.901  30.172  16.904  1.00  0.00     0.004 C 
BRANCH  14  15
ATOM     15  C   UNL     1       3.572  28.767  16.378  1.00  0.00     0.000 C 
BRANCH  15  16
ATOM     16  C   UNL     1       2.264  28.210  16.977  1.00  0.00    -0.000 C 
BRANCH  16  17
ATOM     17  C   UNL     1       1.332  29.298  17.538  1.00  0.00    -0.003 C 
ATOM     18  C   UNL     1       0.999  29.099  19.015  1.00  0.00     0.004 C 
ENDBRANCH  16  17
ENDBRANCH  15  16
ENDBRANCH  14  15
ENDBRANCH  13  14
ENDBRANCH  12  13
ENDBRANCH  10  11
ENDBRANCH   1  10
TORSDOF 13
ENDMDL
MODEL 5
REMARK VINA RESULT:    -3.626      8.418     10.834
REMARK INTER + INTRA:          -8.658
REMARK INTER:                  -6.404
REMARK INTRA:                  -2.253
REMARK UNBOUND:                -2.276
REMARK SMILES CCCCCCC=CCCCCCCCC(=O)[O-]
REMARK SMILES IDX 10 1 11 2 12 3 13 4 14 5 15 6 16 7 17 8 18 9 9 10 8 11 7 12
REMARK SMILES IDX 6 13 5 14 4 15 3 16 2 17 1 18
REMARK H PARENT
REMARK Flexibility Score: inf
ROOT
ATOM      1  C   UNL     1       6.136  31.525  16.708  1.00  0.00     0.004 C 
ENDROOT
BRANCH   1   2
ATOM      2  C   UNL     1       7.012  30.292  16.434  1.00  0.00     0.000 C 
BRANCH   2   3
ATOM      3  C   UNL     1       6.173  29.023  16.205  1.00  0.00     0.000 C 
BRANCH   3   4
ATOM      4  C   UNL     1       5.393  28.589  17.458  1.00  0.00     0.000 C 
BRANCH   4   5
ATOM      5  C   UNL     1       6.283  27.971  18.558  1.00  0.00     0.006 C 
BRANCH   5   6
ATOM      6  C   UNL     1       5.568  27.901  19.913  1.00  0.00     0.053 C 
BRANCH   6   7
ATOM      7  C   UNL     1       5.959  26.658  20.649  1.00  0.00     0.041 C 
ATOM      8  O   UNL     1       6.565  25.732  20.049  1.00  0.00    -0.550 OA
ATOM      9  O   UNL     1       5.613  26.503  21.985  1.00  0.00    -0.550 OA
ENDBRANCH   6   7
ENDBRANCH   5   6
ENDBRANCH   4   5
ENDBRANCH   3   4
ENDBRANCH   2   3
ENDBRANCH   1   2
BRANCH   1  10
ATOM     10  C   UNL     1       6.702  32.404  17.833  1.00  0.00     0.027 C 
BRANCH  10  11
ATOM     11  C   UNL     1       7.124  31.561  19.010  1.00  0.00    -0.031 C 
ATOM     12  C   UNL     1       6.428  31.455  20.157  1.00  0.00    -0.031 C 
BRANCH  12  13
ATOM     13  C   UNL     1       5.087  32.099  20.405  1.00  0.00     0.027 C 
BRANCH  13  14
ATOM     14  C   UNL     1       4.064  31.061  20.878  1.00  0.00     0.004 C 
BRANCH  14  15
ATOM     15  C   UNL     1       2.718  31.249  20.163  1.00  0.00     0.000 C 
BRANCH  15  16
ATOM     16  C   UNL     1       2.683  30.550  18.787  1.00  0.00    -0.000 C 
BRANCH  16  17
ATOM     17  C   UNL     1       1.972  29.186  18.809  1.00  0.00    -0.003 C 
ATOM     18  C   UNL     1       1.412  28.781  17.447  1.00  0.00     0.004 C 
ENDBRANCH  16  17
ENDBRANCH  15  16
ENDBRANCH  14  15
ENDBRANCH  13  14
ENDBRANCH  12  13
ENDBRANCH  10  11
ENDBRANCH   1  10
TORSDOF 13
ENDMDL
MODEL 6
REMARK VINA RESULT:    -3.611      1.307      3.612
REMARK INTER + INTRA:          -8.631
REMARK INTER:                  -6.393
REMARK INTRA:                  -2.238
REMARK UNBOUND:                -2.276
REMARK SMILES CCCCCCC=CCCCCCCCC(=O)[O-]
REMARK SMILES IDX 10 1 11 2 12 3 13 4 14 5 15 6 16 7 17 8 18 9 9 10 8 11 7 12
REMARK SMILES IDX 6 13 5 14 4 15 3 16 2 17 1 18
REMARK H PARENT
REMARK Flexibility Score: inf
ROOT
ATOM      1  C   UNL     1      12.426  28.566   9.053  1.00  0.00     0.004 C 
ENDROOT
BRANCH   1   2
ATOM      2  C   UNL     1      11.240  29.152   8.270  1.00  0.00     0.000 C 
BRANCH   2   3
ATOM      3  C   UNL     1      10.550  28.098   7.386  1.00  0.00     0.000 C 
BRANCH   3   4
ATOM      4  C   UNL     1       9.157  27.703   7.905  1.00  0.00     0.000 C 
BRANCH   4   5
ATOM      5  C   UNL     1       9.129  26.339   8.627  1.00  0.00     0.006 C 
BRANCH   5   6
ATOM      6  C   UNL     1       9.431  26.468  10.125  1.00  0.00     0.053 C 
BRANCH   6   7
ATOM      7  C   UNL     1      10.325  25.356  10.577  1.00  0.00     0.041 C 
ATOM      8  O   UNL     1      10.502  25.148  11.806  1.00  0.00    -0.550 OA
ATOM      9  O   UNL     1      10.998  24.582   9.642  1.00  0.00    -0.550 OA
ENDBRANCH   6   7
ENDBRANCH   5   6
ENDBRANCH   4   5
ENDBRANCH   3   4
ENDBRANCH   2   3
ENDBRANCH   1   2
BRANCH   1  10
ATOM     10  C   UNL     1      12.356  28.897  10.551  1.00  0.00     0.027 C 
BRANCH  10  11
ATOM     11  C   UNL     1      12.787  30.319  10.805  1.00  0.00    -0.031 C 
ATOM     12  C   UNL     1      12.825  30.896  12.020  1.00  0.00    -0.031 C 
BRANCH  12  13
ATOM     13  C   UNL     1      12.521  30.183  13.315  1.00  0.00     0.027 C 
BRANCH  13  14
ATOM     14  C   UNL     1      11.457  30.941  14.117  1.00  0.00     0.004 C 
BRANCH  14  15
ATOM     15  C   UNL     1      10.144  31.048  13.326  1.00  0.00     0.000 C 
BRANCH  15  16
ATOM     16  C   UNL     1       9.517  29.666  13.044  1.00  0.00    -0.000 C 
BRANCH  16  17
ATOM     17  C   UNL     1       8.807  29.582  11.682  1.00  0.00    -0.003 C 
ATOM     18  C   UNL     1       9.079  30.788  10.787  1.00  0.00     0.004 C 
ENDBRANCH  16  17
ENDBRANCH  15  16
ENDBRANCH  14  15
ENDBRANCH  13  14
ENDBRANCH  12  13
ENDBRANCH  10  11
ENDBRANCH   1  10
TORSDOF 13
ENDMDL
MODEL 7
REMARK VINA RESULT:    -3.540      1.384      2.272
REMARK INTER + INTRA:          -8.507
REMARK INTER:                  -6.048
REMARK INTRA:                  -2.459
REMARK UNBOUND:                -2.276
REMARK SMILES CCCCCCC=CCCCCCCCC(=O)[O-]
REMARK SMILES IDX 10 1 11 2 12 3 13 4 14 5 15 6 16 7 17 8 18 9 9 10 8 11 7 12
REMARK SMILES IDX 6 13 5 14 4 15 3 16 2 17 1 18
REMARK H PARENT
REMARK Flexibility Score: inf
ROOT
ATOM      1  C   UNL     1       7.627  29.355   8.985  1.00  0.00     0.004 C 
ENDROOT
BRANCH   1   2
ATOM      2  C   UNL     1       8.646  30.188   9.779  1.00  0.00     0.000 C 
BRANCH   2   3
ATOM      3  C   UNL     1       9.287  29.385  10.924  1.00  0.00     0.000 C 
BRANCH   3   4
ATOM      4  C   UNL     1       8.282  28.473  11.649  1.00  0.00     0.000 C 
BRANCH   4   5
ATOM      5  C   UNL     1       8.840  27.071  11.972  1.00  0.00     0.006 C 
BRANCH   5   6
ATOM      6  C   UNL     1      10.282  26.893  11.482  1.00  0.00     0.053 C 
BRANCH   6   7
ATOM      7  C   UNL     1      10.502  25.495  10.996  1.00  0.00     0.041 C 
ATOM      8  O   UNL     1      10.510  25.248   9.761  1.00  0.00    -0.550 OA
ATOM      9  O   UNL     1      10.650  24.458  11.907  1.00  0.00    -0.550 OA
ENDBRANCH   6   7
ENDBRANCH   5   6
ENDBRANCH   4   5
ENDBRANCH   3   4
ENDBRANCH   2   3
ENDBRANCH   1   2
BRANCH   1  10
ATOM     10  C   UNL     1       8.152  28.959   7.597  1.00  0.00     0.027 C 
BRANCH  10  11
ATOM     11  C   UNL     1       9.129  27.815   7.702  1.00  0.00    -0.031 C 
ATOM     12  C   UNL     1      10.435  27.900   7.387  1.00  0.00    -0.031 C 
BRANCH  12  13
ATOM     13  C   UNL     1      11.131  29.169   6.961  1.00  0.00     0.027 C 
BRANCH  13  14
ATOM     14  C   UNL     1      11.961  29.747   8.112  1.00  0.00     0.004 C 
BRANCH  14  15
ATOM     15  C   UNL     1      12.444  28.636   9.055  1.00  0.00     0.000 C 
BRANCH  15  16
ATOM     16  C   UNL     1      13.451  29.155  10.103  1.00  0.00    -0.000 C 
BRANCH  16  17
ATOM     17  C   UNL     1      12.905  30.307  10.963  1.00  0.00    -0.003 C 
ATOM     18  C   UNL     1      12.692  29.916  12.424  1.00  0.00     0.004 C 
ENDBRANCH  16  17
ENDBRANCH  15  16
ENDBRANCH  14  15
ENDBRANCH  13  14
ENDBRANCH  12  13
ENDBRANCH  10  11
ENDBRANCH   1  10
TORSDOF 13
ENDMDL
MODEL 8
REMARK VINA RESULT:    -3.502      8.317     10.897
REMARK INTER + INTRA:          -8.440
REMARK INTER:                  -6.000
REMARK INTRA:                  -2.439
REMARK UNBOUND:                -2.276
REMARK SMILES CCCCCCC=CCCCCCCCC(=O)[O-]
REMARK SMILES IDX 10 1 11 2 12 3 13 4 14 5 15 6 16 7 17 8 18 9 9 10 8 11 7 12
REMARK SMILES IDX 6 13 5 14 4 15 3 16 2 17 1 18
REMARK H PARENT
REMARK Flexibility Score: inf
ROOT
ATOM      1  C   UNL     1       4.152  32.186  18.089  1.00  0.00     0.004 C 
ENDROOT
BRANCH   1   2
ATOM      2  C   UNL     1       5.479  31.434  18.286  1.00  0.00     0.000 C 
BRANCH   2   3
ATOM      3  C   UNL     1       5.861  30.599  17.051  1.00  0.00     0.000 C 
BRANCH   3   4
ATOM      4  C   UNL     1       6.627  29.315  17.413  1.00  0.00     0.000 C 
BRANCH   4   5
ATOM      5  C   UNL     1       6.371  28.826  18.854  1.00  0.00     0.006 C 
BRANCH   5   6
ATOM      6  C   UNL     1       5.664  27.465  18.888  1.00  0.00     0.053 C 
BRANCH   6   7
ATOM      7  C   UNL     1       6.006  26.728  20.145  1.00  0.00     0.041 C 
ATOM      8  O   UNL     1       6.681  25.666  20.091  1.00  0.00    -0.550 OA
ATOM      9  O   UNL     1       5.540  27.187  21.369  1.00  0.00    -0.550 OA
ENDBRANCH   6   7
ENDBRANCH   5   6
ENDBRANCH   4   5
ENDBRANCH   3   4
ENDBRANCH   2   3
ENDBRANCH   1   2
BRANCH   1  10
ATOM     10  C   UNL     1       3.191  31.993  19.271  1.00  0.00     0.027 C 
BRANCH  10  11
ATOM     11  C   UNL     1       3.479  30.698  19.988  1.00  0.00    -0.031 C 
ATOM     12  C   UNL     1       2.801  29.552  19.789  1.00  0.00    -0.031 C 
BRANCH  12  13
ATOM     13  C   UNL     1       1.709  29.373  18.764  1.00  0.00     0.027 C 
BRANCH  13  14
ATOM     14  C   UNL     1       2.279  28.831  17.449  1.00  0.00     0.004 C 
BRANCH  14  15
ATOM     15  C   UNL     1       1.837  29.696  16.260  1.00  0.00     0.000 C 
BRANCH  15  16
ATOM     16  C   UNL     1       2.947  29.842  15.198  1.00  0.00    -0.000 C 
BRANCH  16  17
ATOM     17  C   UNL     1       3.666  28.521  14.874  1.00  0.00    -0.003 C 
ATOM     18  C   UNL     1       2.980  27.720  13.771  1.00  0.00     0.004 C 
ENDBRANCH  16  17
ENDBRANCH  15  16
ENDBRANCH  14  15
ENDBRANCH  13  14
ENDBRANCH  12  13
ENDBRANCH  10  11
ENDBRANCH   1  10
TORSDOF 13
ENDMDL
MODEL 9
REMARK VINA RESULT:    -3.478      2.377      5.136
REMARK INTER + INTRA:          -8.397
REMARK INTER:                  -5.718
REMARK INTRA:                  -2.679
REMARK UNBOUND:                -2.276
REMARK SMILES CCCCCCC=CCCCCCCCC(=O)[O-]
REMARK SMILES IDX 10 1 11 2 12 3 13 4 14 5 15 6 16 7 17 8 18 9 9 10 8 11 7 12
REMARK SMILES IDX 6 13 5 14 4 15 3 16 2 17 1 18
REMARK H PARENT
REMARK Flexibility Score: inf
ROOT
ATOM      1  C   UNL     1      12.777  30.872  10.525  1.00  0.00     0.004 C 
ENDROOT
BRANCH   1   2
ATOM      2  C   UNL     1      12.978  29.348  10.563  1.00  0.00     0.000 C 
BRANCH   2   3
ATOM      3  C   UNL     1      12.723  28.695   9.193  1.00  0.00     0.000 C 
BRANCH   3   4
ATOM      4  C   UNL     1      11.432  29.196   8.523  1.00  0.00     0.000 C 
BRANCH   4   5
ATOM      5  C   UNL     1      10.869  28.227   7.461  1.00  0.00     0.006 C 
BRANCH   5   6
ATOM      6  C   UNL     1      10.073  27.077   8.089  1.00  0.00     0.053 C 
BRANCH   6   7
ATOM      7  C   UNL     1       8.625  27.439   8.199  1.00  0.00     0.041 C 
ATOM      8  O   UNL     1       8.157  28.388   7.517  1.00  0.00    -0.550 OA
ATOM      9  O   UNL     1       7.805  26.760   9.090  1.00  0.00    -0.550 OA
ENDBRANCH   6   7
ENDBRANCH   5   6
ENDBRANCH   4   5
ENDBRANCH   3   4
ENDBRANCH   2   3
ENDBRANCH   1   2
BRANCH   1  10
ATOM     10  C   UNL     1      12.894  31.510  11.918  1.00  0.00     0.027 C 
BRANCH  10  11
ATOM     11  C   UNL     1      12.736  30.469  12.997  1.00  0.00    -0.031 C 
ATOM     12  C   UNL     1      11.759  30.476  13.923  1.00  0.00    -0.031 C 
BRANCH  12  13
ATOM     13  C   UNL     1      10.632  31.479  13.968  1.00  0.00     0.027 C 
BRANCH  13  14
ATOM     14  C   UNL     1       9.333  30.862  13.440  1.00  0.00     0.004 C 
BRANCH  14  15
ATOM     15  C   UNL     1       9.170  31.125  11.936  1.00  0.00     0.000 C 
BRANCH  15  16
ATOM     16  C   UNL     1       9.104  29.819  11.116  1.00  0.00    -0.000 C 
BRANCH  16  17
ATOM     17  C   UNL     1       8.943  28.558  11.982  1.00  0.00    -0.003 C 
ATOM     18  C   UNL     1      10.072  27.549  11.786  1.00  0.00     0.004 C 
ENDBRANCH  16  17
ENDBRANCH  15  16
ENDBRANCH  14  15
ENDBRANCH  13  14
ENDBRANCH  12  13
ENDBRANCH  10  11
ENDBRANCH   1  10
TORSDOF 13
ENDMDL
