MODEL 1
REMARK VINA RESULT:    -4.383      0.000      0.000
REMARK INTER + INTRA:         -10.005
REMARK INTER:                  -7.715
REMARK INTRA:                  -2.291
REMARK UNBOUND:                -2.291
REMARK SMILES CCCCCCCCCCCCCCC(=O)[O-]
REMARK SMILES IDX 9 1 10 2 11 3 12 4 13 5 14 6 15 7 16 8 17 9 8 10 7 11 6 12
REMARK SMILES IDX 5 13 4 14 3 15 2 16 1 17
REMARK H PARENT
REMARK Flexibility Score: inf
ROOT
ATOM      1  C   UNL     1      27.529  12.667 -13.293  1.00  0.00     0.000 C 
ENDROOT
BRANCH   1   2
ATOM      2  C   UNL     1      26.317  13.427 -13.863  1.00  0.00     0.000 C 
BRANCH   2   3
ATOM      3  C   UNL     1      25.234  13.689 -12.804  1.00  0.00     0.000 C 
BRANCH   3   4
ATOM      4  C   UNL     1      24.934  15.188 -12.623  1.00  0.00     0.000 C 
BRANCH   4   5
ATOM      5  C   UNL     1      26.071  16.085 -13.139  1.00  0.00     0.006 C 
BRANCH   5   6
ATOM      6  C   UNL     1      26.557  17.090 -12.087  1.00  0.00     0.053 C 
BRANCH   6   7
ATOM      7  C   UNL     1      25.869  18.407 -12.267  1.00  0.00     0.041 C 
ATOM      8  O   UNL     1      25.594  18.825 -13.423  1.00  0.00    -0.550 OA
ATOM      9  O   UNL     1      25.484  19.147 -11.157  1.00  0.00    -0.550 OA
ENDBRANCH   6   7
ENDBRANCH   5   6
ENDBRANCH   4   5
ENDBRANCH   3   4
ENDBRANCH   2   3
ENDBRANCH   1   2
BRANCH   1  10
ATOM     10  C   UNL     1      27.539  12.638 -11.755  1.00  0.00     0.000 C 
BRANCH  10  11
ATOM     11  C   UNL     1      28.877  13.117 -11.163  1.00  0.00    -0.000 C 
BRANCH  11  12
ATOM     12  C   UNL     1      28.763  14.493 -10.489  1.00  0.00    -0.000 C 
BRANCH  12  13
ATOM     13  C   UNL     1      28.130  14.418  -9.088  1.00  0.00    -0.000 C 
BRANCH  13  14
ATOM     14  C   UNL     1      26.778  15.143  -9.012  1.00  0.00    -0.000 C 
BRANCH  14  15
ATOM     15  C   UNL     1      25.585  14.178  -9.092  1.00  0.00    -0.000 C 
BRANCH  15  16
ATOM     16  C   UNL     1      24.257  14.938  -8.991  1.00  0.00    -0.003 C 
ATOM     17  C   UNL     1      24.473  16.444  -9.110  1.00  0.00     0.004 C 
ENDBRANCH  15  16
ENDBRANCH  14  15
ENDBRANCH  13  14
ENDBRANCH  12  13
ENDBRANCH  11  12
ENDBRANCH  10  11
ENDBRANCH   1  10
TORSDOF 13
ENDMDL
MODEL 2
REMARK VINA RESULT:    -4.182      2.420      4.523
REMARK INTER + INTRA:          -9.650
REMARK INTER:                  -7.660
REMARK INTRA:                  -1.990
REMARK UNBOUND:                -2.291
REMARK SMILES CCCCCCCCCCCCCCC(=O)[O-]
REMARK SMILES IDX 9 1 10 2 11 3 12 4 13 5 14 6 15 7 16 8 17 9 8 10 7 11 6 12
REMARK SMILES IDX 5 13 4 14 3 15 2 16 1 17
REMARK H PARENT
REMARK Flexibility Score: inf
ROOT
ATOM      1  C   UNL     1      28.982  13.166 -11.054  1.00  0.00     0.000 C 
ENDROOT
BRANCH   1   2
ATOM      2  C   UNL     1      28.979  14.565 -10.411  1.00  0.00     0.000 C 
BRANCH   2   3
ATOM      3  C   UNL     1      28.350  14.568  -9.008  1.00  0.00     0.000 C 
BRANCH   3   4
ATOM      4  C   UNL     1      26.940  15.184  -8.993  1.00  0.00     0.000 C 
BRANCH   4   5
ATOM      5  C   UNL     1      25.832  14.125  -8.877  1.00  0.00     0.006 C 
BRANCH   5   6
ATOM      6  C   UNL     1      24.455  14.658  -9.291  1.00  0.00     0.053 C 
BRANCH   6   7
ATOM      7  C   UNL     1      23.616  13.555  -9.854  1.00  0.00     0.041 C 
ATOM      8  O   UNL     1      22.359  13.632  -9.817  1.00  0.00    -0.550 OA
ATOM      9  O   UNL     1      24.221  12.465 -10.467  1.00  0.00    -0.550 OA
ENDBRANCH   6   7
ENDBRANCH   5   6
ENDBRANCH   4   5
ENDBRANCH   3   4
ENDBRANCH   2   3
ENDBRANCH   1   2
BRANCH   1  10
ATOM     10  C   UNL     1      27.598  12.755 -11.585  1.00  0.00     0.000 C 
BRANCH  10  11
ATOM     11  C   UNL     1      27.533  12.748 -13.123  1.00  0.00    -0.000 C 
BRANCH  11  12
ATOM     12  C   UNL     1      26.463  13.706 -13.672  1.00  0.00    -0.000 C 
BRANCH  12  13
ATOM     13  C   UNL     1      25.964  14.706 -12.614  1.00  0.00    -0.000 C 
BRANCH  13  14
ATOM     14  C   UNL     1      26.003  16.160 -13.112  1.00  0.00    -0.000 C 
BRANCH  14  15
ATOM     15  C   UNL     1      26.849  17.070 -12.208  1.00  0.00    -0.000 C 
BRANCH  15  16
ATOM     16  C   UNL     1      26.086  18.352 -11.853  1.00  0.00    -0.003 C 
ATOM     17  C   UNL     1      25.041  18.090 -10.772  1.00  0.00     0.004 C 
ENDBRANCH  15  16
ENDBRANCH  14  15
ENDBRANCH  13  14
ENDBRANCH  12  13
ENDBRANCH  11  12
ENDBRANCH  10  11
ENDBRANCH   1  10
TORSDOF 13
ENDMDL
MODEL 3
REMARK VINA RESULT:    -4.181      1.590      3.765
REMARK INTER + INTRA:          -9.649
REMARK INTER:                  -7.583
REMARK INTRA:                  -2.066
REMARK UNBOUND:                -2.291
REMARK SMILES CCCCCCCCCCCCCCC(=O)[O-]
REMARK SMILES IDX 9 1 10 2 11 3 12 4 13 5 14 6 15 7 16 8 17 9 8 10 7 11 6 12
REMARK SMILES IDX 5 13 4 14 3 15 2 16 1 17
REMARK H PARENT
REMARK Flexibility Score: inf
ROOT
ATOM      1  C   UNL     1      25.510  15.625  -9.513  1.00  0.00     0.000 C 
ENDROOT
BRANCH   1   2
ATOM      2  C   UNL     1      25.544  16.671 -10.642  1.00  0.00     0.000 C 
BRANCH   2   3
ATOM      3  C   UNL     1      26.845  16.615 -11.459  1.00  0.00     0.000 C 
BRANCH   3   4
ATOM      4  C   UNL     1      27.034  17.850 -12.357  1.00  0.00     0.000 C 
BRANCH   4   5
ATOM      5  C   UNL     1      26.822  17.536 -13.847  1.00  0.00     0.006 C 
BRANCH   5   6
ATOM      6  C   UNL     1      25.521  18.131 -14.399  1.00  0.00     0.053 C 
BRANCH   6   7
ATOM      7  C   UNL     1      24.445  17.091 -14.432  1.00  0.00     0.041 C 
ATOM      8  O   UNL     1      23.574  17.051 -13.523  1.00  0.00    -0.550 OA
ATOM      9  O   UNL     1      24.373  16.199 -15.494  1.00  0.00    -0.550 OA
ENDBRANCH   6   7
ENDBRANCH   5   6
ENDBRANCH   4   5
ENDBRANCH   3   4
ENDBRANCH   2   3
ENDBRANCH   1   2
BRANCH   1  10
ATOM     10  C   UNL     1      26.916  15.232  -9.028  1.00  0.00     0.000 C 
BRANCH  10  11
ATOM     11  C   UNL     1      27.286  13.784  -9.398  1.00  0.00    -0.000 C 
BRANCH  11  12
ATOM     12  C   UNL     1      28.718  13.665  -9.945  1.00  0.00    -0.000 C 
BRANCH  12  13
ATOM     13  C   UNL     1      28.767  13.035 -11.349  1.00  0.00    -0.000 C 
BRANCH  13  14
ATOM     14  C   UNL     1      27.370  12.688 -11.888  1.00  0.00    -0.000 C 
BRANCH  14  15
ATOM     15  C   UNL     1      27.225  12.988 -13.388  1.00  0.00    -0.000 C 
BRANCH  15  16
ATOM     16  C   UNL     1      25.867  13.632 -13.689  1.00  0.00    -0.003 C 
ATOM     17  C   UNL     1      24.927  13.526 -12.492  1.00  0.00     0.004 C 
ENDBRANCH  15  16
ENDBRANCH  14  15
ENDBRANCH  13  14
ENDBRANCH  12  13
ENDBRANCH  11  12
ENDBRANCH  10  11
ENDBRANCH   1  10
TORSDOF 13
ENDMDL
MODEL 4
REMARK VINA RESULT:    -4.102      2.002      4.191
REMARK INTER + INTRA:          -9.510
REMARK INTER:                  -7.400
REMARK INTRA:                  -2.110
REMARK UNBOUND:                -2.291
REMARK SMILES CCCCCCCCCCCCCCC(=O)[O-]
REMARK SMILES IDX 9 1 10 2 11 3 12 4 13 5 14 6 15 7 16 8 17 9 8 10 7 11 6 12
REMARK SMILES IDX 5 13 4 14 3 15 2 16 1 17
REMARK H PARENT
REMARK Flexibility Score: inf
ROOT
ATOM      1  C   UNL     1      25.509  16.557 -10.054  1.00  0.00     0.000 C 
ENDROOT
BRANCH   1   2
ATOM      2  C   UNL     1      24.728  17.730 -10.675  1.00  0.00     0.000 C 
BRANCH   2   3
ATOM      3  C   UNL     1      25.600  18.595 -11.600  1.00  0.00     0.000 C 
BRANCH   3   4
ATOM      4  C   UNL     1      26.855  17.853 -12.094  1.00  0.00     0.000 C 
BRANCH   4   5
ATOM      5  C   UNL     1      26.817  17.568 -13.604  1.00  0.00     0.006 C 
BRANCH   5   6
ATOM      6  C   UNL     1      25.390  17.514 -14.162  1.00  0.00     0.053 C 
BRANCH   6   7
ATOM      7  C   UNL     1      25.266  16.418 -15.173  1.00  0.00     0.041 C 
ATOM      8  O   UNL     1      24.291  16.398 -15.971  1.00  0.00    -0.550 OA
ATOM      9  O   UNL     1      26.255  15.448 -15.271  1.00  0.00    -0.550 OA
ENDBRANCH   6   7
ENDBRANCH   5   6
ENDBRANCH   4   5
ENDBRANCH   3   4
ENDBRANCH   2   3
ENDBRANCH   1   2
BRANCH   1  10
ATOM     10  C   UNL     1      24.826  15.200 -10.292  1.00  0.00     0.000 C 
BRANCH  10  11
ATOM     11  C   UNL     1      24.606  14.902 -11.786  1.00  0.00    -0.000 C 
BRANCH  11  12
ATOM     12  C   UNL     1      25.448  13.713 -12.278  1.00  0.00    -0.000 C 
BRANCH  12  13
ATOM     13  C   UNL     1      26.961  13.985 -12.203  1.00  0.00    -0.000 C 
BRANCH  13  14
ATOM     14  C   UNL     1      27.720  12.883 -11.447  1.00  0.00    -0.000 C 
BRANCH  14  15
ATOM     15  C   UNL     1      29.069  13.369 -10.894  1.00  0.00    -0.000 C 
BRANCH  15  16
ATOM     16  C   UNL     1      28.915  14.718 -10.182  1.00  0.00    -0.003 C 
ATOM     17  C   UNL     1      28.381  14.536  -8.764  1.00  0.00     0.004 C 
ENDBRANCH  15  16
ENDBRANCH  14  15
ENDBRANCH  13  14
ENDBRANCH  12  13
ENDBRANCH  11  12
ENDBRANCH  10  11
ENDBRANCH   1  10
TORSDOF 13
ENDMDL
MODEL 5
REMARK VINA RESULT:    -4.084      2.061      2.549
REMARK INTER + INTRA:          -9.478
REMARK INTER:                  -7.610
REMARK INTRA:                  -1.868
REMARK UNBOUND:                -2.291
REMARK SMILES CCCCCCCCCCCCCCC(=O)[O-]
REMARK SMILES IDX 9 1 10 2 11 3 12 4 13 5 14 6 15 7 16 8 17 9 8 10 7 11 6 12
REMARK SMILES IDX 5 13 4 14 3 15 2 16 1 17
REMARK H PARENT
REMARK Flexibility Score: inf
ROOT
ATOM      1  C   UNL     1      27.276  12.615 -12.126  1.00  0.00     0.000 C 
ENDROOT
BRANCH   1   2
ATOM      2  C   UNL     1      27.180  12.956 -13.624  1.00  0.00     0.000 C 
BRANCH   2   3
ATOM      3  C   UNL     1      25.740  13.266 -14.067  1.00  0.00     0.000 C 
BRANCH   3   4
ATOM      4  C   UNL     1      25.181  14.542 -13.412  1.00  0.00     0.000 C 
BRANCH   4   5
ATOM      5  C   UNL     1      24.912  15.661 -14.430  1.00  0.00     0.006 C 
BRANCH   5   6
ATOM      6  C   UNL     1      26.063  16.670 -14.520  1.00  0.00     0.053 C 
BRANCH   6   7
ATOM      7  C   UNL     1      26.579  16.748 -15.923  1.00  0.00     0.041 C 
ATOM      8  O   UNL     1      27.440  15.923 -16.327  1.00  0.00    -0.550 OA
ATOM      9  O   UNL     1      26.072  17.699 -16.799  1.00  0.00    -0.550 OA
ENDBRANCH   6   7
ENDBRANCH   5   6
ENDBRANCH   4   5
ENDBRANCH   3   4
ENDBRANCH   2   3
ENDBRANCH   1   2
BRANCH   1  10
ATOM     10  C   UNL     1      28.632  13.005 -11.516  1.00  0.00     0.000 C 
BRANCH  10  11
ATOM     11  C   UNL     1      28.595  13.062  -9.978  1.00  0.00    -0.000 C 
BRANCH  11  12
ATOM     12  C   UNL     1      28.556  14.502  -9.442  1.00  0.00    -0.000 C 
BRANCH  12  13
ATOM     13  C   UNL     1      28.276  15.538 -10.546  1.00  0.00    -0.000 C 
BRANCH  13  14
ATOM     14  C   UNL     1      26.819  16.028 -10.539  1.00  0.00    -0.000 C 
BRANCH  14  15
ATOM     15  C   UNL     1      26.034  15.525  -9.317  1.00  0.00    -0.000 C 
BRANCH  15  16
ATOM     16  C   UNL     1      24.889  14.599  -9.745  1.00  0.00    -0.003 C 
ATOM     17  C   UNL     1      24.979  13.248  -9.040  1.00  0.00     0.004 C 
ENDBRANCH  15  16
ENDBRANCH  14  15
ENDBRANCH  13  14
ENDBRANCH  12  13
ENDBRANCH  11  12
ENDBRANCH  10  11
ENDBRANCH   1  10
TORSDOF 13
ENDMDL
MODEL 6
REMARK VINA RESULT:    -4.064      2.405      4.367
REMARK INTER + INTRA:          -9.443
REMARK INTER:                  -7.126
REMARK INTRA:                  -2.317
REMARK UNBOUND:                -2.291
REMARK SMILES CCCCCCCCCCCCCCC(=O)[O-]
REMARK SMILES IDX 9 1 10 2 11 3 12 4 13 5 14 6 15 7 16 8 17 9 8 10 7 11 6 12
REMARK SMILES IDX 5 13 4 14 3 15 2 16 1 17
REMARK H PARENT
REMARK Flexibility Score: inf
ROOT
ATOM      1  C   UNL     1      28.471  15.432 -10.057  1.00  0.00     0.000 C 
ENDROOT
BRANCH   1   2
ATOM      2  C   UNL     1      27.694  16.181 -11.156  1.00  0.00     0.000 C 
BRANCH   2   3
ATOM      3  C   UNL     1      26.221  16.415 -10.782  1.00  0.00     0.000 C 
BRANCH   3   4
ATOM      4  C   UNL     1      25.817  15.689  -9.487  1.00  0.00     0.000 C 
BRANCH   4   5
ATOM      5  C   UNL     1      24.293  15.595  -9.312  1.00  0.00     0.006 C 
BRANCH   5   6
ATOM      6  C   UNL     1      23.527  15.943 -10.595  1.00  0.00     0.053 C 
BRANCH   6   7
ATOM      7  C   UNL     1      22.303  15.091 -10.718  1.00  0.00     0.041 C 
ATOM      8  O   UNL     1      21.193  15.614 -11.002  1.00  0.00    -0.550 OA
ATOM      9  O   UNL     1      22.397  13.713 -10.571  1.00  0.00    -0.550 OA
ENDBRANCH   6   7
ENDBRANCH   5   6
ENDBRANCH   4   5
ENDBRANCH   3   4
ENDBRANCH   2   3
ENDBRANCH   1   2
BRANCH   1  10
ATOM     10  C   UNL     1      29.170  14.167 -10.582  1.00  0.00     0.000 C 
BRANCH  10  11
ATOM     11  C   UNL     1      28.298  12.906 -10.437  1.00  0.00    -0.000 C 
BRANCH  11  12
ATOM     12  C   UNL     1      27.492  12.599 -11.710  1.00  0.00    -0.000 C 
BRANCH  12  13
ATOM     13  C   UNL     1      25.981  12.826 -11.525  1.00  0.00    -0.000 C 
BRANCH  13  14
ATOM     14  C   UNL     1      25.316  13.414 -12.779  1.00  0.00    -0.000 C 
BRANCH  14  15
ATOM     15  C   UNL     1      26.297  13.565 -13.952  1.00  0.00    -0.000 C 
BRANCH  15  16
ATOM     16  C   UNL     1      26.112  14.917 -14.651  1.00  0.00    -0.003 C 
ATOM     17  C   UNL     1      24.818  15.594 -14.209  1.00  0.00     0.004 C 
ENDBRANCH  15  16
ENDBRANCH  14  15
ENDBRANCH  13  14
ENDBRANCH  12  13
ENDBRANCH  11  12
ENDBRANCH  10  11
ENDBRANCH   1  10
TORSDOF 13
ENDMDL
MODEL 7
REMARK VINA RESULT:    -4.041      2.673      4.610
REMARK INTER + INTRA:          -9.403
REMARK INTER:                  -7.439
REMARK INTRA:                  -1.964
REMARK UNBOUND:                -2.291
REMARK SMILES CCCCCCCCCCCCCCC(=O)[O-]
REMARK SMILES IDX 9 1 10 2 11 3 12 4 13 5 14 6 15 7 16 8 17 9 8 10 7 11 6 12
REMARK SMILES IDX 5 13 4 14 3 15 2 16 1 17
REMARK H PARENT
REMARK Flexibility Score: inf
ROOT
ATOM      1  C   UNL     1      25.198  16.025 -15.059  1.00  0.00     0.000 C 
ENDROOT
BRANCH   1   2
ATOM      2  C   UNL     1      26.256  14.906 -15.015  1.00  0.00     0.000 C 
BRANCH   2   3
ATOM      3  C   UNL     1      25.860  13.758 -14.072  1.00  0.00     0.000 C 
BRANCH   3   4
ATOM      4  C   UNL     1      27.076  12.963 -13.566  1.00  0.00     0.000 C 
BRANCH   4   5
ATOM      5  C   UNL     1      27.190  12.970 -12.033  1.00  0.00     0.006 C 
BRANCH   5   6
ATOM      6  C   UNL     1      28.644  13.001 -11.546  1.00  0.00     0.053 C 
BRANCH   6   7
ATOM      7  C   UNL     1      28.722  13.596 -10.175  1.00  0.00     0.041 C 
ATOM      8  O   UNL     1      28.230  12.984  -9.190  1.00  0.00    -0.550 OA
ATOM      9  O   UNL     1      29.385  14.800  -9.977  1.00  0.00    -0.550 OA
ENDBRANCH   6   7
ENDBRANCH   5   6
ENDBRANCH   4   5
ENDBRANCH   3   4
ENDBRANCH   2   3
ENDBRANCH   1   2
BRANCH   1  10
ATOM     10  C   UNL     1      25.696  17.282 -15.793  1.00  0.00     0.000 C 
BRANCH  10  11
ATOM     11  C   UNL     1      26.673  18.115 -14.944  1.00  0.00    -0.000 C 
BRANCH  11  12
ATOM     12  C   UNL     1      26.281  18.146 -13.457  1.00  0.00    -0.000 C 
BRANCH  12  13
ATOM     13  C   UNL     1      27.431  17.713 -12.531  1.00  0.00    -0.000 C 
BRANCH  13  14
ATOM     14  C   UNL     1      26.969  16.740 -11.434  1.00  0.00    -0.000 C 
BRANCH  14  15
ATOM     15  C   UNL     1      25.453  16.489 -11.468  1.00  0.00    -0.000 C 
BRANCH  15  16
ATOM     16  C   UNL     1      25.060  15.379 -10.486  1.00  0.00    -0.003 C 
ATOM     17  C   UNL     1      25.730  15.578  -9.130  1.00  0.00     0.004 C 
ENDBRANCH  15  16
ENDBRANCH  14  15
ENDBRANCH  13  14
ENDBRANCH  12  13
ENDBRANCH  11  12
ENDBRANCH  10  11
ENDBRANCH   1  10
TORSDOF 13
ENDMDL
MODEL 8
REMARK VINA RESULT:    -4.001      2.092      4.307
REMARK INTER + INTRA:          -9.332
REMARK INTER:                  -7.796
REMARK INTRA:                  -1.536
REMARK UNBOUND:                -2.291
REMARK SMILES CCCCCCCCCCCCCCC(=O)[O-]
REMARK SMILES IDX 9 1 10 2 11 3 12 4 13 5 14 6 15 7 16 8 17 9 8 10 7 11 6 12
REMARK SMILES IDX 5 13 4 14 3 15 2 16 1 17
REMARK H PARENT
REMARK Flexibility Score: inf
ROOT
ATOM      1  C   UNL     1      25.892  18.635 -11.754  1.00  0.00     0.000 C 
ENDROOT
BRANCH   1   2
ATOM      2  C   UNL     1      26.886  17.846 -12.625  1.00  0.00     0.000 C 
BRANCH   2   3
ATOM      3  C   UNL     1      26.711  18.131 -14.125  1.00  0.00     0.000 C 
BRANCH   3   4
ATOM      4  C   UNL     1      26.322  16.875 -14.925  1.00  0.00     0.000 C 
BRANCH   4   5
ATOM      5  C   UNL     1      24.968  16.294 -14.491  1.00  0.00     0.006 C 
BRANCH   5   6
ATOM      6  C   UNL     1      23.808  16.768 -15.376  1.00  0.00     0.053 C 
BRANCH   6   7
ATOM      7  C   UNL     1      22.823  17.553 -14.567  1.00  0.00     0.041 C 
ATOM      8  O   UNL     1      23.178  18.618 -13.997  1.00  0.00    -0.550 OA
ATOM      9  O   UNL     1      21.501  17.136 -14.487  1.00  0.00    -0.550 OA
ENDBRANCH   6   7
ENDBRANCH   5   6
ENDBRANCH   4   5
ENDBRANCH   3   4
ENDBRANCH   2   3
ENDBRANCH   1   2
BRANCH   1  10
ATOM     10  C   UNL     1      25.024  17.722 -10.872  1.00  0.00     0.000 C 
BRANCH  10  11
ATOM     11  C   UNL     1      25.540  16.273 -10.831  1.00  0.00    -0.000 C 
BRANCH  11  12
ATOM     12  C   UNL     1      25.689  15.741  -9.397  1.00  0.00    -0.000 C 
BRANCH  12  13
ATOM     13  C   UNL     1      27.104  15.212  -9.103  1.00  0.00    -0.000 C 
BRANCH  13  14
ATOM     14  C   UNL     1      28.058  15.388 -10.295  1.00  0.00    -0.000 C 
BRANCH  14  15
ATOM     15  C   UNL     1      29.234  14.399 -10.260  1.00  0.00    -0.000 C 
BRANCH  15  16
ATOM     16  C   UNL     1      28.762  12.973 -10.565  1.00  0.00    -0.003 C 
ATOM     17  C   UNL     1      28.014  12.912 -11.893  1.00  0.00     0.004 C 
ENDBRANCH  15  16
ENDBRANCH  14  15
ENDBRANCH  13  14
ENDBRANCH  12  13
ENDBRANCH  11  12
ENDBRANCH  10  11
ENDBRANCH   1  10
TORSDOF 13
ENDMDL
MODEL 9
REMARK VINA RESULT:    -3.959      2.154      4.382
REMARK INTER + INTRA:          -9.259
REMARK INTER:                  -7.293
REMARK INTRA:                  -1.965
REMARK UNBOUND:                -2.291
REMARK SMILES CCCCCCCCCCCCCCC(=O)[O-]
REMARK SMILES IDX 9 1 10 2 11 3 12 4 13 5 14 6 15 7 16 8 17 9 8 10 7 11 6 12
REMARK SMILES IDX 5 13 4 14 3 15 2 16 1 17
REMARK H PARENT
REMARK Flexibility Score: inf
ROOT
ATOM      1  C   UNL     1      28.961  14.402 -10.289  1.00  0.00     0.000 C 
ENDROOT
BRANCH   1   2
ATOM      2  C   UNL     1      28.443  14.764  -8.885  1.00  0.00     0.000 C 
BRANCH   2   3
ATOM      3  C   UNL     1      26.919  14.604  -8.759  1.00  0.00     0.000 C 
BRANCH   3   4
ATOM      4  C   UNL     1      26.146  15.747  -9.441  1.00  0.00     0.000 C 
BRANCH   4   5
ATOM      5  C   UNL     1      24.625  15.620  -9.263  1.00  0.00     0.006 C 
BRANCH   5   6
ATOM      6  C   UNL     1      23.921  16.981  -9.190  1.00  0.00     0.053 C 
BRANCH   6   7
ATOM      7  C   UNL     1      22.618  16.855  -8.465  1.00  0.00     0.041 C 
ATOM      8  O   UNL     1      22.104  17.860  -7.906  1.00  0.00    -0.550 OA
ATOM      9  O   UNL     1      21.945  15.641  -8.451  1.00  0.00    -0.550 OA
ENDBRANCH   6   7
ENDBRANCH   5   6
ENDBRANCH   4   5
ENDBRANCH   3   4
ENDBRANCH   2   3
ENDBRANCH   1   2
BRANCH   1  10
ATOM     10  C   UNL     1      28.540  12.990 -10.730  1.00  0.00     0.000 C 
BRANCH  10  11
ATOM     11  C   UNL     1      27.730  12.996 -12.039  1.00  0.00    -0.000 C 
BRANCH  11  12
ATOM     12  C   UNL     1      26.214  12.922 -11.794  1.00  0.00    -0.000 C 
BRANCH  12  13
ATOM     13  C   UNL     1      25.432  13.984 -12.586  1.00  0.00    -0.000 C 
BRANCH  13  14
ATOM     14  C   UNL     1      26.351  15.028 -13.239  1.00  0.00    -0.000 C 
BRANCH  14  15
ATOM     15  C   UNL     1      25.751  16.443 -13.211  1.00  0.00    -0.000 C 
BRANCH  15  16
ATOM     16  C   UNL     1      26.704  17.428 -12.524  1.00  0.00    -0.003 C 
ATOM     17  C   UNL     1      25.935  18.555 -11.840  1.00  0.00     0.004 C 
ENDBRANCH  15  16
ENDBRANCH  14  15
ENDBRANCH  13  14
ENDBRANCH  12  13
ENDBRANCH  11  12
ENDBRANCH  10  11
ENDBRANCH   1  10
TORSDOF 13
ENDMDL
