MODEL 1
REMARK VINA RESULT:    -7.299      0.000      0.000
REMARK INTER + INTRA:          -7.827
REMARK INTER:                  -7.939
REMARK INTRA:                   0.112
REMARK UNBOUND:                 0.112
REMARK SMILES C[C@H]1[C@H](C)CC[C@@]2(C(=O)[O-])CC[C@@]3(C)C(=CC[C@@H]4[C@@]5(C)CC[C@H](O)C(C)(C)[C@H]5CC[C@@]43C)[C@H]12
REMARK SMILES IDX 7 1 6 2 11 3 33 4 5 5 12 6 15 7 2 8 3 9 13 10 16 11 1 12
REMARK SMILES IDX 4 13 14 14 31 15 17 16 18 17 30 18 32 19 19 20 29 21 28 22
REMARK SMILES IDX 21 23 20 24 25 25 22 26 23 27 26 28 27 29 8 30 9 31 10 32
REMARK SMILES IDX 24 33
REMARK H PARENT 24 34
REMARK Flexibility Score: inf
ROOT
ATOM      1  C   UNL     1      -0.131  26.013  26.761  1.00  0.00     0.017 C 
ATOM      2  C   UNL     1       1.151  25.802  25.886  1.00  0.00     0.014 C 
ATOM      3  C   UNL     1      -1.117  24.796  26.637  1.00  0.00     0.014 C 
ATOM      4  C   UNL     1       0.235  26.153  28.281  1.00  0.00     0.030 C 
ATOM      5  C   UNL     1       2.277  25.116  26.663  1.00  0.00     0.004 C 
ATOM      6  C   UNL     1      -1.773  24.287  27.968  1.00  0.00     0.013 C 
ATOM      7  C   UNL     1      -1.042  26.486  29.032  1.00  0.00    -0.063 C 
ATOM      8  C   UNL     1       1.586  26.908  28.462  1.00  0.00    -0.003 C 
ATOM      9  C   UNL     1       2.724  25.982  27.878  1.00  0.00    -0.011 C 
ATOM     10  C   UNL     1      -2.088  25.367  29.105  1.00  0.00    -0.006 C 
ATOM     11  C   UNL     1      -1.284  27.675  29.599  1.00  0.00    -0.027 C 
ATOM     12  C   UNL     1       1.894  27.283  29.937  1.00  0.00     0.008 C 
ATOM     13  C   UNL     1       3.989  26.790  27.564  1.00  0.00     0.008 C 
ATOM     14  C   UNL     1      -1.834  24.651  30.468  1.00  0.00     0.017 C 
ATOM     15  C   UNL     1      -3.593  25.958  29.007  1.00  0.00    -0.020 C 
ATOM     16  C   UNL     1      -2.506  27.895  30.419  1.00  0.00     0.032 C 
ATOM     17  C   UNL     1      -3.820  27.369  29.740  1.00  0.00     0.006 C 
ATOM     18  C   UNL     1      -4.596  24.881  29.529  1.00  0.00     0.008 C 
ATOM     19  C   UNL     1      -3.977  26.197  27.513  1.00  0.00     0.012 C 
ATOM     20  C   UNL     1      -5.091  27.501  30.714  1.00  0.00    -0.025 C 
ATOM     21  C   UNL     1      -4.967  24.911  31.022  1.00  0.00     0.005 C 
ATOM     22  C   UNL     1      -5.079  26.308  31.733  1.00  0.00     0.003 C 
ATOM     23  C   UNL     1      -6.473  27.500  29.972  1.00  0.00     0.010 C 
ATOM     24  C   UNL     1      -4.965  28.912  31.385  1.00  0.00     0.012 C 
ATOM     25  C   UNL     1      -6.278  26.316  32.773  1.00  0.00    -0.006 C 
ATOM     26  C   UNL     1      -7.691  27.478  30.920  1.00  0.00     0.033 C 
ATOM     27  C   UNL     1      -7.637  26.356  32.003  1.00  0.00     0.120 C 
ATOM     28  C   UNL     1      -6.176  27.507  33.780  1.00  0.00     0.014 C 
ATOM     29  C   UNL     1      -6.222  25.038  33.661  1.00  0.00     0.014 C 
ENDROOT
BRANCH   1  30
ATOM     30  C   UNL     1      -0.822  27.274  26.195  1.00  0.00     0.048 C 
ATOM     31  O   UNL     1      -0.279  28.415  26.261  1.00  0.00    -0.550 OA
ATOM     32  O   UNL     1      -2.023  27.166  25.501  1.00  0.00    -0.550 OA
ENDBRANCH   1  30
BRANCH  27  33
ATOM     33  O   UNL     1      -8.681  26.523  32.930  1.00  0.00    -0.393 OA
ATOM     34  H   UNL     1      -8.690  27.472  33.241  1.00  0.00     0.210 HD
ENDBRANCH  27  33
TORSDOF 2
ENDMDL
MODEL 2
REMARK VINA RESULT:    -7.135      2.445      7.782
REMARK INTER + INTRA:          -7.649
REMARK INTER:                  -8.019
REMARK INTRA:                   0.369
REMARK UNBOUND:                 0.112
REMARK SMILES C[C@H]1[C@H](C)CC[C@@]2(C(=O)[O-])CC[C@@]3(C)C(=CC[C@@H]4[C@@]5(C)CC[C@H](O)C(C)(C)[C@H]5CC[C@@]43C)[C@H]12
REMARK SMILES IDX 7 1 6 2 11 3 33 4 5 5 12 6 15 7 2 8 3 9 13 10 16 11 1 12
REMARK SMILES IDX 4 13 14 14 31 15 17 16 18 17 30 18 32 19 19 20 29 21 28 22
REMARK SMILES IDX 21 23 20 24 25 25 22 26 23 27 26 28 27 29 8 30 9 31 10 32
REMARK SMILES IDX 24 33
REMARK H PARENT 24 34
REMARK Flexibility Score: inf
ROOT
ATOM      1  C   UNL     1      -3.303  24.084  31.662  1.00  0.00     0.017 C 
ATOM      2  C   UNL     1      -4.307  23.388  32.643  1.00  0.00     0.014 C 
ATOM      3  C   UNL     1      -3.135  23.262  30.334  1.00  0.00     0.014 C 
ATOM      4  C   UNL     1      -3.805  25.515  31.255  1.00  0.00     0.030 C 
ATOM      5  C   UNL     1      -5.745  23.874  32.440  1.00  0.00     0.004 C 
ATOM      6  C   UNL     1      -3.117  24.083  28.998  1.00  0.00     0.013 C 
ATOM      7  C   UNL     1      -2.715  26.163  30.419  1.00  0.00    -0.063 C 
ATOM      8  C   UNL     1      -4.534  26.210  32.444  1.00  0.00    -0.003 C 
ATOM      9  C   UNL     1      -5.863  25.401  32.717  1.00  0.00    -0.011 C 
ATOM     10  C   UNL     1      -2.480  25.550  29.032  1.00  0.00    -0.006 C 
ATOM     11  C   UNL     1      -1.975  27.198  30.833  1.00  0.00    -0.027 C 
ATOM     12  C   UNL     1      -4.852  27.707  32.185  1.00  0.00     0.008 C 
ATOM     13  C   UNL     1      -6.402  25.683  34.125  1.00  0.00     0.008 C 
ATOM     14  C   UNL     1      -3.328  26.416  28.049  1.00  0.00     0.017 C 
ATOM     15  C   UNL     1      -0.909  25.559  28.642  1.00  0.00    -0.020 C 
ATOM     16  C   UNL     1      -1.004  27.858  29.919  1.00  0.00     0.032 C 
ATOM     17  C   UNL     1      -0.090  26.848  29.140  1.00  0.00     0.006 C 
ATOM     18  C   UNL     1      -0.768  25.360  27.099  1.00  0.00     0.008 C 
ATOM     19  C   UNL     1      -0.191  24.332  29.287  1.00  0.00     0.012 C 
ATOM     20  C   UNL     1       0.844  27.592  28.066  1.00  0.00    -0.025 C 
ATOM     21  C   UNL     1      -0.722  26.620  26.216  1.00  0.00     0.005 C 
ATOM     22  C   UNL     1      -0.001  27.898  26.780  1.00  0.00     0.003 C 
ATOM     23  C   UNL     1       2.112  26.773  27.638  1.00  0.00     0.010 C 
ATOM     24  C   UNL     1       1.385  28.872  28.791  1.00  0.00     0.012 C 
ATOM     25  C   UNL     1       0.796  28.649  25.629  1.00  0.00    -0.006 C 
ATOM     26  C   UNL     1       2.924  27.427  26.500  1.00  0.00     0.033 C 
ATOM     27  C   UNL     1       2.071  27.828  25.256  1.00  0.00     0.120 C 
ATOM     28  C   UNL     1       1.175  30.110  26.033  1.00  0.00     0.014 C 
ATOM     29  C   UNL     1      -0.108  28.805  24.371  1.00  0.00     0.014 C 
ENDROOT
BRANCH   1  30
ATOM     30  C   UNL     1      -1.948  24.117  32.404  1.00  0.00     0.048 C 
ATOM     31  O   UNL     1      -0.876  23.747  31.844  1.00  0.00    -0.550 OA
ATOM     32  O   UNL     1      -1.860  24.655  33.684  1.00  0.00    -0.550 OA
ENDBRANCH   1  30
BRANCH  27  33
ATOM     33  O   UNL     1       2.847  28.578  24.354  1.00  0.00    -0.393 OA
ATOM     34  H   UNL     1       2.980  28.046  23.520  1.00  0.00     0.210 HD
ENDBRANCH  27  33
TORSDOF 2
ENDMDL
MODEL 3
REMARK VINA RESULT:    -6.809      1.779      7.794
REMARK INTER + INTRA:          -7.295
REMARK INTER:                  -7.380
REMARK INTRA:                   0.086
REMARK UNBOUND:                 0.112
REMARK SMILES C[C@H]1[C@H](C)CC[C@@]2(C(=O)[O-])CC[C@@]3(C)C(=CC[C@@H]4[C@@]5(C)CC[C@H](O)C(C)(C)[C@H]5CC[C@@]43C)[C@H]12
REMARK SMILES IDX 7 1 6 2 11 3 33 4 5 5 12 6 15 7 2 8 3 9 13 10 16 11 1 12
REMARK SMILES IDX 4 13 14 14 31 15 17 16 18 17 30 18 32 19 19 20 29 21 28 22
REMARK SMILES IDX 21 23 20 24 25 25 22 26 23 27 26 28 27 29 8 30 9 31 10 32
REMARK SMILES IDX 24 33
REMARK H PARENT 24 34
REMARK Flexibility Score: inf
ROOT
ATOM      1  C   UNL     1      -4.977  26.377  31.844  1.00  0.00     0.017 C 
ATOM      2  C   UNL     1      -6.044  26.135  32.964  1.00  0.00     0.014 C 
ATOM      3  C   UNL     1      -4.180  27.709  32.090  1.00  0.00     0.014 C 
ATOM      4  C   UNL     1      -3.923  25.215  31.800  1.00  0.00     0.030 C 
ATOM      5  C   UNL     1      -5.488  25.307  34.125  1.00  0.00     0.004 C 
ATOM      6  C   UNL     1      -2.629  27.651  31.860  1.00  0.00     0.013 C 
ATOM      7  C   UNL     1      -3.015  25.463  30.609  1.00  0.00    -0.063 C 
ATOM      8  C   UNL     1      -4.590  23.845  32.130  1.00  0.00    -0.003 C 
ATOM      9  C   UNL     1      -5.043  23.895  33.641  1.00  0.00    -0.011 C 
ATOM     10  C   UNL     1      -2.080  26.674  30.719  1.00  0.00    -0.006 C 
ATOM     11  C   UNL     1      -3.007  24.703  29.507  1.00  0.00    -0.027 C 
ATOM     12  C   UNL     1      -3.660  22.628  31.880  1.00  0.00     0.008 C 
ATOM     13  C   UNL     1      -6.109  22.833  33.935  1.00  0.00     0.008 C 
ATOM     14  C   UNL     1      -0.727  26.106  31.247  1.00  0.00     0.017 C 
ATOM     15  C   UNL     1      -1.905  27.417  29.291  1.00  0.00    -0.020 C 
ATOM     16  C   UNL     1      -2.010  24.933  28.427  1.00  0.00     0.032 C 
ATOM     17  C   UNL     1      -1.868  26.441  28.016  1.00  0.00     0.006 C 
ATOM     18  C   UNL     1      -0.637  28.327  29.344  1.00  0.00     0.008 C 
ATOM     19  C   UNL     1      -3.104  28.385  29.041  1.00  0.00     0.012 C 
ATOM     20  C   UNL     1      -0.688  26.662  26.948  1.00  0.00    -0.025 C 
ATOM     21  C   UNL     1       0.701  27.718  28.891  1.00  0.00     0.005 C 
ATOM     22  C   UNL     1       0.686  26.686  27.706  1.00  0.00     0.003 C 
ATOM     23  C   UNL     1      -0.813  27.984  26.114  1.00  0.00     0.010 C 
ATOM     24  C   UNL     1      -0.825  25.489  25.917  1.00  0.00     0.012 C 
ATOM     25  C   UNL     1       1.953  26.886  26.769  1.00  0.00    -0.006 C 
ATOM     26  C   UNL     1       0.398  28.263  25.198  1.00  0.00     0.033 C 
ATOM     27  C   UNL     1       1.777  28.188  25.924  1.00  0.00     0.120 C 
ATOM     28  C   UNL     1       2.200  25.652  25.842  1.00  0.00     0.014 C 
ATOM     29  C   UNL     1       3.242  26.998  27.634  1.00  0.00     0.014 C 
ENDROOT
BRANCH   1  30
ATOM     30  C   UNL     1      -5.774  26.510  30.526  1.00  0.00     0.048 C 
ATOM     31  O   UNL     1      -6.279  25.503  29.952  1.00  0.00    -0.550 OA
ATOM     32  O   UNL     1      -6.044  27.766  29.991  1.00  0.00    -0.550 OA
ENDBRANCH   1  30
BRANCH  27  33
ATOM     33  O   UNL     1       2.825  28.268  24.989  1.00  0.00    -0.393 OA
ATOM     34  H   UNL     1       3.225  27.361  24.872  1.00  0.00     0.210 HD
ENDBRANCH  27  33
TORSDOF 2
ENDMDL
MODEL 4
REMARK VINA RESULT:    -6.797      2.309      4.301
REMARK INTER + INTRA:          -7.282
REMARK INTER:                  -7.397
REMARK INTRA:                   0.115
REMARK UNBOUND:                 0.112
REMARK SMILES C[C@H]1[C@H](C)CC[C@@]2(C(=O)[O-])CC[C@@]3(C)C(=CC[C@@H]4[C@@]5(C)CC[C@H](O)C(C)(C)[C@H]5CC[C@@]43C)[C@H]12
REMARK SMILES IDX 7 1 6 2 11 3 33 4 5 5 12 6 15 7 2 8 3 9 13 10 16 11 1 12
REMARK SMILES IDX 4 13 14 14 31 15 17 16 18 17 30 18 32 19 19 20 29 21 28 22
REMARK SMILES IDX 21 23 20 24 25 25 22 26 23 27 26 28 27 29 8 30 9 31 10 32
REMARK SMILES IDX 24 33
REMARK H PARENT 24 34
REMARK Flexibility Score: inf
ROOT
ATOM      1  C   UNL     1       1.397  28.024  26.275  1.00  0.00     0.017 C 
ATOM      2  C   UNL     1       2.276  28.724  25.185  1.00  0.00     0.014 C 
ATOM      3  C   UNL     1       1.930  28.325  27.722  1.00  0.00     0.014 C 
ATOM      4  C   UNL     1      -0.088  28.529  26.220  1.00  0.00     0.030 C 
ATOM      5  C   UNL     1       1.755  30.119  24.828  1.00  0.00     0.004 C 
ATOM      6  C   UNL     1       0.852  28.663  28.811  1.00  0.00     0.013 C 
ATOM      7  C   UNL     1      -0.890  27.706  27.213  1.00  0.00    -0.063 C 
ATOM      8  C   UNL     1      -0.527  28.811  24.751  1.00  0.00    -0.003 C 
ATOM      9  C   UNL     1       0.316  30.043  24.237  1.00  0.00    -0.011 C 
ATOM     10  C   UNL     1      -0.574  27.948  28.694  1.00  0.00    -0.006 C 
ATOM     11  C   UNL     1      -1.816  26.806  26.859  1.00  0.00    -0.027 C 
ATOM     12  C   UNL     1      -2.047  29.091  24.602  1.00  0.00     0.008 C 
ATOM     13  C   UNL     1       0.328  30.105  22.706  1.00  0.00     0.008 C 
ATOM     14  C   UNL     1      -1.626  28.995  29.175  1.00  0.00     0.017 C 
ATOM     15  C   UNL     1      -0.658  26.575  29.548  1.00  0.00    -0.020 C 
ATOM     16  C   UNL     1      -2.646  26.119  27.884  1.00  0.00     0.032 C 
ATOM     17  C   UNL     1      -1.814  25.558  29.091  1.00  0.00     0.006 C 
ATOM     18  C   UNL     1      -0.780  26.926  31.065  1.00  0.00     0.008 C 
ATOM     19  C   UNL     1       0.677  25.778  29.410  1.00  0.00     0.012 C 
ATOM     20  C   UNL     1      -2.760  24.949  30.238  1.00  0.00    -0.025 C 
ATOM     21  C   UNL     1      -2.193  27.068  31.656  1.00  0.00     0.005 C 
ATOM     22  C   UNL     1      -3.326  26.125  31.110  1.00  0.00     0.003 C 
ATOM     23  C   UNL     1      -2.042  23.931  31.192  1.00  0.00     0.010 C 
ATOM     24  C   UNL     1      -3.862  24.127  29.486  1.00  0.00     0.012 C 
ATOM     25  C   UNL     1      -4.294  25.669  32.283  1.00  0.00    -0.006 C 
ATOM     26  C   UNL     1      -2.913  23.464  32.378  1.00  0.00     0.033 C 
ATOM     27  C   UNL     1      -3.563  24.628  33.189  1.00  0.00     0.120 C 
ATOM     28  C   UNL     1      -5.640  25.087  31.743  1.00  0.00     0.014 C 
ATOM     29  C   UNL     1      -4.709  26.902  33.140  1.00  0.00     0.014 C 
ENDROOT
BRANCH   1  30
ATOM     30  C   UNL     1       1.522  26.507  26.004  1.00  0.00     0.048 C 
ATOM     31  O   UNL     1       0.843  25.936  25.103  1.00  0.00    -0.550 OA
ATOM     32  O   UNL     1       2.470  25.748  26.683  1.00  0.00    -0.550 OA
ENDBRANCH   1  30
BRANCH  27  33
ATOM     33  O   UNL     1      -4.480  24.116  34.125  1.00  0.00    -0.393 OA
ATOM     34  H   UNL     1      -4.600  24.782  34.858  1.00  0.00     0.210 HD
ENDBRANCH  27  33
TORSDOF 2
ENDMDL
MODEL 5
REMARK VINA RESULT:    -6.726      2.081      8.003
REMARK INTER + INTRA:          -7.204
REMARK INTER:                  -7.290
REMARK INTRA:                   0.086
REMARK UNBOUND:                 0.112
REMARK SMILES C[C@H]1[C@H](C)CC[C@@]2(C(=O)[O-])CC[C@@]3(C)C(=CC[C@@H]4[C@@]5(C)CC[C@H](O)C(C)(C)[C@H]5CC[C@@]43C)[C@H]12
REMARK SMILES IDX 7 1 6 2 11 3 33 4 5 5 12 6 15 7 2 8 3 9 13 10 16 11 1 12
REMARK SMILES IDX 4 13 14 14 31 15 17 16 18 17 30 18 32 19 19 20 29 21 28 22
REMARK SMILES IDX 21 23 20 24 25 25 22 26 23 27 26 28 27 29 8 30 9 31 10 32
REMARK SMILES IDX 24 33
REMARK H PARENT 24 34
REMARK Flexibility Score: inf
ROOT
ATOM      1  C   UNL     1      -4.408  25.143  32.536  1.00  0.00     0.017 C 
ATOM      2  C   UNL     1      -5.692  24.724  33.328  1.00  0.00     0.014 C 
ATOM      3  C   UNL     1      -3.492  23.903  32.232  1.00  0.00     0.014 C 
ATOM      4  C   UNL     1      -4.777  25.789  31.154  1.00  0.00     0.030 C 
ATOM      5  C   UNL     1      -6.862  24.388  32.400  1.00  0.00     0.004 C 
ATOM      6  C   UNL     1      -2.876  23.823  30.791  1.00  0.00     0.013 C 
ATOM      7  C   UNL     1      -3.489  26.283  30.520  1.00  0.00    -0.063 C 
ATOM      8  C   UNL     1      -6.084  26.631  31.264  1.00  0.00    -0.003 C 
ATOM      9  C   UNL     1      -7.268  25.624  31.544  1.00  0.00    -0.011 C 
ATOM     10  C   UNL     1      -2.508  25.197  30.060  1.00  0.00    -0.006 C 
ATOM     11  C   UNL     1      -3.183  27.577  30.364  1.00  0.00    -0.027 C 
ATOM     12  C   UNL     1      -6.381  27.481  29.999  1.00  0.00     0.008 C 
ATOM     13  C   UNL     1      -8.482  26.350  32.137  1.00  0.00     0.008 C 
ATOM     14  C   UNL     1      -2.814  24.978  28.545  1.00  0.00     0.017 C 
ATOM     15  C   UNL     1      -0.972  25.645  30.306  1.00  0.00    -0.020 C 
ATOM     16  C   UNL     1      -1.958  27.990  29.628  1.00  0.00     0.032 C 
ATOM     17  C   UNL     1      -0.671  27.204  30.065  1.00  0.00     0.006 C 
ATOM     18  C   UNL     1      -0.036  24.747  29.436  1.00  0.00     0.008 C 
ATOM     19  C   UNL     1      -0.564  25.364  31.786  1.00  0.00     0.012 C 
ATOM     20  C   UNL     1       0.598  27.581  29.154  1.00  0.00    -0.025 C 
ATOM     21  C   UNL     1       0.324  25.243  28.025  1.00  0.00     0.005 C 
ATOM     22  C   UNL     1       0.510  26.788  27.803  1.00  0.00     0.003 C 
ATOM     23  C   UNL     1       1.984  27.268  29.819  1.00  0.00     0.010 C 
ATOM     24  C   UNL     1       0.547  29.138  28.982  1.00  0.00     0.012 C 
ATOM     25  C   UNL     1       1.700  27.073  26.792  1.00  0.00    -0.006 C 
ATOM     26  C   UNL     1       3.191  27.494  28.884  1.00  0.00     0.033 C 
ATOM     27  C   UNL     1       3.065  26.790  27.497  1.00  0.00     0.120 C 
ATOM     28  C   UNL     1       1.658  28.531  26.229  1.00  0.00     0.014 C 
ATOM     29  C   UNL     1       1.564  26.158  25.539  1.00  0.00     0.014 C 
ENDROOT
BRANCH   1  30
ATOM     30  C   UNL     1      -3.642  26.113  33.463  1.00  0.00     0.048 C 
ATOM     31  O   UNL     1      -4.082  27.270  33.723  1.00  0.00    -0.550 OA
ATOM     32  O   UNL     1      -2.490  25.694  34.121  1.00  0.00    -0.550 OA
ENDBRANCH   1  30
BRANCH  27  33
ATOM     33  O   UNL     1       4.109  27.197  26.648  1.00  0.00    -0.393 OA
ATOM     34  H   UNL     1       4.030  26.709  25.781  1.00  0.00     0.210 HD
ENDBRANCH  27  33
TORSDOF 2
ENDMDL
MODEL 6
REMARK VINA RESULT:    -6.578      1.715      2.994
REMARK INTER + INTRA:          -7.043
REMARK INTER:                  -7.120
REMARK INTRA:                   0.077
REMARK UNBOUND:                 0.112
REMARK SMILES C[C@H]1[C@H](C)CC[C@@]2(C(=O)[O-])CC[C@@]3(C)C(=CC[C@@H]4[C@@]5(C)CC[C@H](O)C(C)(C)[C@H]5CC[C@@]43C)[C@H]12
REMARK SMILES IDX 7 1 6 2 11 3 33 4 5 5 12 6 15 7 2 8 3 9 13 10 16 11 1 12
REMARK SMILES IDX 4 13 14 14 31 15 17 16 18 17 30 18 32 19 19 20 29 21 28 22
REMARK SMILES IDX 21 23 20 24 25 25 22 26 23 27 26 28 27 29 8 30 9 31 10 32
REMARK SMILES IDX 24 33
REMARK H PARENT 24 34
REMARK Flexibility Score: inf
ROOT
ATOM      1  C   UNL     1       0.946  25.698  27.370  1.00  0.00     0.017 C 
ATOM      2  C   UNL     1       2.219  25.731  26.457  1.00  0.00     0.014 C 
ATOM      3  C   UNL     1       1.328  25.504  28.881  1.00  0.00     0.014 C 
ATOM      4  C   UNL     1       0.139  27.041  27.270  1.00  0.00     0.030 C 
ATOM      5  C   UNL     1       2.752  27.153  26.258  1.00  0.00     0.004 C 
ATOM      6  C   UNL     1       0.557  26.392  29.919  1.00  0.00     0.013 C 
ATOM      7  C   UNL     1      -1.138  26.870  28.074  1.00  0.00    -0.063 C 
ATOM      8  C   UNL     1       0.199  27.621  25.825  1.00  0.00    -0.003 C 
ATOM      9  C   UNL     1       1.694  28.052  25.553  1.00  0.00    -0.011 C 
ATOM     10  C   UNL     1      -0.963  26.768  29.595  1.00  0.00    -0.006 C 
ATOM     11  C   UNL     1      -2.358  26.796  27.529  1.00  0.00    -0.027 C 
ATOM     12  C   UNL     1      -0.762  28.820  25.599  1.00  0.00     0.008 C 
ATOM     13  C   UNL     1       1.968  28.179  24.050  1.00  0.00     0.008 C 
ATOM     14  C   UNL     1      -1.178  28.217  30.134  1.00  0.00     0.017 C 
ATOM     15  C   UNL     1      -2.018  25.723  30.242  1.00  0.00    -0.020 C 
ATOM     16  C   UNL     1      -3.575  26.746  28.382  1.00  0.00     0.032 C 
ATOM     17  C   UNL     1      -3.473  25.714  29.560  1.00  0.00     0.006 C 
ATOM     18  C   UNL     1      -2.114  25.984  31.778  1.00  0.00     0.008 C 
ATOM     19  C   UNL     1      -1.480  24.265  30.099  1.00  0.00     0.012 C 
ATOM     20  C   UNL     1      -4.747  25.790  30.536  1.00  0.00    -0.025 C 
ATOM     21  C   UNL     1      -3.191  26.966  32.272  1.00  0.00     0.005 C 
ATOM     22  C   UNL     1      -4.568  27.003  31.515  1.00  0.00     0.003 C 
ATOM     23  C   UNL     1      -4.981  24.497  31.392  1.00  0.00     0.010 C 
ATOM     24  C   UNL     1      -5.994  25.912  29.594  1.00  0.00     0.012 C 
ATOM     25  C   UNL     1      -5.767  27.210  32.536  1.00  0.00    -0.006 C 
ATOM     26  C   UNL     1      -6.115  24.632  32.431  1.00  0.00     0.033 C 
ATOM     27  C   UNL     1      -5.999  25.893  33.343  1.00  0.00     0.120 C 
ATOM     28  C   UNL     1      -7.080  27.660  31.818  1.00  0.00     0.014 C 
ATOM     29  C   UNL     1      -5.433  28.370  33.520  1.00  0.00     0.014 C 
ENDROOT
BRANCH   1  30
ATOM     30  C   UNL     1       0.127  24.474  26.902  1.00  0.00     0.048 C 
ATOM     31  O   UNL     1      -0.499  24.474  25.802  1.00  0.00    -0.550 OA
ATOM     32  O   UNL     1       0.144  23.294  27.639  1.00  0.00    -0.550 OA
ENDBRANCH   1  30
BRANCH  27  33
ATOM     33  O   UNL     1      -7.158  26.037  34.125  1.00  0.00    -0.393 OA
ATOM     34  H   UNL     1      -6.955  26.632  34.900  1.00  0.00     0.210 HD
ENDBRANCH  27  33
TORSDOF 2
ENDMDL
MODEL 7
REMARK VINA RESULT:    -6.266      1.500      2.038
REMARK INTER + INTRA:          -6.704
REMARK INTER:                  -6.946
REMARK INTRA:                   0.242
REMARK UNBOUND:                 0.112
REMARK SMILES C[C@H]1[C@H](C)CC[C@@]2(C(=O)[O-])CC[C@@]3(C)C(=CC[C@@H]4[C@@]5(C)CC[C@H](O)C(C)(C)[C@H]5CC[C@@]43C)[C@H]12
REMARK SMILES IDX 7 1 6 2 11 3 33 4 5 5 12 6 15 7 2 8 3 9 13 10 16 11 1 12
REMARK SMILES IDX 4 13 14 14 31 15 17 16 18 17 30 18 32 19 19 20 29 21 28 22
REMARK SMILES IDX 21 23 20 24 25 25 22 26 23 27 26 28 27 29 8 30 9 31 10 32
REMARK SMILES IDX 24 33
REMARK H PARENT 24 34
REMARK Flexibility Score: inf
ROOT
ATOM      1  C   UNL     1       0.331  24.612  28.204  1.00  0.00     0.017 C 
ATOM      2  C   UNL     1       1.703  24.158  27.600  1.00  0.00     0.014 C 
ATOM      3  C   UNL     1      -0.125  23.663  29.370  1.00  0.00     0.014 C 
ATOM      4  C   UNL     1       0.424  26.060  28.802  1.00  0.00     0.030 C 
ATOM      5  C   UNL     1       2.892  24.830  28.293  1.00  0.00     0.004 C 
ATOM      6  C   UNL     1      -0.718  24.355  30.646  1.00  0.00     0.013 C 
ATOM      7  C   UNL     1      -0.972  26.467  29.239  1.00  0.00    -0.063 C 
ATOM      8  C   UNL     1       1.377  26.955  27.952  1.00  0.00    -0.003 C 
ATOM      9  C   UNL     1       2.837  26.377  28.120  1.00  0.00    -0.011 C 
ATOM     10  C   UNL     1      -1.545  25.710  30.444  1.00  0.00    -0.006 C 
ATOM     11  C   UNL     1      -1.698  27.413  28.630  1.00  0.00    -0.027 C 
ATOM     12  C   UNL     1       1.336  28.455  28.350  1.00  0.00     0.008 C 
ATOM     13  C   UNL     1       3.754  26.854  26.987  1.00  0.00     0.008 C 
ATOM     14  C   UNL     1      -1.226  26.603  31.683  1.00  0.00     0.017 C 
ATOM     15  C   UNL     1      -3.135  25.454  30.279  1.00  0.00    -0.020 C 
ATOM     16  C   UNL     1      -3.011  27.843  29.182  1.00  0.00     0.032 C 
ATOM     17  C   UNL     1      -3.948  26.646  29.573  1.00  0.00     0.006 C 
ATOM     18  C   UNL     1      -3.741  25.105  31.676  1.00  0.00     0.008 C 
ATOM     19  C   UNL     1      -3.384  24.195  29.391  1.00  0.00     0.012 C 
ATOM     20  C   UNL     1      -5.294  27.150  30.290  1.00  0.00    -0.025 C 
ATOM     21  C   UNL     1      -4.285  26.264  32.530  1.00  0.00     0.005 C 
ATOM     22  C   UNL     1      -4.983  27.466  31.796  1.00  0.00     0.003 C 
ATOM     23  C   UNL     1      -6.476  26.119  30.238  1.00  0.00     0.010 C 
ATOM     24  C   UNL     1      -5.773  28.394  29.465  1.00  0.00     0.012 C 
ATOM     25  C   UNL     1      -6.228  27.990  32.631  1.00  0.00    -0.006 C 
ATOM     26  C   UNL     1      -7.715  26.547  31.053  1.00  0.00     0.033 C 
ATOM     27  C   UNL     1      -7.399  26.961  32.524  1.00  0.00     0.120 C 
ATOM     28  C   UNL     1      -6.692  29.408  32.168  1.00  0.00     0.014 C 
ATOM     29  C   UNL     1      -5.828  28.169  34.125  1.00  0.00     0.014 C 
ENDROOT
BRANCH   1  30
ATOM     30  C   UNL     1      -0.689  24.508  27.048  1.00  0.00     0.048 C 
ATOM     31  O   UNL     1      -1.738  23.808  27.150  1.00  0.00    -0.550 OA
ATOM     32  O   UNL     1      -0.527  25.271  25.896  1.00  0.00    -0.550 OA
ENDBRANCH   1  30
BRANCH  27  33
ATOM     33  O   UNL     1      -8.543  27.508  33.132  1.00  0.00    -0.393 OA
ATOM     34  H   UNL     1      -8.690  28.429  32.776  1.00  0.00     0.210 HD
ENDBRANCH  27  33
TORSDOF 2
ENDMDL
MODEL 8
REMARK VINA RESULT:    -6.070      2.204      4.002
REMARK INTER + INTRA:          -6.491
REMARK INTER:                  -6.582
REMARK INTRA:                   0.091
REMARK UNBOUND:                 0.112
REMARK SMILES C[C@H]1[C@H](C)CC[C@@]2(C(=O)[O-])CC[C@@]3(C)C(=CC[C@@H]4[C@@]5(C)CC[C@H](O)C(C)(C)[C@H]5CC[C@@]43C)[C@H]12
REMARK SMILES IDX 7 1 6 2 11 3 33 4 5 5 12 6 15 7 2 8 3 9 13 10 16 11 1 12
REMARK SMILES IDX 4 13 14 14 31 15 17 16 18 17 30 18 32 19 19 20 29 21 28 22
REMARK SMILES IDX 21 23 20 24 25 25 22 26 23 27 26 28 27 29 8 30 9 31 10 32
REMARK SMILES IDX 24 33
REMARK H PARENT 24 34
REMARK Flexibility Score: inf
ROOT
ATOM      1  C   UNL     1      -0.545  26.115  29.672  1.00  0.00     0.017 C 
ATOM      2  C   UNL     1       0.882  25.703  29.175  1.00  0.00     0.014 C 
ATOM      3  C   UNL     1      -0.868  27.610  29.313  1.00  0.00     0.014 C 
ATOM      4  C   UNL     1      -1.658  25.233  29.003  1.00  0.00     0.030 C 
ATOM      5  C   UNL     1       0.855  25.109  27.764  1.00  0.00     0.004 C 
ATOM      6  C   UNL     1      -2.307  27.904  28.760  1.00  0.00     0.013 C 
ATOM      7  C   UNL     1      -2.985  25.608  29.638  1.00  0.00    -0.063 C 
ATOM      8  C   UNL     1      -1.161  23.770  28.798  1.00  0.00    -0.003 C 
ATOM      9  C   UNL     1      -0.007  23.812  27.721  1.00  0.00    -0.011 C 
ATOM     10  C   UNL     1      -3.514  27.009  29.310  1.00  0.00    -0.006 C 
ATOM     11  C   UNL     1      -3.677  24.799  30.451  1.00  0.00    -0.027 C 
ATOM     12  C   UNL     1      -2.282  22.791  28.355  1.00  0.00     0.008 C 
ATOM     13  C   UNL     1       0.862  22.551  27.792  1.00  0.00     0.008 C 
ATOM     14  C   UNL     1      -4.491  26.812  28.109  1.00  0.00     0.017 C 
ATOM     15  C   UNL     1      -4.255  27.675  30.586  1.00  0.00    -0.020 C 
ATOM     16  C   UNL     1      -5.026  25.184  30.945  1.00  0.00     0.032 C 
ATOM     17  C   UNL     1      -5.096  26.653  31.495  1.00  0.00     0.006 C 
ATOM     18  C   UNL     1      -5.146  28.860  30.094  1.00  0.00     0.008 C 
ATOM     19  C   UNL     1      -3.200  28.315  31.542  1.00  0.00     0.012 C 
ATOM     20  C   UNL     1      -6.595  27.073  31.889  1.00  0.00    -0.025 C 
ATOM     21  C   UNL     1      -6.612  28.554  29.738  1.00  0.00     0.005 C 
ATOM     22  C   UNL     1      -7.373  27.471  30.585  1.00  0.00     0.003 C 
ATOM     23  C   UNL     1      -6.684  28.271  32.899  1.00  0.00     0.010 C 
ATOM     24  C   UNL     1      -7.199  25.836  32.637  1.00  0.00     0.012 C 
ATOM     25  C   UNL     1      -8.883  27.900  30.822  1.00  0.00    -0.006 C 
ATOM     26  C   UNL     1      -8.124  28.765  33.158  1.00  0.00     0.033 C 
ATOM     27  C   UNL     1      -8.938  29.065  31.861  1.00  0.00     0.120 C 
ATOM     28  C   UNL     1      -9.770  26.700  31.286  1.00  0.00     0.014 C 
ATOM     29  C   UNL     1      -9.519  28.370  29.481  1.00  0.00     0.014 C 
ENDROOT
BRANCH   1  30
ATOM     30  C   UNL     1      -0.512  25.968  31.210  1.00  0.00     0.048 C 
ATOM     31  O   UNL     1      -0.587  24.837  31.770  1.00  0.00    -0.550 OA
ATOM     32  O   UNL     1      -0.292  27.080  32.018  1.00  0.00    -0.550 OA
ENDBRANCH   1  30
BRANCH  27  33
ATOM     33  O   UNL     1     -10.283  29.327  32.181  1.00  0.00    -0.393 OA
ATOM     34  H   UNL     1     -10.819  28.498  32.031  1.00  0.00     0.210 HD
ENDBRANCH  27  33
TORSDOF 2
ENDMDL
MODEL 9
REMARK VINA RESULT:    -5.843      1.672      2.614
REMARK INTER + INTRA:          -6.243
REMARK INTER:                  -6.321
REMARK INTRA:                   0.078
REMARK UNBOUND:                 0.112
REMARK SMILES C[C@H]1[C@H](C)CC[C@@]2(C(=O)[O-])CC[C@@]3(C)C(=CC[C@@H]4[C@@]5(C)CC[C@H](O)C(C)(C)[C@H]5CC[C@@]43C)[C@H]12
REMARK SMILES IDX 7 1 6 2 11 3 33 4 5 5 12 6 15 7 2 8 3 9 13 10 16 11 1 12
REMARK SMILES IDX 4 13 14 14 31 15 17 16 18 17 30 18 32 19 19 20 29 21 28 22
REMARK SMILES IDX 21 23 20 24 25 25 22 26 23 27 26 28 27 29 8 30 9 31 10 32
REMARK SMILES IDX 24 33
REMARK H PARENT 24 34
REMARK Flexibility Score: inf
ROOT
ATOM      1  C   UNL     1       0.484  27.408  27.609  1.00  0.00     0.017 C 
ATOM      2  C   UNL     1       1.753  27.269  26.701  1.00  0.00     0.014 C 
ATOM      3  C   UNL     1      -0.677  28.157  26.861  1.00  0.00     0.014 C 
ATOM      4  C   UNL     1      -0.073  26.001  28.027  1.00  0.00     0.030 C 
ATOM      5  C   UNL     1       1.750  25.966  25.897  1.00  0.00     0.004 C 
ATOM      6  C   UNL     1      -2.119  27.562  27.029  1.00  0.00     0.013 C 
ATOM      7  C   UNL     1      -1.211  26.231  29.006  1.00  0.00    -0.063 C 
ATOM      8  C   UNL     1       1.087  24.984  28.246  1.00  0.00    -0.003 C 
ATOM      9  C   UNL     1       1.759  24.728  26.841  1.00  0.00    -0.011 C 
ATOM     10  C   UNL     1      -2.480  26.865  28.423  1.00  0.00    -0.006 C 
ATOM     11  C   UNL     1      -1.147  25.924  30.308  1.00  0.00    -0.027 C 
ATOM     12  C   UNL     1       0.625  23.645  28.881  1.00  0.00     0.008 C 
ATOM     13  C   UNL     1       3.169  24.146  27.000  1.00  0.00     0.008 C 
ATOM     14  C   UNL     1      -3.421  25.668  28.080  1.00  0.00     0.017 C 
ATOM     15  C   UNL     1      -3.166  27.888  29.475  1.00  0.00    -0.020 C 
ATOM     16  C   UNL     1      -2.339  26.067  31.187  1.00  0.00     0.032 C 
ATOM     17  C   UNL     1      -3.083  27.438  31.015  1.00  0.00     0.006 C 
ATOM     18  C   UNL     1      -4.643  28.148  29.040  1.00  0.00     0.008 C 
ATOM     19  C   UNL     1      -2.459  29.278  29.406  1.00  0.00     0.012 C 
ATOM     20  C   UNL     1      -4.437  27.496  31.877  1.00  0.00    -0.025 C 
ATOM     21  C   UNL     1      -5.734  27.234  29.625  1.00  0.00     0.005 C 
ATOM     22  C   UNL     1      -5.567  26.729  31.104  1.00  0.00     0.003 C 
ATOM     23  C   UNL     1      -4.947  28.949  32.178  1.00  0.00     0.010 C 
ATOM     24  C   UNL     1      -4.080  26.870  33.269  1.00  0.00     0.012 C 
ATOM     25  C   UNL     1      -6.969  26.693  31.849  1.00  0.00    -0.006 C 
ATOM     26  C   UNL     1      -6.323  28.996  32.877  1.00  0.00     0.033 C 
ATOM     27  C   UNL     1      -7.427  28.151  32.169  1.00  0.00     0.120 C 
ATOM     28  C   UNL     1      -6.922  25.827  33.149  1.00  0.00     0.014 C 
ATOM     29  C   UNL     1      -8.032  26.000  30.947  1.00  0.00     0.014 C 
ENDROOT
BRANCH   1  30
ATOM     30  C   UNL     1       0.927  28.258  28.821  1.00  0.00     0.048 C 
ATOM     31  O   UNL     1       1.686  27.790  29.718  1.00  0.00    -0.550 OA
ATOM     32  O   UNL     1       0.581  29.603  28.899  1.00  0.00    -0.550 OA
ENDBRANCH   1  30
BRANCH  27  33
ATOM     33  O   UNL     1      -8.585  28.100  32.965  1.00  0.00    -0.393 OA
ATOM     34  H   UNL     1      -9.237  28.779  32.634  1.00  0.00     0.210 HD
ENDBRANCH  27  33
TORSDOF 2
ENDMDL
