MODEL 1
REMARK VINA RESULT:    -6.019      0.000      0.000
REMARK INTER + INTRA:          -8.822
REMARK INTER:                  -9.362
REMARK INTRA:                   0.540
REMARK UNBOUND:                 0.540
REMARK SMILES C[C@@]12C[C@@]3(O)O[C@@H](O1)[C@]1(COC(=O)c4ccccc4)[C@H]3C[C@@]12O[C@H]1O[C@H](CO)[C@H](O)[C@H](O)[C@H]1O
REMARK SMILES IDX 1 1 2 2 3 3 4 4 20 5 21 6 22 7 9 8 7 9 8 10 6 11 23 12 24 13
REMARK SMILES IDX 33 14 25 15 31 16 26 17 29 18 34 19 32 21 27 23 28 24 30 26
REMARK SMILES IDX 5 28 10 30 11 31 12 32 13 33 14 34 15 35 19 36 16 37 18 38
REMARK SMILES IDX 17 39
REMARK H PARENT 34 20 32 22 28 25 30 27 5 29
REMARK Flexibility Score: inf
ROOT
ATOM      1  C   UNL     1      31.950  34.524  48.912  1.00  0.00     0.046 C 
ATOM      2  C   UNL     1      32.979  35.634  49.153  1.00  0.00     0.104 C 
ATOM      3  C   UNL     1      34.171  35.516  48.131  1.00  0.00     0.104 C 
ATOM      4  C   UNL     1      35.165  36.642  48.590  1.00  0.00     0.175 C 
ATOM      5  C   UNL     1      35.406  36.552  50.128  1.00  0.00     0.070 C 
ATOM      6  C   UNL     1      34.986  35.201  50.718  1.00  0.00     0.050 C 
ATOM      7  C   UNL     1      33.537  35.704  50.626  1.00  0.00     0.115 C 
ATOM      8  C   UNL     1      34.079  37.143  50.607  1.00  0.00     0.096 C 
ATOM      9  C   UNL     1      33.455  37.809  49.386  1.00  0.00     0.267 C 
ATOM     10  O   UNL     1      32.434  36.923  48.931  1.00  0.00    -0.342 OA
ATOM     11  O   UNL     1      34.484  37.869  48.412  1.00  0.00    -0.320 OA
ENDROOT
BRANCH   7  12
ATOM     12  O   UNL     1      32.733  35.172  51.676  1.00  0.00    -0.339 OA
BRANCH  12  13
ATOM     13  C   UNL     1      31.336  35.112  51.443  1.00  0.00     0.282 C 
ATOM     14  C   UNL     1      30.756  36.524  51.688  1.00  0.00     0.202 C 
ATOM     15  O   UNL     1      30.706  34.136  52.262  1.00  0.00    -0.341 OA
ATOM     16  C   UNL     1      29.208  36.573  51.513  1.00  0.00     0.179 C 
ATOM     17  C   UNL     1      29.278  34.160  52.252  1.00  0.00     0.178 C 
ATOM     18  C   UNL     1      28.618  35.168  51.272  1.00  0.00     0.177 C 
BRANCH  14  19
ATOM     19  O   UNL     1      31.136  37.003  52.955  1.00  0.00    -0.385 OA
ATOM     20  H   UNL     1      32.128  37.010  52.993  1.00  0.00     0.211 HD
ENDBRANCH  14  19
BRANCH  16  21
ATOM     21  O   UNL     1      28.861  37.417  50.444  1.00  0.00    -0.387 OA
ATOM     22  H   UNL     1      27.973  37.804  50.662  1.00  0.00     0.211 HD
ENDBRANCH  16  21
BRANCH  17  23
ATOM     23  C   UNL     1      28.743  32.730  52.067  1.00  0.00     0.191 C 
BRANCH  23  24
ATOM     24  O   UNL     1      27.384  32.641  52.413  1.00  0.00    -0.394 OA
ATOM     25  H   UNL     1      27.335  32.163  53.282  1.00  0.00     0.210 HD
ENDBRANCH  23  24
ENDBRANCH  17  23
BRANCH  18  26
ATOM     26  O   UNL     1      28.821  34.761  49.940  1.00  0.00    -0.387 OA
ATOM     27  H   UNL     1      29.191  33.842  49.967  1.00  0.00     0.211 HD
ENDBRANCH  18  26
ENDBRANCH  12  13
ENDBRANCH   7  12
BRANCH   4  28
ATOM     28  O   UNL     1      36.369  36.614  47.875  1.00  0.00    -0.365 OA
ATOM     29  H   UNL     1      36.181  37.041  47.000  1.00  0.00     0.214 HD
ENDBRANCH   4  28
BRANCH   8  30
ATOM     30  C   UNL     1      34.198  37.994  51.887  1.00  0.00     0.249 C 
BRANCH  30  31
ATOM     31  O   UNL     1      34.361  39.368  51.549  1.00  0.00    -0.461 OA
BRANCH  31  32
ATOM     32  C   UNL     1      35.525  39.858  50.946  1.00  0.00     0.338 C 
ATOM     33  O   UNL     1      36.650  39.362  51.239  1.00  0.00    -0.246 OA
BRANCH  32  34
ATOM     34  C   UNL     1      35.430  40.941  49.945  1.00  0.00     0.060 A 
ATOM     35  C   UNL     1      34.628  40.792  48.800  1.00  0.00     0.015 A 
ATOM     36  C   UNL     1      36.123  42.150  50.139  1.00  0.00     0.015 A 
ATOM     37  C   UNL     1      34.517  41.834  47.875  1.00  0.00     0.001 A 
ATOM     38  C   UNL     1      36.012  43.188  49.208  1.00  0.00     0.001 A 
ATOM     39  C   UNL     1      35.206  43.033  48.080  1.00  0.00     0.000 A 
ENDBRANCH  32  34
ENDBRANCH  31  32
ENDBRANCH  30  31
ENDBRANCH   8  30
TORSDOF 12
ENDMDL
