MODEL 1
REMARK VINA RESULT:    -3.778      0.000      0.000
REMARK INTER + INTRA:          -9.161
REMARK INTER:                  -6.869
REMARK INTRA:                  -2.292
REMARK UNBOUND:                -2.292
REMARK SMILES CCCCCCCCCCCCCCCC(=O)[O-]
REMARK SMILES IDX 9 1 10 2 11 3 12 4 13 5 14 6 15 7 16 8 17 9 18 10 8 11 7 12
REMARK SMILES IDX 6 13 5 14 4 15 3 16 2 17 1 18
REMARK H PARENT
REMARK Flexibility Score: inf
ROOT
ATOM      1  C   UNL     1      -7.203   2.818  52.190  1.00  0.00     0.000 C 
ENDROOT
BRANCH   1   2
ATOM      2  C   UNL     1      -6.259   3.638  53.097  1.00  0.00     0.000 C 
BRANCH   2   3
ATOM      3  C   UNL     1      -6.576   3.502  54.596  1.00  0.00     0.000 C 
BRANCH   3   4
ATOM      4  C   UNL     1      -6.128   4.724  55.413  1.00  0.00     0.000 C 
BRANCH   4   5
ATOM      5  C   UNL     1      -7.224   5.810  55.491  1.00  0.00     0.000 C 
BRANCH   5   6
ATOM      6  C   UNL     1      -7.383   6.421  56.896  1.00  0.00     0.006 C 
BRANCH   6   7
ATOM      7  C   UNL     1      -7.206   5.412  58.040  1.00  0.00     0.053 C 
BRANCH   7   8
ATOM      8  C   UNL     1      -6.110   5.818  58.976  1.00  0.00     0.041 C 
ATOM      9  O   UNL     1      -6.357   6.029  60.192  1.00  0.00    -0.550 OA
ATOM     10  O   UNL     1      -4.814   5.976  58.500  1.00  0.00    -0.550 OA
ENDBRANCH   7   8
ENDBRANCH   6   7
ENDBRANCH   5   6
ENDBRANCH   4   5
ENDBRANCH   3   4
ENDBRANCH   2   3
ENDBRANCH   1   2
BRANCH   1  11
ATOM     11  C   UNL     1      -7.699   3.631  50.981  1.00  0.00     0.000 C 
BRANCH  11  12
ATOM     12  C   UNL     1      -7.695   5.150  51.254  1.00  0.00    -0.000 C 
BRANCH  12  13
ATOM     13  C   UNL     1      -9.097   5.782  51.243  1.00  0.00    -0.000 C 
BRANCH  13  14
ATOM     14  C   UNL     1      -9.593   6.161  52.648  1.00  0.00    -0.000 C 
BRANCH  14  15
ATOM     15  C   UNL     1     -10.721   5.246  53.148  1.00  0.00    -0.000 C 
BRANCH  15  16
ATOM     16  C   UNL     1     -10.200   4.086  54.014  1.00  0.00    -0.000 C 
BRANCH  16  17
ATOM     17  C   UNL     1     -10.648   2.713  53.488  1.00  0.00    -0.003 C 
ATOM     18  C   UNL     1     -11.174   2.771  52.054  1.00  0.00     0.004 C 
ENDBRANCH  16  17
ENDBRANCH  15  16
ENDBRANCH  14  15
ENDBRANCH  13  14
ENDBRANCH  12  13
ENDBRANCH  11  12
ENDBRANCH   1  11
TORSDOF 14
ENDMDL
MODEL 2
REMARK VINA RESULT:    -3.753     10.483     12.538
REMARK INTER + INTRA:          -9.116
REMARK INTER:                  -7.119
REMARK INTRA:                  -1.997
REMARK UNBOUND:                -2.292
REMARK SMILES CCCCCCCCCCCCCCCC(=O)[O-]
REMARK SMILES IDX 9 1 10 2 11 3 12 4 13 5 14 6 15 7 16 8 17 9 18 10 8 11 7 12
REMARK SMILES IDX 6 13 5 14 4 15 3 16 2 17 1 18
REMARK H PARENT
REMARK Flexibility Score: inf
ROOT
ATOM      1  C   UNL     1       1.625   1.843  55.464  1.00  0.00     0.000 C 
ENDROOT
BRANCH   1   2
ATOM      2  C   UNL     1       2.686   0.777  55.117  1.00  0.00     0.000 C 
BRANCH   2   3
ATOM      3  C   UNL     1       2.828   0.522  53.606  1.00  0.00     0.000 C 
BRANCH   3   4
ATOM      4  C   UNL     1       2.551  -0.940  53.220  1.00  0.00     0.000 C 
BRANCH   4   5
ATOM      5  C   UNL     1       2.967  -1.928  54.331  1.00  0.00     0.000 C 
BRANCH   5   6
ATOM      6  C   UNL     1       2.001  -3.117  54.488  1.00  0.00     0.006 C 
BRANCH   6   7
ATOM      7  C   UNL     1       0.578  -2.838  53.983  1.00  0.00     0.053 C 
BRANCH   7   8
ATOM      8  C   UNL     1       0.178  -3.782  52.891  1.00  0.00     0.041 C 
ATOM      9  O   UNL     1       0.452  -5.007  52.978  1.00  0.00    -0.550 OA
ATOM     10  O   UNL     1      -0.486  -3.304  51.768  1.00  0.00    -0.550 OA
ENDBRANCH   7   8
ENDBRANCH   6   7
ENDBRANCH   5   6
ENDBRANCH   4   5
ENDBRANCH   3   4
ENDBRANCH   2   3
ENDBRANCH   1   2
BRANCH   1  11
ATOM     11  C   UNL     1       0.702   1.393  56.611  1.00  0.00     0.000 C 
BRANCH  11  12
ATOM     12  C   UNL     1       0.359  -0.109  56.532  1.00  0.00    -0.000 C 
BRANCH  12  13
ATOM     13  C   UNL     1       0.668  -0.881  57.826  1.00  0.00    -0.000 C 
BRANCH  13  14
ATOM     14  C   UNL     1       1.968  -0.418  58.503  1.00  0.00    -0.000 C 
BRANCH  14  15
ATOM     15  C   UNL     1       1.753   0.042  59.953  1.00  0.00    -0.000 C 
BRANCH  15  16
ATOM     16  C   UNL     1       1.960   1.557  60.129  1.00  0.00    -0.000 C 
BRANCH  16  17
ATOM     17  C   UNL     1       0.743   2.245  60.767  1.00  0.00    -0.003 C 
ATOM     18  C   UNL     1      -0.571   1.889  60.073  1.00  0.00     0.004 C 
ENDBRANCH  16  17
ENDBRANCH  15  16
ENDBRANCH  14  15
ENDBRANCH  13  14
ENDBRANCH  12  13
ENDBRANCH  11  12
ENDBRANCH   1  11
TORSDOF 14
ENDMDL
MODEL 3
REMARK VINA RESULT:    -3.745      1.222      2.436
REMARK INTER + INTRA:          -9.102
REMARK INTER:                  -7.153
REMARK INTRA:                  -1.949
REMARK UNBOUND:                -2.292
REMARK SMILES CCCCCCCCCCCCCCCC(=O)[O-]
REMARK SMILES IDX 9 1 10 2 11 3 12 4 13 5 14 6 15 7 16 8 17 9 18 10 8 11 7 12
REMARK SMILES IDX 6 13 5 14 4 15 3 16 2 17 1 18
REMARK H PARENT
REMARK Flexibility Score: inf
ROOT
ATOM      1  C   UNL     1      -6.069   3.727  54.791  1.00  0.00     0.000 C 
ENDROOT
BRANCH   1   2
ATOM      2  C   UNL     1      -7.472   4.224  55.204  1.00  0.00     0.000 C 
BRANCH   2   3
ATOM      3  C   UNL     1      -7.615   5.755  55.166  1.00  0.00     0.000 C 
BRANCH   3   4
ATOM      4  C   UNL     1      -7.078   6.435  56.436  1.00  0.00     0.000 C 
BRANCH   4   5
ATOM      5  C   UNL     1      -7.858   6.015  57.700  1.00  0.00     0.000 C 
BRANCH   5   6
ATOM      6  C   UNL     1      -6.983   5.944  58.966  1.00  0.00     0.006 C 
BRANCH   6   7
ATOM      7  C   UNL     1      -5.496   5.681  58.685  1.00  0.00     0.053 C 
BRANCH   7   8
ATOM      8  C   UNL     1      -5.133   4.245  58.901  1.00  0.00     0.041 C 
ATOM      9  O   UNL     1      -5.827   3.329  58.387  1.00  0.00    -0.550 OA
ATOM     10  O   UNL     1      -4.033   3.917  59.683  1.00  0.00    -0.550 OA
ENDBRANCH   7   8
ENDBRANCH   6   7
ENDBRANCH   5   6
ENDBRANCH   4   5
ENDBRANCH   3   4
ENDBRANCH   2   3
ENDBRANCH   1   2
BRANCH   1  11
ATOM     11  C   UNL     1      -5.872   3.745  53.265  1.00  0.00     0.000 C 
BRANCH  11  12
ATOM     12  C   UNL     1      -7.068   3.124  52.511  1.00  0.00    -0.000 C 
BRANCH  12  13
ATOM     13  C   UNL     1      -7.405   3.841  51.193  1.00  0.00    -0.000 C 
BRANCH  13  14
ATOM     14  C   UNL     1      -7.702   5.336  51.385  1.00  0.00    -0.000 C 
BRANCH  14  15
ATOM     15  C   UNL     1      -9.171   5.693  51.108  1.00  0.00    -0.000 C 
BRANCH  15  16
ATOM     16  C   UNL     1      -9.935   6.081  52.386  1.00  0.00    -0.000 C 
BRANCH  16  17
ATOM     17  C   UNL     1     -10.546   4.863  53.098  1.00  0.00    -0.003 C 
ATOM     18  C   UNL     1     -11.028   3.788  52.124  1.00  0.00     0.004 C 
ENDBRANCH  16  17
ENDBRANCH  15  16
ENDBRANCH  14  15
ENDBRANCH  13  14
ENDBRANCH  12  13
ENDBRANCH  11  12
ENDBRANCH   1  11
TORSDOF 14
ENDMDL
MODEL 4
REMARK VINA RESULT:    -3.730      1.687      3.350
REMARK INTER + INTRA:          -9.076
REMARK INTER:                  -7.275
REMARK INTRA:                  -1.800
REMARK UNBOUND:                -2.292
REMARK SMILES CCCCCCCCCCCCCCCC(=O)[O-]
REMARK SMILES IDX 9 1 10 2 11 3 12 4 13 5 14 6 15 7 16 8 17 9 18 10 8 11 7 12
REMARK SMILES IDX 6 13 5 14 4 15 3 16 2 17 1 18
REMARK H PARENT
REMARK Flexibility Score: inf
ROOT
ATOM      1  C   UNL     1      -7.431   4.182  55.125  1.00  0.00     0.000 C 
ENDROOT
BRANCH   1   2
ATOM      2  C   UNL     1      -7.661   5.698  54.941  1.00  0.00     0.000 C 
BRANCH   2   3
ATOM      3  C   UNL     1      -7.343   6.524  56.199  1.00  0.00     0.000 C 
BRANCH   3   4
ATOM      4  C   UNL     1      -8.034   5.980  57.460  1.00  0.00     0.000 C 
BRANCH   4   5
ATOM      5  C   UNL     1      -7.053   5.817  58.641  1.00  0.00     0.000 C 
BRANCH   5   6
ATOM      6  C   UNL     1      -5.577   5.743  58.207  1.00  0.00     0.006 C 
BRANCH   6   7
ATOM      7  C   UNL     1      -5.047   4.311  58.037  1.00  0.00     0.053 C 
BRANCH   7   8
ATOM      8  C   UNL     1      -4.814   3.642  59.356  1.00  0.00     0.041 C 
ATOM      9  O   UNL     1      -3.842   3.983  60.079  1.00  0.00    -0.550 OA
ATOM     10  O   UNL     1      -5.665   2.630  59.781  1.00  0.00    -0.550 OA
ENDBRANCH   7   8
ENDBRANCH   6   7
ENDBRANCH   5   6
ENDBRANCH   4   5
ENDBRANCH   3   4
ENDBRANCH   2   3
ENDBRANCH   1   2
BRANCH   1  11
ATOM     11  C   UNL     1      -6.041   3.741  54.633  1.00  0.00     0.000 C 
BRANCH  11  12
ATOM     12  C   UNL     1      -6.038   3.380  53.132  1.00  0.00    -0.000 C 
BRANCH  12  13
ATOM     13  C   UNL     1      -7.275   2.581  52.687  1.00  0.00    -0.000 C 
BRANCH  13  14
ATOM     14  C   UNL     1      -7.912   3.134  51.402  1.00  0.00    -0.000 C 
BRANCH  14  15
ATOM     15  C   UNL     1      -7.308   4.479  50.969  1.00  0.00    -0.000 C 
BRANCH  15  16
ATOM     16  C   UNL     1      -8.196   5.676  51.353  1.00  0.00    -0.000 C 
BRANCH  16  17
ATOM     17  C   UNL     1      -9.682   5.425  51.051  1.00  0.00    -0.003 C 
ATOM     18  C   UNL     1     -10.581   5.661  52.263  1.00  0.00     0.004 C 
ENDBRANCH  16  17
ENDBRANCH  15  16
ENDBRANCH  14  15
ENDBRANCH  13  14
ENDBRANCH  12  13
ENDBRANCH  11  12
ENDBRANCH   1  11
TORSDOF 14
ENDMDL
MODEL 5
REMARK VINA RESULT:    -3.707      3.465      6.406
REMARK INTER + INTRA:          -9.033
REMARK INTER:                  -6.997
REMARK INTRA:                  -2.037
REMARK UNBOUND:                -2.292
REMARK SMILES CCCCCCCCCCCCCCCC(=O)[O-]
REMARK SMILES IDX 9 1 10 2 11 3 12 4 13 5 14 6 15 7 16 8 17 9 18 10 8 11 7 12
REMARK SMILES IDX 6 13 5 14 4 15 3 16 2 17 1 18
REMARK H PARENT
REMARK Flexibility Score: inf
ROOT
ATOM      1  C   UNL     1      -7.372   3.267  55.008  1.00  0.00     0.000 C 
ENDROOT
BRANCH   1   2
ATOM      2  C   UNL     1      -6.011   3.747  54.460  1.00  0.00     0.000 C 
BRANCH   2   3
ATOM      3  C   UNL     1      -5.918   3.704  52.925  1.00  0.00     0.000 C 
BRANCH   3   4
ATOM      4  C   UNL     1      -7.139   3.035  52.273  1.00  0.00     0.000 C 
BRANCH   4   5
ATOM      5  C   UNL     1      -7.681   3.847  51.075  1.00  0.00     0.000 C 
BRANCH   5   6
ATOM      6  C   UNL     1      -7.737   5.364  51.338  1.00  0.00     0.006 C 
BRANCH   6   7
ATOM      7  C   UNL     1      -8.993   5.821  52.094  1.00  0.00     0.053 C 
BRANCH   7   8
ATOM      8  C   UNL     1     -10.248   5.457  51.362  1.00  0.00     0.041 C 
ATOM      9  O   UNL     1     -10.611   6.118  50.354  1.00  0.00    -0.550 OA
ATOM     10  O   UNL     1     -11.026   4.394  51.804  1.00  0.00    -0.550 OA
ENDBRANCH   7   8
ENDBRANCH   6   7
ENDBRANCH   5   6
ENDBRANCH   4   5
ENDBRANCH   3   4
ENDBRANCH   2   3
ENDBRANCH   1   2
BRANCH   1  11
ATOM     11  C   UNL     1      -8.204   4.422  55.592  1.00  0.00     0.000 C 
BRANCH  11  12
ATOM     12  C   UNL     1      -7.524   5.794  55.393  1.00  0.00    -0.000 C 
BRANCH  12  13
ATOM     13  C   UNL     1      -7.078   6.458  56.707  1.00  0.00    -0.000 C 
BRANCH  13  14
ATOM     14  C   UNL     1      -7.392   5.603  57.945  1.00  0.00    -0.000 C 
BRANCH  14  15
ATOM     15  C   UNL     1      -6.364   5.787  59.072  1.00  0.00    -0.000 C 
BRANCH  15  16
ATOM     16  C   UNL     1      -5.614   4.485  59.406  1.00  0.00    -0.000 C 
BRANCH  16  17
ATOM     17  C   UNL     1      -4.807   3.951  58.212  1.00  0.00    -0.003 C 
ATOM     18  C   UNL     1      -5.103   2.483  57.906  1.00  0.00     0.004 C 
ENDBRANCH  16  17
ENDBRANCH  15  16
ENDBRANCH  14  15
ENDBRANCH  13  14
ENDBRANCH  12  13
ENDBRANCH  11  12
ENDBRANCH   1  11
TORSDOF 14
ENDMDL
MODEL 6
REMARK VINA RESULT:    -3.690      1.354      3.127
REMARK INTER + INTRA:          -9.002
REMARK INTER:                  -6.539
REMARK INTRA:                  -2.463
REMARK UNBOUND:                -2.292
REMARK SMILES CCCCCCCCCCCCCCCC(=O)[O-]
REMARK SMILES IDX 9 1 10 2 11 3 12 4 13 5 14 6 15 7 16 8 17 9 18 10 8 11 7 12
REMARK SMILES IDX 6 13 5 14 4 15 3 16 2 17 1 18
REMARK H PARENT
REMARK Flexibility Score: inf
ROOT
ATOM      1  C   UNL     1     -10.560   5.748  52.245  1.00  0.00     0.000 C 
ENDROOT
BRANCH   1   2
ATOM      2  C   UNL     1      -9.930   6.060  53.620  1.00  0.00     0.000 C 
BRANCH   2   3
ATOM      3  C   UNL     1      -9.932   4.860  54.583  1.00  0.00     0.000 C 
BRANCH   3   4
ATOM      4  C   UNL     1      -8.874   4.985  55.691  1.00  0.00     0.000 C 
BRANCH   4   5
ATOM      5  C   UNL     1      -7.665   5.839  55.254  1.00  0.00     0.000 C 
BRANCH   5   6
ATOM      6  C   UNL     1      -6.306   5.207  55.610  1.00  0.00     0.006 C 
BRANCH   6   7
ATOM      7  C   UNL     1      -6.263   4.560  57.002  1.00  0.00     0.053 C 
BRANCH   7   8
ATOM      8  C   UNL     1      -6.046   5.575  58.082  1.00  0.00     0.041 C 
ATOM      9  O   UNL     1      -4.880   5.882  58.442  1.00  0.00    -0.550 OA
ATOM     10  O   UNL     1      -7.137   6.174  58.701  1.00  0.00    -0.550 OA
ENDBRANCH   7   8
ENDBRANCH   6   7
ENDBRANCH   5   6
ENDBRANCH   4   5
ENDBRANCH   3   4
ENDBRANCH   2   3
ENDBRANCH   1   2
BRANCH   1  11
ATOM     11  C   UNL     1      -9.520   5.767  51.112  1.00  0.00     0.000 C 
BRANCH  11  12
ATOM     12  C   UNL     1      -8.073   5.847  51.644  1.00  0.00    -0.000 C 
BRANCH  12  13
ATOM     13  C   UNL     1      -7.148   4.753  51.083  1.00  0.00    -0.000 C 
BRANCH  13  14
ATOM     14  C   UNL     1      -7.829   3.378  51.003  1.00  0.00    -0.000 C 
BRANCH  14  15
ATOM     15  C   UNL     1      -7.940   2.688  52.371  1.00  0.00    -0.000 C 
BRANCH  15  16
ATOM     16  C   UNL     1      -6.592   2.622  53.110  1.00  0.00    -0.000 C 
BRANCH  16  17
ATOM     17  C   UNL     1      -6.598   1.594  54.253  1.00  0.00    -0.003 C 
ATOM     18  C   UNL     1      -7.931   1.546  54.999  1.00  0.00     0.004 C 
ENDBRANCH  16  17
ENDBRANCH  15  16
ENDBRANCH  14  15
ENDBRANCH  13  14
ENDBRANCH  12  13
ENDBRANCH  11  12
ENDBRANCH   1  11
TORSDOF 14
ENDMDL
MODEL 7
REMARK VINA RESULT:    -3.684      1.410      2.274
REMARK INTER + INTRA:          -8.991
REMARK INTER:                  -6.925
REMARK INTRA:                  -2.066
REMARK UNBOUND:                -2.292
REMARK SMILES CCCCCCCCCCCCCCCC(=O)[O-]
REMARK SMILES IDX 9 1 10 2 11 3 12 4 13 5 14 6 15 7 16 8 17 9 18 10 8 11 7 12
REMARK SMILES IDX 6 13 5 14 4 15 3 16 2 17 1 18
REMARK H PARENT
REMARK Flexibility Score: inf
ROOT
ATOM      1  C   UNL     1      -6.286   3.527  53.227  1.00  0.00     0.000 C 
ENDROOT
BRANCH   1   2
ATOM      2  C   UNL     1      -6.608   2.858  54.581  1.00  0.00     0.000 C 
BRANCH   2   3
ATOM      3  C   UNL     1      -7.141   3.840  55.639  1.00  0.00     0.000 C 
BRANCH   3   4
ATOM      4  C   UNL     1      -6.740   5.296  55.356  1.00  0.00     0.000 C 
BRANCH   4   5
ATOM      5  C   UNL     1      -7.000   6.221  56.566  1.00  0.00     0.000 C 
BRANCH   5   6
ATOM      6  C   UNL     1      -6.783   5.529  57.924  1.00  0.00     0.006 C 
BRANCH   6   7
ATOM      7  C   UNL     1      -5.334   5.584  58.431  1.00  0.00     0.053 C 
BRANCH   7   8
ATOM      8  C   UNL     1      -4.773   4.216  58.668  1.00  0.00     0.041 C 
ATOM      9  O   UNL     1      -4.369   3.518  57.703  1.00  0.00    -0.550 OA
ATOM     10  O   UNL     1      -4.711   3.706  59.959  1.00  0.00    -0.550 OA
ENDBRANCH   7   8
ENDBRANCH   6   7
ENDBRANCH   5   6
ENDBRANCH   4   5
ENDBRANCH   3   4
ENDBRANCH   2   3
ENDBRANCH   1   2
BRANCH   1  11
ATOM     11  C   UNL     1      -7.216   3.038  52.102  1.00  0.00     0.000 C 
BRANCH  11  12
ATOM     12  C   UNL     1      -7.301   4.043  50.934  1.00  0.00    -0.000 C 
BRANCH  12  13
ATOM     13  C   UNL     1      -7.690   5.466  51.370  1.00  0.00    -0.000 C 
BRANCH  13  14
ATOM     14  C   UNL     1      -9.206   5.714  51.316  1.00  0.00    -0.000 C 
BRANCH  14  15
ATOM     15  C   UNL     1      -9.776   6.210  52.654  1.00  0.00    -0.000 C 
BRANCH  15  16
ATOM     16  C   UNL     1     -10.012   5.066  53.655  1.00  0.00    -0.000 C 
BRANCH  16  17
ATOM     17  C   UNL     1     -10.638   5.557  54.970  1.00  0.00    -0.003 C 
ATOM     18  C   UNL     1     -10.346   7.030  55.252  1.00  0.00     0.004 C 
ENDBRANCH  16  17
ENDBRANCH  15  16
ENDBRANCH  14  15
ENDBRANCH  13  14
ENDBRANCH  12  13
ENDBRANCH  11  12
ENDBRANCH   1  11
TORSDOF 14
ENDMDL
MODEL 8
REMARK VINA RESULT:    -3.678      3.323      6.638
REMARK INTER + INTRA:          -8.981
REMARK INTER:                  -7.236
REMARK INTRA:                  -1.745
REMARK UNBOUND:                -2.292
REMARK SMILES CCCCCCCCCCCCCCCC(=O)[O-]
REMARK SMILES IDX 9 1 10 2 11 3 12 4 13 5 14 6 15 7 16 8 17 9 18 10 8 11 7 12
REMARK SMILES IDX 6 13 5 14 4 15 3 16 2 17 1 18
REMARK H PARENT
REMARK Flexibility Score: inf
ROOT
ATOM      1  C   UNL     1      -7.308   5.863  55.139  1.00  0.00     0.000 C 
ENDROOT
BRANCH   1   2
ATOM      2  C   UNL     1      -7.221   4.322  55.082  1.00  0.00     0.000 C 
BRANCH   2   3
ATOM      3  C   UNL     1      -5.872   3.803  54.555  1.00  0.00     0.000 C 
BRANCH   3   4
ATOM      4  C   UNL     1      -5.836   3.688  53.023  1.00  0.00     0.000 C 
BRANCH   4   5
ATOM      5  C   UNL     1      -7.198   3.260  52.435  1.00  0.00     0.000 C 
BRANCH   5   6
ATOM      6  C   UNL     1      -7.602   4.057  51.180  1.00  0.00     0.006 C 
BRANCH   6   7
ATOM      7  C   UNL     1      -7.938   5.530  51.455  1.00  0.00     0.053 C 
BRANCH   7   8
ATOM      8  C   UNL     1      -9.409   5.741  51.640  1.00  0.00     0.041 C 
ATOM      9  O   UNL     1      -9.936   5.588  52.773  1.00  0.00    -0.550 OA
ATOM     10  O   UNL     1     -10.202   6.094  50.555  1.00  0.00    -0.550 OA
ENDBRANCH   7   8
ENDBRANCH   6   7
ENDBRANCH   5   6
ENDBRANCH   4   5
ENDBRANCH   3   4
ENDBRANCH   2   3
ENDBRANCH   1   2
BRANCH   1  11
ATOM     11  C   UNL     1      -7.734   6.370  56.528  1.00  0.00     0.000 C 
BRANCH  11  12
ATOM     12  C   UNL     1      -7.044   5.597  57.672  1.00  0.00    -0.000 C 
BRANCH  12  13
ATOM     13  C   UNL     1      -5.523   5.817  57.735  1.00  0.00    -0.000 C 
BRANCH  13  14
ATOM     14  C   UNL     1      -4.933   5.516  59.122  1.00  0.00    -0.000 C 
BRANCH  14  15
ATOM     15  C   UNL     1      -4.838   4.010  59.415  1.00  0.00    -0.000 C 
BRANCH  15  16
ATOM     16  C   UNL     1      -4.295   3.210  58.218  1.00  0.00    -0.000 C 
BRANCH  16  17
ATOM     17  C   UNL     1      -5.298   2.161  57.711  1.00  0.00    -0.003 C 
ATOM     18  C   UNL     1      -6.536   2.047  58.599  1.00  0.00     0.004 C 
ENDBRANCH  16  17
ENDBRANCH  15  16
ENDBRANCH  14  15
ENDBRANCH  13  14
ENDBRANCH  12  13
ENDBRANCH  11  12
ENDBRANCH   1  11
TORSDOF 14
ENDMDL
MODEL 9
REMARK VINA RESULT:    -3.664      3.335      7.159
REMARK INTER + INTRA:          -8.956
REMARK INTER:                  -6.656
REMARK INTRA:                  -2.300
REMARK UNBOUND:                -2.292
REMARK SMILES CCCCCCCCCCCCCCCC(=O)[O-]
REMARK SMILES IDX 9 1 10 2 11 3 12 4 13 5 14 6 15 7 16 8 17 9 18 10 8 11 7 12
REMARK SMILES IDX 6 13 5 14 4 15 3 16 2 17 1 18
REMARK H PARENT
REMARK Flexibility Score: inf
ROOT
ATOM      1  C   UNL     1      -5.517   5.741  57.891  1.00  0.00     0.000 C 
ENDROOT
BRANCH   1   2
ATOM      2  C   UNL     1      -6.908   5.885  57.236  1.00  0.00     0.000 C 
BRANCH   2   3
ATOM      3  C   UNL     1      -7.164   4.869  56.110  1.00  0.00     0.000 C 
BRANCH   3   4
ATOM      4  C   UNL     1      -5.867   4.294  55.520  1.00  0.00     0.000 C 
BRANCH   4   5
ATOM      5  C   UNL     1      -6.025   2.821  55.082  1.00  0.00     0.000 C 
BRANCH   5   6
ATOM      6  C   UNL     1      -6.429   2.660  53.604  1.00  0.00     0.006 C 
BRANCH   6   7
ATOM      7  C   UNL     1      -6.010   3.836  52.710  1.00  0.00     0.053 C 
BRANCH   7   8
ATOM      8  C   UNL     1      -7.169   4.395  51.944  1.00  0.00     0.041 C 
ATOM      9  O   UNL     1      -7.860   5.329  52.426  1.00  0.00    -0.550 OA
ATOM     10  O   UNL     1      -7.495   3.872  50.698  1.00  0.00    -0.550 OA
ENDBRANCH   7   8
ENDBRANCH   6   7
ENDBRANCH   5   6
ENDBRANCH   4   5
ENDBRANCH   3   4
ENDBRANCH   2   3
ENDBRANCH   1   2
BRANCH   1  11
ATOM     11  C   UNL     1      -5.592   5.777  59.428  1.00  0.00     0.000 C 
BRANCH  11  12
ATOM     12  C   UNL     1      -7.041   5.924  59.941  1.00  0.00    -0.000 C 
BRANCH  12  13
ATOM     13  C   UNL     1      -7.513   4.740  60.802  1.00  0.00    -0.000 C 
BRANCH  13  14
ATOM     14  C   UNL     1      -6.621   3.498  60.650  1.00  0.00    -0.000 C 
BRANCH  14  15
ATOM     15  C   UNL     1      -7.174   2.488  59.632  1.00  0.00    -0.000 C 
BRANCH  15  16
ATOM     16  C   UNL     1      -6.119   2.051  58.600  1.00  0.00    -0.000 C 
BRANCH  16  17
ATOM     17  C   UNL     1      -4.683   2.288  59.094  1.00  0.00    -0.003 C 
ATOM     18  C   UNL     1      -3.672   2.384  57.951  1.00  0.00     0.004 C 
ENDBRANCH  16  17
ENDBRANCH  15  16
ENDBRANCH  14  15
ENDBRANCH  13  14
ENDBRANCH  12  13
ENDBRANCH  11  12
ENDBRANCH   1  11
TORSDOF 14
ENDMDL
