MODEL 1
REMARK VINA RESULT:    -5.500      0.000      0.000
REMARK INTER + INTRA:          -6.911
REMARK INTER:                  -6.626
REMARK INTRA:                  -0.285
REMARK UNBOUND:                -0.285
REMARK SMILES O=c1c(O)c(-c2ccc(O)c(O)c2)oc2cc(O)cc(O)c12
REMARK SMILES IDX 5 1 3 2 2 3 1 4 22 5 20 6 19 7 17 8 16 9 15 10 14 11 6 12
REMARK SMILES IDX 7 13 8 14 9 15 13 16 11 17 10 18 12 20 4 22 21 24 18 26
REMARK H PARENT 10 19 12 21 4 23 21 25 18 27
REMARK Flexibility Score: inf
ROOT
ATOM      1  C   UNL     1       4.991  -6.975   4.817  1.00  0.00     0.180 A 
ATOM      2  C   UNL     1       5.060  -8.262   4.254  1.00  0.00     0.208 A 
ATOM      3  C   UNL     1       3.867  -8.953   3.986  1.00  0.00     0.238 A 
ATOM      4  O   UNL     1       3.935 -10.125   3.533  1.00  0.00    -0.285 OA
ATOM      5  C   UNL     1       2.620  -8.343   4.269  1.00  0.00     0.111 A 
ATOM      6  C   UNL     1       1.350  -8.934   4.002  1.00  0.00     0.134 A 
ATOM      7  C   UNL     1       0.184  -8.296   4.444  1.00  0.00     0.093 A 
ATOM      8  C   UNL     1       0.239  -7.058   5.083  1.00  0.00     0.123 A 
ATOM      9  C   UNL     1       1.472  -6.442   5.296  1.00  0.00     0.094 A 
ATOM     10  C   UNL     1       2.655  -7.072   4.900  1.00  0.00     0.146 A 
ATOM     11  O   UNL     1       3.809  -6.457   5.131  1.00  0.00    -0.452 OA
ENDROOT
BRANCH   1  12
ATOM     12  C   UNL     1       6.203  -6.174   5.104  1.00  0.00     0.025 A 
ATOM     13  C   UNL     1       6.738  -6.097   6.403  1.00  0.00     0.016 A 
ATOM     14  C   UNL     1       7.896  -5.356   6.646  1.00  0.00     0.051 A 
ATOM     15  C   UNL     1       8.544  -4.693   5.596  1.00  0.00     0.157 A 
ATOM     16  C   UNL     1       6.869  -5.525   4.052  1.00  0.00     0.062 A 
ATOM     17  C   UNL     1       8.032  -4.780   4.296  1.00  0.00     0.158 A 
BRANCH  15  18
ATOM     18  O   UNL     1       9.700  -3.950   5.835  1.00  0.00    -0.504 OA
ATOM     19  H   UNL     1      10.500  -4.353   6.309  1.00  0.00     0.293 HD
ENDBRANCH  15  18
BRANCH  17  20
ATOM     20  O   UNL     1       8.682  -4.125   3.251  1.00  0.00    -0.504 OA
ATOM     21  H   UNL     1       9.020  -4.627   2.439  1.00  0.00     0.293 HD
ENDBRANCH  17  20
ENDBRANCH   1  12
BRANCH   2  22
ATOM     22  O   UNL     1       6.301  -8.854   4.003  1.00  0.00    -0.502 OA
ATOM     23  H   UNL     1       6.391  -9.756   3.551  1.00  0.00     0.293 HD
ENDBRANCH   2  22
BRANCH   6  24
ATOM     24  O   UNL     1       1.177 -10.124   3.288  1.00  0.00    -0.507 OA
ATOM     25  H   UNL     1       1.778 -10.931   3.362  1.00  0.00     0.293 HD
ENDBRANCH   6  24
BRANCH   8  26
ATOM     26  O   UNL     1      -0.942  -6.444   5.495  1.00  0.00    -0.508 OA
ATOM     27  H   UNL     1      -1.706  -6.977   5.893  1.00  0.00     0.293 HD
ENDBRANCH   8  26
TORSDOF 6
ENDMDL
MODEL 2
REMARK VINA RESULT:    -5.404      3.992      8.451
REMARK INTER + INTRA:          -6.795
REMARK INTER:                  -6.698
REMARK INTRA:                  -0.097
REMARK UNBOUND:                -0.285
REMARK SMILES O=c1c(O)c(-c2ccc(O)c(O)c2)oc2cc(O)cc(O)c12
REMARK SMILES IDX 5 1 3 2 2 3 1 4 22 5 20 6 19 7 17 8 16 9 15 10 14 11 6 12
REMARK SMILES IDX 7 13 8 14 9 15 13 16 11 17 10 18 12 20 4 22 21 24 18 26
REMARK H PARENT 10 19 12 21 4 23 21 25 18 27
REMARK Flexibility Score: inf
ROOT
ATOM      1  C   UNL     1      -1.044  -4.670   6.477  1.00  0.00     0.180 A 
ATOM      2  C   UNL     1       0.200  -4.077   6.757  1.00  0.00     0.208 A 
ATOM      3  C   UNL     1       1.372  -4.724   6.335  1.00  0.00     0.238 A 
ATOM      4  O   UNL     1       2.484  -4.216   6.636  1.00  0.00    -0.285 OA
ATOM      5  C   UNL     1       1.287  -5.946   5.625  1.00  0.00     0.111 A 
ATOM      6  C   UNL     1       2.408  -6.667   5.116  1.00  0.00     0.134 A 
ATOM      7  C   UNL     1       2.215  -7.931   4.544  1.00  0.00     0.093 A 
ATOM      8  C   UNL     1       0.937  -8.469   4.404  1.00  0.00     0.123 A 
ATOM      9  C   UNL     1      -0.172  -7.747   4.844  1.00  0.00     0.094 A 
ATOM     10  C   UNL     1      -0.008  -6.500   5.452  1.00  0.00     0.146 A 
ATOM     11  O   UNL     1      -1.089  -5.849   5.867  1.00  0.00    -0.452 OA
ENDROOT
BRANCH   1  12
ATOM     12  C   UNL     1      -2.325  -4.037   6.867  1.00  0.00     0.025 A 
ATOM     13  C   UNL     1      -3.215  -4.671   7.752  1.00  0.00     0.016 A 
ATOM     14  C   UNL     1      -4.406  -4.044   8.125  1.00  0.00     0.051 A 
ATOM     15  C   UNL     1      -4.720  -2.772   7.631  1.00  0.00     0.157 A 
ATOM     16  C   UNL     1      -2.635  -2.752   6.391  1.00  0.00     0.062 A 
ATOM     17  C   UNL     1      -3.831  -2.123   6.765  1.00  0.00     0.158 A 
BRANCH  15  18
ATOM     18  O   UNL     1      -5.908  -2.143   7.999  1.00  0.00    -0.504 OA
ATOM     19  H   UNL     1      -6.807  -2.472   7.664  1.00  0.00     0.293 HD
ENDBRANCH  15  18
BRANCH  17  20
ATOM     20  O   UNL     1      -4.142  -0.854   6.279  1.00  0.00    -0.504 OA
ATOM     21  H   UNL     1      -3.631  -0.032   6.579  1.00  0.00     0.293 HD
ENDBRANCH  17  20
ENDBRANCH   1  12
BRANCH   2  22
ATOM     22  O   UNL     1       0.262  -2.881   7.478  1.00  0.00    -0.502 OA
ATOM     23  H   UNL     1      -0.494  -2.566   8.074  1.00  0.00     0.293 HD
ENDBRANCH   2  22
BRANCH   6  24
ATOM     24  O   UNL     1       3.719  -6.179   5.122  1.00  0.00    -0.507 OA
ATOM     25  H   UNL     1       4.496  -6.627   5.582  1.00  0.00     0.293 HD
ENDBRANCH   6  24
BRANCH   8  26
ATOM     26  O   UNL     1       0.779  -9.723   3.815  1.00  0.00    -0.508 OA
ATOM     27  H   UNL     1      -0.057  -9.965   3.299  1.00  0.00     0.293 HD
ENDBRANCH   8  26
TORSDOF 6
ENDMDL
MODEL 3
REMARK VINA RESULT:    -5.280      7.782      9.720
REMARK INTER + INTRA:          -6.646
REMARK INTER:                  -6.363
REMARK INTRA:                  -0.283
REMARK UNBOUND:                -0.285
REMARK SMILES O=c1c(O)c(-c2ccc(O)c(O)c2)oc2cc(O)cc(O)c12
REMARK SMILES IDX 5 1 3 2 2 3 1 4 22 5 20 6 19 7 17 8 16 9 15 10 14 11 6 12
REMARK SMILES IDX 7 13 8 14 9 15 13 16 11 17 10 18 12 20 4 22 21 24 18 26
REMARK H PARENT 10 19 12 21 4 23 21 25 18 27
REMARK Flexibility Score: inf
ROOT
ATOM      1  C   UNL     1       5.457   2.058   5.639  1.00  0.00     0.180 A 
ATOM      2  C   UNL     1       6.760   1.708   5.242  1.00  0.00     0.208 A 
ATOM      3  C   UNL     1       7.102   0.350   5.151  1.00  0.00     0.238 A 
ATOM      4  O   UNL     1       8.285   0.043   4.848  1.00  0.00    -0.285 OA
ATOM      5  C   UNL     1       6.134  -0.642   5.443  1.00  0.00     0.111 A 
ATOM      6  C   UNL     1       6.359  -2.048   5.345  1.00  0.00     0.134 A 
ATOM      7  C   UNL     1       5.372  -2.938   5.785  1.00  0.00     0.093 A 
ATOM      8  C   UNL     1       4.143  -2.475   6.255  1.00  0.00     0.123 A 
ATOM      9  C   UNL     1       3.890  -1.104   6.298  1.00  0.00     0.094 A 
ATOM     10  C   UNL     1       4.870  -0.191   5.902  1.00  0.00     0.146 A 
ATOM     11  O   UNL     1       4.592   1.106   5.969  1.00  0.00    -0.452 OA
ENDROOT
BRANCH   1  12
ATOM     12  C   UNL     1       5.014   3.468   5.734  1.00  0.00     0.025 A 
ATOM     13  C   UNL     1       4.201   4.048   4.743  1.00  0.00     0.016 A 
ATOM     14  C   UNL     1       3.776   5.373   4.866  1.00  0.00     0.051 A 
ATOM     15  C   UNL     1       4.143   6.132   5.984  1.00  0.00     0.157 A 
ATOM     16  C   UNL     1       5.362   4.228   6.863  1.00  0.00     0.062 A 
ATOM     17  C   UNL     1       4.935   5.558   6.986  1.00  0.00     0.158 A 
BRANCH  15  18
ATOM     18  O   UNL     1       3.722   7.455   6.109  1.00  0.00    -0.504 OA
ATOM     19  H   UNL     1       4.331   8.230   5.870  1.00  0.00     0.293 HD
ENDBRANCH  15  18
BRANCH  17  20
ATOM     20  O   UNL     1       5.294   6.314   8.101  1.00  0.00    -0.504 OA
ATOM     21  H   UNL     1       4.814   6.212   8.987  1.00  0.00     0.293 HD
ENDBRANCH  17  20
ENDBRANCH   1  12
BRANCH   2  22
ATOM     22  O   UNL     1       7.706   2.703   4.980  1.00  0.00    -0.502 OA
ATOM     23  H   UNL     1       8.691   2.584   5.184  1.00  0.00     0.293 HD
ENDBRANCH   2  22
BRANCH   6  24
ATOM     24  O   UNL     1       7.516  -2.617   4.803  1.00  0.00    -0.507 OA
ATOM     25  H   UNL     1       8.001  -3.412   5.190  1.00  0.00     0.293 HD
ENDBRANCH   6  24
BRANCH   8  26
ATOM     26  O   UNL     1       3.177  -3.390   6.669  1.00  0.00    -0.508 OA
ATOM     27  H   UNL     1       3.078  -4.294   6.224  1.00  0.00     0.293 HD
ENDBRANCH   8  26
TORSDOF 6
ENDMDL
MODEL 4
REMARK VINA RESULT:    -5.273      3.251      4.382
REMARK INTER + INTRA:          -6.637
REMARK INTER:                  -6.499
REMARK INTRA:                  -0.138
REMARK UNBOUND:                -0.285
REMARK SMILES O=c1c(O)c(-c2ccc(O)c(O)c2)oc2cc(O)cc(O)c12
REMARK SMILES IDX 5 1 3 2 2 3 1 4 22 5 20 6 19 7 17 8 16 9 15 10 14 11 6 12
REMARK SMILES IDX 7 13 8 14 9 15 13 16 11 17 10 18 12 20 4 22 21 24 18 26
REMARK H PARENT 10 19 12 21 4 23 21 25 18 27
REMARK Flexibility Score: inf
ROOT
ATOM      1  C   UNL     1       3.922  -5.297   5.662  1.00  0.00     0.180 A 
ATOM      2  C   UNL     1       5.258  -5.729   5.576  1.00  0.00     0.208 A 
ATOM      3  C   UNL     1       5.532  -6.986   5.013  1.00  0.00     0.238 A 
ATOM      4  O   UNL     1       6.724  -7.390   4.988  1.00  0.00    -0.285 OA
ATOM      5  C   UNL     1       4.471  -7.789   4.530  1.00  0.00     0.111 A 
ATOM      6  C   UNL     1       4.636  -9.061   3.905  1.00  0.00     0.134 A 
ATOM      7  C   UNL     1       3.508  -9.825   3.584  1.00  0.00     0.093 A 
ATOM      8  C   UNL     1       2.221  -9.336   3.804  1.00  0.00     0.123 A 
ATOM      9  C   UNL     1       2.047  -8.068   4.360  1.00  0.00     0.094 A 
ATOM     10  C   UNL     1       3.153  -7.298   4.725  1.00  0.00     0.146 A 
ATOM     11  O   UNL     1       2.944  -6.100   5.260  1.00  0.00    -0.452 OA
ENDROOT
BRANCH   1  12
ATOM     12  C   UNL     1       3.555  -3.975   6.219  1.00  0.00     0.025 A 
ATOM     13  C   UNL     1       2.797  -3.863   7.398  1.00  0.00     0.016 A 
ATOM     14  C   UNL     1       2.484  -2.605   7.918  1.00  0.00     0.051 A 
ATOM     15  C   UNL     1       2.933  -1.443   7.278  1.00  0.00     0.157 A 
ATOM     16  C   UNL     1       4.021  -2.807   5.593  1.00  0.00     0.062 A 
ATOM     17  C   UNL     1       3.706  -1.544   6.115  1.00  0.00     0.158 A 
BRANCH  15  18
ATOM     18  O   UNL     1       2.621  -0.186   7.793  1.00  0.00    -0.504 OA
ATOM     19  H   UNL     1       1.719   0.245   7.626  1.00  0.00     0.293 HD
ENDBRANCH  15  18
BRANCH  17  20
ATOM     20  O   UNL     1       4.158  -0.387   5.482  1.00  0.00    -0.504 OA
ATOM     21  H   UNL     1       3.608   0.076   4.768  1.00  0.00     0.293 HD
ENDBRANCH  17  20
ENDBRANCH   1  12
BRANCH   2  22
ATOM     22  O   UNL     1       6.288  -4.930   6.079  1.00  0.00    -0.502 OA
ATOM     23  H   UNL     1       7.099  -5.319   6.546  1.00  0.00     0.293 HD
ENDBRANCH   2  22
BRANCH   6  24
ATOM     24  O   UNL     1       5.877  -9.603   3.556  1.00  0.00    -0.507 OA
ATOM     25  H   UNL     1       6.073 -10.077   2.688  1.00  0.00     0.293 HD
ENDBRANCH   6  24
BRANCH   8  26
ATOM     26  O   UNL     1       1.120 -10.117   3.458  1.00  0.00    -0.508 OA
ATOM     27  H   UNL     1       1.092 -11.110   3.654  1.00  0.00     0.293 HD
ENDBRANCH   8  26
TORSDOF 6
ENDMDL
MODEL 5
REMARK VINA RESULT:    -5.216      4.509      8.912
REMARK INTER + INTRA:          -6.569
REMARK INTER:                  -6.532
REMARK INTRA:                  -0.036
REMARK UNBOUND:                -0.285
REMARK SMILES O=c1c(O)c(-c2ccc(O)c(O)c2)oc2cc(O)cc(O)c12
REMARK SMILES IDX 5 1 3 2 2 3 1 4 22 5 20 6 19 7 17 8 16 9 15 10 14 11 6 12
REMARK SMILES IDX 7 13 8 14 9 15 13 16 11 17 10 18 12 20 4 22 21 24 18 26
REMARK H PARENT 10 19 12 21 4 23 21 25 18 27
REMARK Flexibility Score: inf
ROOT
ATOM      1  C   UNL     1      -1.380  -4.069   6.617  1.00  0.00     0.180 A 
ATOM      2  C   UNL     1      -1.450  -5.472   6.558  1.00  0.00     0.208 A 
ATOM      3  C   UNL     1      -0.270  -6.205   6.354  1.00  0.00     0.238 A 
ATOM      4  O   UNL     1      -0.346  -7.457   6.248  1.00  0.00    -0.285 OA
ATOM      5  C   UNL     1       0.967  -5.528   6.226  1.00  0.00     0.111 A 
ATOM      6  C   UNL     1       2.229  -6.171   6.057  1.00  0.00     0.134 A 
ATOM      7  C   UNL     1       3.371  -5.398   5.810  1.00  0.00     0.093 A 
ATOM      8  C   UNL     1       3.308  -4.005   5.793  1.00  0.00     0.123 A 
ATOM      9  C   UNL     1       2.089  -3.364   6.018  1.00  0.00     0.094 A 
ATOM     10  C   UNL     1       0.926  -4.109   6.229  1.00  0.00     0.146 A 
ATOM     11  O   UNL     1      -0.215  -3.460   6.428  1.00  0.00    -0.452 OA
ENDROOT
BRANCH   1  12
ATOM     12  C   UNL     1      -2.577  -3.229   6.854  1.00  0.00     0.025 A 
ATOM     13  C   UNL     1      -2.612  -2.284   7.894  1.00  0.00     0.016 A 
ATOM     14  C   UNL     1      -3.743  -1.486   8.084  1.00  0.00     0.051 A 
ATOM     15  C   UNL     1      -4.847  -1.611   7.232  1.00  0.00     0.157 A 
ATOM     16  C   UNL     1      -3.678  -3.335   5.989  1.00  0.00     0.062 A 
ATOM     17  C   UNL     1      -4.814  -2.534   6.180  1.00  0.00     0.158 A 
BRANCH  15  18
ATOM     18  O   UNL     1      -5.978  -0.817   7.419  1.00  0.00    -0.504 OA
ATOM     19  H   UNL     1      -6.765  -0.858   6.782  1.00  0.00     0.293 HD
ENDBRANCH  15  18
BRANCH  17  20
ATOM     20  O   UNL     1      -5.911  -2.652   5.329  1.00  0.00    -0.504 OA
ATOM     21  H   UNL     1      -6.840  -2.369   5.619  1.00  0.00     0.293 HD
ENDBRANCH  17  20
ENDBRANCH   1  12
BRANCH   2  22
ATOM     22  O   UNL     1      -2.684  -6.120   6.664  1.00  0.00    -0.502 OA
ATOM     23  H   UNL     1      -2.775  -7.128   6.625  1.00  0.00     0.293 HD
ENDBRANCH   2  22
BRANCH   6  24
ATOM     24  O   UNL     1       2.419  -7.553   6.148  1.00  0.00    -0.507 OA
ATOM     25  H   UNL     1       2.939  -8.015   6.878  1.00  0.00     0.293 HD
ENDBRANCH   6  24
BRANCH   8  26
ATOM     26  O   UNL     1       4.466  -3.267   5.561  1.00  0.00    -0.508 OA
ATOM     27  H   UNL     1       5.106  -3.505   4.812  1.00  0.00     0.293 HD
ENDBRANCH   8  26
TORSDOF 6
ENDMDL
MODEL 6
REMARK VINA RESULT:    -5.210      1.792      6.849
REMARK INTER + INTRA:          -6.562
REMARK INTER:                  -6.228
REMARK INTRA:                  -0.334
REMARK UNBOUND:                -0.285
REMARK SMILES O=c1c(O)c(-c2ccc(O)c(O)c2)oc2cc(O)cc(O)c12
REMARK SMILES IDX 5 1 3 2 2 3 1 4 22 5 20 6 19 7 17 8 16 9 15 10 14 11 6 12
REMARK SMILES IDX 7 13 8 14 9 15 13 16 11 17 10 18 12 20 4 22 21 24 18 26
REMARK H PARENT 10 19 12 21 4 23 21 25 18 27
REMARK Flexibility Score: inf
ROOT
ATOM      1  C   UNL     1       2.569  -7.787   4.920  1.00  0.00     0.180 A 
ATOM      2  C   UNL     1       3.498  -8.595   4.240  1.00  0.00     0.208 A 
ATOM      3  C   UNL     1       4.828  -8.160   4.132  1.00  0.00     0.238 A 
ATOM      4  O   UNL     1       5.642  -8.861   3.477  1.00  0.00    -0.285 OA
ATOM      5  C   UNL     1       5.218  -6.931   4.717  1.00  0.00     0.111 A 
ATOM      6  C   UNL     1       6.546  -6.411   4.703  1.00  0.00     0.134 A 
ATOM      7  C   UNL     1       6.791  -5.124   5.198  1.00  0.00     0.093 A 
ATOM      8  C   UNL     1       5.768  -4.366   5.766  1.00  0.00     0.123 A 
ATOM      9  C   UNL     1       4.476  -4.887   5.840  1.00  0.00     0.094 A 
ATOM     10  C   UNL     1       4.194  -6.153   5.320  1.00  0.00     0.146 A 
ATOM     11  O   UNL     1       2.950  -6.609   5.401  1.00  0.00    -0.452 OA
ENDROOT
BRANCH   1  12
ATOM     12  C   UNL     1       1.155  -8.189   5.097  1.00  0.00     0.025 A 
ATOM     13  C   UNL     1       0.749  -8.976   6.191  1.00  0.00     0.016 A 
ATOM     14  C   UNL     1      -0.594  -9.323   6.350  1.00  0.00     0.051 A 
ATOM     15  C   UNL     1      -1.553  -8.880   5.430  1.00  0.00     0.157 A 
ATOM     16  C   UNL     1       0.186  -7.730   4.190  1.00  0.00     0.062 A 
ATOM     17  C   UNL     1      -1.163  -8.080   4.350  1.00  0.00     0.158 A 
BRANCH  15  18
ATOM     18  O   UNL     1      -2.894  -9.226   5.585  1.00  0.00    -0.504 OA
ATOM     19  H   UNL     1      -3.635  -8.549   5.447  1.00  0.00     0.293 HD
ENDBRANCH  15  18
BRANCH  17  20
ATOM     20  O   UNL     1      -2.120  -7.634   3.439  1.00  0.00    -0.504 OA
ATOM     21  H   UNL     1      -2.217  -6.652   3.210  1.00  0.00     0.293 HD
ENDBRANCH  17  20
ENDBRANCH   1  12
BRANCH   2  22
ATOM     22  O   UNL     1       3.087  -9.795   3.652  1.00  0.00    -0.502 OA
ATOM     23  H   UNL     1       2.962 -10.647   4.185  1.00  0.00     0.293 HD
ENDBRANCH   2  22
BRANCH   6  24
ATOM     24  O   UNL     1       7.658  -7.124   4.243  1.00  0.00    -0.507 OA
ATOM     25  H   UNL     1       8.392  -6.737   3.669  1.00  0.00     0.293 HD
ENDBRANCH   6  24
BRANCH   8  26
ATOM     26  O   UNL     1       6.050  -3.095   6.264  1.00  0.00    -0.508 OA
ATOM     27  H   UNL     1       5.501  -2.287   5.997  1.00  0.00     0.293 HD
ENDBRANCH   8  26
TORSDOF 6
ENDMDL
MODEL 7
REMARK VINA RESULT:    -5.179      1.794      3.480
REMARK INTER + INTRA:          -6.524
REMARK INTER:                  -6.200
REMARK INTRA:                  -0.324
REMARK UNBOUND:                -0.285
REMARK SMILES O=c1c(O)c(-c2ccc(O)c(O)c2)oc2cc(O)cc(O)c12
REMARK SMILES IDX 5 1 3 2 2 3 1 4 22 5 20 6 19 7 17 8 16 9 15 10 14 11 6 12
REMARK SMILES IDX 7 13 8 14 9 15 13 16 11 17 10 18 12 20 4 22 21 24 18 26
REMARK H PARENT 10 19 12 21 4 23 21 25 18 27
REMARK Flexibility Score: inf
ROOT
ATOM      1  C   UNL     1       3.541  -5.217   5.863  1.00  0.00     0.180 A 
ATOM      2  C   UNL     1       2.372  -4.485   6.137  1.00  0.00     0.208 A 
ATOM      3  C   UNL     1       1.125  -5.061   5.846  1.00  0.00     0.238 A 
ATOM      4  O   UNL     1       0.084  -4.381   6.043  1.00  0.00    -0.285 OA
ATOM      5  C   UNL     1       1.061  -6.366   5.300  1.00  0.00     0.111 A 
ATOM      6  C   UNL     1      -0.148  -7.062   5.003  1.00  0.00     0.134 A 
ATOM      7  C   UNL     1      -0.092  -8.295   4.342  1.00  0.00     0.093 A 
ATOM      8  C   UNL     1       1.131  -8.888   4.029  1.00  0.00     0.123 A 
ATOM      9  C   UNL     1       2.321  -8.244   4.368  1.00  0.00     0.094 A 
ATOM     10  C   UNL     1       2.296  -6.995   4.993  1.00  0.00     0.146 A 
ATOM     11  O   UNL     1       3.451  -6.411   5.290  1.00  0.00    -0.452 OA
ENDROOT
BRANCH   1  12
ATOM     12  C   UNL     1       4.891  -4.688   6.166  1.00  0.00     0.025 A 
ATOM     13  C   UNL     1       5.447  -4.793   7.454  1.00  0.00     0.016 A 
ATOM     14  C   UNL     1       6.732  -4.308   7.710  1.00  0.00     0.051 A 
ATOM     15  C   UNL     1       7.484  -3.724   6.683  1.00  0.00     0.157 A 
ATOM     16  C   UNL     1       5.659  -4.120   5.135  1.00  0.00     0.062 A 
ATOM     17  C   UNL     1       6.948  -3.633   5.393  1.00  0.00     0.158 A 
BRANCH  15  18
ATOM     18  O   UNL     1       8.766  -3.238   6.935  1.00  0.00    -0.504 OA
ATOM     19  H   UNL     1       8.992  -2.257   6.819  1.00  0.00     0.293 HD
ENDBRANCH  15  18
BRANCH  17  20
ATOM     20  O   UNL     1       7.702  -3.057   4.371  1.00  0.00    -0.504 OA
ATOM     21  H   UNL     1       7.706  -3.442   3.434  1.00  0.00     0.293 HD
ENDBRANCH  17  20
ENDBRANCH   1  12
BRANCH   2  22
ATOM     22  O   UNL     1       2.458  -3.190   6.657  1.00  0.00    -0.502 OA
ATOM     23  H   UNL     1       1.814  -2.841   7.356  1.00  0.00     0.293 HD
ENDBRANCH   2  22
BRANCH   6  24
ATOM     24  O   UNL     1      -1.421  -6.601   5.357  1.00  0.00    -0.507 OA
ATOM     25  H   UNL     1      -2.039  -6.094   4.743  1.00  0.00     0.293 HD
ENDBRANCH   6  24
BRANCH   8  26
ATOM     26  O   UNL     1       1.151 -10.124   3.386  1.00  0.00    -0.508 OA
ATOM     27  H   UNL     1       2.021 -10.591   3.161  1.00  0.00     0.293 HD
ENDBRANCH   8  26
TORSDOF 6
ENDMDL
MODEL 8
REMARK VINA RESULT:    -5.132      7.529      9.099
REMARK INTER + INTRA:          -6.468
REMARK INTER:                  -6.148
REMARK INTRA:                  -0.320
REMARK UNBOUND:                -0.285
REMARK SMILES O=c1c(O)c(-c2ccc(O)c(O)c2)oc2cc(O)cc(O)c12
REMARK SMILES IDX 5 1 3 2 2 3 1 4 22 5 20 6 19 7 17 8 16 9 15 10 14 11 6 12
REMARK SMILES IDX 7 13 8 14 9 15 13 16 11 17 10 18 12 20 4 22 21 24 18 26
REMARK H PARENT 10 19 12 21 4 23 21 25 18 27
REMARK Flexibility Score: inf
ROOT
ATOM      1  C   UNL     1       4.048   1.156   6.371  1.00  0.00     0.180 A 
ATOM      2  C   UNL     1       3.134   0.559   7.258  1.00  0.00     0.208 A 
ATOM      3  C   UNL     1       3.110  -0.840   7.371  1.00  0.00     0.238 A 
ATOM      4  O   UNL     1       2.254  -1.372   8.125  1.00  0.00    -0.285 OA
ATOM      5  C   UNL     1       4.010  -1.624   6.609  1.00  0.00     0.111 A 
ATOM      6  C   UNL     1       4.101  -3.046   6.673  1.00  0.00     0.134 A 
ATOM      7  C   UNL     1       4.936  -3.727   5.778  1.00  0.00     0.093 A 
ATOM      8  C   UNL     1       5.732  -3.034   4.868  1.00  0.00     0.123 A 
ATOM      9  C   UNL     1       5.696  -1.639   4.837  1.00  0.00     0.094 A 
ATOM     10  C   UNL     1       4.845  -0.934   5.691  1.00  0.00     0.146 A 
ATOM     11  O   UNL     1       4.833   0.392   5.622  1.00  0.00    -0.452 OA
ENDROOT
BRANCH   1  12
ATOM     12  C   UNL     1       4.149   2.626   6.216  1.00  0.00     0.025 A 
ATOM     13  C   UNL     1       3.413   3.310   5.232  1.00  0.00     0.016 A 
ATOM     14  C   UNL     1       3.507   4.699   5.120  1.00  0.00     0.051 A 
ATOM     15  C   UNL     1       4.324   5.426   5.995  1.00  0.00     0.157 A 
ATOM     16  C   UNL     1       4.951   3.361   7.105  1.00  0.00     0.062 A 
ATOM     17  C   UNL     1       5.045   4.756   6.991  1.00  0.00     0.158 A 
BRANCH  15  18
ATOM     18  O   UNL     1       4.421   6.812   5.885  1.00  0.00    -0.504 OA
ATOM     19  H   UNL     1       3.599   7.403   5.901  1.00  0.00     0.293 HD
ENDBRANCH  15  18
BRANCH  17  20
ATOM     20  O   UNL     1       5.853   5.482   7.866  1.00  0.00    -0.504 OA
ATOM     21  H   UNL     1       5.920   5.242   8.848  1.00  0.00     0.293 HD
ENDBRANCH  17  20
ENDBRANCH   1  12
BRANCH   2  22
ATOM     22  O   UNL     1       2.239   1.350   7.984  1.00  0.00    -0.502 OA
ATOM     23  H   UNL     1       2.190   2.356   7.874  1.00  0.00     0.293 HD
ENDBRANCH   2  22
BRANCH   6  24
ATOM     24  O   UNL     1       3.418  -3.830   7.609  1.00  0.00    -0.507 OA
ATOM     25  H   UNL     1       3.846  -4.533   8.192  1.00  0.00     0.293 HD
ENDBRANCH   6  24
BRANCH   8  26
ATOM     26  O   UNL     1       6.564  -3.742   4.003  1.00  0.00    -0.508 OA
ATOM     27  H   UNL     1       6.979  -4.626   4.272  1.00  0.00     0.293 HD
ENDBRANCH   8  26
TORSDOF 6
ENDMDL
MODEL 9
REMARK VINA RESULT:    -4.284      3.129      4.876
REMARK INTER + INTRA:          -5.446
REMARK INTER:                  -5.256
REMARK INTRA:                  -0.190
REMARK UNBOUND:                -0.285
REMARK SMILES O=c1c(O)c(-c2ccc(O)c(O)c2)oc2cc(O)cc(O)c12
REMARK SMILES IDX 5 1 3 2 2 3 1 4 22 5 20 6 19 7 17 8 16 9 15 10 14 11 6 12
REMARK SMILES IDX 7 13 8 14 9 15 13 16 11 17 10 18 12 20 4 22 21 24 18 26
REMARK H PARENT 10 19 12 21 4 23 21 25 18 27
REMARK Flexibility Score: inf
ROOT
ATOM      1  C   UNL     1       2.435  -5.327   5.630  1.00  0.00     0.180 A 
ATOM      2  C   UNL     1       1.163  -5.842   5.320  1.00  0.00     0.208 A 
ATOM      3  C   UNL     1       1.067  -7.122   4.751  1.00  0.00     0.238 A 
ATOM      4  O   UNL     1      -0.068  -7.555   4.425  1.00  0.00    -0.285 OA
ATOM      5  C   UNL     1       2.241  -7.877   4.513  1.00  0.00     0.111 A 
ATOM      6  C   UNL     1       2.260  -9.199   3.978  1.00  0.00     0.134 A 
ATOM      7  C   UNL     1       3.485  -9.800   3.662  1.00  0.00     0.093 A 
ATOM      8  C   UNL     1       4.692  -9.154   3.924  1.00  0.00     0.123 A 
ATOM      9  C   UNL     1       4.688  -7.885   4.503  1.00  0.00     0.094 A 
ATOM     10  C   UNL     1       3.480  -7.244   4.794  1.00  0.00     0.146 A 
ATOM     11  O   UNL     1       3.520  -6.032   5.335  1.00  0.00    -0.452 OA
ENDROOT
BRANCH   1  12
ATOM     12  C   UNL     1       2.615  -3.996   6.255  1.00  0.00     0.025 A 
ATOM     13  C   UNL     1       2.129  -3.722   7.546  1.00  0.00     0.016 A 
ATOM     14  C   UNL     1       2.331  -2.467   8.125  1.00  0.00     0.051 A 
ATOM     15  C   UNL     1       3.033  -1.474   7.431  1.00  0.00     0.157 A 
ATOM     16  C   UNL     1       3.336  -3.003   5.572  1.00  0.00     0.062 A 
ATOM     17  C   UNL     1       3.539  -1.743   6.153  1.00  0.00     0.158 A 
BRANCH  15  18
ATOM     18  O   UNL     1       3.236  -0.220   8.004  1.00  0.00    -0.504 OA
ATOM     19  H   UNL     1       3.061   0.634   7.486  1.00  0.00     0.293 HD
ENDBRANCH  15  18
BRANCH  17  20
ATOM     20  O   UNL     1       4.243  -0.755   5.466  1.00  0.00    -0.504 OA
ATOM     21  H   UNL     1       3.765  -0.003   4.983  1.00  0.00     0.293 HD
ENDBRANCH  17  20
ENDBRANCH   1  12
BRANCH   2  22
ATOM     22  O   UNL     1       0.019  -5.071   5.543  1.00  0.00    -0.502 OA
ATOM     23  H   UNL     1      -0.359  -4.915   6.469  1.00  0.00     0.293 HD
ENDBRANCH   2  22
BRANCH   6  24
ATOM     24  O   UNL     1       1.113  -9.971   3.764  1.00  0.00    -0.507 OA
ATOM     25  H   UNL     1       0.668 -10.102   2.869  1.00  0.00     0.293 HD
ENDBRANCH   6  24
BRANCH   8  26
ATOM     26  O   UNL     1       5.893  -9.788   3.612  1.00  0.00    -0.508 OA
ATOM     27  H   UNL     1       6.650  -9.850   4.282  1.00  0.00     0.293 HD
ENDBRANCH   8  26
TORSDOF 6
ENDMDL
