MODEL 1
REMARK VINA RESULT:    -3.323      0.000      0.000
REMARK INTER + INTRA:          -4.010
REMARK INTER:                  -4.002
REMARK INTRA:                  -0.007
REMARK UNBOUND:                -0.007
REMARK SMILES OCC(O)CO
REMARK SMILES IDX 3 1 5 2 6 3 2 5 1 6 4 8
REMARK H PARENT 6 4 1 7 4 9
REMARK Flexibility Score: inf
ROOT
ATOM      1  C   UNL     1      48.740  -1.170  20.999  1.00  0.00     0.165 C 
ENDROOT
BRANCH   1   2
ATOM      2  C   UNL     1      47.421  -0.430  21.291  1.00  0.00     0.190 C 
BRANCH   2   3
ATOM      3  O   UNL     1      47.398   0.840  20.692  1.00  0.00    -0.394 OA
ATOM      4  H   UNL     1      47.952   0.782  19.870  1.00  0.00     0.210 HD
ENDBRANCH   2   3
ENDBRANCH   1   2
BRANCH   1   5
ATOM      5  C   UNL     1      49.550  -1.479  22.272  1.00  0.00     0.190 C 
BRANCH   5   6
ATOM      6  O   UNL     1      50.778  -0.806  22.262  1.00  0.00    -0.394 OA
ATOM      7  H   UNL     1      50.795  -0.252  23.085  1.00  0.00     0.210 HD
ENDBRANCH   5   6
ENDBRANCH   1   5
BRANCH   1   8
ATOM      8  O   UNL     1      49.516  -0.481  20.050  1.00  0.00    -0.388 OA
ATOM      9  H   UNL     1      50.470  -0.695  20.219  1.00  0.00     0.211 HD
ENDBRANCH   1   8
TORSDOF 5
ENDMDL
MODEL 2
REMARK VINA RESULT:    -3.277      1.165      2.829
REMARK INTER + INTRA:          -3.955
REMARK INTER:                  -3.949
REMARK INTRA:                  -0.006
REMARK UNBOUND:                -0.007
REMARK SMILES OCC(O)CO
REMARK SMILES IDX 3 1 5 2 6 3 2 5 1 6 4 8
REMARK H PARENT 6 4 1 7 4 9
REMARK Flexibility Score: inf
ROOT
ATOM      1  C   UNL     1      48.712  -1.234  20.879  1.00  0.00     0.165 C 
ENDROOT
BRANCH   1   2
ATOM      2  C   UNL     1      48.570  -2.497  20.009  1.00  0.00     0.190 C 
BRANCH   2   3
ATOM      3  O   UNL     1      49.242  -2.359  18.784  1.00  0.00    -0.394 OA
ATOM      4  H   UNL     1      50.095  -2.861  18.864  1.00  0.00     0.210 HD
ENDBRANCH   2   3
ENDBRANCH   1   2
BRANCH   1   5
ATOM      5  C   UNL     1      47.366  -0.542  21.159  1.00  0.00     0.190 C 
BRANCH   5   6
ATOM      6  O   UNL     1      47.381   0.786  20.714  1.00  0.00    -0.394 OA
ATOM      7  H   UNL     1      46.433   1.080  20.689  1.00  0.00     0.210 HD
ENDBRANCH   5   6
ENDBRANCH   1   5
BRANCH   1   8
ATOM      8  O   UNL     1      49.649  -0.338  20.333  1.00  0.00    -0.388 OA
ATOM      9  H   UNL     1      50.558  -0.672  20.552  1.00  0.00     0.211 HD
ENDBRANCH   1   8
TORSDOF 5
ENDMDL
MODEL 3
REMARK VINA RESULT:    -3.265      1.196      2.846
REMARK INTER + INTRA:          -3.940
REMARK INTER:                  -3.934
REMARK INTRA:                  -0.005
REMARK UNBOUND:                -0.007
REMARK SMILES OCC(O)CO
REMARK SMILES IDX 3 1 5 2 6 3 2 5 1 6 4 8
REMARK H PARENT 6 4 1 7 4 9
REMARK Flexibility Score: inf
ROOT
ATOM      1  C   UNL     1      48.867  -1.382  20.911  1.00  0.00     0.165 C 
ENDROOT
BRANCH   1   2
ATOM      2  C   UNL     1      49.716  -1.665  22.165  1.00  0.00     0.190 C 
BRANCH   2   3
ATOM      3  O   UNL     1      50.806  -0.785  22.260  1.00  0.00    -0.394 OA
ATOM      4  H   UNL     1      51.596  -1.264  21.896  1.00  0.00     0.210 HD
ENDBRANCH   2   3
ENDBRANCH   1   2
BRANCH   1   5
ATOM      5  C   UNL     1      48.745  -2.602  19.980  1.00  0.00     0.190 C 
BRANCH   5   6
ATOM      6  O   UNL     1      49.311  -2.338  18.727  1.00  0.00    -0.394 OA
ATOM      7  H   UNL     1      49.955  -1.595  18.866  1.00  0.00     0.210 HD
ENDBRANCH   5   6
ENDBRANCH   1   5
BRANCH   1   8
ATOM      8  O   UNL     1      49.336  -0.251  20.219  1.00  0.00    -0.388 OA
ATOM      9  H   UNL     1      50.012  -0.554  19.557  1.00  0.00     0.211 HD
ENDBRANCH   1   8
TORSDOF 5
ENDMDL
MODEL 4
REMARK VINA RESULT:    -3.261     22.344     22.587
REMARK INTER + INTRA:          -3.935
REMARK INTER:                  -3.930
REMARK INTRA:                  -0.005
REMARK UNBOUND:                -0.007
REMARK SMILES OCC(O)CO
REMARK SMILES IDX 3 1 5 2 6 3 2 5 1 6 4 8
REMARK H PARENT 6 4 1 7 4 9
REMARK Flexibility Score: inf
ROOT
ATOM      1  C   UNL     1      37.111 -15.319  32.715  1.00  0.00     0.165 C 
ENDROOT
BRANCH   1   2
ATOM      2  C   UNL     1      37.136 -14.075  33.623  1.00  0.00     0.190 C 
BRANCH   2   3
ATOM      3  O   UNL     1      36.546 -14.334  34.871  1.00  0.00    -0.394 OA
ATOM      4  H   UNL     1      35.732 -14.876  34.699  1.00  0.00     0.210 HD
ENDBRANCH   2   3
ENDBRANCH   1   2
BRANCH   1   5
ATOM      5  C   UNL     1      36.332 -15.093  31.407  1.00  0.00     0.190 C 
BRANCH   5   6
ATOM      6  O   UNL     1      35.279 -16.009  31.283  1.00  0.00    -0.394 OA
ATOM      7  H   UNL     1      34.792 -15.987  32.148  1.00  0.00     0.210 HD
ENDBRANCH   5   6
ENDBRANCH   1   5
BRANCH   1   8
ATOM      8  O   UNL     1      36.640 -16.449  33.406  1.00  0.00    -0.388 OA
ATOM      9  H   UNL     1      35.849 -16.800  32.919  1.00  0.00     0.211 HD
ENDBRANCH   1   8
TORSDOF 5
ENDMDL
MODEL 5
REMARK VINA RESULT:    -3.237     22.293     22.434
REMARK INTER + INTRA:          -3.906
REMARK INTER:                  -3.901
REMARK INTRA:                  -0.005
REMARK UNBOUND:                -0.007
REMARK SMILES OCC(O)CO
REMARK SMILES IDX 3 1 5 2 6 3 2 5 1 6 4 8
REMARK H PARENT 6 4 1 7 4 9
REMARK Flexibility Score: inf
ROOT
ATOM      1  C   UNL     1      37.341 -15.527  32.518  1.00  0.00     0.165 C 
ENDROOT
BRANCH   1   2
ATOM      2  C   UNL     1      36.527 -15.361  31.221  1.00  0.00     0.190 C 
BRANCH   2   3
ATOM      3  O   UNL     1      35.285 -16.011  31.304  1.00  0.00    -0.394 OA
ATOM      4  H   UNL     1      34.604 -15.311  31.480  1.00  0.00     0.210 HD
ENDBRANCH   2   3
ENDBRANCH   1   2
BRANCH   1   5
ATOM      5  C   UNL     1      38.687 -16.240  32.297  1.00  0.00     0.190 C 
BRANCH   5   6
ATOM      6  O   UNL     1      38.771 -17.406  33.069  1.00  0.00    -0.394 OA
ATOM      7  H   UNL     1      37.993 -17.386  33.685  1.00  0.00     0.210 HD
ENDBRANCH   5   6
ENDBRANCH   1   5
BRANCH   1   8
ATOM      8  O   UNL     1      36.583 -16.157  33.522  1.00  0.00    -0.388 OA
ATOM      9  H   UNL     1      35.737 -15.649  33.633  1.00  0.00     0.211 HD
ENDBRANCH   1   8
TORSDOF 5
ENDMDL
MODEL 6
REMARK VINA RESULT:    -3.212     22.264     22.541
REMARK INTER + INTRA:          -3.876
REMARK INTER:                  -3.870
REMARK INTRA:                  -0.006
REMARK UNBOUND:                -0.007
REMARK SMILES OCC(O)CO
REMARK SMILES IDX 3 1 5 2 6 3 2 5 1 6 4 8
REMARK H PARENT 6 4 1 7 4 9
REMARK Flexibility Score: inf
ROOT
ATOM      1  C   UNL     1      37.352 -15.415  32.772  1.00  0.00     0.165 C 
ENDROOT
BRANCH   1   2
ATOM      2  C   UNL     1      38.737 -16.042  32.523  1.00  0.00     0.190 C 
BRANCH   2   3
ATOM      3  O   UNL     1      38.815 -17.345  33.039  1.00  0.00    -0.394 OA
ATOM      4  H   UNL     1      39.700 -17.428  33.482  1.00  0.00     0.210 HD
ENDBRANCH   2   3
ENDBRANCH   1   2
BRANCH   1   5
ATOM      5  C   UNL     1      37.413 -14.152  33.650  1.00  0.00     0.190 C 
BRANCH   5   6
ATOM      6  O   UNL     1      36.639 -14.307  34.808  1.00  0.00    -0.394 OA
ATOM      7  H   UNL     1      36.259 -15.223  34.765  1.00  0.00     0.210 HD
ENDBRANCH   5   6
ENDBRANCH   1   5
BRANCH   1   8
ATOM      8  O   UNL     1      36.447 -16.360  33.289  1.00  0.00    -0.388 OA
ATOM      9  H   UNL     1      36.815 -17.265  33.114  1.00  0.00     0.211 HD
ENDBRANCH   1   8
TORSDOF 5
ENDMDL
MODEL 7
REMARK VINA RESULT:    -3.083     21.926     22.210
REMARK INTER + INTRA:          -3.721
REMARK INTER:                  -3.527
REMARK INTRA:                  -0.194
REMARK UNBOUND:                -0.007
REMARK SMILES OCC(O)CO
REMARK SMILES IDX 3 1 5 2 6 3 2 5 1 6 4 8
REMARK H PARENT 6 4 1 7 4 9
REMARK Flexibility Score: inf
ROOT
ATOM      1  C   UNL     1      36.291 -15.093  31.270  1.00  0.00     0.165 C 
ENDROOT
BRANCH   1   2
ATOM      2  C   UNL     1      37.338 -15.449  32.341  1.00  0.00     0.190 C 
BRANCH   2   3
ATOM      3  O   UNL     1      36.755 -16.108  33.435  1.00  0.00    -0.394 OA
ATOM      4  H   UNL     1      35.786 -15.893  33.419  1.00  0.00     0.210 HD
ENDBRANCH   2   3
ENDBRANCH   1   2
BRANCH   1   5
ATOM      5  C   UNL     1      35.762 -13.653  31.401  1.00  0.00     0.190 C 
BRANCH   5   6
ATOM      6  O   UNL     1      35.486 -13.338  32.738  1.00  0.00    -0.394 OA
ATOM      7  H   UNL     1      34.520 -13.112  32.774  1.00  0.00     0.210 HD
ENDBRANCH   5   6
ENDBRANCH   1   5
BRANCH   1   8
ATOM      8  O   UNL     1      35.240 -16.027  31.249  1.00  0.00    -0.388 OA
ATOM      9  H   UNL     1      35.030 -16.275  32.188  1.00  0.00     0.211 HD
ENDBRANCH   1   8
TORSDOF 5
ENDMDL
MODEL 8
REMARK VINA RESULT:    -3.049      1.388      3.058
REMARK INTER + INTRA:          -3.680
REMARK INTER:                  -3.464
REMARK INTRA:                  -0.216
REMARK UNBOUND:                -0.007
REMARK SMILES OCC(O)CO
REMARK SMILES IDX 3 1 5 2 6 3 2 5 1 6 4 8
REMARK H PARENT 6 4 1 7 4 9
REMARK Flexibility Score: inf
ROOT
ATOM      1  C   UNL     1      47.691  -0.494  22.512  1.00  0.00     0.165 C 
ENDROOT
BRANCH   1   2
ATOM      2  C   UNL     1      48.843  -1.403  22.044  1.00  0.00     0.190 C 
BRANCH   2   3
ATOM      3  O   UNL     1      49.700  -0.736  21.154  1.00  0.00    -0.394 OA
ATOM      4  H   UNL     1      50.502  -1.310  21.039  1.00  0.00     0.210 HD
ENDBRANCH   2   3
ENDBRANCH   1   2
BRANCH   1   5
ATOM      5  C   UNL     1      46.819   0.017  21.352  1.00  0.00     0.190 C 
BRANCH   5   6
ATOM      6  O   UNL     1      47.506   0.970  20.588  1.00  0.00    -0.394 OA
ATOM      7  H   UNL     1      47.306   1.850  21.000  1.00  0.00     0.210 HD
ENDBRANCH   5   6
ENDBRANCH   1   5
BRANCH   1   8
ATOM      8  O   UNL     1      48.165   0.565  23.307  1.00  0.00    -0.388 OA
ATOM      9  H   UNL     1      48.118   0.282  24.257  1.00  0.00     0.211 HD
ENDBRANCH   1   8
TORSDOF 5
ENDMDL
MODEL 9
REMARK VINA RESULT:    -3.038     21.885     22.137
REMARK INTER + INTRA:          -3.667
REMARK INTER:                  -3.483
REMARK INTRA:                  -0.184
REMARK UNBOUND:                -0.007
REMARK SMILES OCC(O)CO
REMARK SMILES IDX 3 1 5 2 6 3 2 5 1 6 4 8
REMARK H PARENT 6 4 1 7 4 9
REMARK Flexibility Score: inf
ROOT
ATOM      1  C   UNL     1      37.501 -14.088  33.786  1.00  0.00     0.165 C 
ENDROOT
BRANCH   1   2
ATOM      2  C   UNL     1      37.282 -15.157  32.698  1.00  0.00     0.190 C 
BRANCH   2   3
ATOM      3  O   UNL     1      36.791 -16.355  33.241  1.00  0.00    -0.394 OA
ATOM      4  H   UNL     1      35.908 -16.522  32.821  1.00  0.00     0.210 HD
ENDBRANCH   2   3
ENDBRANCH   1   2
BRANCH   1   5
ATOM      5  C   UNL     1      38.964 -13.998  34.255  1.00  0.00     0.190 C 
BRANCH   5   6
ATOM      6  O   UNL     1      39.559 -15.266  34.294  1.00  0.00    -0.394 OA
ATOM      7  H   UNL     1      40.538 -15.110  34.342  1.00  0.00     0.210 HD
ENDBRANCH   5   6
ENDBRANCH   1   5
BRANCH   1   8
ATOM      8  O   UNL     1      36.622 -14.273  34.869  1.00  0.00    -0.388 OA
ATOM      9  H   UNL     1      36.826 -13.580  35.551  1.00  0.00     0.211 HD
ENDBRANCH   1   8
TORSDOF 5
ENDMDL
