MODEL 1
REMARK VINA RESULT:    -3.376      0.000      0.000
REMARK INTER + INTRA:          -7.578
REMARK INTER:                  -6.139
REMARK INTRA:                  -1.438
REMARK UNBOUND:                -1.438
REMARK SMILES CCCCCCCCCCCCCC[C@H](C)C(=O)[O-]
REMARK SMILES IDX 9 1 10 2 11 3 12 4 13 5 14 6 15 7 16 8 17 9 18 10 19 11 8 12
REMARK SMILES IDX 7 13 6 14 5 15 4 16 3 17 2 18 1 19
REMARK H PARENT
REMARK Flexibility Score: inf
ROOT
ATOM      1  C   UNL     1      16.076  15.884   7.106  1.00  0.00     0.000 C 
ENDROOT
BRANCH   1   2
ATOM      2  C   UNL     1      16.015  16.767   8.361  1.00  0.00     0.000 C 
BRANCH   2   3
ATOM      3  C   UNL     1      16.925  16.259   9.489  1.00  0.00     0.000 C 
BRANCH   3   4
ATOM      4  C   UNL     1      16.467  16.806  10.846  1.00  0.00     0.000 C 
BRANCH   4   5
ATOM      5  C   UNL     1      16.413  18.338  10.837  1.00  0.00     0.001 C 
BRANCH   5   6
ATOM      6  C   UNL     1      14.956  18.832  10.916  1.00  0.00     0.009 C 
BRANCH   6   7
ATOM      7  C   UNL     1      14.815  20.339  11.219  1.00  0.00     0.032 C 
ATOM      8  C   UNL     1      16.105  20.944  11.794  1.00  0.00     0.014 C 
BRANCH   7   9
ATOM      9  C   UNL     1      13.611  20.619  12.083  1.00  0.00     0.044 C 
ATOM     10  O   UNL     1      13.170  21.792  12.226  1.00  0.00    -0.550 OA
ATOM     11  O   UNL     1      13.007  19.572  12.772  1.00  0.00    -0.550 OA
ENDBRANCH   7   9
ENDBRANCH   6   7
ENDBRANCH   5   6
ENDBRANCH   4   5
ENDBRANCH   3   4
ENDBRANCH   2   3
ENDBRANCH   1   2
BRANCH   1  12
ATOM     12  C   UNL     1      17.064  14.713   7.253  1.00  0.00     0.000 C 
BRANCH  12  13
ATOM     13  C   UNL     1      16.392  13.349   7.032  1.00  0.00    -0.000 C 
BRANCH  13  14
ATOM     14  C   UNL     1      14.860  13.458   6.935  1.00  0.00    -0.000 C 
BRANCH  14  15
ATOM     15  C   UNL     1      14.147  12.786   8.120  1.00  0.00    -0.000 C 
BRANCH  15  16
ATOM     16  C   UNL     1      14.326  13.562   9.434  1.00  0.00    -0.000 C 
BRANCH  16  17
ATOM     17  C   UNL     1      15.181  12.765  10.431  1.00  0.00    -0.000 C 
BRANCH  17  18
ATOM     18  C   UNL     1      14.330  11.902  11.377  1.00  0.00    -0.003 C 
ATOM     19  C   UNL     1      13.537  12.735  12.384  1.00  0.00     0.004 C 
ENDBRANCH  17  18
ENDBRANCH  16  17
ENDBRANCH  15  16
ENDBRANCH  14  15
ENDBRANCH  13  14
ENDBRANCH  12  13
ENDBRANCH   1  12
TORSDOF 14
ENDMDL
MODEL 2
REMARK VINA RESULT:    -3.226      3.343      6.911
REMARK INTER + INTRA:          -7.305
REMARK INTER:                  -6.045
REMARK INTRA:                  -1.260
REMARK UNBOUND:                -1.438
REMARK SMILES CCCCCCCCCCCCCC[C@H](C)C(=O)[O-]
REMARK SMILES IDX 9 1 10 2 11 3 12 4 13 5 14 6 15 7 16 8 17 9 18 10 19 11 8 12
REMARK SMILES IDX 7 13 6 14 5 15 4 16 3 17 2 18 1 19
REMARK H PARENT
REMARK Flexibility Score: inf
ROOT
ATOM      1  C   UNL     1      16.021  15.648   7.219  1.00  0.00     0.000 C 
ENDROOT
BRANCH   1   2
ATOM      2  C   UNL     1      15.929  14.215   7.765  1.00  0.00     0.000 C 
BRANCH   2   3
ATOM      3  C   UNL     1      14.862  13.374   7.049  1.00  0.00     0.000 C 
BRANCH   3   4
ATOM      4  C   UNL     1      13.901  12.738   8.060  1.00  0.00     0.000 C 
BRANCH   4   5
ATOM      5  C   UNL     1      14.274  13.119   9.496  1.00  0.00     0.001 C 
BRANCH   5   6
ATOM      6  C   UNL     1      13.965  11.963  10.465  1.00  0.00     0.009 C 
BRANCH   6   7
ATOM      7  C   UNL     1      14.745  12.027  11.796  1.00  0.00     0.032 C 
ATOM      8  C   UNL     1      14.871  13.462  12.331  1.00  0.00     0.014 C 
BRANCH   7   9
ATOM      9  C   UNL     1      16.079  11.332  11.689  1.00  0.00     0.044 C 
ATOM     10  O   UNL     1      16.390  10.395  12.474  1.00  0.00    -0.550 OA
ATOM     11  O   UNL     1      17.000  11.764  10.740  1.00  0.00    -0.550 OA
ENDBRANCH   7   9
ENDBRANCH   6   7
ENDBRANCH   5   6
ENDBRANCH   4   5
ENDBRANCH   3   4
ENDBRANCH   2   3
ENDBRANCH   1   2
BRANCH   1  12
ATOM     12  C   UNL     1      16.116  16.701   8.337  1.00  0.00     0.000 C 
BRANCH  12  13
ATOM     13  C   UNL     1      16.345  16.069   9.719  1.00  0.00    -0.000 C 
BRANCH  13  14
ATOM     14  C   UNL     1      16.203  17.088  10.862  1.00  0.00    -0.000 C 
BRANCH  14  15
ATOM     15  C   UNL     1      16.613  18.508  10.439  1.00  0.00    -0.000 C 
BRANCH  15  16
ATOM     16  C   UNL     1      16.376  19.546  11.548  1.00  0.00    -0.000 C 
BRANCH  16  17
ATOM     17  C   UNL     1      15.374  20.617  11.092  1.00  0.00    -0.000 C 
BRANCH  17  18
ATOM     18  C   UNL     1      14.221  20.809  12.092  1.00  0.00    -0.003 C 
ATOM     19  C   UNL     1      13.407  19.532  12.306  1.00  0.00     0.004 C 
ENDBRANCH  17  18
ENDBRANCH  16  17
ENDBRANCH  15  16
ENDBRANCH  14  15
ENDBRANCH  13  14
ENDBRANCH  12  13
ENDBRANCH   1  12
TORSDOF 14
ENDMDL
MODEL 3
REMARK VINA RESULT:    -3.115      2.474      6.519
REMARK INTER + INTRA:          -7.102
REMARK INTER:                  -5.784
REMARK INTRA:                  -1.318
REMARK UNBOUND:                -1.438
REMARK SMILES CCCCCCCCCCCCCC[C@H](C)C(=O)[O-]
REMARK SMILES IDX 9 1 10 2 11 3 12 4 13 5 14 6 15 7 16 8 17 9 18 10 19 11 8 12
REMARK SMILES IDX 7 13 6 14 5 15 4 16 3 17 2 18 1 19
REMARK H PARENT
REMARK Flexibility Score: inf
ROOT
ATOM      1  C   UNL     1      15.665  16.433   8.575  1.00  0.00     0.000 C 
ENDROOT
BRANCH   1   2
ATOM      2  C   UNL     1      16.309  15.611   7.449  1.00  0.00     0.000 C 
BRANCH   2   3
ATOM      3  C   UNL     1      15.755  14.181   7.367  1.00  0.00     0.000 C 
BRANCH   3   4
ATOM      4  C   UNL     1      15.421  13.645   8.764  1.00  0.00     0.000 C 
BRANCH   4   5
ATOM      5  C   UNL     1      14.110  12.852   8.756  1.00  0.00     0.001 C 
BRANCH   5   6
ATOM      6  C   UNL     1      13.945  12.058  10.064  1.00  0.00     0.009 C 
BRANCH   6   7
ATOM      7  C   UNL     1      14.995  12.395  11.145  1.00  0.00     0.032 C 
ATOM      8  C   UNL     1      15.837  11.173  11.543  1.00  0.00     0.014 C 
BRANCH   7   9
ATOM      9  C   UNL     1      14.363  13.072  12.336  1.00  0.00     0.044 C 
ATOM     10  O   UNL     1      14.881  14.102  12.850  1.00  0.00    -0.550 OA
ATOM     11  O   UNL     1      13.218  12.525  12.906  1.00  0.00    -0.550 OA
ENDBRANCH   7   9
ENDBRANCH   6   7
ENDBRANCH   5   6
ENDBRANCH   4   5
ENDBRANCH   3   4
ENDBRANCH   2   3
ENDBRANCH   1   2
BRANCH   1  12
ATOM     12  C   UNL     1      16.239  17.859   8.668  1.00  0.00     0.000 C 
BRANCH  12  13
ATOM     13  C   UNL     1      16.121  18.446  10.083  1.00  0.00    -0.000 C 
BRANCH  13  14
ATOM     14  C   UNL     1      16.143  17.360  11.173  1.00  0.00    -0.000 C 
BRANCH  14  15
ATOM     15  C   UNL     1      16.380  17.940  12.577  1.00  0.00    -0.000 C 
BRANCH  15  16
ATOM     16  C   UNL     1      15.562  19.215  12.834  1.00  0.00    -0.000 C 
BRANCH  16  17
ATOM     17  C   UNL     1      14.090  18.876  13.116  1.00  0.00    -0.000 C 
BRANCH  17  18
ATOM     18  C   UNL     1      13.127  19.954  12.592  1.00  0.00    -0.003 C 
ATOM     19  C   UNL     1      13.817  20.972  11.684  1.00  0.00     0.004 C 
ENDBRANCH  17  18
ENDBRANCH  16  17
ENDBRANCH  15  16
ENDBRANCH  14  15
ENDBRANCH  13  14
ENDBRANCH  12  13
ENDBRANCH   1  12
TORSDOF 14
ENDMDL
MODEL 4
REMARK VINA RESULT:    -2.950      3.104      6.542
REMARK INTER + INTRA:          -6.803
REMARK INTER:                  -4.788
REMARK INTRA:                  -2.015
REMARK UNBOUND:                -1.438
REMARK SMILES CCCCCCCCCCCCCC[C@H](C)C(=O)[O-]
REMARK SMILES IDX 9 1 10 2 11 3 12 4 13 5 14 6 15 7 16 8 17 9 18 10 19 11 8 12
REMARK SMILES IDX 7 13 6 14 5 15 4 16 3 17 2 18 1 19
REMARK H PARENT
REMARK Flexibility Score: inf
ROOT
ATOM      1  C   UNL     1      15.807  15.199   9.556  1.00  0.00     0.000 C 
ENDROOT
BRANCH   1   2
ATOM      2  C   UNL     1      17.060  15.034  10.428  1.00  0.00     0.000 C 
BRANCH   2   3
ATOM      3  C   UNL     1      16.943  15.754  11.779  1.00  0.00     0.000 C 
BRANCH   3   4
ATOM      4  C   UNL     1      16.122  14.920  12.771  1.00  0.00     0.000 C 
BRANCH   4   5
ATOM      5  C   UNL     1      16.727  13.524  12.956  1.00  0.00     0.001 C 
BRANCH   5   6
ATOM      6  C   UNL     1      15.618  12.469  13.125  1.00  0.00     0.009 C 
BRANCH   6   7
ATOM      7  C   UNL     1      15.323  11.651  11.849  1.00  0.00     0.032 C 
ATOM      8  C   UNL     1      16.533  11.584  10.904  1.00  0.00     0.014 C 
BRANCH   7   9
ATOM      9  C   UNL     1      14.076  12.141  11.155  1.00  0.00     0.044 C 
ATOM     10  O   UNL     1      13.142  12.688  11.804  1.00  0.00    -0.550 OA
ATOM     11  O   UNL     1      13.934  11.944   9.785  1.00  0.00    -0.550 OA
ENDBRANCH   7   9
ENDBRANCH   6   7
ENDBRANCH   5   6
ENDBRANCH   4   5
ENDBRANCH   3   4
ENDBRANCH   2   3
ENDBRANCH   1   2
BRANCH   1  12
ATOM     12  C   UNL     1      16.111  15.875   8.206  1.00  0.00     0.000 C 
BRANCH  12  13
ATOM     13  C   UNL     1      16.971  17.138   8.365  1.00  0.00    -0.000 C 
BRANCH  13  14
ATOM     14  C   UNL     1      16.186  18.311   8.976  1.00  0.00    -0.000 C 
BRANCH  14  15
ATOM     15  C   UNL     1      17.027  19.129   9.969  1.00  0.00    -0.000 C 
BRANCH  15  16
ATOM     16  C   UNL     1      16.262  19.454  11.262  1.00  0.00    -0.000 C 
BRANCH  16  17
ATOM     17  C   UNL     1      14.794  19.012  11.159  1.00  0.00    -0.000 C 
BRANCH  17  18
ATOM     18  C   UNL     1      13.849  19.913  11.969  1.00  0.00    -0.003 C 
ATOM     19  C   UNL     1      14.196  21.397  11.843  1.00  0.00     0.004 C 
ENDBRANCH  17  18
ENDBRANCH  16  17
ENDBRANCH  15  16
ENDBRANCH  14  15
ENDBRANCH  13  14
ENDBRANCH  12  13
ENDBRANCH   1  12
TORSDOF 14
ENDMDL
MODEL 5
REMARK VINA RESULT:    -2.853      1.565      2.955
REMARK INTER + INTRA:          -6.627
REMARK INTER:                  -5.144
REMARK INTRA:                  -1.483
REMARK UNBOUND:                -1.438
REMARK SMILES CCCCCCCCCCCCCC[C@H](C)C(=O)[O-]
REMARK SMILES IDX 9 1 10 2 11 3 12 4 13 5 14 6 15 7 16 8 17 9 18 10 19 11 8 12
REMARK SMILES IDX 7 13 6 14 5 15 4 16 3 17 2 18 1 19
REMARK H PARENT
REMARK Flexibility Score: inf
ROOT
ATOM      1  C   UNL     1      15.857  15.480   9.742  1.00  0.00     0.000 C 
ENDROOT
BRANCH   1   2
ATOM      2  C   UNL     1      16.151  16.004   8.329  1.00  0.00     0.000 C 
BRANCH   2   3
ATOM      3  C   UNL     1      17.096  17.213   8.328  1.00  0.00     0.000 C 
BRANCH   3   4
ATOM      4  C   UNL     1      17.077  17.921   9.687  1.00  0.00     0.000 C 
BRANCH   4   5
ATOM      5  C   UNL     1      16.542  19.352   9.561  1.00  0.00     0.001 C 
BRANCH   5   6
ATOM      6  C   UNL     1      16.316  19.974  10.951  1.00  0.00     0.009 C 
BRANCH   6   7
ATOM      7  C   UNL     1      14.830  20.151  11.331  1.00  0.00     0.032 C 
ATOM      8  C   UNL     1      14.494  21.600  11.717  1.00  0.00     0.014 C 
BRANCH   7   9
ATOM      9  C   UNL     1      14.408  19.160  12.386  1.00  0.00     0.044 C 
ATOM     10  O   UNL     1      15.129  18.164  12.670  1.00  0.00    -0.550 OA
ATOM     11  O   UNL     1      13.181  19.321  13.022  1.00  0.00    -0.550 OA
ENDBRANCH   7   9
ENDBRANCH   6   7
ENDBRANCH   5   6
ENDBRANCH   4   5
ENDBRANCH   3   4
ENDBRANCH   2   3
ENDBRANCH   1   2
BRANCH   1  12
ATOM     12  C   UNL     1      17.053  14.730  10.355  1.00  0.00     0.000 C 
BRANCH  12  13
ATOM     13  C   UNL     1      17.094  14.847  11.887  1.00  0.00    -0.000 C 
BRANCH  13  14
ATOM     14  C   UNL     1      15.770  14.423  12.544  1.00  0.00    -0.000 C 
BRANCH  14  15
ATOM     15  C   UNL     1      15.727  12.921  12.867  1.00  0.00    -0.000 C 
BRANCH  15  16
ATOM     16  C   UNL     1      14.341  12.304  12.621  1.00  0.00    -0.000 C 
BRANCH  16  17
ATOM     17  C   UNL     1      13.736  12.818  11.305  1.00  0.00    -0.000 C 
BRANCH  17  18
ATOM     18  C   UNL     1      14.145  11.962  10.095  1.00  0.00    -0.003 C 
ATOM     19  C   UNL     1      13.946  12.688   8.764  1.00  0.00     0.004 C 
ENDBRANCH  17  18
ENDBRANCH  16  17
ENDBRANCH  15  16
ENDBRANCH  14  15
ENDBRANCH  13  14
ENDBRANCH  12  13
ENDBRANCH   1  12
TORSDOF 14
ENDMDL
MODEL 6
REMARK VINA RESULT:    -2.751      3.078      7.010
REMARK INTER + INTRA:          -6.441
REMARK INTER:                  -5.148
REMARK INTRA:                  -1.293
REMARK UNBOUND:                -1.438
REMARK SMILES CCCCCCCCCCCCCC[C@H](C)C(=O)[O-]
REMARK SMILES IDX 9 1 10 2 11 3 12 4 13 5 14 6 15 7 16 8 17 9 18 10 19 11 8 12
REMARK SMILES IDX 7 13 6 14 5 15 4 16 3 17 2 18 1 19
REMARK H PARENT
REMARK Flexibility Score: inf
ROOT
ATOM      1  C   UNL     1      15.636  17.628   9.468  1.00  0.00     0.000 C 
ENDROOT
BRANCH   1   2
ATOM      2  C   UNL     1      15.651  16.879   8.127  1.00  0.00     0.000 C 
BRANCH   2   3
ATOM      3  C   UNL     1      16.588  15.664   8.135  1.00  0.00     0.000 C 
BRANCH   3   4
ATOM      4  C   UNL     1      17.099  15.379   9.553  1.00  0.00     0.000 C 
BRANCH   4   5
ATOM      5  C   UNL     1      16.768  13.946   9.984  1.00  0.00     0.001 C 
BRANCH   5   6
ATOM      6  C   UNL     1      16.214  13.923  11.421  1.00  0.00     0.009 C 
BRANCH   6   7
ATOM      7  C   UNL     1      15.477  12.619  11.794  1.00  0.00     0.032 C 
ATOM      8  C   UNL     1      16.223  11.366  11.310  1.00  0.00     0.014 C 
BRANCH   7   9
ATOM      9  C   UNL     1      14.040  12.647  11.338  1.00  0.00     0.044 C 
ATOM     10  O   UNL     1      13.746  12.630  10.111  1.00  0.00    -0.550 OA
ATOM     11  O   UNL     1      13.024  12.743  12.284  1.00  0.00    -0.550 OA
ENDBRANCH   7   9
ENDBRANCH   6   7
ENDBRANCH   5   6
ENDBRANCH   4   5
ENDBRANCH   3   4
ENDBRANCH   2   3
ENDBRANCH   1   2
BRANCH   1  12
ATOM     12  C   UNL     1      16.420  18.951   9.415  1.00  0.00     0.000 C 
BRANCH  12  13
ATOM     13  C   UNL     1      17.122  19.269  10.745  1.00  0.00    -0.000 C 
BRANCH  13  14
ATOM     14  C   UNL     1      17.028  20.759  11.117  1.00  0.00    -0.000 C 
BRANCH  14  15
ATOM     15  C   UNL     1      16.881  20.979  12.631  1.00  0.00    -0.000 C 
BRANCH  15  16
ATOM     16  C   UNL     1      15.434  21.293  13.044  1.00  0.00    -0.000 C 
BRANCH  16  17
ATOM     17  C   UNL     1      14.566  21.597  11.814  1.00  0.00    -0.000 C 
BRANCH  17  18
ATOM     18  C   UNL     1      13.397  20.611  11.659  1.00  0.00    -0.003 C 
ATOM     19  C   UNL     1      13.416  19.503  12.713  1.00  0.00     0.004 C 
ENDBRANCH  17  18
ENDBRANCH  16  17
ENDBRANCH  15  16
ENDBRANCH  14  15
ENDBRANCH  13  14
ENDBRANCH  12  13
ENDBRANCH   1  12
TORSDOF 14
ENDMDL
MODEL 7
REMARK VINA RESULT:    -2.745      1.577      2.670
REMARK INTER + INTRA:          -6.430
REMARK INTER:                  -4.611
REMARK INTRA:                  -1.819
REMARK UNBOUND:                -1.438
REMARK SMILES CCCCCCCCCCCCCC[C@H](C)C(=O)[O-]
REMARK SMILES IDX 9 1 10 2 11 3 12 4 13 5 14 6 15 7 16 8 17 9 18 10 19 11 8 12
REMARK SMILES IDX 7 13 6 14 5 15 4 16 3 17 2 18 1 19
REMARK H PARENT
REMARK Flexibility Score: inf
ROOT
ATOM      1  C   UNL     1      15.607  14.513   8.267  1.00  0.00     0.000 C 
ENDROOT
BRANCH   1   2
ATOM      2  C   UNL     1      16.068  15.818   7.602  1.00  0.00     0.000 C 
BRANCH   2   3
ATOM      3  C   UNL     1      15.644  17.067   8.387  1.00  0.00     0.000 C 
BRANCH   3   4
ATOM      4  C   UNL     1      16.779  18.098   8.426  1.00  0.00     0.000 C 
BRANCH   4   5
ATOM      5  C   UNL     1      16.724  18.936   9.707  1.00  0.00     0.001 C 
BRANCH   5   6
ATOM      6  C   UNL     1      15.430  18.650  10.491  1.00  0.00     0.009 C 
BRANCH   6   7
ATOM      7  C   UNL     1      15.361  19.338  11.871  1.00  0.00     0.032 C 
ATOM      8  C   UNL     1      14.976  18.362  12.993  1.00  0.00     0.014 C 
BRANCH   7   9
ATOM      9  C   UNL     1      14.473  20.557  11.837  1.00  0.00     0.044 C 
ATOM     10  O   UNL     1      13.231  20.452  11.639  1.00  0.00    -0.550 OA
ATOM     11  O   UNL     1      15.039  21.820  11.978  1.00  0.00    -0.550 OA
ENDBRANCH   7   9
ENDBRANCH   6   7
ENDBRANCH   5   6
ENDBRANCH   4   5
ENDBRANCH   3   4
ENDBRANCH   2   3
ENDBRANCH   1   2
BRANCH   1  12
ATOM     12  C   UNL     1      16.702  13.874   9.140  1.00  0.00     0.000 C 
BRANCH  12  13
ATOM     13  C   UNL     1      17.125  14.783  10.305  1.00  0.00    -0.000 C 
BRANCH  13  14
ATOM     14  C   UNL     1      15.969  15.063  11.280  1.00  0.00    -0.000 C 
BRANCH  14  15
ATOM     15  C   UNL     1      16.195  14.426  12.661  1.00  0.00    -0.000 C 
BRANCH  15  16
ATOM     16  C   UNL     1      15.147  13.352  12.994  1.00  0.00    -0.000 C 
BRANCH  16  17
ATOM     17  C   UNL     1      14.261  13.053  11.776  1.00  0.00    -0.000 C 
BRANCH  17  18
ATOM     18  C   UNL     1      14.445  11.620  11.251  1.00  0.00    -0.003 C 
ATOM     19  C   UNL     1      15.898  11.148  11.321  1.00  0.00     0.004 C 
ENDBRANCH  17  18
ENDBRANCH  16  17
ENDBRANCH  15  16
ENDBRANCH  14  15
ENDBRANCH  13  14
ENDBRANCH  12  13
ENDBRANCH   1  12
TORSDOF 14
ENDMDL
MODEL 8
REMARK VINA RESULT:    -2.677      3.035      6.361
REMARK INTER + INTRA:          -6.306
REMARK INTER:                  -4.849
REMARK INTRA:                  -1.456
REMARK UNBOUND:                -1.438
REMARK SMILES CCCCCCCCCCCCCC[C@H](C)C(=O)[O-]
REMARK SMILES IDX 9 1 10 2 11 3 12 4 13 5 14 6 15 7 16 8 17 9 18 10 19 11 8 12
REMARK SMILES IDX 7 13 6 14 5 15 4 16 3 17 2 18 1 19
REMARK H PARENT
REMARK Flexibility Score: inf
ROOT
ATOM      1  C   UNL     1      15.714  16.810   7.660  1.00  0.00     0.000 C 
ENDROOT
BRANCH   1   2
ATOM      2  C   UNL     1      15.962  15.322   7.375  1.00  0.00     0.000 C 
BRANCH   2   3
ATOM      3  C   UNL     1      17.085  14.730   8.239  1.00  0.00     0.000 C 
BRANCH   3   4
ATOM      4  C   UNL     1      16.916  13.213   8.387  1.00  0.00     0.000 C 
BRANCH   4   5
ATOM      5  C   UNL     1      16.956  12.792   9.860  1.00  0.00     0.001 C 
BRANCH   5   6
ATOM      6  C   UNL     1      17.118  14.021  10.774  1.00  0.00     0.009 C 
BRANCH   6   7
ATOM      7  C   UNL     1      15.853  14.377  11.585  1.00  0.00     0.032 C 
ATOM      8  C   UNL     1      16.119  15.465  12.636  1.00  0.00     0.014 C 
BRANCH   7   9
ATOM      9  C   UNL     1      15.213  13.146  12.178  1.00  0.00     0.044 C 
ATOM     10  O   UNL     1      15.875  12.350  12.899  1.00  0.00    -0.550 OA
ATOM     11  O   UNL     1      13.883  12.860  11.886  1.00  0.00    -0.550 OA
ENDBRANCH   7   9
ENDBRANCH   6   7
ENDBRANCH   5   6
ENDBRANCH   4   5
ENDBRANCH   3   4
ENDBRANCH   2   3
ENDBRANCH   1   2
BRANCH   1  12
ATOM     12  C   UNL     1      16.250  17.246   9.035  1.00  0.00     0.000 C 
BRANCH  12  13
ATOM     13  C   UNL     1      16.748  18.700   9.036  1.00  0.00    -0.000 C 
BRANCH  13  14
ATOM     14  C   UNL     1      16.119  19.536  10.163  1.00  0.00    -0.000 C 
BRANCH  14  15
ATOM     15  C   UNL     1      15.263  18.688  11.117  1.00  0.00    -0.000 C 
BRANCH  15  16
ATOM     16  C   UNL     1      14.873  19.449  12.395  1.00  0.00    -0.000 C 
BRANCH  16  17
ATOM     17  C   UNL     1      13.351  19.637  12.479  1.00  0.00    -0.000 C 
BRANCH  17  18
ATOM     18  C   UNL     1      12.956  21.051  12.937  1.00  0.00    -0.003 C 
ATOM     19  C   UNL     1      13.311  22.125  11.908  1.00  0.00     0.004 C 
ENDBRANCH  17  18
ENDBRANCH  16  17
ENDBRANCH  15  16
ENDBRANCH  14  15
ENDBRANCH  13  14
ENDBRANCH  12  13
ENDBRANCH   1  12
TORSDOF 14
ENDMDL
MODEL 9
REMARK VINA RESULT:    -2.675      1.530      2.250
REMARK INTER + INTRA:          -6.304
REMARK INTER:                  -5.412
REMARK INTRA:                  -0.892
REMARK UNBOUND:                -1.438
REMARK SMILES CCCCCCCCCCCCCC[C@H](C)C(=O)[O-]
REMARK SMILES IDX 9 1 10 2 11 3 12 4 13 5 14 6 15 7 16 8 17 9 18 10 19 11 8 12
REMARK SMILES IDX 7 13 6 14 5 15 4 16 3 17 2 18 1 19
REMARK H PARENT
REMARK Flexibility Score: inf
ROOT
ATOM      1  C   UNL     1      16.483  14.753   8.575  1.00  0.00     0.000 C 
ENDROOT
BRANCH   1   2
ATOM      2  C   UNL     1      15.663  15.805   9.335  1.00  0.00     0.000 C 
BRANCH   2   3
ATOM      3  C   UNL     1      15.627  17.162   8.617  1.00  0.00     0.000 C 
BRANCH   3   4
ATOM      4  C   UNL     1      16.709  18.099   9.167  1.00  0.00     0.000 C 
BRANCH   4   5
ATOM      5  C   UNL     1      16.468  18.416  10.647  1.00  0.00     0.001 C 
BRANCH   5   6
ATOM      6  C   UNL     1      16.302  19.932  10.860  1.00  0.00     0.009 C 
BRANCH   6   7
ATOM      7  C   UNL     1      14.874  20.362  11.259  1.00  0.00     0.032 C 
ATOM      8  C   UNL     1      14.808  21.831  11.705  1.00  0.00     0.014 C 
BRANCH   7   9
ATOM      9  C   UNL     1      14.278  19.423  12.278  1.00  0.00     0.044 C 
ATOM     10  O   UNL     1      13.028  19.306  12.404  1.00  0.00    -0.550 OA
ATOM     11  O   UNL     1      15.121  18.709  13.124  1.00  0.00    -0.550 OA
ENDBRANCH   7   9
ENDBRANCH   6   7
ENDBRANCH   5   6
ENDBRANCH   4   5
ENDBRANCH   3   4
ENDBRANCH   2   3
ENDBRANCH   1   2
BRANCH   1  12
ATOM     12  C   UNL     1      15.597  13.732   7.838  1.00  0.00     0.000 C 
BRANCH  12  13
ATOM     13  C   UNL     1      14.392  13.286   8.682  1.00  0.00    -0.000 C 
BRANCH  13  14
ATOM     14  C   UNL     1      14.814  12.548   9.964  1.00  0.00    -0.000 C 
BRANCH  14  15
ATOM     15  C   UNL     1      13.677  12.462  10.995  1.00  0.00    -0.000 C 
BRANCH  15  16
ATOM     16  C   UNL     1      14.162  12.720  12.431  1.00  0.00    -0.000 C 
BRANCH  16  17
ATOM     17  C   UNL     1      15.665  12.430  12.564  1.00  0.00    -0.000 C 
BRANCH  17  18
ATOM     18  C   UNL     1      16.449  13.631  13.118  1.00  0.00    -0.003 C 
ATOM     19  C   UNL     1      15.687  14.949  12.980  1.00  0.00     0.004 C 
ENDBRANCH  17  18
ENDBRANCH  16  17
ENDBRANCH  15  16
ENDBRANCH  14  15
ENDBRANCH  13  14
ENDBRANCH  12  13
ENDBRANCH   1  12
TORSDOF 14
ENDMDL
