MODEL 1
REMARK VINA RESULT:    -5.342      0.000      0.000
REMARK INTER + INTRA:          -8.575
REMARK INTER:                  -8.152
REMARK INTRA:                  -0.423
REMARK UNBOUND:                -0.423
REMARK SMILES CC1=CCC[C@@H](C)C(=O)C[C@@H](C(C)C)C(=O)C1
REMARK SMILES IDX 8 1 9 2 6 3 7 4 5 5 4 6 3 7 2 8 1 9 10 11 11 12 15 13 16 14
REMARK SMILES IDX 17 15 12 17 13 18 14 19
REMARK H PARENT
REMARK Flexibility Score: 70.00
ROOT
ATOM      1  C   UNL     1      27.045  15.703  81.017  1.00  0.00     0.136 C 
ATOM      2  O   UNL     1      27.532  16.630  81.648  1.00  0.00    -0.299 OA
ENDROOT
BRANCH   1   3
ATOM      3  C   UNL     1      26.070  14.785  81.738  1.00  0.00     0.053 C 
ATOM      4  C   UNL     1      24.643  15.349  81.836  1.00  0.00     0.016 C 
BRANCH   3   5
ATOM      5  C   UNL     1      26.628  14.293  83.093  1.00  0.00     0.015 C 
BRANCH   5   6
ATOM      6  C   UNL     1      27.529  13.046  82.991  1.00  0.00     0.028 C 
BRANCH   6   7
ATOM      7  C   UNL     1      28.998  13.390  82.954  1.00  0.00    -0.028 C 
ATOM      8  C   UNL     1      29.810  13.234  81.880  1.00  0.00    -0.070 CG0
ATOM      9  C   UNL     1      31.236  13.711  82.006  1.00  0.00     0.039 C 
ATOM     10  G   UNL     1      29.368  12.577  80.578  1.00  0.00     0.000 G0
ENDBRANCH   6   7
ENDBRANCH   5   6
ENDBRANCH   3   5
ENDBRANCH   1   3
BRANCH   1  11
ATOM     11  C   UNL     1      27.466  15.520  79.571  1.00  0.00     0.087 C 
BRANCH  11  12
ATOM     12  C   UNL     1      27.663  14.028  79.191  1.00  0.00     0.066 C 
BRANCH  12  13
ATOM     13  C   UNL     1      29.089  13.574  79.471  1.00  0.00     0.140 C 
ATOM     14  O   UNL     1      30.014  13.980  78.781  1.00  0.00    -0.299 OA
BRANCH  13  15
ATOM     15  C   UNL     1      29.365  12.581  80.573  1.00  0.00     0.106 CG0
ATOM     16  G   UNL     1      29.815  13.227  81.878  1.00  0.00     0.000 G0
ENDBRANCH  13  15
ENDBRANCH  12  13
BRANCH  12  17
ATOM     17  C   UNL     1      27.225  13.694  77.727  1.00  0.00    -0.006 C 
ATOM     18  C   UNL     1      27.121  12.177  77.502  1.00  0.00     0.008 C 
ATOM     19  C   UNL     1      25.910  14.376  77.300  1.00  0.00     0.008 C 
ENDBRANCH  12  17
ENDBRANCH  11  12
ENDBRANCH   1  11
TORSDOF 1
ENDMDL
MODEL 2
REMARK VINA RESULT:    -5.191      2.118      4.161
REMARK INTER + INTRA:          -8.346
REMARK INTER:                  -8.443
REMARK INTRA:                   0.098
REMARK UNBOUND:                -0.423
REMARK SMILES CC1=CCC[C@@H](C)C(=O)C[C@@H](C(C)C)C(=O)C1
REMARK SMILES IDX 8 1 9 2 6 3 7 4 5 5 4 6 3 7 2 8 1 9 10 11 11 12 15 13 16 14
REMARK SMILES IDX 17 15 12 17 13 18 14 19
REMARK H PARENT
REMARK Flexibility Score: 70.00
ROOT
ATOM      1  C   UNL     1      28.043  11.769  82.065  1.00  0.00     0.136 C 
ATOM      2  O   UNL     1      27.124  10.961  82.051  1.00  0.00    -0.299 OA
ENDROOT
BRANCH   1   3
ATOM      3  C   UNL     1      28.385  12.434  83.389  1.00  0.00     0.053 C 
ATOM      4  C   UNL     1      28.415  11.464  84.582  1.00  0.00     0.016 C 
BRANCH   3   5
ATOM      5  C   UNL     1      27.528  13.694  83.646  1.00  0.00     0.015 C 
BRANCH   5   6
ATOM      6  C   UNL     1      26.274  13.799  82.756  1.00  0.00     0.028 C 
BRANCH   6   7
ATOM      7  C   UNL     1      26.138  15.149  82.095  1.00  0.00    -0.028 C 
ATOM      8  C   UNL     1      26.277  15.387  80.768  1.00  0.00    -0.070 CG0
ATOM      9  C   UNL     1      26.024  16.792  80.279  1.00  0.00     0.039 C 
ATOM     10  G   UNL     1      26.706  14.325  79.762  1.00  0.00     0.000 G0
ENDBRANCH   6   7
ENDBRANCH   5   6
ENDBRANCH   3   5
ENDBRANCH   1   3
BRANCH   1  11
ATOM     11  C   UNL     1      28.755  12.067  80.759  1.00  0.00     0.087 C 
BRANCH  11  12
ATOM     12  C   UNL     1      29.070  13.577  80.584  1.00  0.00     0.066 C 
BRANCH  12  13
ATOM     13  C   UNL     1      28.184  14.202  79.517  1.00  0.00     0.140 C 
ATOM     14  O   UNL     1      28.674  14.651  78.490  1.00  0.00    -0.299 OA
BRANCH  13  15
ATOM     15  C   UNL     1      26.695  14.316  79.740  1.00  0.00     0.106 CG0
ATOM     16  G   UNL     1      26.312  15.374  80.767  1.00  0.00     0.000 G0
ENDBRANCH  13  15
ENDBRANCH  12  13
BRANCH  12  17
ATOM     17  C   UNL     1      30.585  13.871  80.325  1.00  0.00    -0.006 C 
ATOM     18  C   UNL     1      31.362  14.022  81.643  1.00  0.00     0.008 C 
ATOM     19  C   UNL     1      31.278  12.827  79.429  1.00  0.00     0.008 C 
ENDBRANCH  12  17
ENDBRANCH  11  12
ENDBRANCH   1  11
TORSDOF 1
ENDMDL
MODEL 3
REMARK VINA RESULT:    -5.160      2.079      4.984
REMARK INTER + INTRA:          -8.298
REMARK INTER:                  -8.066
REMARK INTRA:                  -0.232
REMARK UNBOUND:                -0.423
REMARK SMILES CC1=CCC[C@@H](C)C(=O)C[C@@H](C(C)C)C(=O)C1
REMARK SMILES IDX 8 1 9 2 6 3 7 4 5 5 4 6 3 7 2 8 1 9 10 11 11 12 15 13 16 14
REMARK SMILES IDX 17 15 12 17 13 18 14 19
REMARK H PARENT
REMARK Flexibility Score: 70.00
ROOT
ATOM      1  C   UNL     1      29.794  13.675  80.727  1.00  0.00     0.136 C 
ATOM      2  O   UNL     1      30.861  14.239  80.534  1.00  0.00    -0.299 OA
ENDROOT
BRANCH   1   3
ATOM      3  C   UNL     1      29.085  13.062  79.529  1.00  0.00     0.053 C 
ATOM      4  C   UNL     1      29.990  12.167  78.664  1.00  0.00     0.016 C 
BRANCH   3   5
ATOM      5  C   UNL     1      28.306  14.116  78.711  1.00  0.00     0.015 C 
BRANCH   5   6
ATOM      6  C   UNL     1      26.825  14.262  79.114  1.00  0.00     0.028 C 
BRANCH   6   7
ATOM      7  C   UNL     1      26.526  15.589  79.767  1.00  0.00    -0.028 C 
ATOM      8  C   UNL     1      26.070  15.751  81.034  1.00  0.00    -0.070 CG0
ATOM      9  C   UNL     1      25.906  17.161  81.543  1.00  0.00     0.039 C 
ATOM     10  G   UNL     1      25.688  14.591  81.946  1.00  0.00     0.000 G0
ENDBRANCH   6   7
ENDBRANCH   5   6
ENDBRANCH   3   5
ENDBRANCH   1   3
BRANCH   1  11
ATOM     11  C   UNL     1      29.241  13.649  82.140  1.00  0.00     0.087 C 
BRANCH  11  12
ATOM     12  C   UNL     1      27.801  13.072  82.207  1.00  0.00     0.066 C 
BRANCH  12  13
ATOM     13  C   UNL     1      26.830  14.086  82.792  1.00  0.00     0.140 C 
ATOM     14  O   UNL     1      26.952  14.463  83.949  1.00  0.00    -0.299 OA
BRANCH  13  15
ATOM     15  C   UNL     1      25.679  14.599  81.962  1.00  0.00     0.106 CG0
ATOM     16  G   UNL     1      26.055  15.757  81.045  1.00  0.00     0.000 G0
ENDBRANCH  13  15
ENDBRANCH  12  13
BRANCH  12  17
ATOM     17  C   UNL     1      27.716  11.695  82.944  1.00  0.00    -0.006 C 
ATOM     18  C   UNL     1      28.162  10.540  82.032  1.00  0.00     0.008 C 
ATOM     19  C   UNL     1      28.504  11.647  84.267  1.00  0.00     0.008 C 
ENDBRANCH  12  17
ENDBRANCH  11  12
ENDBRANCH   1  11
TORSDOF 1
ENDMDL
MODEL 4
REMARK VINA RESULT:    -5.095      1.710      3.852
REMARK INTER + INTRA:          -8.199
REMARK INTER:                  -8.367
REMARK INTRA:                   0.168
REMARK UNBOUND:                -0.423
REMARK SMILES CC1=CCC[C@@H](C)C(=O)C[C@@H](C(C)C)C(=O)C1
REMARK SMILES IDX 8 1 9 2 6 3 7 4 5 5 4 6 3 7 2 8 1 9 10 11 11 12 15 13 16 14
REMARK SMILES IDX 17 15 12 17 13 18 14 19
REMARK H PARENT
REMARK Flexibility Score: 70.00
ROOT
ATOM      1  C   UNL     1      26.268  14.628  82.399  1.00  0.00     0.136 C 
ATOM      2  O   UNL     1      26.294  14.945  83.579  1.00  0.00    -0.299 OA
ENDROOT
BRANCH   1   3
ATOM      3  C   UNL     1      25.522  15.536  81.433  1.00  0.00     0.053 C 
ATOM      4  C   UNL     1      24.089  15.873  81.880  1.00  0.00     0.016 C 
BRANCH   3   5
ATOM      5  C   UNL     1      25.605  15.030  79.975  1.00  0.00     0.015 C 
BRANCH   5   6
ATOM      6  C   UNL     1      26.706  15.703  79.134  1.00  0.00     0.028 C 
BRANCH   6   7
ATOM      7  C   UNL     1      27.714  14.717  78.595  1.00  0.00    -0.028 C 
ATOM      8  C   UNL     1      28.780  14.235  79.281  1.00  0.00    -0.070 CG0
ATOM      9  C   UNL     1      29.633  13.191  78.605  1.00  0.00     0.039 C 
ATOM     10  G   UNL     1      29.174  14.718  80.672  1.00  0.00     0.000 G0
ENDBRANCH   6   7
ENDBRANCH   5   6
ENDBRANCH   3   5
ENDBRANCH   1   3
BRANCH   1  11
ATOM     11  C   UNL     1      26.957  13.340  81.987  1.00  0.00     0.087 C 
BRANCH  11  12
ATOM     12  C   UNL     1      28.362  13.185  82.630  1.00  0.00     0.066 C 
BRANCH  12  13
ATOM     13  C   UNL     1      29.456  13.639  81.675  1.00  0.00     0.140 C 
ATOM     14  O   UNL     1      30.574  13.148  81.737  1.00  0.00    -0.299 OA
BRANCH  13  15
ATOM     15  C   UNL     1      29.181  14.734  80.674  1.00  0.00     0.106 CG0
ATOM     16  G   UNL     1      28.777  14.216  79.298  1.00  0.00     0.000 G0
ENDBRANCH  13  15
ENDBRANCH  12  13
BRANCH  12  17
ATOM     17  C   UNL     1      28.636  11.749  83.186  1.00  0.00    -0.006 C 
ATOM     18  C   UNL     1      28.224  11.629  84.663  1.00  0.00     0.008 C 
ATOM     19  C   UNL     1      27.970  10.626  82.367  1.00  0.00     0.008 C 
ENDBRANCH  12  17
ENDBRANCH  11  12
ENDBRANCH   1  11
TORSDOF 1
ENDMDL
MODEL 5
REMARK VINA RESULT:    -5.080      1.931      3.959
REMARK INTER + INTRA:          -8.175
REMARK INTER:                  -8.093
REMARK INTRA:                  -0.082
REMARK UNBOUND:                -0.423
REMARK SMILES CC1=CCC[C@@H](C)C(=O)C[C@@H](C(C)C)C(=O)C1
REMARK SMILES IDX 8 1 9 2 6 3 7 4 5 5 4 6 3 7 2 8 1 9 10 11 11 12 15 13 16 14
REMARK SMILES IDX 17 15 12 17 13 18 14 19
REMARK H PARENT
REMARK Flexibility Score: 70.00
ROOT
ATOM      1  C   UNL     1      25.828  14.742  81.788  1.00  0.00     0.136 C 
ATOM      2  O   UNL     1      24.853  15.166  82.393  1.00  0.00    -0.299 OA
ENDROOT
BRANCH   1   3
ATOM      3  C   UNL     1      26.549  15.692  80.844  1.00  0.00     0.053 C 
ATOM      4  C   UNL     1      26.918  17.041  81.484  1.00  0.00     0.016 C 
BRANCH   3   5
ATOM      5  C   UNL     1      25.814  15.838  79.492  1.00  0.00     0.015 C 
BRANCH   5   6
ATOM      6  C   UNL     1      26.333  14.897  78.386  1.00  0.00     0.028 C 
BRANCH   6   7
ATOM      7  C   UNL     1      27.826  14.687  78.452  1.00  0.00    -0.028 C 
ATOM      8  C   UNL     1      28.439  13.496  78.663  1.00  0.00    -0.070 CG0
ATOM      9  C   UNL     1      29.946  13.467  78.615  1.00  0.00     0.039 C 
ATOM     10  G   UNL     1      27.688  12.207  78.978  1.00  0.00     0.000 G0
ENDBRANCH   6   7
ENDBRANCH   5   6
ENDBRANCH   3   5
ENDBRANCH   1   3
BRANCH   1  11
ATOM     11  C   UNL     1      26.231  13.295  82.002  1.00  0.00     0.087 C 
BRANCH  11  12
ATOM     12  C   UNL     1      27.668  12.996  81.496  1.00  0.00     0.066 C 
BRANCH  12  13
ATOM     13  C   UNL     1      27.664  11.878  80.464  1.00  0.00     0.140 C 
ATOM     14  O   UNL     1      27.683  10.707  80.820  1.00  0.00    -0.299 OA
BRANCH  13  15
ATOM     15  C   UNL     1      27.687  12.206  78.992  1.00  0.00     0.106 CG0
ATOM     16  G   UNL     1      28.433  13.494  78.665  1.00  0.00     0.000 G0
ENDBRANCH  13  15
ENDBRANCH  12  13
BRANCH  12  17
ATOM     17  C   UNL     1      28.688  12.719  82.649  1.00  0.00    -0.006 C 
ATOM     18  C   UNL     1      29.900  13.661  82.567  1.00  0.00     0.008 C 
ATOM     19  C   UNL     1      28.070  12.788  84.058  1.00  0.00     0.008 C 
ENDBRANCH  12  17
ENDBRANCH  11  12
ENDBRANCH   1  11
TORSDOF 1
ENDMDL
MODEL 6
REMARK VINA RESULT:    -5.078      2.074      4.071
REMARK INTER + INTRA:          -8.173
REMARK INTER:                  -7.900
REMARK INTRA:                  -0.273
REMARK UNBOUND:                -0.423
REMARK SMILES CC1=CCC[C@@H](C)C(=O)C[C@@H](C(C)C)C(=O)C1
REMARK SMILES IDX 8 1 9 2 6 3 7 4 5 5 4 6 3 7 2 8 1 9 10 11 11 12 15 13 16 14
REMARK SMILES IDX 17 15 12 17 13 18 14 19
REMARK H PARENT
REMARK Flexibility Score: 70.00
ROOT
ATOM      1  C   UNL     1      28.477  13.947  81.954  1.00  0.00     0.136 C 
ATOM      2  O   UNL     1      28.647  14.236  83.130  1.00  0.00    -0.299 OA
ENDROOT
BRANCH   1   3
ATOM      3  C   UNL     1      28.710  12.504  81.535  1.00  0.00     0.053 C 
ATOM      4  C   UNL     1      28.290  11.473  82.597  1.00  0.00     0.016 C 
BRANCH   3   5
ATOM      5  C   UNL     1      30.141  12.277  80.997  1.00  0.00     0.015 C 
BRANCH   5   6
ATOM      6  C   UNL     1      30.267  12.398  79.465  1.00  0.00     0.028 C 
BRANCH   6   7
ATOM      7  C   UNL     1      29.053  11.874  78.737  1.00  0.00    -0.028 C 
ATOM      8  C   UNL     1      28.134  12.640  78.099  1.00  0.00    -0.070 CG0
ATOM      9  C   UNL     1      27.029  11.931  77.355  1.00  0.00     0.039 C 
ATOM     10  G   UNL     1      28.142  14.164  78.126  1.00  0.00     0.000 G0
ENDBRANCH   6   7
ENDBRANCH   5   6
ENDBRANCH   3   5
ENDBRANCH   1   3
BRANCH   1  11
ATOM     11  C   UNL     1      28.072  15.051  80.996  1.00  0.00     0.087 C 
BRANCH  11  12
ATOM     12  C   UNL     1      26.738  14.744  80.263  1.00  0.00     0.066 C 
BRANCH  12  13
ATOM     13  C   UNL     1      26.920  14.784  78.752  1.00  0.00     0.140 C 
ATOM     14  O   UNL     1      26.058  15.276  78.038  1.00  0.00    -0.299 OA
BRANCH  13  15
ATOM     15  C   UNL     1      28.146  14.172  78.121  1.00  0.00     0.106 CG0
ATOM     16  G   UNL     1      28.126  12.648  78.101  1.00  0.00     0.000 G0
ENDBRANCH  13  15
ENDBRANCH  12  13
BRANCH  12  17
ATOM     17  C   UNL     1      25.549  15.648  80.728  1.00  0.00    -0.006 C 
ATOM     18  C   UNL     1      24.897  15.105  82.010  1.00  0.00     0.008 C 
ATOM     19  C   UNL     1      25.933  17.127  80.926  1.00  0.00     0.008 C 
ENDBRANCH  12  17
ENDBRANCH  11  12
ENDBRANCH   1  11
TORSDOF 1
ENDMDL
MODEL 7
REMARK VINA RESULT:    -5.075      2.142      4.085
REMARK INTER + INTRA:          -8.169
REMARK INTER:                  -8.220
REMARK INTRA:                   0.052
REMARK UNBOUND:                -0.423
REMARK SMILES CC1=CCC[C@@H](C)C(=O)C[C@@H](C(C)C)C(=O)C1
REMARK SMILES IDX 8 1 9 2 6 3 7 4 5 5 4 6 3 7 2 8 1 9 10 11 11 12 15 13 16 14
REMARK SMILES IDX 17 15 12 17 13 18 14 19
REMARK H PARENT
REMARK Flexibility Score: 70.00
ROOT
ATOM      1  C   UNL     1      27.533  11.519  80.662  1.00  0.00     0.136 C 
ATOM      2  O   UNL     1      28.143  10.667  81.293  1.00  0.00    -0.299 OA
ENDROOT
BRANCH   1   3
ATOM      3  C   UNL     1      27.680  11.525  79.149  1.00  0.00     0.053 C 
ATOM      4  C   UNL     1      27.088  10.282  78.463  1.00  0.00     0.016 C 
BRANCH   3   5
ATOM      5  C   UNL     1      29.128  11.836  78.705  1.00  0.00     0.015 C 
BRANCH   5   6
ATOM      6  C   UNL     1      29.539  13.311  78.879  1.00  0.00     0.028 C 
BRANCH   6   7
ATOM      7  C   UNL     1      30.631  13.496  79.903  1.00  0.00    -0.028 C 
ATOM      8  C   UNL     1      30.548  14.289  81.000  1.00  0.00    -0.070 CG0
ATOM      9  C   UNL     1      31.714  14.284  81.957  1.00  0.00     0.039 C 
ATOM     10  G   UNL     1      29.362  15.200  81.292  1.00  0.00     0.000 G0
ENDBRANCH   6   7
ENDBRANCH   5   6
ENDBRANCH   3   5
ENDBRANCH   1   3
BRANCH   1  11
ATOM     11  C   UNL     1      26.697  12.522  81.435  1.00  0.00     0.087 C 
BRANCH  11  12
ATOM     12  C   UNL     1      27.052  13.991  81.081  1.00  0.00     0.066 C 
BRANCH  12  13
ATOM     13  C   UNL     1      28.199  14.501  81.941  1.00  0.00     0.140 C 
ATOM     14  O   UNL     1      28.165  14.375  83.157  1.00  0.00    -0.299 OA
BRANCH  13  15
ATOM     15  C   UNL     1      29.368  15.210  81.302  1.00  0.00     0.106 CG0
ATOM     16  G   UNL     1      30.548  14.293  81.002  1.00  0.00     0.000 G0
ENDBRANCH  13  15
ENDBRANCH  12  13
BRANCH  12  17
ATOM     17  C   UNL     1      25.822  14.957  81.124  1.00  0.00    -0.006 C 
ATOM     18  C   UNL     1      25.043  14.818  82.442  1.00  0.00     0.008 C 
ATOM     19  C   UNL     1      26.182  16.436  80.885  1.00  0.00     0.008 C 
ENDBRANCH  12  17
ENDBRANCH  11  12
ENDBRANCH   1  11
TORSDOF 1
ENDMDL
MODEL 8
REMARK VINA RESULT:    -5.065      1.628      3.902
REMARK INTER + INTRA:          -8.153
REMARK INTER:                  -7.919
REMARK INTRA:                  -0.233
REMARK UNBOUND:                -0.423
REMARK SMILES CC1=CCC[C@@H](C)C(=O)C[C@@H](C(C)C)C(=O)C1
REMARK SMILES IDX 8 1 9 2 6 3 7 4 5 5 4 6 3 7 2 8 1 9 10 11 11 12 15 13 16 14
REMARK SMILES IDX 17 15 12 17 13 18 14 19
REMARK H PARENT
REMARK Flexibility Score: 70.00
ROOT
ATOM      1  C   UNL     1      27.438  13.764  79.206  1.00  0.00     0.136 C 
ATOM      2  O   UNL     1      27.628  14.797  78.579  1.00  0.00    -0.299 OA
ENDROOT
BRANCH   1   3
ATOM      3  C   UNL     1      27.904  12.457  78.583  1.00  0.00     0.053 C 
ATOM      4  C   UNL     1      27.470  11.207  79.366  1.00  0.00     0.016 C 
BRANCH   3   5
ATOM      5  C   UNL     1      29.413  12.477  78.250  1.00  0.00     0.015 C 
BRANCH   5   6
ATOM      6  C   UNL     1      30.314  11.905  79.362  1.00  0.00     0.028 C 
BRANCH   6   7
ATOM      7  C   UNL     1      30.914  12.978  80.237  1.00  0.00    -0.028 C 
ATOM      8  C   UNL     1      30.468  13.320  81.472  1.00  0.00    -0.070 CG0
ATOM      9  C   UNL     1      31.248  14.364  82.232  1.00  0.00     0.039 C 
ATOM     10  G   UNL     1      29.214  12.731  82.107  1.00  0.00     0.000 G0
ENDBRANCH   6   7
ENDBRANCH   5   6
ENDBRANCH   3   5
ENDBRANCH   1   3
BRANCH   1  11
ATOM     11  C   UNL     1      26.729  13.857  80.544  1.00  0.00     0.087 C 
BRANCH  11  12
ATOM     12  C   UNL     1      27.531  14.681  81.587  1.00  0.00     0.066 C 
BRANCH  12  13
ATOM     13  C   UNL     1      28.224  13.771  82.590  1.00  0.00     0.140 C 
ATOM     14  O   UNL     1      28.014  13.897  83.789  1.00  0.00    -0.299 OA
BRANCH  13  15
ATOM     15  C   UNL     1      29.214  12.736  82.116  1.00  0.00     0.106 CG0
ATOM     16  G   UNL     1      30.453  13.332  81.458  1.00  0.00     0.000 G0
ENDBRANCH  13  15
ENDBRANCH  12  13
BRANCH  12  17
ATOM     17  C   UNL     1      26.680  15.786  82.296  1.00  0.00    -0.006 C 
ATOM     18  C   UNL     1      26.980  17.181  81.726  1.00  0.00     0.008 C 
ATOM     19  C   UNL     1      25.162  15.522  82.257  1.00  0.00     0.008 C 
ENDBRANCH  12  17
ENDBRANCH  11  12
ENDBRANCH   1  11
TORSDOF 1
ENDMDL
MODEL 9
REMARK VINA RESULT:    -4.942      1.903      2.659
REMARK INTER + INTRA:          -7.965
REMARK INTER:                  -8.141
REMARK INTRA:                   0.176
REMARK UNBOUND:                -0.423
REMARK SMILES CC1=CCC[C@@H](C)C(=O)C[C@@H](C(C)C)C(=O)C1
REMARK SMILES IDX 8 1 9 2 6 3 7 4 5 5 4 6 3 7 2 8 1 9 10 11 11 12 15 13 16 14
REMARK SMILES IDX 17 15 12 17 13 18 14 19
REMARK H PARENT
REMARK Flexibility Score: 70.00
ROOT
ATOM      1  C   UNL     1      26.776  15.043  79.567  1.00  0.00     0.136 C 
ATOM      2  O   UNL     1      26.554  15.269  78.386  1.00  0.00    -0.299 OA
ENDROOT
BRANCH   1   3
ATOM      3  C   UNL     1      25.861  15.684  80.599  1.00  0.00     0.053 C 
ATOM      4  C   UNL     1      26.147  17.175  80.841  1.00  0.00     0.016 C 
BRANCH   3   5
ATOM      5  C   UNL     1      25.784  14.856  81.903  1.00  0.00     0.015 C 
BRANCH   5   6
ATOM      6  C   UNL     1      26.881  15.194  82.932  1.00  0.00     0.028 C 
BRANCH   6   7
ATOM      7  C   UNL     1      27.167  14.052  83.875  1.00  0.00    -0.028 C 
ATOM      8  C   UNL     1      28.037  13.040  83.636  1.00  0.00    -0.070 CG0
ATOM      9  C   UNL     1      28.253  12.029  84.735  1.00  0.00     0.039 C 
ATOM     10  G   UNL     1      28.774  12.857  82.314  1.00  0.00     0.000 G0
ENDBRANCH   6   7
ENDBRANCH   5   6
ENDBRANCH   3   5
ENDBRANCH   1   3
BRANCH   1  11
ATOM     11  C   UNL     1      27.961  14.162  79.918  1.00  0.00     0.087 C 
BRANCH  11  12
ATOM     12  C   UNL     1      27.587  12.657  79.977  1.00  0.00     0.066 C 
BRANCH  12  13
ATOM     13  C   UNL     1      28.027  12.033  81.293  1.00  0.00     0.140 C 
ATOM     14  O   UNL     1      27.739  10.873  81.555  1.00  0.00    -0.299 OA
BRANCH  13  15
ATOM     15  C   UNL     1      28.783  12.857  82.306  1.00  0.00     0.106 CG0
ATOM     16  G   UNL     1      28.041  13.029  83.627  1.00  0.00     0.000 G0
ENDBRANCH  13  15
ENDBRANCH  12  13
BRANCH  12  17
ATOM     17  C   UNL     1      28.102  11.839  78.746  1.00  0.00    -0.006 C 
ATOM     18  C   UNL     1      27.202  12.045  77.517  1.00  0.00     0.008 C 
ATOM     19  C   UNL     1      29.568  12.133  78.373  1.00  0.00     0.008 C 
ENDBRANCH  12  17
ENDBRANCH  11  12
ENDBRANCH   1  11
TORSDOF 1
ENDMDL
