MODEL 1
REMARK VINA RESULT:    -4.918      0.000      0.000
REMARK INTER + INTRA:          -5.684
REMARK INTER:                  -5.637
REMARK INTRA:                  -0.047
REMARK UNBOUND:                -0.047
REMARK SMILES CC(C)[C@@H]([NH3+])C(=O)[O-]
REMARK SMILES IDX 4 1 5 2 6 6 7 7 8 8 2 9 1 10 3 11
REMARK H PARENT 5 3 5 4 5 5
REMARK Flexibility Score: inf
ROOT
ATOM      1  C   UNL     1      14.599   7.258  56.517  1.00  0.00     0.230 C 
ENDROOT
BRANCH   1   2
ATOM      2  N   UNL     1      15.491   6.285  57.165  1.00  0.00    -0.350 N 
ATOM      3  H   UNL     1      16.489   6.567  57.035  1.00  0.00     0.345 HD
ATOM      4  H   UNL     1      15.377   5.343  56.725  1.00  0.00     0.345 HD
ATOM      5  H   UNL     1      15.278   6.211  58.187  1.00  0.00     0.345 HD
ENDBRANCH   1   2
BRANCH   1   6
ATOM      6  C   UNL     1      15.319   8.575  56.372  1.00  0.00     0.099 C 
ATOM      7  O   UNL     1      16.453   8.738  56.895  1.00  0.00    -0.544 OA
ATOM      8  O   UNL     1      14.735   9.618  55.662  1.00  0.00    -0.544 OA
ENDBRANCH   1   6
BRANCH   1   9
ATOM      9  C   UNL     1      14.095   6.749  55.132  1.00  0.00     0.047 C 
ATOM     10  C   UNL     1      14.757   5.420  54.732  1.00  0.00     0.014 C 
ATOM     11  C   UNL     1      12.566   6.572  55.126  1.00  0.00     0.014 C 
ENDBRANCH   1   9
TORSDOF 3
ENDMDL
MODEL 2
REMARK VINA RESULT:    -4.607      2.671      3.141
REMARK INTER + INTRA:          -5.327
REMARK INTER:                  -5.262
REMARK INTRA:                  -0.065
REMARK UNBOUND:                -0.047
REMARK SMILES CC(C)[C@@H]([NH3+])C(=O)[O-]
REMARK SMILES IDX 4 1 5 2 6 6 7 7 8 8 2 9 1 10 3 11
REMARK H PARENT 5 3 5 4 5 5
REMARK Flexibility Score: inf
ROOT
ATOM      1  C   UNL     1      15.524   6.532  55.607  1.00  0.00     0.230 C 
ENDROOT
BRANCH   1   2
ATOM      2  N   UNL     1      15.165   6.464  57.032  1.00  0.00    -0.350 N 
ATOM      3  H   UNL     1      15.936   6.856  57.619  1.00  0.00     0.345 HD
ATOM      4  H   UNL     1      15.033   5.468  57.323  1.00  0.00     0.345 HD
ATOM      5  H   UNL     1      14.281   6.993  57.217  1.00  0.00     0.345 HD
ENDBRANCH   1   2
BRANCH   1   6
ATOM      6  C   UNL     1      16.159   5.229  55.191  1.00  0.00     0.099 C 
ATOM      7  O   UNL     1      16.313   4.960  53.970  1.00  0.00    -0.544 OA
ATOM      8  O   UNL     1      16.578   4.316  56.152  1.00  0.00    -0.544 OA
ENDBRANCH   1   6
BRANCH   1   9
ATOM      9  C   UNL     1      14.287   6.853  54.713  1.00  0.00     0.047 C 
ATOM     10  C   UNL     1      13.061   6.012  55.105  1.00  0.00     0.014 C 
ATOM     11  C   UNL     1      13.918   8.346  54.788  1.00  0.00     0.014 C 
ENDBRANCH   1   9
TORSDOF 3
ENDMDL
MODEL 3
REMARK VINA RESULT:    -4.605      2.025      2.635
REMARK INTER + INTRA:          -5.324
REMARK INTER:                  -5.269
REMARK INTRA:                  -0.055
REMARK UNBOUND:                -0.047
REMARK SMILES CC(C)[C@@H]([NH3+])C(=O)[O-]
REMARK SMILES IDX 4 1 5 2 6 6 7 7 8 8 2 9 1 10 3 11
REMARK H PARENT 5 3 5 4 5 5
REMARK Flexibility Score: inf
ROOT
ATOM      1  C   UNL     1      14.195   8.038  55.312  1.00  0.00     0.230 C 
ENDROOT
BRANCH   1   2
ATOM      2  N   UNL     1      13.601   8.663  54.120  1.00  0.00    -0.350 N 
ATOM      3  H   UNL     1      13.480   7.955  53.362  1.00  0.00     0.345 HD
ATOM      4  H   UNL     1      14.237   9.407  53.750  1.00  0.00     0.345 HD
ATOM      5  H   UNL     1      12.674   9.091  54.351  1.00  0.00     0.345 HD
ENDBRANCH   1   2
BRANCH   1   6
ATOM      6  C   UNL     1      13.772   8.805  56.540  1.00  0.00     0.099 C 
ATOM      7  O   UNL     1      12.814   9.619  56.480  1.00  0.00    -0.544 OA
ATOM      8  O   UNL     1      14.439   8.618  57.745  1.00  0.00    -0.544 OA
ENDBRANCH   1   6
BRANCH   1   9
ATOM      9  C   UNL     1      13.799   6.535  55.436  1.00  0.00     0.047 C 
ATOM     10  C   UNL     1      12.331   6.293  55.046  1.00  0.00     0.014 C 
ATOM     11  C   UNL     1      14.704   5.646  54.565  1.00  0.00     0.014 C 
ENDBRANCH   1   9
TORSDOF 3
ENDMDL
MODEL 4
REMARK VINA RESULT:    -4.530      2.656      3.342
REMARK INTER + INTRA:          -5.239
REMARK INTER:                  -5.191
REMARK INTRA:                  -0.048
REMARK UNBOUND:                -0.047
REMARK SMILES CC(C)[C@@H]([NH3+])C(=O)[O-]
REMARK SMILES IDX 4 1 5 2 6 6 7 7 8 8 2 9 1 10 3 11
REMARK H PARENT 5 3 5 4 5 5
REMARK Flexibility Score: inf
ROOT
ATOM      1  C   UNL     1      14.421   7.424  55.493  1.00  0.00     0.230 C 
ENDROOT
BRANCH   1   2
ATOM      2  N   UNL     1      14.915   7.287  56.871  1.00  0.00    -0.350 N 
ATOM      3  H   UNL     1      15.578   6.483  56.940  1.00  0.00     0.345 HD
ATOM      4  H   UNL     1      14.120   7.088  57.521  1.00  0.00     0.345 HD
ATOM      5  H   UNL     1      15.396   8.165  57.181  1.00  0.00     0.345 HD
ENDBRANCH   1   2
BRANCH   1   6
ATOM      6  C   UNL     1      13.561   6.233  55.151  1.00  0.00     0.099 C 
ATOM      7  O   UNL     1      14.095   5.136  54.839  1.00  0.00    -0.544 OA
ATOM      8  O   UNL     1      12.176   6.339  55.178  1.00  0.00    -0.544 OA
ENDBRANCH   1   6
BRANCH   1   9
ATOM      9  C   UNL     1      13.629   8.752  55.291  1.00  0.00     0.047 C 
ATOM     10  C   UNL     1      14.176   9.888  56.171  1.00  0.00     0.014 C 
ATOM     11  C   UNL     1      13.657   9.199  53.818  1.00  0.00     0.014 C 
ENDBRANCH   1   9
TORSDOF 3
ENDMDL
MODEL 5
REMARK VINA RESULT:    -4.413      2.147      2.667
REMARK INTER + INTRA:          -5.105
REMARK INTER:                  -5.088
REMARK INTRA:                  -0.017
REMARK UNBOUND:                -0.047
REMARK SMILES CC(C)[C@@H]([NH3+])C(=O)[O-]
REMARK SMILES IDX 4 1 5 2 6 6 7 7 8 8 2 9 1 10 3 11
REMARK H PARENT 5 3 5 4 5 5
REMARK Flexibility Score: inf
ROOT
ATOM      1  C   UNL     1      13.506   7.247  54.622  1.00  0.00     0.230 C 
ENDROOT
BRANCH   1   2
ATOM      2  N   UNL     1      12.377   6.556  55.262  1.00  0.00    -0.350 N 
ATOM      3  H   UNL     1      11.471   6.949  54.921  1.00  0.00     0.345 HD
ATOM      4  H   UNL     1      12.406   6.702  56.298  1.00  0.00     0.345 HD
ATOM      5  H   UNL     1      12.410   5.529  55.063  1.00  0.00     0.345 HD
ENDBRANCH   1   2
BRANCH   1   6
ATOM      6  C   UNL     1      13.422   8.723  54.922  1.00  0.00     0.099 C 
ATOM      7  O   UNL     1      13.958   9.558  54.148  1.00  0.00    -0.544 OA
ATOM      8  O   UNL     1      12.753   9.169  56.056  1.00  0.00    -0.544 OA
ENDBRANCH   1   6
BRANCH   1   9
ATOM      9  C   UNL     1      14.878   6.667  55.084  1.00  0.00     0.047 C 
ATOM     10  C   UNL     1      15.064   6.777  56.607  1.00  0.00     0.014 C 
ATOM     11  C   UNL     1      15.030   5.194  54.664  1.00  0.00     0.014 C 
ENDBRANCH   1   9
TORSDOF 3
ENDMDL
MODEL 6
REMARK VINA RESULT:    -4.324      1.972      2.312
REMARK INTER + INTRA:          -5.003
REMARK INTER:                  -4.968
REMARK INTRA:                  -0.035
REMARK UNBOUND:                -0.047
REMARK SMILES CC(C)[C@@H]([NH3+])C(=O)[O-]
REMARK SMILES IDX 4 1 5 2 6 6 7 7 8 8 2 9 1 10 3 11
REMARK H PARENT 5 3 5 4 5 5
REMARK Flexibility Score: inf
ROOT
ATOM      1  C   UNL     1      14.638   8.519  56.158  1.00  0.00     0.230 C 
ENDROOT
BRANCH   1   2
ATOM      2  N   UNL     1      13.639   8.646  57.230  1.00  0.00    -0.350 N 
ATOM      3  H   UNL     1      13.451   9.653  57.431  1.00  0.00     0.345 HD
ATOM      4  H   UNL     1      14.001   8.217  58.112  1.00  0.00     0.345 HD
ATOM      5  H   UNL     1      12.746   8.169  56.961  1.00  0.00     0.345 HD
ENDBRANCH   1   2
BRANCH   1   6
ATOM      6  C   UNL     1      15.749   7.608  56.619  1.00  0.00     0.099 C 
ATOM      7  O   UNL     1      16.377   7.862  57.680  1.00  0.00    -0.544 OA
ATOM      8  O   UNL     1      16.088   6.485  55.873  1.00  0.00    -0.544 OA
ENDBRANCH   1   6
BRANCH   1   9
ATOM      9  C   UNL     1      14.005   7.990  54.835  1.00  0.00     0.047 C 
ATOM     10  C   UNL     1      12.773   7.108  55.099  1.00  0.00     0.014 C 
ATOM     11  C   UNL     1      13.603   9.151  53.907  1.00  0.00     0.014 C 
ENDBRANCH   1   9
TORSDOF 3
ENDMDL
MODEL 7
REMARK VINA RESULT:    -4.323      2.569      3.187
REMARK INTER + INTRA:          -5.001
REMARK INTER:                  -4.950
REMARK INTRA:                  -0.052
REMARK UNBOUND:                -0.047
REMARK SMILES CC(C)[C@@H]([NH3+])C(=O)[O-]
REMARK SMILES IDX 4 1 5 2 6 6 7 7 8 8 2 9 1 10 3 11
REMARK H PARENT 5 3 5 4 5 5
REMARK Flexibility Score: inf
ROOT
ATOM      1  C   UNL     1      13.804   7.129  55.794  1.00  0.00     0.230 C 
ENDROOT
BRANCH   1   2
ATOM      2  N   UNL     1      12.598   6.610  55.130  1.00  0.00    -0.350 N 
ATOM      3  H   UNL     1      11.866   6.379  55.839  1.00  0.00     0.345 HD
ATOM      4  H   UNL     1      12.822   5.726  54.618  1.00  0.00     0.345 HD
ATOM      5  H   UNL     1      12.220   7.311  54.451  1.00  0.00     0.345 HD
ENDBRANCH   1   2
BRANCH   1   6
ATOM      6  C   UNL     1      14.999   6.315  55.363  1.00  0.00     0.099 C 
ATOM      7  O   UNL     1      14.945   5.614  54.318  1.00  0.00    -0.544 OA
ATOM      8  O   UNL     1      16.167   6.333  56.117  1.00  0.00    -0.544 OA
ENDBRANCH   1   6
BRANCH   1   9
ATOM      9  C   UNL     1      14.028   8.641  55.490  1.00  0.00     0.047 C 
ATOM     10  C   UNL     1      13.597   9.010  54.060  1.00  0.00     0.014 C 
ATOM     11  C   UNL     1      13.266   9.530  56.490  1.00  0.00     0.014 C 
ENDBRANCH   1   9
TORSDOF 3
ENDMDL
MODEL 8
REMARK VINA RESULT:    -4.300      2.741      3.788
REMARK INTER + INTRA:          -4.975
REMARK INTER:                  -4.929
REMARK INTRA:                  -0.046
REMARK UNBOUND:                -0.047
REMARK SMILES CC(C)[C@@H]([NH3+])C(=O)[O-]
REMARK SMILES IDX 4 1 5 2 6 6 7 7 8 8 2 9 1 10 3 11
REMARK H PARENT 5 3 5 4 5 5
REMARK Flexibility Score: inf
ROOT
ATOM      1  C   UNL     1      14.028   8.802  56.190  1.00  0.00     0.230 C 
ENDROOT
BRANCH   1   2
ATOM      2  N   UNL     1      12.871   9.614  56.598  1.00  0.00    -0.350 N 
ATOM      3  H   UNL     1      12.338   9.131  57.355  1.00  0.00     0.345 HD
ATOM      4  H   UNL     1      12.217   9.739  55.791  1.00  0.00     0.345 HD
ATOM      5  H   UNL     1      13.181  10.556  56.933  1.00  0.00     0.345 HD
ENDBRANCH   1   2
BRANCH   1   6
ATOM      6  C   UNL     1      13.920   8.486  54.719  1.00  0.00     0.099 C 
ATOM      7  O   UNL     1      14.046   7.300  54.314  1.00  0.00    -0.544 OA
ATOM      8  O   UNL     1      13.684   9.503  53.800  1.00  0.00    -0.544 OA
ENDBRANCH   1   6
BRANCH   1   9
ATOM      9  C   UNL     1      15.377   9.517  56.504  1.00  0.00     0.047 C 
ATOM     10  C   UNL     1      15.170  10.806  57.317  1.00  0.00     0.014 C 
ATOM     11  C   UNL     1      16.335   8.587  57.271  1.00  0.00     0.014 C 
ENDBRANCH   1   9
TORSDOF 3
ENDMDL
MODEL 9
REMARK VINA RESULT:    -4.084      2.046      3.321
REMARK INTER + INTRA:          -4.728
REMARK INTER:                  -4.999
REMARK INTRA:                   0.271
REMARK UNBOUND:                -0.047
REMARK SMILES CC(C)[C@@H]([NH3+])C(=O)[O-]
REMARK SMILES IDX 4 1 5 2 6 6 7 7 8 8 2 9 1 10 3 11
REMARK H PARENT 5 3 5 4 5 5
REMARK Flexibility Score: inf
ROOT
ATOM      1  C   UNL     1      15.579   7.864  56.676  1.00  0.00     0.230 C 
ENDROOT
BRANCH   1   2
ATOM      2  N   UNL     1      15.520   7.337  58.048  1.00  0.00    -0.350 N 
ATOM      3  H   UNL     1      14.531   7.135  58.316  1.00  0.00     0.345 HD
ATOM      4  H   UNL     1      15.883   8.050  58.723  1.00  0.00     0.345 HD
ATOM      5  H   UNL     1      16.092   6.465  58.133  1.00  0.00     0.345 HD
ENDBRANCH   1   2
BRANCH   1   6
ATOM      6  C   UNL     1      14.426   7.307  55.879  1.00  0.00     0.099 C 
ATOM      7  O   UNL     1      13.249   7.397  56.318  1.00  0.00    -0.544 OA
ATOM      8  O   UNL     1      14.656   6.689  54.655  1.00  0.00    -0.544 OA
ENDBRANCH   1   6
BRANCH   1   9
ATOM      9  C   UNL     1      15.563   9.423  56.653  1.00  0.00     0.047 C 
ATOM     10  C   UNL     1      14.571   9.972  55.613  1.00  0.00     0.014 C 
ATOM     11  C   UNL     1      15.211   9.998  58.037  1.00  0.00     0.014 C 
ENDBRANCH   1   9
TORSDOF 3
ENDMDL
