MODEL 1
REMARK VINA RESULT:    -2.464      0.000      0.000
REMARK INTER + INTRA:          -2.464
REMARK INTER:                  -2.464
REMARK INTRA:                   0.000
REMARK UNBOUND:                 0.000
REMARK SMILES CC(=O)[O-]
REMARK SMILES IDX 1 1 2 2 3 3 4 4
REMARK H PARENT
REMARK Flexibility Score: inf
ROOT
ATOM      1  C   UNL     1      20.828  51.722 169.008  1.00  0.00     0.063 C 
ATOM      2  C   UNL     1      19.819  50.658 168.736  1.00  0.00     0.038 C 
ATOM      3  O   UNL     1      20.170  49.450 168.691  1.00  0.00    -0.550 OA
ATOM      4  O   UNL     1      18.498  51.002 168.479  1.00  0.00    -0.550 OA
ENDROOT
TORSDOF 0
ENDMDL
MODEL 2
REMARK VINA RESULT:    -2.458     17.734     18.124
REMARK INTER + INTRA:          -2.458
REMARK INTER:                  -2.458
REMARK INTRA:                   0.000
REMARK UNBOUND:                 0.000
REMARK SMILES CC(=O)[O-]
REMARK SMILES IDX 1 1 2 2 3 3 4 4
REMARK H PARENT
REMARK Flexibility Score: inf
ROOT
ATOM      1  C   UNL     1      21.405  69.035 163.781  1.00  0.00     0.063 C 
ATOM      2  C   UNL     1      21.643  67.732 163.098  1.00  0.00     0.038 C 
ATOM      3  O   UNL     1      20.669  67.027 162.723  1.00  0.00    -0.550 OA
ATOM      4  O   UNL     1      22.940  67.265 162.922  1.00  0.00    -0.550 OA
ENDROOT
TORSDOF 0
ENDMDL
MODEL 3
REMARK VINA RESULT:    -2.457     17.150     17.738
REMARK INTER + INTRA:          -2.457
REMARK INTER:                  -2.457
REMARK INTRA:                   0.000
REMARK UNBOUND:                 0.000
REMARK SMILES CC(=O)[O-]
REMARK SMILES IDX 1 1 2 2 3 3 4 4
REMARK H PARENT
REMARK Flexibility Score: inf
ROOT
ATOM      1  C   UNL     1      22.944  66.623 162.716  1.00  0.00     0.063 C 
ATOM      2  C   UNL     1      21.671  67.323 163.048  1.00  0.00     0.038 C 
ATOM      3  O   UNL     1      20.581  66.692 163.040  1.00  0.00    -0.550 OA
ATOM      4  O   UNL     1      21.675  68.687 163.314  1.00  0.00    -0.550 OA
ENDROOT
TORSDOF 0
ENDMDL
MODEL 4
REMARK VINA RESULT:    -2.367      1.318      2.396
REMARK INTER + INTRA:          -2.367
REMARK INTER:                  -2.367
REMARK INTRA:                   0.000
REMARK UNBOUND:                 0.000
REMARK SMILES CC(=O)[O-]
REMARK SMILES IDX 1 1 2 2 3 3 4 4
REMARK H PARENT
REMARK Flexibility Score: inf
ROOT
ATOM      1  C   UNL     1      19.253  48.875 167.731  1.00  0.00     0.063 C 
ATOM      2  C   UNL     1      19.464  50.212 168.357  1.00  0.00     0.038 C 
ATOM      3  O   UNL     1      18.477  50.936 168.649  1.00  0.00    -0.550 OA
ATOM      4  O   UNL     1      20.753  50.685 168.569  1.00  0.00    -0.550 OA
ENDROOT
TORSDOF 0
ENDMDL
MODEL 5
REMARK VINA RESULT:    -2.239     10.270     10.759
REMARK INTER + INTRA:          -2.239
REMARK INTER:                  -2.239
REMARK INTRA:                   0.000
REMARK UNBOUND:                 0.000
REMARK SMILES CC(=O)[O-]
REMARK SMILES IDX 1 1 2 2 3 3 4 4
REMARK H PARENT
REMARK Flexibility Score: inf
ROOT
ATOM      1  C   UNL     1      15.522  50.963 159.977  1.00  0.00     0.063 C 
ATOM      2  C   UNL     1      14.306  51.755 159.632  1.00  0.00     0.038 C 
ATOM      3  O   UNL     1      14.326  52.554 158.660  1.00  0.00    -0.550 OA
ATOM      4  O   UNL     1      13.163  51.652 160.417  1.00  0.00    -0.550 OA
ENDROOT
TORSDOF 0
ENDMDL
MODEL 6
REMARK VINA RESULT:    -2.186     17.259     17.857
REMARK INTER + INTRA:          -2.186
REMARK INTER:                  -2.186
REMARK INTRA:                   0.000
REMARK UNBOUND:                 0.000
REMARK SMILES CC(=O)[O-]
REMARK SMILES IDX 1 1 2 2 3 3 4 4
REMARK H PARENT
REMARK Flexibility Score: inf
ROOT
ATOM      1  C   UNL     1      20.864  66.729 163.026  1.00  0.00     0.063 C 
ATOM      2  C   UNL     1      22.238  67.289 162.882  1.00  0.00     0.038 C 
ATOM      3  O   UNL     1      22.404  68.528 162.730  1.00  0.00    -0.550 OA
ATOM      4  O   UNL     1      23.337  66.439 162.860  1.00  0.00    -0.550 OA
ENDROOT
TORSDOF 0
ENDMDL
MODEL 7
REMARK VINA RESULT:    -2.167     10.335     10.743
REMARK INTER + INTRA:          -2.167
REMARK INTER:                  -2.167
REMARK INTRA:                   0.000
REMARK UNBOUND:                 0.000
REMARK SMILES CC(=O)[O-]
REMARK SMILES IDX 1 1 2 2 3 3 4 4
REMARK H PARENT
REMARK Flexibility Score: inf
ROOT
ATOM      1  C   UNL     1      14.346  52.603 158.444  1.00  0.00     0.063 C 
ATOM      2  C   UNL     1      14.362  51.764 159.677  1.00  0.00     0.038 C 
ATOM      3  O   UNL     1      15.427  51.203 160.045  1.00  0.00    -0.550 OA
ATOM      4  O   UNL     1      13.189  51.555 160.392  1.00  0.00    -0.550 OA
ENDROOT
TORSDOF 0
ENDMDL
MODEL 8
REMARK VINA RESULT:    -2.066     14.348     14.896
REMARK INTER + INTRA:          -2.066
REMARK INTER:                  -2.066
REMARK INTRA:                   0.000
REMARK UNBOUND:                 0.000
REMARK SMILES CC(=O)[O-]
REMARK SMILES IDX 1 1 2 2 3 3 4 4
REMARK H PARENT
REMARK Flexibility Score: inf
ROOT
ATOM      1  C   UNL     1      14.451  65.709 170.591  1.00  0.00     0.063 C 
ATOM      2  C   UNL     1      14.495  64.320 171.132  1.00  0.00     0.038 C 
ATOM      3  O   UNL     1      15.481  63.577 170.885  1.00  0.00    -0.550 OA
ATOM      4  O   UNL     1      13.424  63.824 171.864  1.00  0.00    -0.550 OA
ENDROOT
TORSDOF 0
ENDMDL
MODEL 9
REMARK VINA RESULT:    -2.059     14.677     15.282
REMARK INTER + INTRA:          -2.059
REMARK INTER:                  -2.059
REMARK INTRA:                   0.000
REMARK UNBOUND:                 0.000
REMARK SMILES CC(=O)[O-]
REMARK SMILES IDX 1 1 2 2 3 3 4 4
REMARK H PARENT
REMARK Flexibility Score: inf
ROOT
ATOM      1  C   UNL     1      13.058  64.264 171.596  1.00  0.00     0.063 C 
ATOM      2  C   UNL     1      14.358  64.658 170.983  1.00  0.00     0.038 C 
ATOM      3  O   UNL     1      15.278  63.809 170.849  1.00  0.00    -0.550 OA
ATOM      4  O   UNL     1      14.579  65.978 170.607  1.00  0.00    -0.550 OA
ENDROOT
TORSDOF 0
ENDMDL
