MODEL 1
REMARK VINA RESULT:    -5.258      0.000      0.000
REMARK INTER + INTRA:          -7.970
REMARK INTER:                  -7.255
REMARK INTRA:                  -0.714
REMARK UNBOUND:                -0.714
REMARK SMILES CCCCc1cccc(O)c1CCCC
REMARK SMILES IDX 5 1 11 2 9 3 8 4 7 5 6 6 4 7 3 8 2 9 1 10 12 11 13 12 14 13
REMARK SMILES IDX 15 14 10 15
REMARK H PARENT 10 16
REMARK Flexibility Score: inf
ROOT
ATOM      1  C   UNL     1     -30.375  -9.892   2.415  1.00  0.00    -0.041 A 
ATOM      2  C   UNL     1     -29.636 -10.215   3.592  1.00  0.00    -0.003 A 
ATOM      3  C   UNL     1     -28.400 -10.890   3.464  1.00  0.00     0.119 A 
ATOM      4  C   UNL     1     -27.924 -11.261   2.202  1.00  0.00     0.046 A 
ATOM      5  C   UNL     1     -28.658 -10.964   1.059  1.00  0.00     0.004 A 
ATOM      6  C   UNL     1     -29.867 -10.283   1.161  1.00  0.00     0.004 A 
ENDROOT
BRANCH   1   7
ATOM      7  C   UNL     1     -31.681  -9.114   2.432  1.00  0.00     0.036 C 
BRANCH   7   8
ATOM      8  C   UNL     1     -31.838  -8.134   1.255  1.00  0.00     0.004 C 
BRANCH   8   9
ATOM      9  C   UNL     1     -33.080  -8.385   0.382  1.00  0.00    -0.003 C 
ATOM     10  C   UNL     1     -32.749  -9.124  -0.914  1.00  0.00     0.004 C 
ENDBRANCH   8   9
ENDBRANCH   7   8
ENDBRANCH   1   7
BRANCH   2  11
ATOM     11  C   UNL     1     -30.136  -9.889   4.988  1.00  0.00     0.040 C 
BRANCH  11  12
ATOM     12  C   UNL     1     -29.934  -8.400   5.313  1.00  0.00     0.005 C 
BRANCH  12  13
ATOM     13  C   UNL     1     -29.160  -8.221   6.624  1.00  0.00    -0.003 C 
ATOM     14  C   UNL     1     -28.969  -9.555   7.339  1.00  0.00     0.004 C 
ENDBRANCH  12  13
ENDBRANCH  11  12
ENDBRANCH   2  11
BRANCH   3  15
ATOM     15  O   UNL     1     -27.642 -11.191   4.597  1.00  0.00    -0.508 OA
ATOM     16  H   UNL     1     -28.022 -11.732   5.365  1.00  0.00     0.293 HD
ENDBRANCH   3  15
TORSDOF 7
ENDMDL
MODEL 2
REMARK VINA RESULT:    -5.187      2.132      4.404
REMARK INTER + INTRA:          -7.872
REMARK INTER:                  -6.787
REMARK INTRA:                  -1.085
REMARK UNBOUND:                -0.714
REMARK SMILES CCCCc1cccc(O)c1CCCC
REMARK SMILES IDX 5 1 11 2 9 3 8 4 7 5 6 6 4 7 3 8 2 9 1 10 12 11 13 12 14 13
REMARK SMILES IDX 15 14 10 15
REMARK H PARENT 10 16
REMARK Flexibility Score: inf
ROOT
ATOM      1  C   UNL     1     -31.308  -9.313   1.336  1.00  0.00    -0.041 A 
ATOM      2  C   UNL     1     -32.028  -9.024   2.533  1.00  0.00    -0.003 A 
ATOM      3  C   UNL     1     -33.406  -8.712   2.449  1.00  0.00     0.119 A 
ATOM      4  C   UNL     1     -34.044  -8.660   1.205  1.00  0.00     0.046 A 
ATOM      5  C   UNL     1     -33.334  -8.921   0.039  1.00  0.00     0.004 A 
ATOM      6  C   UNL     1     -31.982  -9.249   0.101  1.00  0.00     0.004 A 
ENDROOT
BRANCH   1   7
ATOM      7  C   UNL     1     -29.844  -9.721   1.316  1.00  0.00     0.036 C 
BRANCH   7   8
ATOM      8  C   UNL     1     -29.622 -11.244   1.303  1.00  0.00     0.004 C 
BRANCH   8   9
ATOM      9  C   UNL     1     -28.212 -11.683   1.735  1.00  0.00    -0.003 C 
ATOM     10  C   UNL     1     -27.674 -10.865   2.908  1.00  0.00     0.004 C 
ENDBRANCH   8   9
ENDBRANCH   7   8
ENDBRANCH   1   7
BRANCH   2  11
ATOM     11  C   UNL     1     -31.371  -9.007   3.901  1.00  0.00     0.040 C 
BRANCH  11  12
ATOM     12  C   UNL     1     -31.285 -10.426   4.488  1.00  0.00     0.005 C 
BRANCH  12  13
ATOM     13  C   UNL     1     -30.120 -10.543   5.478  1.00  0.00    -0.003 C 
ATOM     14  C   UNL     1     -29.577  -9.169   5.858  1.00  0.00     0.004 C 
ENDBRANCH  12  13
ENDBRANCH  11  12
ENDBRANCH   2  11
BRANCH   3  15
ATOM     15  O   UNL     1     -34.142  -8.456   3.607  1.00  0.00    -0.508 OA
ATOM     16  H   UNL     1     -33.697  -8.372   4.514  1.00  0.00     0.293 HD
ENDBRANCH   3  15
TORSDOF 7
ENDMDL
MODEL 3
REMARK VINA RESULT:    -5.060      1.675      2.922
REMARK INTER + INTRA:          -7.697
REMARK INTER:                  -6.785
REMARK INTRA:                  -0.912
REMARK UNBOUND:                -0.714
REMARK SMILES CCCCc1cccc(O)c1CCCC
REMARK SMILES IDX 5 1 11 2 9 3 8 4 7 5 6 6 4 7 3 8 2 9 1 10 12 11 13 12 14 13
REMARK SMILES IDX 15 14 10 15
REMARK H PARENT 10 16
REMARK Flexibility Score: inf
ROOT
ATOM      1  C   UNL     1     -30.285  -9.663   1.745  1.00  0.00    -0.041 A 
ATOM      2  C   UNL     1     -30.291  -9.508   3.163  1.00  0.00    -0.003 A 
ATOM      3  C   UNL     1     -29.318 -10.188   3.933  1.00  0.00     0.119 A 
ATOM      4  C   UNL     1     -28.382 -11.023   3.312  1.00  0.00     0.046 A 
ATOM      5  C   UNL     1     -28.394 -11.188   1.932  1.00  0.00     0.004 A 
ATOM      6  C   UNL     1     -29.330 -10.513   1.154  1.00  0.00     0.004 A 
ENDROOT
BRANCH   1   7
ATOM      7  C   UNL     1     -31.242  -8.931   0.818  1.00  0.00     0.036 C 
BRANCH   7   8
ATOM      8  C   UNL     1     -31.997  -9.855  -0.155  1.00  0.00     0.004 C 
BRANCH   8   9
ATOM      9  C   UNL     1     -33.047  -9.140  -1.023  1.00  0.00    -0.003 C 
ATOM     10  C   UNL     1     -34.040 -10.109  -1.663  1.00  0.00     0.004 C 
ENDBRANCH   8   9
ENDBRANCH   7   8
ENDBRANCH   1   7
BRANCH   2  11
ATOM     11  C   UNL     1     -31.321  -8.663   3.892  1.00  0.00     0.040 C 
BRANCH  11  12
ATOM     12  C   UNL     1     -32.698  -9.347   3.886  1.00  0.00     0.005 C 
BRANCH  12  13
ATOM     13  C   UNL     1     -33.794  -8.377   3.431  1.00  0.00    -0.003 C 
ATOM     14  C   UNL     1     -34.685  -9.012   2.367  1.00  0.00     0.004 C 
ENDBRANCH  12  13
ENDBRANCH  11  12
ENDBRANCH   2  11
BRANCH   3  15
ATOM     15  O   UNL     1     -29.281 -10.031   5.319  1.00  0.00    -0.508 OA
ATOM     16  H   UNL     1     -29.503 -10.795   5.949  1.00  0.00     0.293 HD
ENDBRANCH   3  15
TORSDOF 7
ENDMDL
MODEL 4
REMARK VINA RESULT:    -4.963      2.197      5.443
REMARK INTER + INTRA:          -7.564
REMARK INTER:                  -6.597
REMARK INTRA:                  -0.966
REMARK UNBOUND:                -0.714
REMARK SMILES CCCCc1cccc(O)c1CCCC
REMARK SMILES IDX 5 1 11 2 9 3 8 4 7 5 6 6 4 7 3 8 2 9 1 10 12 11 13 12 14 13
REMARK SMILES IDX 15 14 10 15
REMARK H PARENT 10 16
REMARK Flexibility Score: inf
ROOT
ATOM      1  C   UNL     1     -31.807  -8.729   3.211  1.00  0.00    -0.041 A 
ATOM      2  C   UNL     1     -31.575  -9.029   1.835  1.00  0.00    -0.003 A 
ATOM      3  C   UNL     1     -32.658  -8.972   0.926  1.00  0.00     0.119 A 
ATOM      4  C   UNL     1     -33.943  -8.654   1.377  1.00  0.00     0.046 A 
ATOM      5  C   UNL     1     -34.169  -8.383   2.722  1.00  0.00     0.004 A 
ATOM      6  C   UNL     1     -33.114  -8.415   3.629  1.00  0.00     0.004 A 
ENDROOT
BRANCH   1   7
ATOM      7  C   UNL     1     -30.707  -8.698   4.259  1.00  0.00     0.036 C 
BRANCH   7   8
ATOM      8  C   UNL     1     -30.489 -10.044   4.974  1.00  0.00     0.004 C 
BRANCH   8   9
ATOM      9  C   UNL     1     -29.142 -10.161   5.708  1.00  0.00    -0.003 C 
ATOM     10  C   UNL     1     -29.148  -9.456   7.064  1.00  0.00     0.004 C 
ENDBRANCH   8   9
ENDBRANCH   7   8
ENDBRANCH   1   7
BRANCH   2  11
ATOM     11  C   UNL     1     -30.213  -9.439   1.305  1.00  0.00     0.040 C 
BRANCH  11  12
ATOM     12  C   UNL     1     -30.028 -10.964   1.380  1.00  0.00     0.005 C 
BRANCH  12  13
ATOM     13  C   UNL     1     -28.543 -11.343   1.338  1.00  0.00    -0.003 C 
ATOM     14  C   UNL     1     -27.762 -10.634   2.440  1.00  0.00     0.004 C 
ENDBRANCH  12  13
ENDBRANCH  11  12
ENDBRANCH   2  11
BRANCH   3  15
ATOM     15  O   UNL     1     -32.453  -9.232  -0.430  1.00  0.00    -0.508 OA
ATOM     16  H   UNL     1     -33.195  -9.123  -1.111  1.00  0.00     0.293 HD
ENDBRANCH   3  15
TORSDOF 7
ENDMDL
MODEL 5
REMARK VINA RESULT:    -4.766      2.726      6.252
REMARK INTER + INTRA:          -7.292
REMARK INTER:                  -6.723
REMARK INTRA:                  -0.568
REMARK UNBOUND:                -0.714
REMARK SMILES CCCCc1cccc(O)c1CCCC
REMARK SMILES IDX 5 1 11 2 9 3 8 4 7 5 6 6 4 7 3 8 2 9 1 10 12 11 13 12 14 13
REMARK SMILES IDX 15 14 10 15
REMARK H PARENT 10 16
REMARK Flexibility Score: inf
ROOT
ATOM      1  C   UNL     1     -30.788  -9.733   1.920  1.00  0.00    -0.041 A 
ATOM      2  C   UNL     1     -31.903  -9.028   1.375  1.00  0.00    -0.003 A 
ATOM      3  C   UNL     1     -32.962  -8.648   2.234  1.00  0.00     0.119 A 
ATOM      4  C   UNL     1     -32.927  -8.985   3.591  1.00  0.00     0.046 A 
ATOM      5  C   UNL     1     -31.849  -9.690   4.113  1.00  0.00     0.004 A 
ATOM      6  C   UNL     1     -30.788 -10.057   3.290  1.00  0.00     0.004 A 
ENDROOT
BRANCH   1   7
ATOM      7  C   UNL     1     -29.570 -10.134   1.104  1.00  0.00     0.036 C 
BRANCH   7   8
ATOM      8  C   UNL     1     -28.728 -11.251   1.747  1.00  0.00     0.004 C 
BRANCH   8   9
ATOM      9  C   UNL     1     -27.505 -10.750   2.534  1.00  0.00    -0.003 C 
ATOM     10  C   UNL     1     -27.409 -11.367   3.929  1.00  0.00     0.004 C 
ENDBRANCH   8   9
ENDBRANCH   7   8
ENDBRANCH   1   7
BRANCH   2  11
ATOM     11  C   UNL     1     -32.019  -8.692  -0.100  1.00  0.00     0.040 C 
BRANCH  11  12
ATOM     12  C   UNL     1     -32.800  -9.781  -0.854  1.00  0.00     0.005 C 
BRANCH  12  13
ATOM     13  C   UNL     1     -33.754  -9.163  -1.883  1.00  0.00    -0.003 C 
ATOM     14  C   UNL     1     -34.638 -10.228  -2.525  1.00  0.00     0.004 C 
ENDBRANCH  12  13
ENDBRANCH  11  12
ENDBRANCH   2  11
BRANCH   3  15
ATOM     15  O   UNL     1     -34.050  -7.931   1.734  1.00  0.00    -0.508 OA
ATOM     16  H   UNL     1     -34.831  -7.667   2.324  1.00  0.00     0.293 HD
ENDBRANCH   3  15
TORSDOF 7
ENDMDL
MODEL 6
REMARK VINA RESULT:    -4.752      2.325      4.294
REMARK INTER + INTRA:          -7.273
REMARK INTER:                  -6.504
REMARK INTRA:                  -0.768
REMARK UNBOUND:                -0.714
REMARK SMILES CCCCc1cccc(O)c1CCCC
REMARK SMILES IDX 5 1 11 2 9 3 8 4 7 5 6 6 4 7 3 8 2 9 1 10 12 11 13 12 14 13
REMARK SMILES IDX 15 14 10 15
REMARK H PARENT 10 16
REMARK Flexibility Score: inf
ROOT
ATOM      1  C   UNL     1     -32.618  -9.004   0.903  1.00  0.00    -0.041 A 
ATOM      2  C   UNL     1     -31.581  -9.189   1.866  1.00  0.00    -0.003 A 
ATOM      3  C   UNL     1     -31.895  -9.095   3.243  1.00  0.00     0.119 A 
ATOM      4  C   UNL     1     -33.200  -8.797   3.651  1.00  0.00     0.046 A 
ATOM      5  C   UNL     1     -34.203  -8.596   2.709  1.00  0.00     0.004 A 
ATOM      6  C   UNL     1     -33.918  -8.703   1.350  1.00  0.00     0.004 A 
ENDROOT
BRANCH   1   7
ATOM      7  C   UNL     1     -32.405  -9.144  -0.595  1.00  0.00     0.036 C 
BRANCH   7   8
ATOM      8  C   UNL     1     -33.692  -9.451  -1.381  1.00  0.00     0.004 C 
BRANCH   8   9
ATOM      9  C   UNL     1     -33.953 -10.950  -1.610  1.00  0.00    -0.003 C 
ATOM     10  C   UNL     1     -35.369 -11.368  -1.215  1.00  0.00     0.004 C 
ENDBRANCH   8   9
ENDBRANCH   7   8
ENDBRANCH   1   7
BRANCH   2  11
ATOM     11  C   UNL     1     -30.138  -9.454   1.476  1.00  0.00     0.040 C 
BRANCH  11  12
ATOM     12  C   UNL     1     -29.861 -10.963   1.380  1.00  0.00     0.005 C 
BRANCH  12  13
ATOM     13  C   UNL     1     -28.372 -11.266   1.582  1.00  0.00    -0.003 C 
ATOM     14  C   UNL     1     -27.920 -10.894   2.991  1.00  0.00     0.004 C 
ENDBRANCH  12  13
ENDBRANCH  11  12
ENDBRANCH   2  11
BRANCH   3  15
ATOM     15  O   UNL     1     -30.907  -9.302   4.206  1.00  0.00    -0.508 OA
ATOM     16  H   UNL     1     -30.962 -10.065   4.872  1.00  0.00     0.293 HD
ENDBRANCH   3  15
TORSDOF 7
ENDMDL
MODEL 7
REMARK VINA RESULT:    -4.749      2.141      4.711
REMARK INTER + INTRA:          -7.268
REMARK INTER:                  -6.164
REMARK INTRA:                  -1.104
REMARK UNBOUND:                -0.714
REMARK SMILES CCCCc1cccc(O)c1CCCC
REMARK SMILES IDX 5 1 11 2 9 3 8 4 7 5 6 6 4 7 3 8 2 9 1 10 12 11 13 12 14 13
REMARK SMILES IDX 15 14 10 15
REMARK H PARENT 10 16
REMARK Flexibility Score: inf
ROOT
ATOM      1  C   UNL     1     -31.804  -9.324   3.385  1.00  0.00    -0.041 A 
ATOM      2  C   UNL     1     -31.038  -9.502   2.194  1.00  0.00    -0.003 A 
ATOM      3  C   UNL     1     -30.056 -10.520   2.154  1.00  0.00     0.119 A 
ATOM      4  C   UNL     1     -29.822 -11.321   3.277  1.00  0.00     0.046 A 
ATOM      5  C   UNL     1     -30.556 -11.130   4.442  1.00  0.00     0.004 A 
ATOM      6  C   UNL     1     -31.540 -10.147   4.496  1.00  0.00     0.004 A 
ENDROOT
BRANCH   1   7
ATOM      7  C   UNL     1     -32.925  -8.305   3.516  1.00  0.00     0.036 C 
BRANCH   7   8
ATOM      8  C   UNL     1     -34.335  -8.923   3.484  1.00  0.00     0.004 C 
BRANCH   8   9
ATOM      9  C   UNL     1     -35.161  -8.554   2.240  1.00  0.00    -0.003 C 
ATOM     10  C   UNL     1     -35.680  -9.782   1.493  1.00  0.00     0.004 C 
ENDBRANCH   8   9
ENDBRANCH   7   8
ENDBRANCH   1   7
BRANCH   2  11
ATOM     11  C   UNL     1     -31.210  -8.621   0.970  1.00  0.00     0.040 C 
BRANCH  11  12
ATOM     12  C   UNL     1     -32.237  -9.223  -0.003  1.00  0.00     0.005 C 
BRANCH  12  13
ATOM     13  C   UNL     1     -32.978  -8.124  -0.774  1.00  0.00    -0.003 C 
ATOM     14  C   UNL     1     -33.217  -8.534  -2.224  1.00  0.00     0.004 C 
ENDBRANCH  12  13
ENDBRANCH  11  12
ENDBRANCH   2  11
BRANCH   3  15
ATOM     15  O   UNL     1     -29.314 -10.736   0.992  1.00  0.00    -0.508 OA
ATOM     16  H   UNL     1     -29.199 -10.014   0.290  1.00  0.00     0.293 HD
ENDBRANCH   3  15
TORSDOF 7
ENDMDL
MODEL 8
REMARK VINA RESULT:    -4.706      3.084      6.584
REMARK INTER + INTRA:          -7.209
REMARK INTER:                  -6.490
REMARK INTRA:                  -0.719
REMARK UNBOUND:                -0.714
REMARK SMILES CCCCc1cccc(O)c1CCCC
REMARK SMILES IDX 5 1 11 2 9 3 8 4 7 5 6 6 4 7 3 8 2 9 1 10 12 11 13 12 14 13
REMARK SMILES IDX 15 14 10 15
REMARK H PARENT 10 16
REMARK Flexibility Score: inf
ROOT
ATOM      1  C   UNL     1     -31.520  -9.312   1.628  1.00  0.00    -0.041 A 
ATOM      2  C   UNL     1     -32.623  -8.827   0.862  1.00  0.00    -0.003 A 
ATOM      3  C   UNL     1     -33.785  -8.383   1.536  1.00  0.00     0.119 A 
ATOM      4  C   UNL     1     -33.860  -8.445   2.932  1.00  0.00     0.046 A 
ATOM      5  C   UNL     1     -32.792  -8.938   3.672  1.00  0.00     0.004 A 
ATOM      6  C   UNL     1     -31.632  -9.363   3.030  1.00  0.00     0.004 A 
ENDROOT
BRANCH   1   7
ATOM      7  C   UNL     1     -30.203  -9.755   1.012  1.00  0.00     0.036 C 
BRANCH   7   8
ATOM      8  C   UNL     1     -29.751 -11.160   1.450  1.00  0.00     0.004 C 
BRANCH   8   9
ATOM      9  C   UNL     1     -28.253 -11.268   1.786  1.00  0.00    -0.003 C 
ATOM     10  C   UNL     1     -27.956 -10.967   3.254  1.00  0.00     0.004 C 
ENDBRANCH   8   9
ENDBRANCH   7   8
ENDBRANCH   1   7
BRANCH   2  11
ATOM     11  C   UNL     1     -32.616  -8.795  -0.655  1.00  0.00     0.040 C 
BRANCH  11  12
ATOM     12  C   UNL     1     -33.315 -10.036  -1.236  1.00  0.00     0.005 C 
BRANCH  12  13
ATOM     13  C   UNL     1     -34.295  -9.647  -2.349  1.00  0.00    -0.003 C 
ATOM     14  C   UNL     1     -33.839  -8.380  -3.067  1.00  0.00     0.004 C 
ENDBRANCH  12  13
ENDBRANCH  11  12
ENDBRANCH   2  11
BRANCH   3  15
ATOM     15  O   UNL     1     -34.866  -7.875   0.814  1.00  0.00    -0.508 OA
ATOM     16  H   UNL     1     -35.255  -8.369   0.019  1.00  0.00     0.293 HD
ENDBRANCH   3  15
TORSDOF 7
ENDMDL
MODEL 9
REMARK VINA RESULT:    -4.551      2.074      4.935
REMARK INTER + INTRA:          -6.995
REMARK INTER:                  -6.081
REMARK INTRA:                  -0.914
REMARK UNBOUND:                -0.714
REMARK SMILES CCCCc1cccc(O)c1CCCC
REMARK SMILES IDX 5 1 11 2 9 3 8 4 7 5 6 6 4 7 3 8 2 9 1 10 12 11 13 12 14 13
REMARK SMILES IDX 15 14 10 15
REMARK H PARENT 10 16
REMARK Flexibility Score: inf
ROOT
ATOM      1  C   UNL     1     -30.236 -10.473   3.566  1.00  0.00    -0.041 A 
ATOM      2  C   UNL     1     -30.955  -9.525   2.777  1.00  0.00    -0.003 A 
ATOM      3  C   UNL     1     -30.811  -9.552   1.370  1.00  0.00     0.119 A 
ATOM      4  C   UNL     1     -29.953 -10.476   0.764  1.00  0.00     0.046 A 
ATOM      5  C   UNL     1     -29.238 -11.383   1.538  1.00  0.00     0.004 A 
ATOM      6  C   UNL     1     -29.380 -11.386   2.923  1.00  0.00     0.004 A 
ENDROOT
BRANCH   1   7
ATOM      7  C   UNL     1     -30.365 -10.575   5.077  1.00  0.00     0.036 C 
BRANCH   7   8
ATOM      8  C   UNL     1     -29.040 -10.358   5.831  1.00  0.00     0.004 C 
BRANCH   8   9
ATOM      9  C   UNL     1     -29.085  -9.237   6.883  1.00  0.00    -0.003 C 
ATOM     10  C   UNL     1     -29.438  -7.878   6.281  1.00  0.00     0.004 C 
ENDBRANCH   8   9
ENDBRANCH   7   8
ENDBRANCH   1   7
BRANCH   2  11
ATOM     11  C   UNL     1     -31.852  -8.463   3.387  1.00  0.00     0.040 C 
BRANCH  11  12
ATOM     12  C   UNL     1     -33.280  -8.997   3.589  1.00  0.00     0.005 C 
BRANCH  12  13
ATOM     13  C   UNL     1     -34.288  -8.210   2.743  1.00  0.00    -0.003 C 
ATOM     14  C   UNL     1     -34.912  -9.093   1.666  1.00  0.00     0.004 C 
ENDBRANCH  12  13
ENDBRANCH  11  12
ENDBRANCH   2  11
BRANCH   3  15
ATOM     15  O   UNL     1     -31.526  -8.658   0.572  1.00  0.00    -0.508 OA
ATOM     16  H   UNL     1     -31.231  -8.430  -0.371  1.00  0.00     0.293 HD
ENDBRANCH   3  15
TORSDOF 7
ENDMDL
