MODEL 1
REMARK VINA RESULT:    -3.173      0.000      0.000
REMARK INTER + INTRA:          -5.301
REMARK INTER:                  -4.842
REMARK INTRA:                  -0.459
REMARK UNBOUND:                -0.459
REMARK SMILES CC1=CCC[C@@H](C)C(=O)C[C@@H](C(C)C)C(=O)C1
REMARK SMILES IDX 8 1 9 2 6 3 7 4 5 5 4 6 3 7 2 8 1 9 10 11 11 12 15 13 16 14
REMARK SMILES IDX 17 15 12 17 13 18 14 19
REMARK H PARENT
REMARK Flexibility Score: 70.00
ROOT
ATOM      1  C   UNL     1      -5.890 -39.120 214.832  1.00  0.00     0.136 C 
ATOM      2  O   UNL     1      -6.518 -38.128 214.491  1.00  0.00    -0.299 OA
ENDROOT
BRANCH   1   3
ATOM      3  C   UNL     1      -6.444 -40.486 214.470  1.00  0.00     0.053 C 
ATOM      4  C   UNL     1      -6.641 -40.652 212.956  1.00  0.00     0.016 C 
BRANCH   3   5
ATOM      5  C   UNL     1      -7.676 -40.868 215.326  1.00  0.00     0.015 C 
BRANCH   5   6
ATOM      6  C   UNL     1      -7.381 -41.702 216.587  1.00  0.00     0.028 C 
BRANCH   6   7
ATOM      7  C   UNL     1      -7.140 -40.808 217.774  1.00  0.00    -0.028 C 
ATOM      8  C   UNL     1      -5.971 -40.733 218.453  1.00  0.00    -0.070 CG0
ATOM      9  C   UNL     1      -5.914 -39.837 219.665  1.00  0.00     0.039 C 
ATOM     10  G   UNL     1      -4.720 -41.492 218.037  1.00  0.00     0.000 G0
ENDBRANCH   6   7
ENDBRANCH   5   6
ENDBRANCH   3   5
ENDBRANCH   1   3
BRANCH   1  11
ATOM     11  C   UNL     1      -4.611 -38.921 215.616  1.00  0.00     0.087 C 
BRANCH  11  12
ATOM     12  C   UNL     1      -3.853 -40.255 215.843  1.00  0.00     0.066 C 
BRANCH  12  13
ATOM     13  C   UNL     1      -3.716 -40.612 217.320  1.00  0.00     0.140 C 
ATOM     14  O   UNL     1      -2.810 -40.096 217.961  1.00  0.00    -0.299 OA
BRANCH  13  15
ATOM     15  C   UNL     1      -4.706 -41.491 218.048  1.00  0.00     0.106 CG0
ATOM     16  G   UNL     1      -5.974 -40.746 218.437  1.00  0.00     0.000 G0
ENDBRANCH  13  15
ENDBRANCH  12  13
BRANCH  12  17
ATOM     17  C   UNL     1      -2.513 -40.327 215.044  1.00  0.00    -0.006 C 
ATOM     18  C   UNL     1      -2.101 -38.950 214.502  1.00  0.00     0.008 C 
ATOM     19  C   UNL     1      -2.484 -41.373 213.916  1.00  0.00     0.008 C 
ENDBRANCH  12  17
ENDBRANCH  11  12
ENDBRANCH   1  11
TORSDOF 1
ENDMDL
MODEL 2
REMARK VINA RESULT:    -3.104      1.895      4.046
REMARK INTER + INTRA:          -5.197
REMARK INTER:                  -4.827
REMARK INTRA:                  -0.370
REMARK UNBOUND:                -0.459
REMARK SMILES CC1=CCC[C@@H](C)C(=O)C[C@@H](C(C)C)C(=O)C1
REMARK SMILES IDX 8 1 9 2 6 3 7 4 5 5 4 6 3 7 2 8 1 9 10 11 11 12 15 13 16 14
REMARK SMILES IDX 17 15 12 17 13 18 14 19
REMARK H PARENT
REMARK Flexibility Score: 70.00
ROOT
ATOM      1  C   UNL     1      -6.716 -40.501 215.681  1.00  0.00     0.136 C 
ATOM      2  O   UNL     1      -7.918 -40.665 215.826  1.00  0.00    -0.299 OA
ENDROOT
BRANCH   1   3
ATOM      3  C   UNL     1      -6.232 -39.747 214.455  1.00  0.00     0.053 C 
ATOM      4  C   UNL     1      -6.903 -38.373 214.315  1.00  0.00     0.016 C 
BRANCH   3   5
ATOM      5  C   UNL     1      -6.271 -40.617 213.175  1.00  0.00     0.015 C 
BRANCH   5   6
ATOM      6  C   UNL     1      -5.161 -41.679 213.055  1.00  0.00     0.028 C 
BRANCH   6   7
ATOM      7  C   UNL     1      -3.804 -41.030 213.013  1.00  0.00    -0.028 C 
ATOM      8  C   UNL     1      -2.921 -41.029 214.039  1.00  0.00    -0.070 CG0
ATOM      9  C   UNL     1      -1.629 -40.273 213.861  1.00  0.00     0.039 C 
ATOM     10  G   UNL     1      -3.168 -41.771 215.345  1.00  0.00     0.000 G0
ENDBRANCH   6   7
ENDBRANCH   5   6
ENDBRANCH   3   5
ENDBRANCH   1   3
BRANCH   1  11
ATOM     11  C   UNL     1      -5.783 -41.084 216.722  1.00  0.00     0.087 C 
BRANCH  11  12
ATOM     12  C   UNL     1      -4.553 -40.174 216.977  1.00  0.00     0.066 C 
BRANCH  12  13
ATOM     13  C   UNL     1      -3.243 -40.817 216.534  1.00  0.00     0.140 C 
ATOM     14  O   UNL     1      -2.243 -40.624 217.212  1.00  0.00    -0.299 OA
BRANCH  13  15
ATOM     15  C   UNL     1      -3.147 -41.759 215.356  1.00  0.00     0.106 CG0
ATOM     16  G   UNL     1      -2.910 -41.029 214.042  1.00  0.00     0.000 G0
ENDBRANCH  13  15
ENDBRANCH  12  13
BRANCH  12  17
ATOM     17  C   UNL     1      -4.522 -39.601 218.429  1.00  0.00    -0.006 C 
ATOM     18  C   UNL     1      -4.925 -40.661 219.466  1.00  0.00     0.008 C 
ATOM     19  C   UNL     1      -5.340 -38.315 218.638  1.00  0.00     0.008 C 
ENDBRANCH  12  17
ENDBRANCH  11  12
ENDBRANCH   1  11
TORSDOF 1
ENDMDL
MODEL 3
REMARK VINA RESULT:    -3.057      2.462      5.133
REMARK INTER + INTRA:          -5.125
REMARK INTER:                  -4.772
REMARK INTRA:                  -0.353
REMARK UNBOUND:                -0.459
REMARK SMILES CC1=CCC[C@@H](C)C(=O)C[C@@H](C(C)C)C(=O)C1
REMARK SMILES IDX 8 1 9 2 6 3 7 4 5 5 4 6 3 7 2 8 1 9 10 11 11 12 15 13 16 14
REMARK SMILES IDX 17 15 12 17 13 18 14 19
REMARK H PARENT
REMARK Flexibility Score: 70.00
ROOT
ATOM      1  C   UNL     1      -5.539 -38.579 215.150  1.00  0.00     0.136 C 
ATOM      2  O   UNL     1      -5.868 -37.475 214.740  1.00  0.00    -0.299 OA
ENDROOT
BRANCH   1   3
ATOM      3  C   UNL     1      -4.403 -38.668 216.153  1.00  0.00     0.053 C 
ATOM      4  C   UNL     1      -4.766 -38.029 217.501  1.00  0.00     0.016 C 
BRANCH   3   5
ATOM      5  C   UNL     1      -3.054 -38.197 215.558  1.00  0.00     0.015 C 
BRANCH   5   6
ATOM      6  C   UNL     1      -2.097 -39.316 215.103  1.00  0.00     0.028 C 
BRANCH   6   7
ATOM      7  C   UNL     1      -2.193 -39.527 213.616  1.00  0.00    -0.028 C 
ATOM      8  C   UNL     1      -2.677 -40.647 213.029  1.00  0.00    -0.070 CG0
ATOM      9  C   UNL     1      -2.641 -40.730 211.524  1.00  0.00     0.039 C 
ATOM     10  G   UNL     1      -3.269 -41.806 213.818  1.00  0.00     0.000 G0
ENDBRANCH   6   7
ENDBRANCH   5   6
ENDBRANCH   3   5
ENDBRANCH   1   3
BRANCH   1  11
ATOM     11  C   UNL     1      -6.271 -39.789 214.611  1.00  0.00     0.087 C 
BRANCH  11  12
ATOM     12  C   UNL     1      -5.569 -41.116 214.999  1.00  0.00     0.066 C 
BRANCH  12  13
ATOM     13  C   UNL     1      -4.796 -41.737 213.840  1.00  0.00     0.140 C 
ATOM     14  O   UNL     1      -5.423 -42.116 212.860  1.00  0.00    -0.299 OA
BRANCH  13  15
ATOM     15  C   UNL     1      -3.287 -41.811 213.806  1.00  0.00     0.106 CG0
ATOM     16  G   UNL     1      -2.662 -40.656 213.038  1.00  0.00     0.000 G0
ENDBRANCH  13  15
ENDBRANCH  12  13
BRANCH  12  17
ATOM     17  C   UNL     1      -6.528 -42.111 215.729  1.00  0.00    -0.006 C 
ATOM     18  C   UNL     1      -7.982 -41.940 215.264  1.00  0.00     0.008 C 
ATOM     19  C   UNL     1      -6.453 -42.076 217.266  1.00  0.00     0.008 C 
ENDBRANCH  12  17
ENDBRANCH  11  12
ENDBRANCH   1  11
TORSDOF 1
ENDMDL
MODEL 4
REMARK VINA RESULT:    -2.963     12.188     14.313
REMARK INTER + INTRA:          -4.982
REMARK INTER:                  -4.937
REMARK INTRA:                  -0.045
REMARK UNBOUND:                -0.459
REMARK SMILES CC1=CCC[C@@H](C)C(=O)C[C@@H](C(C)C)C(=O)C1
REMARK SMILES IDX 8 1 9 2 6 3 7 4 5 5 4 6 3 7 2 8 1 9 10 11 11 12 15 13 16 14
REMARK SMILES IDX 17 15 12 17 13 18 14 19
REMARK H PARENT
REMARK Flexibility Score: 70.00
ROOT
ATOM      1  C   UNL     1     -16.710 -37.946 210.426  1.00  0.00     0.136 C 
ATOM      2  O   UNL     1     -15.490 -37.875 210.396  1.00  0.00    -0.299 OA
ENDROOT
BRANCH   1   3
ATOM      3  C   UNL     1     -17.377 -38.389 211.715  1.00  0.00     0.053 C 
ATOM      4  C   UNL     1     -17.490 -37.247 212.735  1.00  0.00     0.016 C 
BRANCH   3   5
ATOM      5  C   UNL     1     -16.765 -39.696 212.276  1.00  0.00     0.015 C 
BRANCH   5   6
ATOM      6  C   UNL     1     -16.984 -40.958 211.420  1.00  0.00     0.028 C 
BRANCH   6   7
ATOM      7  C   UNL     1     -15.714 -41.350 210.714  1.00  0.00    -0.028 C 
ATOM      8  C   UNL     1     -15.600 -41.517 209.375  1.00  0.00    -0.070 CG0
ATOM      9  C   UNL     1     -14.272 -41.980 208.830  1.00  0.00     0.039 C 
ATOM     10  G   UNL     1     -16.738 -41.237 208.405  1.00  0.00     0.000 G0
ENDBRANCH   6   7
ENDBRANCH   5   6
ENDBRANCH   3   5
ENDBRANCH   1   3
BRANCH   1  11
ATOM     11  C   UNL     1     -17.478 -37.609 209.165  1.00  0.00     0.087 C 
BRANCH  11  12
ATOM     12  C   UNL     1     -17.979 -38.879 208.430  1.00  0.00     0.066 C 
BRANCH  12  13
ATOM     13  C   UNL     1     -16.841 -39.788 207.980  1.00  0.00     0.140 C 
ATOM     14  O   UNL     1     -15.925 -39.297 207.334  1.00  0.00    -0.299 OA
BRANCH  13  15
ATOM     15  C   UNL     1     -16.744 -41.242 208.380  1.00  0.00     0.106 CG0
ATOM     16  G   UNL     1     -15.613 -41.504 209.364  1.00  0.00     0.000 G0
ENDBRANCH  13  15
ENDBRANCH  12  13
BRANCH  12  17
ATOM     17  C   UNL     1     -19.015 -38.552 207.308  1.00  0.00    -0.006 C 
ATOM     18  C   UNL     1     -18.999 -39.613 206.196  1.00  0.00     0.008 C 
ATOM     19  C   UNL     1     -18.895 -37.144 206.701  1.00  0.00     0.008 C 
ENDBRANCH  12  17
ENDBRANCH  11  12
ENDBRANCH   1  11
TORSDOF 1
ENDMDL
MODEL 5
REMARK VINA RESULT:    -2.800      2.112      4.570
REMARK INTER + INTRA:          -4.732
REMARK INTER:                  -4.455
REMARK INTRA:                  -0.278
REMARK UNBOUND:                -0.459
REMARK SMILES CC1=CCC[C@@H](C)C(=O)C[C@@H](C(C)C)C(=O)C1
REMARK SMILES IDX 8 1 9 2 6 3 7 4 5 5 4 6 3 7 2 8 1 9 10 11 11 12 15 13 16 14
REMARK SMILES IDX 17 15 12 17 13 18 14 19
REMARK H PARENT
REMARK Flexibility Score: 70.00
ROOT
ATOM      1  C   UNL     1      -5.061 -38.758 217.925  1.00  0.00     0.136 C 
ATOM      2  O   UNL     1      -5.287 -37.756 218.587  1.00  0.00    -0.299 OA
ENDROOT
BRANCH   1   3
ATOM      3  C   UNL     1      -4.804 -40.063 218.655  1.00  0.00     0.053 C 
ATOM      4  C   UNL     1      -5.779 -40.281 219.821  1.00  0.00     0.016 C 
BRANCH   3   5
ATOM      5  C   UNL     1      -3.311 -40.250 219.021  1.00  0.00     0.015 C 
BRANCH   5   6
ATOM      6  C   UNL     1      -2.615 -41.471 218.388  1.00  0.00     0.028 C 
BRANCH   6   7
ATOM      7  C   UNL     1      -1.496 -41.035 217.481  1.00  0.00    -0.028 C 
ATOM      8  C   UNL     1      -1.547 -41.069 216.128  1.00  0.00    -0.070 CG0
ATOM      9  C   UNL     1      -0.312 -40.662 215.364  1.00  0.00     0.039 C 
ATOM     10  G   UNL     1      -2.793 -41.475 215.355  1.00  0.00     0.000 G0
ENDBRANCH   6   7
ENDBRANCH   5   6
ENDBRANCH   3   5
ENDBRANCH   1   3
BRANCH   1  11
ATOM     11  C   UNL     1      -5.026 -38.626 216.417  1.00  0.00     0.087 C 
BRANCH  11  12
ATOM     12  C   UNL     1      -5.004 -40.007 215.712  1.00  0.00     0.066 C 
BRANCH  12  13
ATOM     13  C   UNL     1      -3.685 -40.283 214.997  1.00  0.00     0.140 C 
ATOM     14  O   UNL     1      -3.285 -39.466 214.179  1.00  0.00    -0.299 OA
BRANCH  13  15
ATOM     15  C   UNL     1      -2.804 -41.466 215.327  1.00  0.00     0.106 CG0
ATOM     16  G   UNL     1      -1.563 -41.069 216.113  1.00  0.00     0.000 G0
ENDBRANCH  13  15
ENDBRANCH  12  13
BRANCH  12  17
ATOM     17  C   UNL     1      -6.269 -40.250 214.828  1.00  0.00    -0.006 C 
ATOM     18  C   UNL     1      -6.777 -38.946 214.195  1.00  0.00     0.008 C 
ATOM     19  C   UNL     1      -7.423 -40.984 215.533  1.00  0.00     0.008 C 
ENDBRANCH  12  17
ENDBRANCH  11  12
ENDBRANCH   1  11
TORSDOF 1
ENDMDL
MODEL 6
REMARK VINA RESULT:    -2.782     12.336     14.723
REMARK INTER + INTRA:          -4.705
REMARK INTER:                  -4.634
REMARK INTRA:                  -0.072
REMARK UNBOUND:                -0.459
REMARK SMILES CC1=CCC[C@@H](C)C(=O)C[C@@H](C(C)C)C(=O)C1
REMARK SMILES IDX 8 1 9 2 6 3 7 4 5 5 4 6 3 7 2 8 1 9 10 11 11 12 15 13 16 14
REMARK SMILES IDX 17 15 12 17 13 18 14 19
REMARK H PARENT
REMARK Flexibility Score: 70.00
ROOT
ATOM      1  C   UNL     1     -16.341 -38.651 211.013  1.00  0.00     0.136 C 
ATOM      2  O   UNL     1     -15.859 -37.918 211.865  1.00  0.00    -0.299 OA
ENDROOT
BRANCH   1   3
ATOM      3  C   UNL     1     -16.499 -40.126 211.335  1.00  0.00     0.053 C 
ATOM      4  C   UNL     1     -16.631 -40.382 212.844  1.00  0.00     0.016 C 
BRANCH   3   5
ATOM      5  C   UNL     1     -15.437 -41.001 210.624  1.00  0.00     0.015 C 
BRANCH   5   6
ATOM      6  C   UNL     1     -15.964 -41.895 209.485  1.00  0.00     0.028 C 
BRANCH   6   7
ATOM      7  C   UNL     1     -15.181 -41.663 208.220  1.00  0.00    -0.028 C 
ATOM      8  C   UNL     1     -15.694 -41.130 207.087  1.00  0.00    -0.070 CG0
ATOM      9  C   UNL     1     -14.793 -41.027 205.882  1.00  0.00     0.039 C 
ATOM     10  G   UNL     1     -17.122 -40.614 206.986  1.00  0.00     0.000 G0
ENDBRANCH   6   7
ENDBRANCH   5   6
ENDBRANCH   3   5
ENDBRANCH   1   3
BRANCH   1  11
ATOM     11  C   UNL     1     -16.727 -38.044 209.681  1.00  0.00     0.087 C 
BRANCH  11  12
ATOM     12  C   UNL     1     -17.750 -38.921 208.914  1.00  0.00     0.066 C 
BRANCH  12  13
ATOM     13  C   UNL     1     -17.319 -39.214 207.481  1.00  0.00     0.140 C 
ATOM     14  O   UNL     1     -17.030 -38.270 206.757  1.00  0.00    -0.299 OA
BRANCH  13  15
ATOM     15  C   UNL     1     -17.136 -40.616 206.948  1.00  0.00     0.106 CG0
ATOM     16  G   UNL     1     -15.704 -41.112 207.085  1.00  0.00     0.000 G0
ENDBRANCH  13  15
ENDBRANCH  12  13
BRANCH  12  17
ATOM     17  C   UNL     1     -19.212 -38.388 209.043  1.00  0.00    -0.006 C 
ATOM     18  C   UNL     1     -19.999 -39.147 210.123  1.00  0.00     0.008 C 
ATOM     19  C   UNL     1     -20.011 -38.355 207.728  1.00  0.00     0.008 C 
ENDBRANCH  12  17
ENDBRANCH  11  12
ENDBRANCH   1  11
TORSDOF 1
ENDMDL
MODEL 7
REMARK VINA RESULT:    -2.698     12.512     14.402
REMARK INTER + INTRA:          -4.577
REMARK INTER:                  -4.900
REMARK INTRA:                   0.323
REMARK UNBOUND:                -0.459
REMARK SMILES CC1=CCC[C@@H](C)C(=O)C[C@@H](C(C)C)C(=O)C1
REMARK SMILES IDX 8 1 9 2 6 3 7 4 5 5 4 6 3 7 2 8 1 9 10 11 11 12 15 13 16 14
REMARK SMILES IDX 17 15 12 17 13 18 14 19
REMARK H PARENT
REMARK Flexibility Score: 70.00
ROOT
ATOM      1  C   UNL     1     -16.306 -37.851 210.664  1.00  0.00     0.136 C 
ATOM      2  O   UNL     1     -15.505 -36.955 210.888  1.00  0.00    -0.299 OA
ENDROOT
BRANCH   1   3
ATOM      3  C   UNL     1     -17.144 -38.376 211.815  1.00  0.00     0.053 C 
ATOM      4  C   UNL     1     -17.746 -37.244 212.661  1.00  0.00     0.016 C 
BRANCH   3   5
ATOM      5  C   UNL     1     -16.408 -39.467 212.631  1.00  0.00     0.015 C 
BRANCH   5   6
ATOM      6  C   UNL     1     -16.584 -40.912 212.124  1.00  0.00     0.028 C 
BRANCH   6   7
ATOM      7  C   UNL     1     -18.035 -41.212 211.861  1.00  0.00    -0.028 C 
ATOM      8  C   UNL     1     -18.522 -41.672 210.684  1.00  0.00    -0.070 CG0
ATOM      9  C   UNL     1     -20.014 -41.856 210.560  1.00  0.00     0.039 C 
ATOM     10  G   UNL     1     -17.634 -42.027 209.501  1.00  0.00     0.000 G0
ENDBRANCH   6   7
ENDBRANCH   5   6
ENDBRANCH   3   5
ENDBRANCH   1   3
BRANCH   1  11
ATOM     11  C   UNL     1     -16.393 -38.397 209.255  1.00  0.00     0.087 C 
BRANCH  11  12
ATOM     12  C   UNL     1     -17.560 -39.404 209.090  1.00  0.00     0.066 C 
BRANCH  12  13
ATOM     13  C   UNL     1     -17.079 -40.822 208.797  1.00  0.00     0.140 C 
ATOM     14  O   UNL     1     -16.128 -40.968 208.041  1.00  0.00    -0.299 OA
BRANCH  13  15
ATOM     15  C   UNL     1     -17.659 -42.042 209.474  1.00  0.00     0.106 CG0
ATOM     16  G   UNL     1     -18.520 -41.690 210.678  1.00  0.00     0.000 G0
ENDBRANCH  13  15
ENDBRANCH  12  13
BRANCH  12  17
ATOM     17  C   UNL     1     -18.663 -38.891 208.110  1.00  0.00    -0.006 C 
ATOM     18  C   UNL     1     -18.260 -37.563 207.450  1.00  0.00     0.008 C 
ATOM     19  C   UNL     1     -20.071 -38.777 208.718  1.00  0.00     0.008 C 
ENDBRANCH  12  17
ENDBRANCH  11  12
ENDBRANCH   1  11
TORSDOF 1
ENDMDL
MODEL 8
REMARK VINA RESULT:    -2.686      2.300      4.674
REMARK INTER + INTRA:          -4.559
REMARK INTER:                  -4.477
REMARK INTRA:                  -0.082
REMARK UNBOUND:                -0.459
REMARK SMILES CC1=CCC[C@@H](C)C(=O)C[C@@H](C(C)C)C(=O)C1
REMARK SMILES IDX 8 1 9 2 6 3 7 4 5 5 4 6 3 7 2 8 1 9 10 11 11 12 15 13 16 14
REMARK SMILES IDX 17 15 12 17 13 18 14 19
REMARK H PARENT
REMARK Flexibility Score: 70.00
ROOT
ATOM      1  C   UNL     1      -4.978 -38.853 217.720  1.00  0.00     0.136 C 
ATOM      2  O   UNL     1      -5.105 -37.933 218.515  1.00  0.00    -0.299 OA
ENDROOT
BRANCH   1   3
ATOM      3  C   UNL     1      -5.140 -38.556 216.240  1.00  0.00     0.053 C 
ATOM      4  C   UNL     1      -5.831 -39.704 215.488  1.00  0.00     0.016 C 
BRANCH   3   5
ATOM      5  C   UNL     1      -3.825 -38.061 215.590  1.00  0.00     0.015 C 
BRANCH   5   6
ATOM      6  C   UNL     1      -3.123 -39.064 214.655  1.00  0.00     0.028 C 
BRANCH   6   7
ATOM      7  C   UNL     1      -1.708 -39.311 215.105  1.00  0.00    -0.028 C 
ATOM      8  C   UNL     1      -1.341 -40.258 216.000  1.00  0.00    -0.070 CG0
ATOM      9  C   UNL     1       0.112 -40.331 216.398  1.00  0.00     0.039 C 
ATOM     10  G   UNL     1      -2.321 -41.256 216.599  1.00  0.00     0.000 G0
ENDBRANCH   6   7
ENDBRANCH   5   6
ENDBRANCH   3   5
ENDBRANCH   1   3
BRANCH   1  11
ATOM     11  C   UNL     1      -4.691 -40.236 218.265  1.00  0.00     0.087 C 
BRANCH  11  12
ATOM     12  C   UNL     1      -3.273 -40.335 218.886  1.00  0.00     0.066 C 
BRANCH  12  13
ATOM     13  C   UNL     1      -2.349 -41.261 218.101  1.00  0.00     0.140 C 
ATOM     14  O   UNL     1      -1.668 -42.065 218.723  1.00  0.00    -0.299 OA
BRANCH  13  15
ATOM     15  C   UNL     1      -2.311 -41.297 216.591  1.00  0.00     0.106 CG0
ATOM     16  G   UNL     1      -1.350 -40.273 216.006  1.00  0.00     0.000 G0
ENDBRANCH  13  15
ENDBRANCH  12  13
BRANCH  12  17
ATOM     17  C   UNL     1      -3.309 -40.623 220.421  1.00  0.00    -0.006 C 
ATOM     18  C   UNL     1      -4.624 -40.145 221.056  1.00  0.00     0.008 C 
ATOM     19  C   UNL     1      -2.107 -40.081 221.213  1.00  0.00     0.008 C 
ENDBRANCH  12  17
ENDBRANCH  11  12
ENDBRANCH   1  11
TORSDOF 1
ENDMDL
MODEL 9
REMARK VINA RESULT:    -2.671     11.989     13.875
REMARK INTER + INTRA:          -4.537
REMARK INTER:                  -4.842
REMARK INTRA:                   0.305
REMARK UNBOUND:                -0.459
REMARK SMILES CC1=CCC[C@@H](C)C(=O)C[C@@H](C(C)C)C(=O)C1
REMARK SMILES IDX 8 1 9 2 6 3 7 4 5 5 4 6 3 7 2 8 1 9 10 11 11 12 15 13 16 14
REMARK SMILES IDX 17 15 12 17 13 18 14 19
REMARK H PARENT
REMARK Flexibility Score: 70.00
ROOT
ATOM      1  C   UNL     1     -17.849 -38.608 207.709  1.00  0.00     0.136 C 
ATOM      2  O   UNL     1     -18.422 -37.698 207.127  1.00  0.00    -0.299 OA
ENDROOT
BRANCH   1   3
ATOM      3  C   UNL     1     -18.622 -39.881 207.998  1.00  0.00     0.053 C 
ATOM      4  C   UNL     1     -18.794 -40.755 206.747  1.00  0.00     0.016 C 
BRANCH   3   5
ATOM      5  C   UNL     1     -19.931 -39.612 208.780  1.00  0.00     0.015 C 
BRANCH   5   6
ATOM      6  C   UNL     1     -19.757 -39.234 210.264  1.00  0.00     0.028 C 
BRANCH   6   7
ATOM      7  C   UNL     1     -18.945 -40.274 210.987  1.00  0.00    -0.028 C 
ATOM      8  C   UNL     1     -17.787 -40.025 211.644  1.00  0.00    -0.070 CG0
ATOM      9  C   UNL     1     -17.057 -41.192 212.260  1.00  0.00     0.039 C 
ATOM     10  G   UNL     1     -17.208 -38.627 211.802  1.00  0.00     0.000 G0
ENDBRANCH   6   7
ENDBRANCH   5   6
ENDBRANCH   3   5
ENDBRANCH   1   3
BRANCH   1  11
ATOM     11  C   UNL     1     -16.409 -38.395 208.127  1.00  0.00     0.087 C 
BRANCH  11  12
ATOM     12  C   UNL     1     -16.064 -39.152 209.435  1.00  0.00     0.066 C 
BRANCH  12  13
ATOM     13  C   UNL     1     -16.234 -38.287 210.680  1.00  0.00     0.140 C 
ATOM     14  O   UNL     1     -15.603 -37.241 210.752  1.00  0.00    -0.299 OA
BRANCH  13  15
ATOM     15  C   UNL     1     -17.219 -38.614 211.779  1.00  0.00     0.106 CG0
ATOM     16  G   UNL     1     -17.765 -40.031 211.672  1.00  0.00     0.000 G0
ENDBRANCH  13  15
ENDBRANCH  12  13
BRANCH  12  17
ATOM     17  C   UNL     1     -14.689 -39.890 209.356  1.00  0.00    -0.006 C 
ATOM     18  C   UNL     1     -14.155 -39.939 207.917  1.00  0.00     0.008 C 
ATOM     19  C   UNL     1     -14.669 -41.296 209.980  1.00  0.00     0.008 C 
ENDBRANCH  12  17
ENDBRANCH  11  12
ENDBRANCH   1  11
TORSDOF 1
ENDMDL
