MODEL 1
REMARK VINA RESULT:    -0.813      0.000      0.000
REMARK INTER + INTRA:          -2.118
REMARK INTER:                  -1.431
REMARK INTRA:                  -0.686
REMARK UNBOUND:                -0.686
REMARK SMILES CCCCCCC=CCCCCCCCC(=O)[O-]
REMARK SMILES IDX 10 1 11 2 12 3 13 4 14 5 15 6 16 7 17 8 18 9 9 10 8 11 7 12
REMARK SMILES IDX 6 13 5 14 4 15 3 16 2 17 1 18
REMARK H PARENT
REMARK Flexibility Score: inf
ROOT
ATOM      1  C   UNL     1      53.399 146.903  -0.152  1.00  0.00     0.004 C 
ENDROOT
BRANCH   1   2
ATOM      2  C   UNL     1      52.727 148.013   0.672  1.00  0.00     0.000 C 
BRANCH   2   3
ATOM      3  C   UNL     1      52.173 147.498   2.012  1.00  0.00     0.000 C 
BRANCH   3   4
ATOM      4  C   UNL     1      50.669 147.771   2.174  1.00  0.00     0.000 C 
BRANCH   4   5
ATOM      5  C   UNL     1      49.831 147.172   1.032  1.00  0.00     0.006 C 
BRANCH   5   6
ATOM      6  C   UNL     1      48.691 148.104   0.599  1.00  0.00     0.053 C 
BRANCH   6   7
ATOM      7  C   UNL     1      47.605 147.361  -0.119  1.00  0.00     0.041 C 
ATOM      8  O   UNL     1      46.983 146.434   0.461  1.00  0.00    -0.550 OA
ATOM      9  O   UNL     1      47.302 147.673  -1.439  1.00  0.00    -0.550 OA
ENDBRANCH   6   7
ENDBRANCH   5   6
ENDBRANCH   4   5
ENDBRANCH   3   4
ENDBRANCH   2   3
ENDBRANCH   1   2
BRANCH   1  10
ATOM     10  C   UNL     1      54.607 147.411  -0.956  1.00  0.00     0.027 C 
BRANCH  10  11
ATOM     11  C   UNL     1      54.224 147.701  -2.380  1.00  0.00    -0.031 C 
ATOM     12  C   UNL     1      52.940 147.815  -2.752  1.00  0.00    -0.031 C 
BRANCH  12  13
ATOM     13  C   UNL     1      52.557 148.124  -4.172  1.00  0.00     0.027 C 
BRANCH  13  14
ATOM     14  C   UNL     1      53.235 147.152  -5.149  1.00  0.00     0.004 C 
BRANCH  14  15
ATOM     15  C   UNL     1      52.995 147.523  -6.623  1.00  0.00     0.000 C 
BRANCH  15  16
ATOM     16  C   UNL     1      51.540 147.898  -6.974  1.00  0.00    -0.000 C 
BRANCH  16  17
ATOM     17  C   UNL     1      50.843 146.943  -7.959  1.00  0.00    -0.003 C 
ATOM     18  C   UNL     1      49.342 147.202  -8.078  1.00  0.00     0.004 C 
ENDBRANCH  16  17
ENDBRANCH  15  16
ENDBRANCH  14  15
ENDBRANCH  13  14
ENDBRANCH  12  13
ENDBRANCH  10  11
ENDBRANCH   1  10
TORSDOF 13
ENDMDL
MODEL 2
REMARK VINA RESULT:     0.282      1.311      2.195
REMARK INTER + INTRA:          -0.191
REMARK INTER:                   0.656
REMARK INTRA:                  -0.847
REMARK UNBOUND:                -0.686
REMARK SMILES CCCCCCC=CCCCCCCCC(=O)[O-]
REMARK SMILES IDX 10 1 11 2 12 3 13 4 14 5 15 6 16 7 17 8 18 9 9 10 8 11 7 12
REMARK SMILES IDX 6 13 5 14 4 15 3 16 2 17 1 18
REMARK H PARENT
REMARK Flexibility Score: inf
ROOT
ATOM      1  C   UNL     1      52.542 147.298   1.314  1.00  0.00     0.004 C 
ENDROOT
BRANCH   1   2
ATOM      2  C   UNL     1      51.127 147.582   1.846  1.00  0.00     0.000 C 
BRANCH   2   3
ATOM      3  C   UNL     1      50.159 148.028   0.736  1.00  0.00     0.000 C 
BRANCH   3   4
ATOM      4  C   UNL     1      48.718 147.552   0.982  1.00  0.00     0.000 C 
BRANCH   4   5
ATOM      5  C   UNL     1      47.750 147.998  -0.127  1.00  0.00     0.006 C 
BRANCH   5   6
ATOM      6  C   UNL     1      48.404 147.962  -1.516  1.00  0.00     0.053 C 
BRANCH   6   7
ATOM      7  C   UNL     1      47.602 147.151  -2.489  1.00  0.00     0.041 C 
ATOM      8  O   UNL     1      47.348 147.606  -3.634  1.00  0.00    -0.550 OA
ATOM      9  O   UNL     1      47.109 145.906  -2.118  1.00  0.00    -0.550 OA
ENDBRANCH   6   7
ENDBRANCH   5   6
ENDBRANCH   4   5
ENDBRANCH   3   4
ENDBRANCH   2   3
ENDBRANCH   1   2
BRANCH   1  10
ATOM     10  C   UNL     1      52.532 146.478   0.014  1.00  0.00     0.027 C 
BRANCH  10  11
ATOM     11  C   UNL     1      52.702 147.368  -1.186  1.00  0.00    -0.031 C 
ATOM     12  C   UNL     1      51.986 147.182  -2.305  1.00  0.00    -0.031 C 
BRANCH  12  13
ATOM     13  C   UNL     1      52.143 148.083  -3.498  1.00  0.00     0.027 C 
BRANCH  13  14
ATOM     14  C   UNL     1      53.601 148.111  -3.981  1.00  0.00     0.004 C 
BRANCH  14  15
ATOM     15  C   UNL     1      53.811 147.330  -5.290  1.00  0.00     0.000 C 
BRANCH  15  16
ATOM     16  C   UNL     1      53.473 148.111  -6.577  1.00  0.00    -0.000 C 
BRANCH  16  17
ATOM     17  C   UNL     1      51.983 148.121  -6.958  1.00  0.00    -0.003 C 
ATOM     18  C   UNL     1      51.587 146.944  -7.847  1.00  0.00     0.004 C 
ENDBRANCH  16  17
ENDBRANCH  15  16
ENDBRANCH  14  15
ENDBRANCH  13  14
ENDBRANCH  12  13
ENDBRANCH  10  11
ENDBRANCH   1  10
TORSDOF 13
ENDMDL
MODEL 3
REMARK VINA RESULT:     0.539      2.629      6.411
REMARK INTER + INTRA:           0.263
REMARK INTER:                  -0.698
REMARK INTRA:                   0.960
REMARK UNBOUND:                -0.686
REMARK SMILES CCCCCCC=CCCCCCCCC(=O)[O-]
REMARK SMILES IDX 10 1 11 2 12 3 13 4 14 5 15 6 16 7 17 8 18 9 9 10 8 11 7 12
REMARK SMILES IDX 6 13 5 14 4 15 3 16 2 17 1 18
REMARK H PARENT
REMARK Flexibility Score: inf
ROOT
ATOM      1  C   UNL     1      54.433 147.614  -1.185  1.00  0.00     0.004 C 
ENDROOT
BRANCH   1   2
ATOM      2  C   UNL     1      55.029 147.495  -2.598  1.00  0.00     0.000 C 
BRANCH   2   3
ATOM      3  C   UNL     1      54.111 148.098  -3.677  1.00  0.00     0.000 C 
BRANCH   3   4
ATOM      4  C   UNL     1      52.639 147.694  -3.494  1.00  0.00     0.000 C 
BRANCH   4   5
ATOM      5  C   UNL     1      51.756 148.121  -4.679  1.00  0.00     0.006 C 
BRANCH   5   6
ATOM      6  C   UNL     1      52.383 147.752  -6.031  1.00  0.00     0.053 C 
BRANCH   6   7
ATOM      7  C   UNL     1      51.344 147.365  -7.040  1.00  0.00     0.041 C 
ATOM      8  O   UNL     1      50.196 147.878  -6.994  1.00  0.00    -0.550 OA
ATOM      9  O   UNL     1      51.636 146.416  -8.012  1.00  0.00    -0.550 OA
ENDBRANCH   6   7
ENDBRANCH   5   6
ENDBRANCH   4   5
ENDBRANCH   3   4
ENDBRANCH   2   3
ENDBRANCH   1   2
BRANCH   1  10
ATOM     10  C   UNL     1      52.938 147.259  -1.141  1.00  0.00     0.027 C 
BRANCH  10  11
ATOM     11  C   UNL     1      52.262 147.922   0.027  1.00  0.00    -0.031 C 
ATOM     12  C   UNL     1      51.668 147.206   0.994  1.00  0.00    -0.031 C 
BRANCH  12  13
ATOM     13  C   UNL     1      51.008 147.869   2.171  1.00  0.00     0.027 C 
BRANCH  13  14
ATOM     14  C   UNL     1      49.514 148.104   1.904  1.00  0.00     0.004 C 
BRANCH  14  15
ATOM     15  C   UNL     1      49.122 147.849   0.438  1.00  0.00     0.000 C 
BRANCH  15  16
ATOM     16  C   UNL     1      47.628 148.057   0.116  1.00  0.00    -0.000 C 
BRANCH  16  17
ATOM     17  C   UNL     1      47.163 147.460  -1.224  1.00  0.00    -0.003 C 
ATOM     18  C   UNL     1      47.924 148.025  -2.423  1.00  0.00     0.004 C 
ENDBRANCH  16  17
ENDBRANCH  15  16
ENDBRANCH  14  15
ENDBRANCH  13  14
ENDBRANCH  12  13
ENDBRANCH  10  11
ENDBRANCH   1  10
TORSDOF 13
ENDMDL
