MODEL 1
REMARK VINA RESULT:    -4.657      0.000      0.000
REMARK INTER + INTRA:          -5.535
REMARK INTER:                  -5.610
REMARK INTRA:                   0.075
REMARK UNBOUND:                 0.075
REMARK SMILES O=c1c(O)c(-c2ccc(O)cc2O)oc2cc(O)cc(O)c12
REMARK SMILES IDX 5 1 3 2 2 3 1 4 22 5 20 6 19 7 17 8 16 9 15 10 14 11 6 12
REMARK SMILES IDX 8 13 7 14 9 15 11 16 12 17 10 18 13 20 4 22 21 24 18 26
REMARK H PARENT 10 19 13 21 4 23 21 25 18 27
REMARK Flexibility Score: inf
ROOT
ATOM      1  C   UNL     1      72.896  41.319  20.349  1.00  0.00     0.184 A 
ATOM      2  C   UNL     1      73.492  41.504  19.093  1.00  0.00     0.208 A 
ATOM      3  C   UNL     1      74.888  41.613  19.011  1.00  0.00     0.238 A 
ATOM      4  O   UNL     1      75.421  41.703  17.875  1.00  0.00    -0.285 OA
ATOM      5  C   UNL     1      75.667  41.591  20.194  1.00  0.00     0.111 A 
ATOM      6  C   UNL     1      77.087  41.737  20.235  1.00  0.00     0.134 A 
ATOM      7  C   UNL     1      77.761  41.593  21.455  1.00  0.00     0.093 A 
ATOM      8  C   UNL     1      77.061  41.372  22.644  1.00  0.00     0.123 A 
ATOM      9  C   UNL     1      75.671  41.283  22.622  1.00  0.00     0.094 A 
ATOM     10  C   UNL     1      74.974  41.384  21.417  1.00  0.00     0.146 A 
ATOM     11  O   UNL     1      73.651  41.271  21.440  1.00  0.00    -0.451 OA
ENDROOT
BRANCH   1  12
ATOM     12  C   UNL     1      71.431  41.191  20.503  1.00  0.00     0.063 A 
ATOM     13  C   UNL     1      69.202  41.855  19.797  1.00  0.00     0.047 A 
ATOM     14  C   UNL     1      70.591  41.948  19.672  1.00  0.00     0.020 A 
ATOM     15  C   UNL     1      68.637  41.017  20.761  1.00  0.00     0.119 A 
ATOM     16  C   UNL     1      69.467  40.275  21.611  1.00  0.00     0.093 A 
ATOM     17  C   UNL     1      70.862  40.367  21.497  1.00  0.00     0.130 A 
BRANCH  15  18
ATOM     18  O   UNL     1      67.250  40.931  20.869  1.00  0.00    -0.508 OA
ATOM     19  H   UNL     1      66.643  41.639  20.474  1.00  0.00     0.293 HD
ENDBRANCH  15  18
BRANCH  17  20
ATOM     20  O   UNL     1      71.679  39.662  22.381  1.00  0.00    -0.507 OA
ATOM     21  H   UNL     1      72.569  39.276  22.087  1.00  0.00     0.293 HD
ENDBRANCH  17  20
ENDBRANCH   1  12
BRANCH   2  22
ATOM     22  O   UNL     1      72.695  41.594  17.948  1.00  0.00    -0.502 OA
ATOM     23  H   UNL     1      71.683  41.619  17.990  1.00  0.00     0.293 HD
ENDBRANCH   2  22
BRANCH   6  24
ATOM     24  O   UNL     1      77.875  42.046  19.123  1.00  0.00    -0.507 OA
ATOM     25  H   UNL     1      78.741  42.561  19.153  1.00  0.00     0.293 HD
ENDBRANCH   6  24
BRANCH   8  26
ATOM     26  O   UNL     1      77.739  41.247  23.855  1.00  0.00    -0.508 OA
ATOM     27  H   UNL     1      77.292  41.466  24.737  1.00  0.00     0.293 HD
ENDBRANCH   8  26
TORSDOF 6
ENDMDL
MODEL 2
REMARK VINA RESULT:    -3.192      1.209      3.149
REMARK INTER + INTRA:          -3.771
REMARK INTER:                  -4.341
REMARK INTRA:                   0.571
REMARK UNBOUND:                 0.075
REMARK SMILES O=c1c(O)c(-c2ccc(O)cc2O)oc2cc(O)cc(O)c12
REMARK SMILES IDX 5 1 3 2 2 3 1 4 22 5 20 6 19 7 17 8 16 9 15 10 14 11 6 12
REMARK SMILES IDX 8 13 7 14 9 15 11 16 12 17 10 18 13 20 4 22 21 24 18 26
REMARK H PARENT 10 19 13 21 4 23 21 25 18 27
REMARK Flexibility Score: inf
ROOT
ATOM      1  C   UNL     1      72.682  41.423  20.608  1.00  0.00     0.184 A 
ATOM      2  C   UNL     1      73.102  41.256  21.936  1.00  0.00     0.208 A 
ATOM      3  C   UNL     1      74.475  41.289  22.226  1.00  0.00     0.238 A 
ATOM      4  O   UNL     1      74.841  41.213  23.427  1.00  0.00    -0.285 OA
ATOM      5  C   UNL     1      75.413  41.435  21.174  1.00  0.00     0.111 A 
ATOM      6  C   UNL     1      76.831  41.438  21.344  1.00  0.00     0.134 A 
ATOM      7  C   UNL     1      77.658  41.696  20.244  1.00  0.00     0.093 A 
ATOM      8  C   UNL     1      77.122  41.886  18.968  1.00  0.00     0.123 A 
ATOM      9  C   UNL     1      75.743  41.830  18.781  1.00  0.00     0.094 A 
ATOM     10  C   UNL     1      74.890  41.613  19.865  1.00  0.00     0.146 A 
ATOM     11  O   UNL     1      73.580  41.589  19.645  1.00  0.00    -0.451 OA
ENDROOT
BRANCH   1  12
ATOM     12  C   UNL     1      71.252  41.405  20.238  1.00  0.00     0.063 A 
ATOM     13  C   UNL     1      68.947  40.967  20.874  1.00  0.00     0.047 A 
ATOM     14  C   UNL     1      70.306  41.002  21.194  1.00  0.00     0.020 A 
ATOM     15  C   UNL     1      68.516  41.320  19.593  1.00  0.00     0.119 A 
ATOM     16  C   UNL     1      69.454  41.701  18.625  1.00  0.00     0.093 A 
ATOM     17  C   UNL     1      70.821  41.733  18.935  1.00  0.00     0.130 A 
BRANCH  15  18
ATOM     18  O   UNL     1      67.156  41.285  19.291  1.00  0.00    -0.508 OA
ATOM     19  H   UNL     1      66.742  41.941  18.640  1.00  0.00     0.293 HD
ENDBRANCH  15  18
BRANCH  17  20
ATOM     20  O   UNL     1      71.750  42.067  17.949  1.00  0.00    -0.507 OA
ATOM     21  H   UNL     1      72.452  41.406  17.637  1.00  0.00     0.293 HD
ENDBRANCH  17  20
ENDBRANCH   1  12
BRANCH   2  22
ATOM     22  O   UNL     1      72.160  41.043  22.946  1.00  0.00    -0.502 OA
ATOM     23  H   UNL     1      72.299  40.363  23.684  1.00  0.00     0.293 HD
ENDBRANCH   2  22
BRANCH   6  24
ATOM     24  O   UNL     1      77.475  41.172  22.556  1.00  0.00    -0.507 OA
ATOM     25  H   UNL     1      77.889  40.288  22.809  1.00  0.00     0.293 HD
ENDBRANCH   6  24
BRANCH   8  26
ATOM     26  O   UNL     1      77.954  42.124  17.875  1.00  0.00    -0.508 OA
ATOM     27  H   UNL     1      78.929  42.371  17.996  1.00  0.00     0.293 HD
ENDBRANCH   8  26
TORSDOF 6
ENDMDL
MODEL 3
REMARK VINA RESULT:    -2.654      1.707      3.396
REMARK INTER + INTRA:          -3.122
REMARK INTER:                  -2.733
REMARK INTRA:                  -0.389
REMARK UNBOUND:                 0.075
REMARK SMILES O=c1c(O)c(-c2ccc(O)cc2O)oc2cc(O)cc(O)c12
REMARK SMILES IDX 5 1 3 2 2 3 1 4 22 5 20 6 19 7 17 8 16 9 15 10 14 11 6 12
REMARK SMILES IDX 8 13 7 14 9 15 11 16 12 17 10 18 13 20 4 22 21 24 18 26
REMARK H PARENT 10 19 13 21 4 23 21 25 18 27
REMARK Flexibility Score: inf
ROOT
ATOM      1  C   UNL     1      74.518  40.943  21.515  1.00  0.00     0.184 A 
ATOM      2  C   UNL     1      75.198  40.689  22.715  1.00  0.00     0.208 A 
ATOM      3  C   UNL     1      76.599  40.767  22.734  1.00  0.00     0.238 A 
ATOM      4  O   UNL     1      77.199  40.612  23.829  1.00  0.00    -0.285 OA
ATOM      5  C   UNL     1      77.305  41.043  21.536  1.00  0.00     0.111 A 
ATOM      6  C   UNL     1      78.728  41.103  21.427  1.00  0.00     0.134 A 
ATOM      7  C   UNL     1      79.311  41.489  20.214  1.00  0.00     0.093 A 
ATOM      8  C   UNL     1      78.526  41.755  19.089  1.00  0.00     0.123 A 
ATOM      9  C   UNL     1      77.141  41.646  19.170  1.00  0.00     0.094 A 
ATOM     10  C   UNL     1      76.527  41.301  20.376  1.00  0.00     0.146 A 
ATOM     11  O   UNL     1      75.201  41.230  20.414  1.00  0.00    -0.451 OA
ENDROOT
BRANCH   1  12
ATOM     12  C   UNL     1      73.044  40.885  21.430  1.00  0.00     0.063 A 
ATOM     13  C   UNL     1      70.910  42.045  21.531  1.00  0.00     0.047 A 
ATOM     14  C   UNL     1      72.305  42.067  21.599  1.00  0.00     0.020 A 
ATOM     15  C   UNL     1      70.235  40.842  21.309  1.00  0.00     0.119 A 
ATOM     16  C   UNL     1      70.961  39.653  21.164  1.00  0.00     0.093 A 
ATOM     17  C   UNL     1      72.362  39.664  21.237  1.00  0.00     0.130 A 
BRANCH  15  18
ATOM     18  O   UNL     1      68.843  40.837  21.239  1.00  0.00    -0.508 OA
ATOM     19  H   UNL     1      68.293  41.615  21.582  1.00  0.00     0.293 HD
ENDBRANCH  15  18
BRANCH  17  20
ATOM     20  O   UNL     1      73.073  38.468  21.139  1.00  0.00    -0.507 OA
ATOM     21  H   UNL     1      73.511  38.045  21.949  1.00  0.00     0.293 HD
ENDBRANCH  17  20
ENDBRANCH   1  12
BRANCH   2  22
ATOM     22  O   UNL     1      74.482  40.349  23.866  1.00  0.00    -0.502 OA
ATOM     23  H   UNL     1      74.312  41.010  24.616  1.00  0.00     0.293 HD
ENDBRANCH   2  22
BRANCH   6  24
ATOM     24  O   UNL     1      79.607  40.771  22.462  1.00  0.00    -0.507 OA
ATOM     25  H   UNL     1      80.132  41.435  23.010  1.00  0.00     0.293 HD
ENDBRANCH   6  24
BRANCH   8  26
ATOM     26  O   UNL     1      79.118  42.122  17.881  1.00  0.00    -0.508 OA
ATOM     27  H   UNL     1      78.802  41.737  16.999  1.00  0.00     0.293 HD
ENDBRANCH   8  26
TORSDOF 6
ENDMDL
MODEL 4
REMARK VINA RESULT:    -2.299      1.334      6.355
REMARK INTER + INTRA:          -2.694
REMARK INTER:                  -3.010
REMARK INTRA:                   0.316
REMARK UNBOUND:                 0.075
REMARK SMILES O=c1c(O)c(-c2ccc(O)cc2O)oc2cc(O)cc(O)c12
REMARK SMILES IDX 5 1 3 2 2 3 1 4 22 5 20 6 19 7 17 8 16 9 15 10 14 11 6 12
REMARK SMILES IDX 8 13 7 14 9 15 11 16 12 17 10 18 13 20 4 22 21 24 18 26
REMARK H PARENT 10 19 13 21 4 23 21 25 18 27
REMARK Flexibility Score: inf
ROOT
ATOM      1  C   UNL     1      73.418  41.216  20.975  1.00  0.00     0.184 A 
ATOM      2  C   UNL     1      73.303  41.657  19.648  1.00  0.00     0.208 A 
ATOM      3  C   UNL     1      72.040  41.659  19.038  1.00  0.00     0.238 A 
ATOM      4  O   UNL     1      71.931  42.125  17.875  1.00  0.00    -0.285 OA
ATOM      5  C   UNL     1      70.915  41.167  19.747  1.00  0.00     0.111 A 
ATOM      6  C   UNL     1      69.593  41.081  19.213  1.00  0.00     0.134 A 
ATOM      7  C   UNL     1      68.539  40.676  20.042  1.00  0.00     0.093 A 
ATOM      8  C   UNL     1      68.769  40.295  21.367  1.00  0.00     0.123 A 
ATOM      9  C   UNL     1      70.063  40.323  21.880  1.00  0.00     0.094 A 
ATOM     10  C   UNL     1      71.130  40.758  21.090  1.00  0.00     0.146 A 
ATOM     11  O   UNL     1      72.344  40.790  21.627  1.00  0.00    -0.451 OA
ENDROOT
BRANCH   1  12
ATOM     12  C   UNL     1      74.719  41.196  21.677  1.00  0.00     0.063 A 
ATOM     13  C   UNL     1      76.989  42.042  21.869  1.00  0.00     0.047 A 
ATOM     14  C   UNL     1      75.746  42.042  21.231  1.00  0.00     0.020 A 
ATOM     15  C   UNL     1      77.227  41.189  22.948  1.00  0.00     0.119 A 
ATOM     16  C   UNL     1      76.216  40.323  23.385  1.00  0.00     0.093 A 
ATOM     17  C   UNL     1      74.967  40.312  22.748  1.00  0.00     0.130 A 
BRANCH  15  18
ATOM     18  O   UNL     1      78.470  41.204  23.576  1.00  0.00    -0.508 OA
ATOM     19  H   UNL     1      78.856  40.373  24.006  1.00  0.00     0.293 HD
ENDBRANCH  15  18
BRANCH  17  20
ATOM     20  O   UNL     1      73.984  39.412  23.161  1.00  0.00    -0.507 OA
ATOM     21  H   UNL     1      73.185  39.712  23.706  1.00  0.00     0.293 HD
ENDBRANCH  17  20
ENDBRANCH   1  12
BRANCH   2  22
ATOM     22  O   UNL     1      74.439  42.070  18.948  1.00  0.00    -0.502 OA
ATOM     23  H   UNL     1      74.993  41.435  18.385  1.00  0.00     0.293 HD
ENDBRANCH   2  22
BRANCH   6  24
ATOM     24  O   UNL     1      69.266  41.353  17.881  1.00  0.00    -0.507 OA
ATOM     25  H   UNL     1      69.369  40.704  17.116  1.00  0.00     0.293 HD
ENDBRANCH   6  24
BRANCH   8  26
ATOM     26  O   UNL     1      67.716  39.877  22.179  1.00  0.00    -0.508 OA
ATOM     27  H   UNL     1      66.858  40.410  22.249  1.00  0.00     0.293 HD
ENDBRANCH   8  26
TORSDOF 6
ENDMDL
