MODEL 1
REMARK VINA RESULT:    -7.234      0.000      0.000
REMARK INTER + INTRA:          -8.061
REMARK INTER:                  -8.503
REMARK INTRA:                   0.442
REMARK UNBOUND:                 0.442
REMARK SMILES O=c1c(O)c(-c2ccc(O)cc2)oc2cc(O)cc(O)c12
REMARK SMILES IDX 5 1 3 2 2 3 1 4 21 5 19 6 18 7 16 8 15 9 14 10 13 11 6 12
REMARK SMILES IDX 7 13 8 14 9 15 12 16 11 17 10 18 4 20 20 22 17 24
REMARK H PARENT 10 19 4 21 20 23 17 25
REMARK Flexibility Score: inf
ROOT
ATOM      1  C   UNL     1      16.363  30.634  66.258  1.00  0.00     0.180 A 
ATOM      2  C   UNL     1      15.049  30.449  66.720  1.00  0.00     0.208 A 
ATOM      3  C   UNL     1      14.804  30.471  68.103  1.00  0.00     0.238 A 
ATOM      4  O   UNL     1      13.634  30.251  68.514  1.00  0.00    -0.285 OA
ATOM      5  C   UNL     1      15.873  30.694  69.004  1.00  0.00     0.111 A 
ATOM      6  C   UNL     1      15.734  30.777  70.423  1.00  0.00     0.134 A 
ATOM      7  C   UNL     1      16.878  30.869  71.224  1.00  0.00     0.093 A 
ATOM      8  C   UNL     1      18.152  30.949  70.657  1.00  0.00     0.123 A 
ATOM      9  C   UNL     1      18.293  30.929  69.271  1.00  0.00     0.094 A 
ATOM     10  C   UNL     1      17.173  30.801  68.446  1.00  0.00     0.146 A 
ATOM     11  O   UNL     1      17.354  30.775  67.131  1.00  0.00    -0.452 OA
ENDROOT
BRANCH   1  12
ATOM     12  C   UNL     1      16.696  30.648  64.815  1.00  0.00     0.021 A 
ATOM     13  C   UNL     1      17.897  31.239  64.387  1.00  0.00     0.016 A 
ATOM     14  C   UNL     1      18.219  31.284  63.027  1.00  0.00     0.047 A 
ATOM     15  C   UNL     1      17.342  30.753  62.078  1.00  0.00     0.115 A 
ATOM     16  C   UNL     1      15.807  30.133  63.853  1.00  0.00     0.016 A 
ATOM     17  C   UNL     1      16.133  30.179  62.494  1.00  0.00     0.047 A 
BRANCH  15  18
ATOM     18  O   UNL     1      17.677  30.803  60.727  1.00  0.00    -0.508 OA
ATOM     19  H   UNL     1      18.110  31.624  60.320  1.00  0.00     0.293 HD
ENDBRANCH  15  18
ENDBRANCH   1  12
BRANCH   2  20
ATOM     20  O   UNL     1      14.012  30.208  65.815  1.00  0.00    -0.502 OA
ATOM     21  H   UNL     1      13.221  30.834  65.714  1.00  0.00     0.293 HD
ENDBRANCH   2  20
BRANCH   6  22
ATOM     22  O   UNL     1      14.503  30.799  71.086  1.00  0.00    -0.507 OA
ATOM     23  H   UNL     1      13.604  30.769  70.629  1.00  0.00     0.293 HD
ENDBRANCH   6  22
BRANCH   8  24
ATOM     24  O   UNL     1      19.283  31.057  71.462  1.00  0.00    -0.508 OA
ATOM     25  H   UNL     1      20.048  31.677  71.220  1.00  0.00     0.293 HD
ENDBRANCH   8  24
TORSDOF 5
ENDMDL
MODEL 2
REMARK VINA RESULT:    -7.058      3.100      5.382
REMARK INTER + INTRA:          -7.854
REMARK INTER:                  -7.572
REMARK INTRA:                  -0.282
REMARK UNBOUND:                 0.442
REMARK SMILES O=c1c(O)c(-c2ccc(O)cc2)oc2cc(O)cc(O)c12
REMARK SMILES IDX 5 1 3 2 2 3 1 4 21 5 19 6 18 7 16 8 15 9 14 10 13 11 6 12
REMARK SMILES IDX 7 13 8 14 9 15 12 16 11 17 10 18 4 20 20 22 17 24
REMARK H PARENT 10 19 4 21 20 23 17 25
REMARK Flexibility Score: inf
ROOT
ATOM      1  C   UNL     1      14.805  30.837  69.056  1.00  0.00     0.180 A 
ATOM      2  C   UNL     1      15.226  30.350  70.305  1.00  0.00     0.208 A 
ATOM      3  C   UNL     1      16.590  30.412  70.635  1.00  0.00     0.238 A 
ATOM      4  O   UNL     1      16.969  29.925  71.733  1.00  0.00    -0.285 OA
ATOM      5  C   UNL     1      17.511  30.976  69.721  1.00  0.00     0.111 A 
ATOM      6  C   UNL     1      18.909  31.128  69.967  1.00  0.00     0.134 A 
ATOM      7  C   UNL     1      19.747  31.578  68.939  1.00  0.00     0.093 A 
ATOM      8  C   UNL     1      19.228  31.945  67.695  1.00  0.00     0.123 A 
ATOM      9  C   UNL     1      17.858  31.857  67.465  1.00  0.00     0.094 A 
ATOM     10  C   UNL     1      17.001  31.377  68.458  1.00  0.00     0.146 A 
ATOM     11  O   UNL     1      15.702  31.300  68.193  1.00  0.00    -0.452 OA
ENDROOT
BRANCH   1  12
ATOM     12  C   UNL     1      13.381  30.827  68.645  1.00  0.00     0.021 A 
ATOM     13  C   UNL     1      12.581  31.954  68.897  1.00  0.00     0.016 A 
ATOM     14  C   UNL     1      11.230  31.957  68.538  1.00  0.00     0.047 A 
ATOM     15  C   UNL     1      10.658  30.831  67.940  1.00  0.00     0.115 A 
ATOM     16  C   UNL     1      12.796  29.689  68.062  1.00  0.00     0.016 A 
ATOM     17  C   UNL     1      11.444  29.695  67.705  1.00  0.00     0.047 A 
BRANCH  15  18
ATOM     18  O   UNL     1       9.310  30.849  67.588  1.00  0.00    -0.508 OA
ATOM     19  H   UNL     1       8.977  31.387  66.796  1.00  0.00     0.293 HD
ENDBRANCH  15  18
ENDBRANCH   1  12
BRANCH   2  20
ATOM     20  O   UNL     1      14.303  29.777  71.184  1.00  0.00    -0.502 OA
ATOM     21  H   UNL     1      13.631  30.329  71.703  1.00  0.00     0.293 HD
ENDBRANCH   2  20
BRANCH   6  22
ATOM     22  O   UNL     1      19.515  30.877  71.202  1.00  0.00    -0.507 OA
ATOM     23  H   UNL     1      19.891  29.986  71.487  1.00  0.00     0.293 HD
ENDBRANCH   6  22
BRANCH   8  24
ATOM     24  O   UNL     1      20.067  32.407  66.684  1.00  0.00    -0.508 OA
ATOM     25  H   UNL     1      20.898  32.949  66.891  1.00  0.00     0.293 HD
ENDBRANCH   8  24
TORSDOF 5
ENDMDL
MODEL 3
REMARK VINA RESULT:    -7.049      3.812      6.298
REMARK INTER + INTRA:          -7.843
REMARK INTER:                  -7.580
REMARK INTRA:                  -0.263
REMARK UNBOUND:                 0.442
REMARK SMILES O=c1c(O)c(-c2ccc(O)cc2)oc2cc(O)cc(O)c12
REMARK SMILES IDX 5 1 3 2 2 3 1 4 21 5 19 6 18 7 16 8 15 9 14 10 13 11 6 12
REMARK SMILES IDX 7 13 8 14 9 15 12 16 11 17 10 18 4 20 20 22 17 24
REMARK H PARENT 10 19 4 21 20 23 17 25
REMARK Flexibility Score: inf
ROOT
ATOM      1  C   UNL     1      14.547  33.331  67.152  1.00  0.00     0.180 A 
ATOM      2  C   UNL     1      14.738  34.723  67.184  1.00  0.00     0.208 A 
ATOM      3  C   UNL     1      15.990  35.247  66.823  1.00  0.00     0.238 A 
ATOM      4  O   UNL     1      16.172  36.490  66.906  1.00  0.00    -0.285 OA
ATOM      5  C   UNL     1      17.029  34.374  66.419  1.00  0.00     0.111 A 
ATOM      6  C   UNL     1      18.324  34.798  65.993  1.00  0.00     0.134 A 
ATOM      7  C   UNL     1      19.315  33.841  65.742  1.00  0.00     0.093 A 
ATOM      8  C   UNL     1      19.039  32.475  65.837  1.00  0.00     0.123 A 
ATOM      9  C   UNL     1      17.761  32.052  66.194  1.00  0.00     0.094 A 
ATOM     10  C   UNL     1      16.761  32.982  66.486  1.00  0.00     0.146 A 
ATOM     11  O   UNL     1      15.560  32.535  66.832  1.00  0.00    -0.452 OA
ENDROOT
BRANCH   1  12
ATOM     12  C   UNL     1      13.248  32.706  67.496  1.00  0.00     0.021 A 
ATOM     13  C   UNL     1      12.917  32.495  68.844  1.00  0.00     0.016 A 
ATOM     14  C   UNL     1      11.707  31.886  69.189  1.00  0.00     0.047 A 
ATOM     15  C   UNL     1      10.821  31.466  68.193  1.00  0.00     0.115 A 
ATOM     16  C   UNL     1      12.362  32.263  66.496  1.00  0.00     0.016 A 
ATOM     17  C   UNL     1      11.153  31.654  66.845  1.00  0.00     0.047 A 
BRANCH  15  18
ATOM     18  O   UNL     1       9.618  30.861  68.551  1.00  0.00    -0.508 OA
ATOM     19  H   UNL     1       9.533  30.317  69.402  1.00  0.00     0.293 HD
ENDBRANCH  15  18
ENDBRANCH   1  12
BRANCH   2  20
ATOM     20  O   UNL     1      13.706  35.566  67.607  1.00  0.00    -0.502 OA
ATOM     21  H   UNL     1      13.671  35.956  68.541  1.00  0.00     0.293 HD
ENDBRANCH   2  20
BRANCH   6  22
ATOM     22  O   UNL     1      18.676  36.133  65.778  1.00  0.00    -0.507 OA
ATOM     23  H   UNL     1      19.506  36.575  66.145  1.00  0.00     0.293 HD
ENDBRANCH   6  22
BRANCH   8  24
ATOM     24  O   UNL     1      20.027  31.529  65.570  1.00  0.00    -0.508 OA
ATOM     25  H   UNL     1      20.140  31.129  64.646  1.00  0.00     0.293 HD
ENDBRANCH   8  24
TORSDOF 5
ENDMDL
MODEL 4
REMARK VINA RESULT:    -7.020      3.302      4.789
REMARK INTER + INTRA:          -7.810
REMARK INTER:                  -7.523
REMARK INTRA:                  -0.287
REMARK UNBOUND:                 0.442
REMARK SMILES O=c1c(O)c(-c2ccc(O)cc2)oc2cc(O)cc(O)c12
REMARK SMILES IDX 5 1 3 2 2 3 1 4 21 5 19 6 18 7 16 8 15 9 14 10 13 11 6 12
REMARK SMILES IDX 7 13 8 14 9 15 12 16 11 17 10 18 4 20 20 22 17 24
REMARK H PARENT 10 19 4 21 20 23 17 25
REMARK Flexibility Score: inf
ROOT
ATOM      1  C   UNL     1      17.774  32.853  66.403  1.00  0.00     0.180 A 
ATOM      2  C   UNL     1      17.478  31.946  65.370  1.00  0.00     0.208 A 
ATOM      3  C   UNL     1      16.493  30.967  65.586  1.00  0.00     0.238 A 
ATOM      4  O   UNL     1      16.270  30.124  64.678  1.00  0.00    -0.285 OA
ATOM      5  C   UNL     1      15.807  30.919  66.823  1.00  0.00     0.111 A 
ATOM      6  C   UNL     1      14.763  29.996  67.136  1.00  0.00     0.134 A 
ATOM      7  C   UNL     1      14.246  29.954  68.436  1.00  0.00     0.093 A 
ATOM      8  C   UNL     1      14.687  30.845  69.417  1.00  0.00     0.123 A 
ATOM      9  C   UNL     1      15.663  31.788  69.105  1.00  0.00     0.094 A 
ATOM     10  C   UNL     1      16.224  31.832  67.826  1.00  0.00     0.146 A 
ATOM     11  O   UNL     1      17.159  32.740  67.574  1.00  0.00    -0.452 OA
ENDROOT
BRANCH   1  12
ATOM     12  C   UNL     1      18.781  33.927  66.242  1.00  0.00     0.021 A 
ATOM     13  C   UNL     1      18.402  35.151  65.666  1.00  0.00     0.016 A 
ATOM     14  C   UNL     1      19.343  36.169  65.484  1.00  0.00     0.047 A 
ATOM     15  C   UNL     1      20.674  35.973  65.862  1.00  0.00     0.115 A 
ATOM     16  C   UNL     1      20.127  33.727  66.602  1.00  0.00     0.016 A 
ATOM     17  C   UNL     1      21.065  34.749  66.419  1.00  0.00     0.047 A 
BRANCH  15  18
ATOM     18  O   UNL     1      21.600  36.997  65.676  1.00  0.00    -0.508 OA
ATOM     19  H   UNL     1      22.462  37.035  66.208  1.00  0.00     0.293 HD
ENDBRANCH  15  18
ENDBRANCH   1  12
BRANCH   2  20
ATOM     20  O   UNL     1      18.183  31.997  64.165  1.00  0.00    -0.502 OA
ATOM     21  H   UNL     1      19.168  31.772  64.101  1.00  0.00     0.293 HD
ENDBRANCH   2  20
BRANCH   6  22
ATOM     22  O   UNL     1      14.186  29.126  66.205  1.00  0.00    -0.507 OA
ATOM     23  H   UNL     1      13.368  29.335  65.654  1.00  0.00     0.293 HD
ENDBRANCH   6  22
BRANCH   8  24
ATOM     24  O   UNL     1      14.155  30.806  70.704  1.00  0.00    -0.508 OA
ATOM     25  H   UNL     1      13.392  31.414  70.980  1.00  0.00     0.293 HD
ENDBRANCH   8  24
TORSDOF 5
ENDMDL
MODEL 5
REMARK VINA RESULT:    -6.974      2.352      5.196
REMARK INTER + INTRA:          -7.755
REMARK INTER:                  -7.477
REMARK INTRA:                  -0.278
REMARK UNBOUND:                 0.442
REMARK SMILES O=c1c(O)c(-c2ccc(O)cc2)oc2cc(O)cc(O)c12
REMARK SMILES IDX 5 1 3 2 2 3 1 4 21 5 19 6 18 7 16 8 15 9 14 10 13 11 6 12
REMARK SMILES IDX 7 13 8 14 9 15 12 16 11 17 10 18 4 20 20 22 17 24
REMARK H PARENT 10 19 4 21 20 23 17 25
REMARK Flexibility Score: inf
ROOT
ATOM      1  C   UNL     1      14.917  30.990  67.786  1.00  0.00     0.180 A 
ATOM      2  C   UNL     1      15.548  31.126  66.537  1.00  0.00     0.208 A 
ATOM      3  C   UNL     1      16.951  31.140  66.481  1.00  0.00     0.238 A 
ATOM      4  O   UNL     1      17.510  31.316  65.367  1.00  0.00    -0.285 OA
ATOM      5  C   UNL     1      17.705  31.000  67.671  1.00  0.00     0.111 A 
ATOM      6  C   UNL     1      19.131  30.959  67.728  1.00  0.00     0.134 A 
ATOM      7  C   UNL     1      19.772  30.951  68.973  1.00  0.00     0.093 A 
ATOM      8  C   UNL     1      19.040  30.915  70.161  1.00  0.00     0.123 A 
ATOM      9  C   UNL     1      17.648  30.894  70.114  1.00  0.00     0.094 A 
ATOM     10  C   UNL     1      16.979  30.939  68.889  1.00  0.00     0.146 A 
ATOM     11  O   UNL     1      15.651  30.928  68.891  1.00  0.00    -0.452 OA
ENDROOT
BRANCH   1  12
ATOM     12  C   UNL     1      13.443  30.943  67.923  1.00  0.00     0.021 A 
ATOM     13  C   UNL     1      12.752  32.083  68.368  1.00  0.00     0.016 A 
ATOM     14  C   UNL     1      11.364  32.052  68.526  1.00  0.00     0.047 A 
ATOM     15  C   UNL     1      10.650  30.881  68.258  1.00  0.00     0.115 A 
ATOM     16  C   UNL     1      12.722  29.760  67.674  1.00  0.00     0.016 A 
ATOM     17  C   UNL     1      11.333  29.734  67.833  1.00  0.00     0.047 A 
BRANCH  15  18
ATOM     18  O   UNL     1       9.267  30.866  68.419  1.00  0.00    -0.508 OA
ATOM     19  H   UNL     1       8.841  30.804  69.337  1.00  0.00     0.293 HD
ENDBRANCH  15  18
ENDBRANCH   1  12
BRANCH   2  20
ATOM     20  O   UNL     1      14.785  31.284  65.377  1.00  0.00    -0.502 OA
ATOM     21  H   UNL     1      15.188  31.231  64.449  1.00  0.00     0.293 HD
ENDBRANCH   2  20
BRANCH   6  22
ATOM     22  O   UNL     1      19.955  30.899  66.600  1.00  0.00    -0.507 OA
ATOM     23  H   UNL     1      19.631  30.970  65.647  1.00  0.00     0.293 HD
ENDBRANCH   6  22
BRANCH   8  24
ATOM     24  O   UNL     1      19.687  30.890  71.395  1.00  0.00    -0.508 OA
ATOM     25  H   UNL     1      20.636  31.228  71.501  1.00  0.00     0.293 HD
ENDBRANCH   8  24
TORSDOF 5
ENDMDL
MODEL 6
REMARK VINA RESULT:    -6.924      2.375      5.935
REMARK INTER + INTRA:          -7.697
REMARK INTER:                  -7.452
REMARK INTRA:                  -0.244
REMARK UNBOUND:                 0.442
REMARK SMILES O=c1c(O)c(-c2ccc(O)cc2)oc2cc(O)cc(O)c12
REMARK SMILES IDX 5 1 3 2 2 3 1 4 21 5 19 6 18 7 16 8 15 9 14 10 13 11 6 12
REMARK SMILES IDX 7 13 8 14 9 15 12 16 11 17 10 18 4 20 20 22 17 24
REMARK H PARENT 10 19 4 21 20 23 17 25
REMARK Flexibility Score: inf
ROOT
ATOM      1  C   UNL     1      14.981  31.142  67.908  1.00  0.00     0.180 A 
ATOM      2  C   UNL     1      15.854  31.180  69.010  1.00  0.00     0.208 A 
ATOM      3  C   UNL     1      17.237  31.257  68.780  1.00  0.00     0.238 A 
ATOM      4  O   UNL     1      18.016  31.236  69.768  1.00  0.00    -0.285 OA
ATOM      5  C   UNL     1      17.729  31.312  67.453  1.00  0.00     0.111 A 
ATOM      6  C   UNL     1      19.108  31.432  67.104  1.00  0.00     0.134 A 
ATOM      7  C   UNL     1      19.490  31.343  65.760  1.00  0.00     0.093 A 
ATOM      8  C   UNL     1      18.538  31.207  64.747  1.00  0.00     0.123 A 
ATOM      9  C   UNL     1      17.185  31.149  65.074  1.00  0.00     0.094 A 
ATOM     10  C   UNL     1      16.775  31.197  66.409  1.00  0.00     0.146 A 
ATOM     11  O   UNL     1      15.477  31.128  66.676  1.00  0.00    -0.452 OA
ENDROOT
BRANCH   1  12
ATOM     12  C   UNL     1      13.510  31.086  68.070  1.00  0.00     0.021 A 
ATOM     13  C   UNL     1      12.826  29.896  67.771  1.00  0.00     0.016 A 
ATOM     14  C   UNL     1      11.435  29.828  67.895  1.00  0.00     0.047 A 
ATOM     15  C   UNL     1      10.709  30.950  68.304  1.00  0.00     0.115 A 
ATOM     16  C   UNL     1      12.773  32.219  68.462  1.00  0.00     0.016 A 
ATOM     17  C   UNL     1      11.381  32.147  68.585  1.00  0.00     0.047 A 
BRANCH  15  18
ATOM     18  O   UNL     1       9.324  30.868  68.424  1.00  0.00    -0.508 OA
ATOM     19  H   UNL     1       8.813  30.053  68.104  1.00  0.00     0.293 HD
ENDBRANCH  15  18
ENDBRANCH   1  12
BRANCH   2  20
ATOM     20  O   UNL     1      15.349  31.103  70.310  1.00  0.00    -0.502 OA
ATOM     21  H   UNL     1      15.856  31.458  71.113  1.00  0.00     0.293 HD
ENDBRANCH   2  20
BRANCH   6  22
ATOM     22  O   UNL     1      20.130  31.663  68.030  1.00  0.00    -0.507 OA
ATOM     23  H   UNL     1      20.438  30.998  68.724  1.00  0.00     0.293 HD
ENDBRANCH   6  22
BRANCH   8  24
ATOM     24  O   UNL     1      18.926  31.136  63.411  1.00  0.00    -0.508 OA
ATOM     25  H   UNL     1      18.824  30.283  62.875  1.00  0.00     0.293 HD
ENDBRANCH   8  24
TORSDOF 5
ENDMDL
MODEL 7
REMARK VINA RESULT:    -6.872      3.494      5.849
REMARK INTER + INTRA:          -7.636
REMARK INTER:                  -7.446
REMARK INTRA:                  -0.190
REMARK UNBOUND:                 0.442
REMARK SMILES O=c1c(O)c(-c2ccc(O)cc2)oc2cc(O)cc(O)c12
REMARK SMILES IDX 5 1 3 2 2 3 1 4 21 5 19 6 18 7 16 8 15 9 14 10 13 11 6 12
REMARK SMILES IDX 7 13 8 14 9 15 12 16 11 17 10 18 4 20 20 22 17 24
REMARK H PARENT 10 19 4 21 20 23 17 25
REMARK Flexibility Score: inf
ROOT
ATOM      1  C   UNL     1      18.473  31.683  67.635  1.00  0.00     0.180 A 
ATOM      2  C   UNL     1      18.776  32.639  66.650  1.00  0.00     0.208 A 
ATOM      3  C   UNL     1      17.800  33.586  66.297  1.00  0.00     0.238 A 
ATOM      4  O   UNL     1      18.058  34.405  65.376  1.00  0.00    -0.285 OA
ATOM      5  C   UNL     1      16.542  33.576  66.945  1.00  0.00     0.111 A 
ATOM      6  C   UNL     1      15.494  34.513  66.696  1.00  0.00     0.134 A 
ATOM      7  C   UNL     1      14.244  34.328  67.300  1.00  0.00     0.093 A 
ATOM      8  C   UNL     1      14.024  33.278  68.194  1.00  0.00     0.123 A 
ATOM      9  C   UNL     1      15.059  32.393  68.489  1.00  0.00     0.094 A 
ATOM     10  C   UNL     1      16.306  32.530  67.875  1.00  0.00     0.146 A 
ATOM     11  O   UNL     1      17.261  31.658  68.177  1.00  0.00    -0.452 OA
ENDROOT
BRANCH   1  12
ATOM     12  C   UNL     1      19.457  30.668  68.077  1.00  0.00     0.021 A 
ATOM     13  C   UNL     1      20.070  30.801  69.334  1.00  0.00     0.016 A 
ATOM     14  C   UNL     1      21.019  29.867  69.760  1.00  0.00     0.047 A 
ATOM     15  C   UNL     1      21.377  28.799  68.933  1.00  0.00     0.115 A 
ATOM     16  C   UNL     1      19.836  29.603  67.239  1.00  0.00     0.016 A 
ATOM     17  C   UNL     1      20.785  28.670  67.670  1.00  0.00     0.047 A 
BRANCH  15  18
ATOM     18  O   UNL     1      22.323  27.875  69.372  1.00  0.00    -0.508 OA
ATOM     19  H   UNL     1      22.502  27.018  68.862  1.00  0.00     0.293 HD
ENDBRANCH  15  18
ENDBRANCH   1  12
BRANCH   2  20
ATOM     20  O   UNL     1      20.017  32.618  66.007  1.00  0.00    -0.502 OA
ATOM     21  H   UNL     1      20.408  31.773  65.608  1.00  0.00     0.293 HD
ENDBRANCH   2  20
BRANCH   6  22
ATOM     22  O   UNL     1      15.637  35.648  65.892  1.00  0.00    -0.507 OA
ATOM     23  H   UNL     1      15.093  36.492  65.987  1.00  0.00     0.293 HD
ENDBRANCH   6  22
BRANCH   8  24
ATOM     24  O   UNL     1      12.782  33.110  68.802  1.00  0.00    -0.508 OA
ATOM     25  H   UNL     1      12.335  33.865  69.310  1.00  0.00     0.293 HD
ENDBRANCH   8  24
TORSDOF 5
ENDMDL
MODEL 8
REMARK VINA RESULT:    -6.757      3.730      6.516
REMARK INTER + INTRA:          -7.500
REMARK INTER:                  -7.346
REMARK INTRA:                  -0.154
REMARK UNBOUND:                 0.442
REMARK SMILES O=c1c(O)c(-c2ccc(O)cc2)oc2cc(O)cc(O)c12
REMARK SMILES IDX 5 1 3 2 2 3 1 4 21 5 19 6 18 7 16 8 15 9 14 10 13 11 6 12
REMARK SMILES IDX 7 13 8 14 9 15 12 16 11 17 10 18 4 20 20 22 17 24
REMARK H PARENT 10 19 4 21 20 23 17 25
REMARK Flexibility Score: inf
ROOT
ATOM      1  C   UNL     1      14.609  31.325  68.749  1.00  0.00     0.180 A 
ATOM      2  C   UNL     1      14.165  32.567  68.262  1.00  0.00     0.208 A 
ATOM      3  C   UNL     1      12.881  32.658  67.699  1.00  0.00     0.238 A 
ATOM      4  O   UNL     1      12.510  33.760  67.216  1.00  0.00    -0.285 OA
ATOM      5  C   UNL     1      12.052  31.512  67.647  1.00  0.00     0.111 A 
ATOM      6  C   UNL     1      10.719  31.498  67.137  1.00  0.00     0.134 A 
ATOM      7  C   UNL     1      10.040  30.280  67.013  1.00  0.00     0.093 A 
ATOM      8  C   UNL     1      10.619  29.084  67.442  1.00  0.00     0.123 A 
ATOM      9  C   UNL     1      11.897  29.096  67.996  1.00  0.00     0.094 A 
ATOM     10  C   UNL     1      12.614  30.290  68.100  1.00  0.00     0.146 A 
ATOM     11  O   UNL     1      13.833  30.255  68.625  1.00  0.00    -0.452 OA
ENDROOT
BRANCH   1  12
ATOM     12  C   UNL     1      15.940  31.156  69.377  1.00  0.00     0.021 A 
ATOM     13  C   UNL     1      16.027  30.913  70.757  1.00  0.00     0.016 A 
ATOM     14  C   UNL     1      17.274  30.773  71.374  1.00  0.00     0.047 A 
ATOM     15  C   UNL     1      18.448  30.888  70.623  1.00  0.00     0.115 A 
ATOM     16  C   UNL     1      17.124  31.291  68.629  1.00  0.00     0.016 A 
ATOM     17  C   UNL     1      18.370  31.150  69.249  1.00  0.00     0.047 A 
BRANCH  15  18
ATOM     18  O   UNL     1      19.683  30.745  71.251  1.00  0.00    -0.508 OA
ATOM     19  H   UNL     1      19.986  31.387  71.974  1.00  0.00     0.293 HD
ENDBRANCH  15  18
ENDBRANCH   1  12
BRANCH   2  20
ATOM     20  O   UNL     1      15.008  33.681  68.303  1.00  0.00    -0.502 OA
ATOM     21  H   UNL     1      15.030  34.374  67.565  1.00  0.00     0.293 HD
ENDBRANCH   2  20
BRANCH   6  22
ATOM     22  O   UNL     1      10.013  32.647  66.766  1.00  0.00    -0.507 OA
ATOM     23  H   UNL     1       9.112  32.647  66.313  1.00  0.00     0.293 HD
ENDBRANCH   6  22
BRANCH   8  24
ATOM     24  O   UNL     1       9.930  27.879  67.330  1.00  0.00    -0.508 OA
ATOM     25  H   UNL     1       9.781  27.436  66.431  1.00  0.00     0.293 HD
ENDBRANCH   8  24
TORSDOF 5
ENDMDL
MODEL 9
REMARK VINA RESULT:    -6.632      3.205      5.041
REMARK INTER + INTRA:          -7.353
REMARK INTER:                  -7.274
REMARK INTRA:                  -0.079
REMARK UNBOUND:                 0.442
REMARK SMILES O=c1c(O)c(-c2ccc(O)cc2)oc2cc(O)cc(O)c12
REMARK SMILES IDX 5 1 3 2 2 3 1 4 21 5 19 6 18 7 16 8 15 9 14 10 13 11 6 12
REMARK SMILES IDX 7 13 8 14 9 15 12 16 11 17 10 18 4 20 20 22 17 24
REMARK H PARENT 10 19 4 21 20 23 17 25
REMARK Flexibility Score: inf
ROOT
ATOM      1  C   UNL     1      13.871  31.399  68.016  1.00  0.00     0.180 A 
ATOM      2  C   UNL     1      14.951  32.045  67.389  1.00  0.00     0.208 A 
ATOM      3  C   UNL     1      16.230  31.941  67.960  1.00  0.00     0.238 A 
ATOM      4  O   UNL     1      17.184  32.565  67.424  1.00  0.00    -0.285 OA
ATOM      5  C   UNL     1      16.416  31.179  69.138  1.00  0.00     0.111 A 
ATOM      6  C   UNL     1      17.675  30.971  69.779  1.00  0.00     0.134 A 
ATOM      7  C   UNL     1      17.720  30.310  71.013  1.00  0.00     0.093 A 
ATOM      8  C   UNL     1      16.562  29.790  71.596  1.00  0.00     0.123 A 
ATOM      9  C   UNL     1      15.338  29.936  70.948  1.00  0.00     0.094 A 
ATOM     10  C   UNL     1      15.255  30.623  69.734  1.00  0.00     0.146 A 
ATOM     11  O   UNL     1      14.066  30.747  69.156  1.00  0.00    -0.452 OA
ENDROOT
BRANCH   1  12
ATOM     12  C   UNL     1      12.498  31.443  67.462  1.00  0.00     0.021 A 
ATOM     13  C   UNL     1      11.836  32.677  67.350  1.00  0.00     0.016 A 
ATOM     14  C   UNL     1      10.531  32.738  66.852  1.00  0.00     0.047 A 
ATOM     15  C   UNL     1       9.867  31.568  66.474  1.00  0.00     0.115 A 
ATOM     16  C   UNL     1      11.817  30.266  67.100  1.00  0.00     0.016 A 
ATOM     17  C   UNL     1      10.512  30.331  66.601  1.00  0.00     0.047 A 
BRANCH  15  18
ATOM     18  O   UNL     1       8.567  31.645  65.978  1.00  0.00    -0.508 OA
ATOM     19  H   UNL     1       8.277  32.400  65.367  1.00  0.00     0.293 HD
ENDBRANCH  15  18
ENDBRANCH   1  12
BRANCH   2  20
ATOM     20  O   UNL     1      14.742  32.810  66.239  1.00  0.00    -0.502 OA
ATOM     21  H   UNL     1      15.505  33.164  65.674  1.00  0.00     0.293 HD
ENDBRANCH   2  20
BRANCH   6  22
ATOM     22  O   UNL     1      18.901  31.369  69.238  1.00  0.00    -0.507 OA
ATOM     23  H   UNL     1      19.736  31.547  69.776  1.00  0.00     0.293 HD
ENDBRANCH   6  22
BRANCH   8  24
ATOM     24  O   UNL     1      16.619  29.119  72.815  1.00  0.00    -0.508 OA
ATOM     25  H   UNL     1      16.763  28.118  72.862  1.00  0.00     0.293 HD
ENDBRANCH   8  24
TORSDOF 5
ENDMDL
