MODEL 1
REMARK VINA RESULT:    -5.340      0.000      0.000
REMARK INTER + INTRA:          -5.652
REMARK INTER:                  -5.652
REMARK INTRA:                   0.000
REMARK UNBOUND:                 0.000
REMARK SMILES O=c1ccc2cc(O)c(O)cc2o1
REMARK SMILES IDX 4 1 3 2 2 3 1 4 13 5 12 6 11 7 9 8 7 9 6 10 5 11 8 12 10 14
REMARK H PARENT 8 13 10 15
REMARK Flexibility Score: inf
ROOT
ATOM      1  C   UNL     1      10.320  -7.260  -9.313  1.00  0.00     0.019 A 
ATOM      2  C   UNL     1       9.562  -7.997 -10.223  1.00  0.00     0.094 A 
ATOM      3  C   UNL     1       8.169  -8.018 -10.085  1.00  0.00     0.336 A 
ATOM      4  O   UNL     1       7.467  -8.678 -10.895  1.00  0.00    -0.246 OA
ATOM      5  O   UNL     1       7.580  -7.344  -9.100  1.00  0.00    -0.423 OA
ATOM      6  C   UNL     1       8.266  -6.628  -8.212  1.00  0.00     0.142 A 
ATOM      7  C   UNL     1       7.592  -5.940  -7.198  1.00  0.00     0.098 A 
ATOM      8  C   UNL     1       8.310  -5.184  -6.260  1.00  0.00     0.161 A 
ATOM      9  C   UNL     1       9.710  -5.118  -6.336  1.00  0.00     0.158 A 
ATOM     10  C   UNL     1      10.391  -5.806  -7.351  1.00  0.00     0.062 A 
ATOM     11  C   UNL     1       9.674  -6.561  -8.289  1.00  0.00     0.022 A 
ENDROOT
BRANCH   9  12
ATOM     12  O   UNL     1      10.415  -4.365  -5.399  1.00  0.00    -0.504 OA
ATOM     13  H   UNL     1      11.323  -4.660  -5.057  1.00  0.00     0.293 HD
ENDBRANCH   9  12
BRANCH   8  14
ATOM     14  O   UNL     1       7.642  -4.497  -5.249  1.00  0.00    -0.504 OA
ATOM     15  H   UNL     1       7.987  -4.489  -4.296  1.00  0.00     0.293 HD
ENDBRANCH   8  14
TORSDOF 2
ENDMDL
MODEL 2
REMARK VINA RESULT:    -5.200      1.710      2.258
REMARK INTER + INTRA:          -5.504
REMARK INTER:                  -5.504
REMARK INTRA:                   0.000
REMARK UNBOUND:                 0.000
REMARK SMILES O=c1ccc2cc(O)c(O)cc2o1
REMARK SMILES IDX 4 1 3 2 2 3 1 4 13 5 12 6 11 7 9 8 7 9 6 10 5 11 8 12 10 14
REMARK H PARENT 8 13 10 15
REMARK Flexibility Score: inf
ROOT
ATOM      1  C   UNL     1       8.092  -8.269  -8.273  1.00  0.00     0.019 A 
ATOM      2  C   UNL     1       8.281  -7.916  -9.608  1.00  0.00     0.094 A 
ATOM      3  C   UNL     1       8.418  -6.562  -9.939  1.00  0.00     0.336 A 
ATOM      4  O   UNL     1       8.589  -6.224 -11.140  1.00  0.00    -0.246 OA
ATOM      5  O   UNL     1       8.368  -5.629  -8.992  1.00  0.00    -0.423 OA
ATOM      6  C   UNL     1       8.190  -5.923  -7.706  1.00  0.00     0.142 A 
ATOM      7  C   UNL     1       8.146  -4.900  -6.755  1.00  0.00     0.098 A 
ATOM      8  C   UNL     1       7.959  -5.204  -5.398  1.00  0.00     0.161 A 
ATOM      9  C   UNL     1       7.813  -6.539  -4.993  1.00  0.00     0.158 A 
ATOM     10  C   UNL     1       7.856  -7.571  -5.943  1.00  0.00     0.062 A 
ATOM     11  C   UNL     1       8.044  -7.267  -7.298  1.00  0.00     0.022 A 
ENDROOT
BRANCH   9  12
ATOM     12  O   UNL     1       7.627  -6.832  -3.643  1.00  0.00    -0.504 OA
ATOM     13  H   UNL     1       8.210  -7.509  -3.162  1.00  0.00     0.293 HD
ENDBRANCH   9  12
BRANCH   8  14
ATOM     14  O   UNL     1       7.914  -4.187  -4.448  1.00  0.00    -0.504 OA
ATOM     15  H   UNL     1       8.761  -3.768  -4.079  1.00  0.00     0.293 HD
ENDBRANCH   8  14
TORSDOF 2
ENDMDL
MODEL 3
REMARK VINA RESULT:    -5.154      1.535      1.977
REMARK INTER + INTRA:          -5.455
REMARK INTER:                  -5.455
REMARK INTRA:                   0.000
REMARK UNBOUND:                 0.000
REMARK SMILES O=c1ccc2cc(O)c(O)cc2o1
REMARK SMILES IDX 4 1 3 2 2 3 1 4 13 5 12 6 11 7 9 8 7 9 6 10 5 11 8 12 10 14
REMARK H PARENT 8 13 10 15
REMARK Flexibility Score: inf
ROOT
ATOM      1  C   UNL     1       8.359  -5.727  -9.048  1.00  0.00     0.019 A 
ATOM      2  C   UNL     1       8.376  -6.796  -9.943  1.00  0.00     0.094 A 
ATOM      3  C   UNL     1       8.207  -8.096  -9.451  1.00  0.00     0.336 A 
ATOM      4  O   UNL     1       8.221  -9.074 -10.243  1.00  0.00    -0.246 OA
ATOM      5  O   UNL     1       8.032  -8.305  -8.148  1.00  0.00    -0.423 OA
ATOM      6  C   UNL     1       8.008  -7.313  -7.261  1.00  0.00     0.142 A 
ATOM      7  C   UNL     1       7.820  -7.594  -5.905  1.00  0.00     0.098 A 
ATOM      8  C   UNL     1       7.793  -6.552  -4.965  1.00  0.00     0.161 A 
ATOM      9  C   UNL     1       7.957  -5.224  -5.386  1.00  0.00     0.158 A 
ATOM     10  C   UNL     1       8.146  -4.936  -6.746  1.00  0.00     0.062 A 
ATOM     11  C   UNL     1       8.172  -5.977  -7.685  1.00  0.00     0.022 A 
ENDROOT
BRANCH   9  12
ATOM     12  O   UNL     1       7.930  -4.195  -4.446  1.00  0.00    -0.504 OA
ATOM     13  H   UNL     1       7.618  -3.262  -4.690  1.00  0.00     0.293 HD
ENDBRANCH   9  12
BRANCH   8  14
ATOM     14  O   UNL     1       7.606  -6.828  -3.612  1.00  0.00    -0.504 OA
ATOM     15  H   UNL     1       7.315  -7.745  -3.294  1.00  0.00     0.293 HD
ENDBRANCH   8  14
TORSDOF 2
ENDMDL
MODEL 4
REMARK VINA RESULT:    -5.144      1.181      2.265
REMARK INTER + INTRA:          -5.445
REMARK INTER:                  -5.445
REMARK INTRA:                   0.000
REMARK UNBOUND:                 0.000
REMARK SMILES O=c1ccc2cc(O)c(O)cc2o1
REMARK SMILES IDX 4 1 3 2 2 3 1 4 13 5 12 6 11 7 9 8 7 9 6 10 5 11 8 12 10 14
REMARK H PARENT 8 13 10 15
REMARK Flexibility Score: inf
ROOT
ATOM      1  C   UNL     1       7.630  -7.577  -8.916  1.00  0.00     0.019 A 
ATOM      2  C   UNL     1       8.319  -8.223  -9.942  1.00  0.00     0.094 A 
ATOM      3  C   UNL     1       9.701  -8.028 -10.058  1.00  0.00     0.336 A 
ATOM      4  O   UNL     1      10.340  -8.602 -10.978  1.00  0.00    -0.246 OA
ATOM      5  O   UNL     1      10.344  -7.238  -9.202  1.00  0.00    -0.423 OA
ATOM      6  C   UNL     1       9.724  -6.604  -8.209  1.00  0.00     0.142 A 
ATOM      7  C   UNL     1      10.453  -5.787  -7.340  1.00  0.00     0.098 A 
ATOM      8  C   UNL     1       9.805  -5.116  -6.292  1.00  0.00     0.161 A 
ATOM      9  C   UNL     1       8.421  -5.264  -6.114  1.00  0.00     0.158 A 
ATOM     10  C   UNL     1       7.685  -6.083  -6.983  1.00  0.00     0.062 A 
ATOM     11  C   UNL     1       8.332  -6.753  -8.031  1.00  0.00     0.022 A 
ENDROOT
BRANCH   9  12
ATOM     12  O   UNL     1       7.786  -4.593  -5.070  1.00  0.00    -0.504 OA
ATOM     13  H   UNL     1       7.559  -3.607  -5.134  1.00  0.00     0.293 HD
ENDBRANCH   9  12
BRANCH   8  14
ATOM     14  O   UNL     1      10.528  -4.301  -5.424  1.00  0.00    -0.504 OA
ATOM     15  H   UNL     1      11.233  -3.657  -5.764  1.00  0.00     0.293 HD
ENDBRANCH   8  14
TORSDOF 2
ENDMDL
MODEL 5
REMARK VINA RESULT:    -5.077     16.666     18.088
REMARK INTER + INTRA:          -5.373
REMARK INTER:                  -5.373
REMARK INTRA:                   0.000
REMARK UNBOUND:                 0.000
REMARK SMILES O=c1ccc2cc(O)c(O)cc2o1
REMARK SMILES IDX 4 1 3 2 2 3 1 4 13 5 12 6 11 7 9 8 7 9 6 10 5 11 8 12 10 14
REMARK H PARENT 8 13 10 15
REMARK Flexibility Score: inf
ROOT
ATOM      1  C   UNL     1      19.260  -2.057 -18.843  1.00  0.00     0.019 A 
ATOM      2  C   UNL     1      19.036  -1.641 -17.531  1.00  0.00     0.094 A 
ATOM      3  C   UNL     1      19.645  -0.465 -17.079  1.00  0.00     0.336 A 
ATOM      4  O   UNL     1      19.455  -0.074 -15.897  1.00  0.00    -0.246 OA
ATOM      5  O   UNL     1      20.425   0.245 -17.891  1.00  0.00    -0.423 OA
ATOM      6  C   UNL     1      20.663  -0.115 -19.149  1.00  0.00     0.142 A 
ATOM      7  C   UNL     1      21.492   0.671 -19.956  1.00  0.00     0.098 A 
ATOM      8  C   UNL     1      21.747   0.295 -21.284  1.00  0.00     0.161 A 
ATOM      9  C   UNL     1      21.171  -0.873 -21.805  1.00  0.00     0.158 A 
ATOM     10  C   UNL     1      20.339  -1.666 -21.000  1.00  0.00     0.062 A 
ATOM     11  C   UNL     1      20.084  -1.291 -19.674  1.00  0.00     0.022 A 
ENDROOT
BRANCH   9  12
ATOM     12  O   UNL     1      21.431  -1.238 -23.125  1.00  0.00    -0.504 OA
ATOM     13  H   UNL     1      20.832  -1.888 -23.623  1.00  0.00     0.293 HD
ENDBRANCH   9  12
BRANCH   8  14
ATOM     14  O   UNL     1      22.572   1.076 -22.090  1.00  0.00    -0.504 OA
ATOM     15  H   UNL     1      23.573   0.923 -22.130  1.00  0.00     0.293 HD
ENDBRANCH   8  14
TORSDOF 2
ENDMDL
MODEL 6
REMARK VINA RESULT:    -5.066      3.119      4.497
REMARK INTER + INTRA:          -5.363
REMARK INTER:                  -5.363
REMARK INTRA:                   0.000
REMARK UNBOUND:                 0.000
REMARK SMILES O=c1ccc2cc(O)c(O)cc2o1
REMARK SMILES IDX 4 1 3 2 2 3 1 4 13 5 12 6 11 7 9 8 7 9 6 10 5 11 8 12 10 14
REMARK H PARENT 8 13 10 15
REMARK Flexibility Score: inf
ROOT
ATOM      1  C   UNL     1       7.722  -5.420  -7.018  1.00  0.00     0.019 A 
ATOM      2  C   UNL     1       8.756  -6.310  -6.729  1.00  0.00     0.094 A 
ATOM      3  C   UNL     1       9.676  -6.631  -7.734  1.00  0.00     0.336 A 
ATOM      4  O   UNL     1      10.615  -7.433  -7.492  1.00  0.00    -0.246 OA
ATOM      5  O   UNL     1       9.562  -6.095  -8.947  1.00  0.00    -0.423 OA
ATOM      6  C   UNL     1       8.592  -5.242  -9.264  1.00  0.00     0.142 A 
ATOM      7  C   UNL     1       8.523  -4.710 -10.555  1.00  0.00     0.098 A 
ATOM      8  C   UNL     1       7.502  -3.810 -10.895  1.00  0.00     0.161 A 
ATOM      9  C   UNL     1       6.545  -3.441  -9.938  1.00  0.00     0.158 A 
ATOM     10  C   UNL     1       6.608  -3.972  -8.640  1.00  0.00     0.062 A 
ATOM     11  C   UNL     1       7.628  -4.871  -8.301  1.00  0.00     0.022 A 
ENDROOT
BRANCH   9  12
ATOM     12  O   UNL     1       5.533  -2.547 -10.284  1.00  0.00    -0.504 OA
ATOM     13  H   UNL     1       4.563  -2.839 -10.339  1.00  0.00     0.293 HD
ENDBRANCH   9  12
BRANCH   8  14
ATOM     14  O   UNL     1       7.431  -3.278 -12.180  1.00  0.00    -0.504 OA
ATOM     15  H   UNL     1       6.969  -3.773 -12.934  1.00  0.00     0.293 HD
ENDBRANCH   8  14
TORSDOF 2
ENDMDL
MODEL 7
REMARK VINA RESULT:    -4.968      2.000      2.459
REMARK INTER + INTRA:          -5.258
REMARK INTER:                  -5.258
REMARK INTRA:                   0.000
REMARK UNBOUND:                 0.000
REMARK SMILES O=c1ccc2cc(O)c(O)cc2o1
REMARK SMILES IDX 4 1 3 2 2 3 1 4 13 5 12 6 11 7 9 8 7 9 6 10 5 11 8 12 10 14
REMARK H PARENT 8 13 10 15
REMARK Flexibility Score: inf
ROOT
ATOM      1  C   UNL     1      10.945  -6.806  -8.270  1.00  0.00     0.019 A 
ATOM      2  C   UNL     1      11.465  -7.111  -9.527  1.00  0.00     0.094 A 
ATOM      3  C   UNL     1      10.763  -6.706 -10.668  1.00  0.00     0.336 A 
ATOM      4  O   UNL     1      11.216  -6.972 -11.812  1.00  0.00    -0.246 OA
ATOM      5  O   UNL     1       9.616  -6.041 -10.552  1.00  0.00    -0.423 OA
ATOM      6  C   UNL     1       9.086  -5.729  -9.372  1.00  0.00     0.142 A 
ATOM      7  C   UNL     1       7.878  -5.028  -9.312  1.00  0.00     0.098 A 
ATOM      8  C   UNL     1       7.314  -4.697  -8.070  1.00  0.00     0.161 A 
ATOM      9  C   UNL     1       7.963  -5.071  -6.884  1.00  0.00     0.158 A 
ATOM     10  C   UNL     1       9.175  -5.775  -6.938  1.00  0.00     0.062 A 
ATOM     11  C   UNL     1       9.739  -6.106  -8.178  1.00  0.00     0.022 A 
ENDROOT
BRANCH   9  12
ATOM     12  O   UNL     1       7.395  -4.738  -5.655  1.00  0.00    -0.504 OA
ATOM     13  H   UNL     1       7.271  -3.772  -5.373  1.00  0.00     0.293 HD
ENDBRANCH   9  12
BRANCH   8  14
ATOM     14  O   UNL     1       6.111  -3.998  -8.007  1.00  0.00    -0.504 OA
ATOM     15  H   UNL     1       5.938  -3.303  -7.290  1.00  0.00     0.293 HD
ENDBRANCH   8  14
TORSDOF 2
ENDMDL
MODEL 8
REMARK VINA RESULT:    -4.792     16.674     17.973
REMARK INTER + INTRA:          -5.073
REMARK INTER:                  -5.073
REMARK INTRA:                   0.000
REMARK UNBOUND:                 0.000
REMARK SMILES O=c1ccc2cc(O)c(O)cc2o1
REMARK SMILES IDX 4 1 3 2 2 3 1 4 13 5 12 6 11 7 9 8 7 9 6 10 5 11 8 12 10 14
REMARK H PARENT 8 13 10 15
REMARK Flexibility Score: inf
ROOT
ATOM      1  C   UNL     1      20.728   0.248 -17.758  1.00  0.00     0.019 A 
ATOM      2  C   UNL     1      19.904  -0.518 -16.934  1.00  0.00     0.094 A 
ATOM      3  C   UNL     1      19.242  -1.625 -17.477  1.00  0.00     0.336 A 
ATOM      4  O   UNL     1      18.493  -2.328 -16.750  1.00  0.00    -0.246 OA
ATOM      5  O   UNL     1      19.398  -1.940 -18.761  1.00  0.00    -0.423 OA
ATOM      6  C   UNL     1      20.176  -1.236 -19.580  1.00  0.00     0.142 A 
ATOM      7  C   UNL     1      20.301  -1.615 -20.920  1.00  0.00     0.098 A 
ATOM      8  C   UNL     1      21.119  -0.877 -21.789  1.00  0.00     0.161 A 
ATOM      9  C   UNL     1      21.814   0.246 -21.314  1.00  0.00     0.158 A 
ATOM     10  C   UNL     1      21.691   0.631 -19.971  1.00  0.00     0.062 A 
ATOM     11  C   UNL     1      20.874  -0.106 -19.103  1.00  0.00     0.022 A 
ENDROOT
BRANCH   9  12
ATOM     12  O   UNL     1      22.624   0.973 -22.185  1.00  0.00    -0.504 OA
ATOM     13  H   UNL     1      22.523   0.897 -23.191  1.00  0.00     0.293 HD
ENDBRANCH   9  12
BRANCH   8  14
ATOM     14  O   UNL     1      21.247  -1.252 -23.125  1.00  0.00    -0.504 OA
ATOM     15  H   UNL     1      21.903  -1.967 -23.415  1.00  0.00     0.293 HD
ENDBRANCH   8  14
TORSDOF 2
ENDMDL
