MODEL 1
REMARK VINA RESULT:    -1.685      0.000      0.000
REMARK INTER + INTRA:          -1.903
REMARK INTER:                  -1.882
REMARK INTRA:                  -0.021
REMARK UNBOUND:                -0.021
REMARK SMILES CCCC(=O)[O-]
REMARK SMILES IDX 3 1 4 2 5 3 6 4 2 5 1 6
REMARK H PARENT
REMARK Flexibility Score: inf
ROOT
ATOM      1  C   UNL     1      11.120 -12.363   5.961  1.00  0.00     0.052 C 
ENDROOT
BRANCH   1   2
ATOM      2  C   UNL     1       9.902 -13.015   5.384  1.00  0.00     0.041 C 
ATOM      3  O   UNL     1       9.898 -14.251   5.144  1.00  0.00    -0.550 OA
ATOM      4  O   UNL     1       8.759 -12.264   5.141  1.00  0.00    -0.550 OA
ENDBRANCH   1   2
BRANCH   1   5
ATOM      5  C   UNL     1      11.204 -10.879   5.579  1.00  0.00     0.003 C 
ATOM      6  C   UNL     1      12.392 -10.581   4.666  1.00  0.00     0.004 C 
ENDBRANCH   1   5
TORSDOF 2
ENDMDL
MODEL 2
REMARK VINA RESULT:    -1.661      0.160      1.331
REMARK INTER + INTRA:          -1.876
REMARK INTER:                  -1.851
REMARK INTRA:                  -0.026
REMARK UNBOUND:                -0.021
REMARK SMILES CCCC(=O)[O-]
REMARK SMILES IDX 3 1 4 2 5 3 6 4 2 5 1 6
REMARK H PARENT
REMARK Flexibility Score: inf
ROOT
ATOM      1  C   UNL     1      11.193 -12.456   5.937  1.00  0.00     0.052 C 
ENDROOT
BRANCH   1   2
ATOM      2  C   UNL     1       9.962 -13.117   5.397  1.00  0.00     0.041 C 
ATOM      3  O   UNL     1       8.924 -12.440   5.177  1.00  0.00    -0.550 OA
ATOM      4  O   UNL     1       9.973 -14.475   5.106  1.00  0.00    -0.550 OA
ENDBRANCH   1   2
BRANCH   1   5
ATOM      5  C   UNL     1      11.219 -10.956   5.616  1.00  0.00     0.003 C 
ATOM      6  C   UNL     1      12.363 -10.584   4.675  1.00  0.00     0.004 C 
ENDBRANCH   1   5
TORSDOF 2
ENDMDL
MODEL 3
REMARK VINA RESULT:    -0.906      2.218      3.236
REMARK INTER + INTRA:          -1.033
REMARK INTER:                  -1.219
REMARK INTRA:                   0.186
REMARK UNBOUND:                -0.021
REMARK SMILES CCCC(=O)[O-]
REMARK SMILES IDX 3 1 4 2 5 3 6 4 2 5 1 6
REMARK H PARENT
REMARK Flexibility Score: inf
ROOT
ATOM      1  C   UNL     1      11.392 -12.561   6.029  1.00  0.00     0.052 C 
ENDROOT
BRANCH   1   2
ATOM      2  C   UNL     1      11.572 -11.194   5.443  1.00  0.00     0.041 C 
ATOM      3  O   UNL     1      10.915 -10.219   5.893  1.00  0.00    -0.550 OA
ATOM      4  O   UNL     1      12.492 -10.991   4.421  1.00  0.00    -0.550 OA
ENDBRANCH   1   2
BRANCH   1   5
ATOM      5  C   UNL     1      10.271 -13.337   5.324  1.00  0.00     0.003 C 
ATOM      6  C   UNL     1       8.981 -12.525   5.216  1.00  0.00     0.004 C 
ENDBRANCH   1   5
TORSDOF 2
ENDMDL
MODEL 4
REMARK VINA RESULT:     0.684      1.740      2.650
REMARK INTER + INTRA:           0.743
REMARK INTER:                   0.335
REMARK INTRA:                   0.407
REMARK UNBOUND:                -0.021
REMARK SMILES CCCC(=O)[O-]
REMARK SMILES IDX 3 1 4 2 5 3 6 4 2 5 1 6
REMARK H PARENT
REMARK Flexibility Score: inf
ROOT
ATOM      1  C   UNL     1      11.545 -11.772   5.441  1.00  0.00     0.052 C 
ENDROOT
BRANCH   1   2
ATOM      2  C   UNL     1      11.908 -13.181   5.796  1.00  0.00     0.041 C 
ATOM      3  O   UNL     1      12.889 -13.413   6.550  1.00  0.00    -0.550 OA
ATOM      4  O   UNL     1      11.141 -14.238   5.321  1.00  0.00    -0.550 OA
ENDBRANCH   1   2
BRANCH   1   5
ATOM      5  C   UNL     1      10.149 -11.399   5.955  1.00  0.00     0.003 C 
ATOM      6  C   UNL     1       9.049 -12.242   5.314  1.00  0.00     0.004 C 
ENDBRANCH   1   5
TORSDOF 2
ENDMDL
MODEL 5
REMARK VINA RESULT:     0.962     20.779     21.209
REMARK INTER + INTRA:           1.053
REMARK INTER:                   1.070
REMARK INTRA:                  -0.017
REMARK UNBOUND:                -0.021
REMARK SMILES CCCC(=O)[O-]
REMARK SMILES IDX 3 1 4 2 5 3 6 4 2 5 1 6
REMARK H PARENT
REMARK Flexibility Score: inf
ROOT
ATOM      1  C   UNL     1       1.179  -4.284  22.107  1.00  0.00     0.052 C 
ENDROOT
BRANCH   1   2
ATOM      2  C   UNL     1       1.963  -3.022  21.922  1.00  0.00     0.041 C 
ATOM      3  O   UNL     1       3.218  -3.035  22.018  1.00  0.00    -0.550 OA
ATOM      4  O   UNL     1       1.309  -1.837  21.609  1.00  0.00    -0.550 OA
ENDBRANCH   1   2
BRANCH   1   5
ATOM      5  C   UNL     1      -0.332  -4.017  22.125  1.00  0.00     0.003 C 
ATOM      6  C   UNL     1      -1.124  -5.113  21.416  1.00  0.00     0.004 C 
ENDBRANCH   1   5
TORSDOF 2
ENDMDL
