MODEL 1
REMARK VINA RESULT:    -4.985      0.000      0.000
REMARK INTER + INTRA:          -4.985
REMARK INTER:                  -4.985
REMARK INTRA:                   0.000
REMARK UNBOUND:                 0.000
REMARK SMILES C=C1CCC[C@@]2(C)CC(=O)C(=C(C)C)C[C@@H]12
REMARK SMILES IDX 13 1 12 2 11 3 15 4 16 5 2 6 1 7 3 8 4 9 5 10 6 11 8 12 9 13
REMARK SMILES IDX 10 14 7 15 14 16
REMARK H PARENT
REMARK Flexibility Score: inf
ROOT
ATOM      1  C   UNL     1      29.920  13.083  -6.358  1.00  0.00     0.039 C 
ATOM      2  C   UNL     1      31.417  13.280  -6.382  1.00  0.00    -0.070 C 
ATOM      3  C   UNL     1      31.971  14.470  -6.752  1.00  0.00    -0.006 C 
ATOM      4  C   UNL     1      31.139  15.684  -7.124  1.00  0.00     0.047 C 
ATOM      5  C   UNL     1      31.607  17.003  -6.433  1.00  0.00     0.025 C 
ATOM      6  C   UNL     1      30.555  17.490  -5.448  1.00  0.00    -0.073 C 
ATOM      7  C   UNL     1      29.572  18.312  -5.850  1.00  0.00     0.008 C 
ATOM      8  C   UNL     1      30.542  16.917  -4.054  1.00  0.00     0.031 C 
ATOM      9  C   UNL     1      31.930  17.030  -3.429  1.00  0.00     0.005 C 
ATOM     10  C   UNL     1      32.988  16.365  -4.318  1.00  0.00     0.008 C 
ATOM     11  C   UNL     1      33.034  16.948  -5.770  1.00  0.00    -0.018 C 
ATOM     12  C   UNL     1      33.981  16.077  -6.640  1.00  0.00     0.088 C 
ATOM     13  C   UNL     1      33.438  14.689  -6.829  1.00  0.00     0.159 C 
ATOM     14  O   UNL     1      34.232  13.757  -7.125  1.00  0.00    -0.295 OA
ATOM     15  C   UNL     1      33.630  18.378  -5.721  1.00  0.00     0.012 C 
ATOM     16  C   UNL     1      32.274  12.117  -5.932  1.00  0.00     0.039 C 
ENDROOT
TORSDOF 0
ENDMDL
MODEL 2
REMARK VINA RESULT:    -4.795     19.667     21.666
REMARK INTER + INTRA:          -4.795
REMARK INTER:                  -4.795
REMARK INTRA:                   0.000
REMARK UNBOUND:                 0.000
REMARK SMILES C=C1CCC[C@@]2(C)CC(=O)C(=C(C)C)C[C@@H]12
REMARK SMILES IDX 13 1 12 2 11 3 15 4 16 5 2 6 1 7 3 8 4 9 5 10 6 11 8 12 9 13
REMARK SMILES IDX 10 14 7 15 14 16
REMARK H PARENT
REMARK Flexibility Score: inf
ROOT
ATOM      1  C   UNL     1      20.638  27.261   4.843  1.00  0.00     0.039 C 
ATOM      2  C   UNL     1      19.242  26.875   4.414  1.00  0.00    -0.070 C 
ATOM      3  C   UNL     1      18.570  25.853   5.018  1.00  0.00    -0.006 C 
ATOM      4  C   UNL     1      19.146  25.061   6.178  1.00  0.00     0.047 C 
ATOM      5  C   UNL     1      18.155  24.877   7.369  1.00  0.00     0.025 C 
ATOM      6  C   UNL     1      18.645  25.637   8.591  1.00  0.00    -0.073 C 
ATOM      7  C   UNL     1      19.468  25.049   9.476  1.00  0.00     0.008 C 
ATOM      8  C   UNL     1      18.321  27.104   8.717  1.00  0.00     0.031 C 
ATOM      9  C   UNL     1      16.822  27.325   8.535  1.00  0.00     0.005 C 
ATOM     10  C   UNL     1      16.337  26.737   7.205  1.00  0.00     0.008 C 
ATOM     11  C   UNL     1      16.649  25.210   7.051  1.00  0.00    -0.018 C 
ATOM     12  C   UNL     1      16.310  24.765   5.602  1.00  0.00     0.088 C 
ATOM     13  C   UNL     1      17.214  25.417   4.596  1.00  0.00     0.159 C 
ATOM     14  O   UNL     1      16.832  25.511   3.399  1.00  0.00    -0.295 OA
ATOM     15  C   UNL     1      15.735  24.408   8.012  1.00  0.00     0.012 C 
ATOM     16  C   UNL     1      18.604  27.701   3.320  1.00  0.00     0.039 C 
ENDROOT
TORSDOF 0
ENDMDL
MODEL 3
REMARK VINA RESULT:    -4.792     17.774     19.956
REMARK INTER + INTRA:          -4.792
REMARK INTER:                  -4.792
REMARK INTRA:                   0.000
REMARK UNBOUND:                 0.000
REMARK SMILES C=C1CCC[C@@]2(C)CC(=O)C(=C(C)C)C[C@@H]12
REMARK SMILES IDX 13 1 12 2 11 3 15 4 16 5 2 6 1 7 3 8 4 9 5 10 6 11 8 12 9 13
REMARK SMILES IDX 10 14 7 15 14 16
REMARK H PARENT
REMARK Flexibility Score: inf
ROOT
ATOM      1  C   UNL     1      20.538  29.215   4.234  1.00  0.00     0.039 C 
ATOM      2  C   UNL     1      20.799  27.843   3.657  1.00  0.00    -0.070 C 
ATOM      3  C   UNL     1      20.569  26.712   4.384  1.00  0.00    -0.006 C 
ATOM      4  C   UNL     1      20.003  26.739   5.792  1.00  0.00     0.047 C 
ATOM      5  C   UNL     1      18.833  25.732   6.019  1.00  0.00     0.025 C 
ATOM      6  C   UNL     1      17.529  26.478   6.261  1.00  0.00    -0.073 C 
ATOM      7  C   UNL     1      17.168  26.835   7.505  1.00  0.00     0.008 C 
ATOM      8  C   UNL     1      16.725  26.945   5.075  1.00  0.00     0.031 C 
ATOM      9  C   UNL     1      16.488  25.782   4.115  1.00  0.00     0.005 C 
ATOM     10  C   UNL     1      17.813  25.136   3.697  1.00  0.00     0.008 C 
ATOM     11  C   UNL     1      18.666  24.629   4.909  1.00  0.00    -0.018 C 
ATOM     12  C   UNL     1      20.064  24.186   4.398  1.00  0.00     0.088 C 
ATOM     13  C   UNL     1      20.853  25.349   3.868  1.00  0.00     0.159 C 
ATOM     14  O   UNL     1      21.790  25.132   3.053  1.00  0.00    -0.295 OA
ATOM     15  C   UNL     1      17.978  23.384   5.524  1.00  0.00     0.012 C 
ATOM     16  C   UNL     1      21.280  27.777   2.225  1.00  0.00     0.039 C 
ENDROOT
TORSDOF 0
ENDMDL
MODEL 4
REMARK VINA RESULT:    -4.366     18.432     21.036
REMARK INTER + INTRA:          -4.366
REMARK INTER:                  -4.366
REMARK INTRA:                   0.000
REMARK UNBOUND:                 0.000
REMARK SMILES C=C1CCC[C@@]2(C)CC(=O)C(=C(C)C)C[C@@H]12
REMARK SMILES IDX 13 1 12 2 11 3 15 4 16 5 2 6 1 7 3 8 4 9 5 10 6 11 8 12 9 13
REMARK SMILES IDX 10 14 7 15 14 16
REMARK H PARENT
REMARK Flexibility Score: inf
ROOT
ATOM      1  C   UNL     1      20.119  25.949   8.951  1.00  0.00     0.039 C 
ATOM      2  C   UNL     1      18.682  25.993   8.489  1.00  0.00    -0.070 C 
ATOM      3  C   UNL     1      18.343  26.508   7.271  1.00  0.00    -0.006 C 
ATOM      4  C   UNL     1      19.371  27.031   6.284  1.00  0.00     0.047 C 
ATOM      5  C   UNL     1      19.167  26.509   4.828  1.00  0.00     0.025 C 
ATOM      6  C   UNL     1      20.314  25.595   4.424  1.00  0.00    -0.073 C 
ATOM      7  C   UNL     1      21.419  26.100   3.851  1.00  0.00     0.008 C 
ATOM      8  C   UNL     1      20.259  24.141   4.815  1.00  0.00     0.031 C 
ATOM      9  C   UNL     1      18.930  23.531   4.375  1.00  0.00     0.005 C 
ATOM     10  C   UNL     1      17.748  24.327   4.939  1.00  0.00     0.008 C 
ATOM     11  C   UNL     1      17.770  25.840   4.540  1.00  0.00    -0.018 C 
ATOM     12  C   UNL     1      16.660  26.592   5.324  1.00  0.00     0.088 C 
ATOM     13  C   UNL     1      16.938  26.608   6.799  1.00  0.00     0.159 C 
ATOM     14  O   UNL     1      15.982  26.782   7.601  1.00  0.00    -0.295 OA
ATOM     15  C   UNL     1      17.444  25.969   3.030  1.00  0.00     0.012 C 
ATOM     16  C   UNL     1      17.641  25.400   9.411  1.00  0.00     0.039 C 
ENDROOT
TORSDOF 0
ENDMDL
MODEL 5
REMARK VINA RESULT:    -2.818      2.210      4.461
REMARK INTER + INTRA:          -2.818
REMARK INTER:                  -2.818
REMARK INTRA:                   0.000
REMARK UNBOUND:                 0.000
REMARK SMILES C=C1CCC[C@@]2(C)CC(=O)C(=C(C)C)C[C@@H]12
REMARK SMILES IDX 13 1 12 2 11 3 15 4 16 5 2 6 1 7 3 8 4 9 5 10 6 11 8 12 9 13
REMARK SMILES IDX 10 14 7 15 14 16
REMARK H PARENT
REMARK Flexibility Score: inf
ROOT
ATOM      1  C   UNL     1      29.359  17.154  -7.116  1.00  0.00     0.039 C 
ATOM      2  C   UNL     1      30.046  17.868  -5.975  1.00  0.00    -0.070 C 
ATOM      3  C   UNL     1      30.736  17.180  -5.021  1.00  0.00    -0.006 C 
ATOM      4  C   UNL     1      30.901  15.671  -5.050  1.00  0.00     0.047 C 
ATOM      5  C   UNL     1      32.366  15.193  -4.806  1.00  0.00     0.025 C 
ATOM      6  C   UNL     1      32.933  14.552  -6.064  1.00  0.00    -0.073 C 
ATOM      7  C   UNL     1      32.778  13.236  -6.288  1.00  0.00     0.008 C 
ATOM      8  C   UNL     1      33.536  15.436  -7.125  1.00  0.00     0.031 C 
ATOM      9  C   UNL     1      34.574  16.366  -6.503  1.00  0.00     0.005 C 
ATOM     10  C   UNL     1      33.967  17.175  -5.351  1.00  0.00     0.008 C 
ATOM     11  C   UNL     1      33.344  16.283  -4.226  1.00  0.00    -0.018 C 
ATOM     12  C   UNL     1      32.579  17.188  -3.222  1.00  0.00     0.088 C 
ATOM     13  C   UNL     1      31.388  17.841  -3.861  1.00  0.00     0.159 C 
ATOM     14  O   UNL     1      30.921  18.895  -3.352  1.00  0.00    -0.295 OA
ATOM     15  C   UNL     1      34.485  15.582  -3.447  1.00  0.00     0.012 C 
ATOM     16  C   UNL     1      29.975  19.378  -5.963  1.00  0.00     0.039 C 
ENDROOT
TORSDOF 0
ENDMDL
MODEL 6
REMARK VINA RESULT:    -2.478     18.276     20.759
REMARK INTER + INTRA:          -2.478
REMARK INTER:                  -2.478
REMARK INTRA:                   0.000
REMARK UNBOUND:                 0.000
REMARK SMILES C=C1CCC[C@@]2(C)CC(=O)C(=C(C)C)C[C@@H]12
REMARK SMILES IDX 13 1 12 2 11 3 15 4 16 5 2 6 1 7 3 8 4 9 5 10 6 11 8 12 9 13
REMARK SMILES IDX 10 14 7 15 14 16
REMARK H PARENT
REMARK Flexibility Score: inf
ROOT
ATOM      1  C   UNL     1      15.610  25.745   7.145  1.00  0.00     0.039 C 
ATOM      2  C   UNL     1      16.991  26.096   7.648  1.00  0.00    -0.070 C 
ATOM      3  C   UNL     1      18.110  25.561   7.080  1.00  0.00    -0.006 C 
ATOM      4  C   UNL     1      18.060  24.618   5.892  1.00  0.00     0.047 C 
ATOM      5  C   UNL     1      19.065  24.985   4.755  1.00  0.00     0.025 C 
ATOM      6  C   UNL     1      18.317  25.432   3.508  1.00  0.00    -0.073 C 
ATOM      7  C   UNL     1      17.940  24.536   2.581  1.00  0.00     0.008 C 
ATOM      8  C   UNL     1      17.871  26.867   3.400  1.00  0.00     0.031 C 
ATOM      9  C   UNL     1      19.050  27.802   3.662  1.00  0.00     0.005 C 
ATOM     10  C   UNL     1      19.701  27.498   5.016  1.00  0.00     0.008 C 
ATOM     11  C   UNL     1      20.187  26.016   5.153  1.00  0.00    -0.018 C 
ATOM     12  C   UNL     1      20.636  25.760   6.617  1.00  0.00     0.088 C 
ATOM     13  C   UNL     1      19.481  25.848   7.574  1.00  0.00     0.159 C 
ATOM     14  O   UNL     1      19.710  26.088   8.789  1.00  0.00    -0.295 OA
ATOM     15  C   UNL     1      21.422  25.803   4.242  1.00  0.00     0.012 C 
ATOM     16  C   UNL     1      17.080  27.100   8.775  1.00  0.00     0.039 C 
ENDROOT
TORSDOF 0
ENDMDL
MODEL 7
REMARK VINA RESULT:    -2.303     18.652     21.116
REMARK INTER + INTRA:          -2.303
REMARK INTER:                  -2.303
REMARK INTRA:                   0.000
REMARK UNBOUND:                 0.000
REMARK SMILES C=C1CCC[C@@]2(C)CC(=O)C(=C(C)C)C[C@@H]12
REMARK SMILES IDX 13 1 12 2 11 3 15 4 16 5 2 6 1 7 3 8 4 9 5 10 6 11 8 12 9 13
REMARK SMILES IDX 10 14 7 15 14 16
REMARK H PARENT
REMARK Flexibility Score: inf
ROOT
ATOM      1  C   UNL     1      20.120  23.369   5.245  1.00  0.00     0.039 C 
ATOM      2  C   UNL     1      19.811  24.731   4.668  1.00  0.00    -0.070 C 
ATOM      3  C   UNL     1      18.528  25.123   4.420  1.00  0.00    -0.006 C 
ATOM      4  C   UNL     1      17.326  24.252   4.735  1.00  0.00     0.047 C 
ATOM      5  C   UNL     1      16.184  25.004   5.487  1.00  0.00     0.025 C 
ATOM      6  C   UNL     1      16.032  24.465   6.901  1.00  0.00    -0.073 C 
ATOM      7  C   UNL     1      15.212  23.430   7.152  1.00  0.00     0.008 C 
ATOM      8  C   UNL     1      16.925  25.004   7.987  1.00  0.00     0.031 C 
ATOM      9  C   UNL     1      16.865  26.530   8.004  1.00  0.00     0.005 C 
ATOM     10  C   UNL     1      17.212  27.108   6.628  1.00  0.00     0.008 C 
ATOM     11  C   UNL     1      16.291  26.575   5.479  1.00  0.00    -0.018 C 
ATOM     12  C   UNL     1      16.851  27.054   4.113  1.00  0.00     0.088 C 
ATOM     13  C   UNL     1      18.188  26.436   3.815  1.00  0.00     0.159 C 
ATOM     14  O   UNL     1      18.958  27.008   2.999  1.00  0.00    -0.295 OA
ATOM     15  C   UNL     1      14.875  27.184   5.643  1.00  0.00     0.012 C 
ATOM     16  C   UNL     1      20.981  25.658   4.424  1.00  0.00     0.039 C 
ENDROOT
TORSDOF 0
ENDMDL
MODEL 8
REMARK VINA RESULT:    -2.082      1.466      3.121
REMARK INTER + INTRA:          -2.082
REMARK INTER:                  -2.082
REMARK INTRA:                   0.000
REMARK UNBOUND:                 0.000
REMARK SMILES C=C1CCC[C@@]2(C)CC(=O)C(=C(C)C)C[C@@H]12
REMARK SMILES IDX 13 1 12 2 11 3 15 4 16 5 2 6 1 7 3 8 4 9 5 10 6 11 8 12 9 13
REMARK SMILES IDX 10 14 7 15 14 16
REMARK H PARENT
REMARK Flexibility Score: inf
ROOT
ATOM      1  C   UNL     1      35.125  14.721  -3.961  1.00  0.00     0.039 C 
ATOM      2  C   UNL     1      34.326  14.340  -5.185  1.00  0.00    -0.070 C 
ATOM      3  C   UNL     1      32.999  14.640  -5.288  1.00  0.00    -0.006 C 
ATOM      4  C   UNL     1      32.242  15.404  -4.217  1.00  0.00     0.047 C 
ATOM      5  C   UNL     1      31.362  16.565  -4.776  1.00  0.00     0.025 C 
ATOM      6  C   UNL     1      31.908  17.911  -4.325  1.00  0.00    -0.073 C 
ATOM      7  C   UNL     1      31.502  18.459  -3.167  1.00  0.00     0.008 C 
ATOM      8  C   UNL     1      33.022  18.548  -5.115  1.00  0.00     0.031 C 
ATOM      9  C   UNL     1      32.646  18.610  -6.593  1.00  0.00     0.005 C 
ATOM     10  C   UNL     1      32.280  17.220  -7.125  1.00  0.00     0.008 C 
ATOM     11  C   UNL     1      31.116  16.537  -6.332  1.00  0.00    -0.018 C 
ATOM     12  C   UNL     1      30.966  15.068  -6.810  1.00  0.00     0.088 C 
ATOM     13  C   UNL     1      32.171  14.244  -6.456  1.00  0.00     0.159 C 
ATOM     14  O   UNL     1      32.407  13.193  -7.110  1.00  0.00    -0.295 OA
ATOM     15  C   UNL     1      29.789  17.271  -6.652  1.00  0.00     0.012 C 
ATOM     16  C   UNL     1      35.070  13.654  -6.309  1.00  0.00     0.039 C 
ENDROOT
TORSDOF 0
ENDMDL
