MODEL 1
REMARK VINA RESULT:    -6.573      0.000      0.000
REMARK INTER + INTRA:         -10.308
REMARK INTER:                  -8.687
REMARK INTRA:                  -1.621
REMARK UNBOUND:                -1.621
REMARK SMILES CC[C@H](C=C[C@H](C)[C@H]1CC[C@H]2[C@@H]3CC=C4C[C@@H](O)CC[C@]4(C)[C@H]3CC[C@]12C)C(C)C
REMARK SMILES IDX 6 1 7 2 5 3 4 4 3 5 2 6 1 7 28 8 29 9 30 10 8 11 9 12 26 13
REMARK SMILES IDX 10 14 11 15 25 16 27 17 12 18 24 19 23 20 13 21 21 22 14 23
REMARK SMILES IDX 15 24 20 25 22 26 16 27 19 28 17 29 18 30
REMARK H PARENT 18 31
REMARK Flexibility Score: inf
ROOT
ATOM      1  C   UNL     1       3.975  -0.889   5.519  1.00  0.00     0.012 C 
ATOM      2  C   UNL     1       2.983  -2.041   5.772  1.00  0.00     0.012 C 
ENDROOT
BRANCH   1   3
ATOM      3  C   UNL     1       5.237  -1.358   4.805  1.00  0.00    -0.028 C 
ATOM      4  C   UNL     1       5.380  -1.788   3.535  1.00  0.00    -0.027 C 
BRANCH   4   5
ATOM      5  C   UNL     1       4.301  -1.877   2.469  1.00  0.00     0.014 C 
BRANCH   5   6
ATOM      6  C   UNL     1       4.410  -0.646   1.525  1.00  0.00     0.004 C 
ATOM      7  C   UNL     1       3.154   0.230   1.461  1.00  0.00     0.004 C 
ENDBRANCH   5   6
BRANCH   5   8
ATOM      8  C   UNL     1       4.361  -3.251   1.719  1.00  0.00    -0.011 C 
ATOM      9  C   UNL     1       5.607  -3.352   0.822  1.00  0.00     0.008 C 
ATOM     10  C   UNL     1       4.370  -4.436   2.704  1.00  0.00     0.008 C 
ENDBRANCH   5   8
ENDBRANCH   4   5
ENDBRANCH   1   3
BRANCH   1  11
ATOM     11  C   UNL     1       3.389   0.456   4.947  1.00  0.00     0.002 C 
ATOM     12  C   UNL     1       1.859   0.695   5.055  1.00  0.00     0.005 C 
ATOM     13  C   UNL     1       3.998   1.760   5.530  1.00  0.00    -0.026 C 
ATOM     14  C   UNL     1       1.651   2.216   5.168  1.00  0.00     0.005 C 
ATOM     15  C   UNL     1       3.037   2.808   4.948  1.00  0.00    -0.001 C 
ATOM     16  C   UNL     1       5.410   2.097   5.005  1.00  0.00     0.007 C 
ATOM     17  C   UNL     1       3.992   1.728   7.094  1.00  0.00     0.012 C 
ATOM     18  C   UNL     1       3.320   4.231   5.471  1.00  0.00     0.000 C 
ATOM     19  C   UNL     1       5.847   3.512   5.447  1.00  0.00     0.005 C 
ATOM     20  C   UNL     1       4.794   4.629   5.133  1.00  0.00     0.003 C 
ATOM     21  C   UNL     1       2.372   5.250   4.824  1.00  0.00     0.031 C 
ATOM     22  C   UNL     1       5.143   6.036   5.755  1.00  0.00    -0.008 C 
ATOM     23  C   UNL     1       2.773   6.672   5.119  1.00  0.00    -0.027 C 
ATOM     24  C   UNL     1       4.035   7.052   5.426  1.00  0.00    -0.065 C 
ATOM     25  C   UNL     1       6.485   6.546   5.144  1.00  0.00     0.014 C 
ATOM     26  C   UNL     1       5.289   5.959   7.302  1.00  0.00     0.016 C 
ATOM     27  C   UNL     1       4.319   8.530   5.620  1.00  0.00     0.063 C 
ATOM     28  C   UNL     1       6.788   8.017   5.471  1.00  0.00     0.033 C 
ATOM     29  C   UNL     1       5.656   8.930   4.983  1.00  0.00     0.118 C 
BRANCH  29  30
ATOM     30  O   UNL     1       5.944  10.260   5.320  1.00  0.00    -0.393 OA
ATOM     31  H   UNL     1       6.320  10.689   4.507  1.00  0.00     0.210 HD
ENDBRANCH  29  30
ENDBRANCH   1  11
TORSDOF 6
ENDMDL
MODEL 2
REMARK VINA RESULT:    -6.389      5.650      8.266
REMARK INTER + INTRA:         -10.064
REMARK INTER:                  -8.538
REMARK INTRA:                  -1.526
REMARK UNBOUND:                -1.621
REMARK SMILES CC[C@H](C=C[C@H](C)[C@H]1CC[C@H]2[C@@H]3CC=C4C[C@@H](O)CC[C@]4(C)[C@H]3CC[C@]12C)C(C)C
REMARK SMILES IDX 6 1 7 2 5 3 4 4 3 5 2 6 1 7 28 8 29 9 30 10 8 11 9 12 26 13
REMARK SMILES IDX 10 14 11 15 25 16 27 17 12 18 24 19 23 20 13 21 21 22 14 23
REMARK SMILES IDX 15 24 20 25 22 26 16 27 19 28 17 29 18 30
REMARK H PARENT 18 31
REMARK Flexibility Score: inf
ROOT
ATOM      1  C   UNL     1      -2.607   7.738   0.037  1.00  0.00     0.012 C 
ATOM      2  C   UNL     1      -3.726   8.793  -0.060  1.00  0.00     0.012 C 
ENDROOT
BRANCH   1   3
ATOM      3  C   UNL     1      -2.641   6.749  -1.122  1.00  0.00    -0.028 C 
ATOM      4  C   UNL     1      -2.686   5.401  -1.082  1.00  0.00    -0.027 C 
BRANCH   4   5
ATOM      5  C   UNL     1      -2.753   4.521   0.154  1.00  0.00     0.014 C 
BRANCH   5   6
ATOM      6  C   UNL     1      -4.200   4.545   0.723  1.00  0.00     0.004 C 
ATOM      7  C   UNL     1      -4.325   5.113   2.142  1.00  0.00     0.004 C 
ENDBRANCH   5   6
BRANCH   5   8
ATOM      8  C   UNL     1      -2.221   3.079  -0.151  1.00  0.00    -0.011 C 
ATOM      9  C   UNL     1      -3.315   2.192  -0.770  1.00  0.00     0.008 C 
ATOM     10  C   UNL     1      -1.015   3.110  -1.109  1.00  0.00     0.008 C 
ENDBRANCH   5   8
ENDBRANCH   4   5
ENDBRANCH   1   3
BRANCH   1  11
ATOM     11  C   UNL     1      -1.160   8.250   0.388  1.00  0.00     0.002 C 
ATOM     12  C   UNL     1      -0.800   9.722   0.049  1.00  0.00     0.005 C 
ATOM     13  C   UNL     1      -0.736   8.110   1.876  1.00  0.00    -0.026 C 
ATOM     14  C   UNL     1       0.239  10.178   1.089  1.00  0.00     0.005 C 
ATOM     15  C   UNL     1       0.571   8.917   1.876  1.00  0.00    -0.001 C 
ATOM     16  C   UNL     1      -0.382   6.671   2.307  1.00  0.00     0.007 C 
ATOM     17  C   UNL     1      -1.825   8.711   2.825  1.00  0.00     0.012 C 
ATOM     18  C   UNL     1       1.177   9.069   3.286  1.00  0.00     0.000 C 
ATOM     19  C   UNL     1       0.246   6.650   3.720  1.00  0.00     0.005 C 
ATOM     20  C   UNL     1       1.436   7.654   3.900  1.00  0.00     0.003 C 
ATOM     21  C   UNL     1       2.507   9.834   3.231  1.00  0.00     0.031 C 
ATOM     22  C   UNL     1       1.952   7.781   5.385  1.00  0.00    -0.008 C 
ATOM     23  C   UNL     1       3.246   9.791   4.543  1.00  0.00    -0.027 C 
ATOM     24  C   UNL     1       3.088   8.814   5.466  1.00  0.00    -0.065 C 
ATOM     25  C   UNL     1       2.499   6.398   5.856  1.00  0.00     0.014 C 
ATOM     26  C   UNL     1       0.816   8.230   6.350  1.00  0.00     0.016 C 
ATOM     27  C   UNL     1       3.958   8.846   6.710  1.00  0.00     0.063 C 
ATOM     28  C   UNL     1       3.268   6.463   7.185  1.00  0.00     0.033 C 
ATOM     29  C   UNL     1       4.445   7.442   7.087  1.00  0.00     0.118 C 
BRANCH  29  30
ATOM     30  O   UNL     1       5.111   7.504   8.320  1.00  0.00    -0.393 OA
ATOM     31  H   UNL     1       6.068   7.685   8.122  1.00  0.00     0.210 HD
ENDBRANCH  29  30
ENDBRANCH   1  11
TORSDOF 6
ENDMDL
MODEL 3
REMARK VINA RESULT:    -6.336      1.627      2.302
REMARK INTER + INTRA:          -9.994
REMARK INTER:                  -8.532
REMARK INTRA:                  -1.462
REMARK UNBOUND:                -1.621
REMARK SMILES CC[C@H](C=C[C@H](C)[C@H]1CC[C@H]2[C@@H]3CC=C4C[C@@H](O)CC[C@]4(C)[C@H]3CC[C@]12C)C(C)C
REMARK SMILES IDX 6 1 7 2 5 3 4 4 3 5 2 6 1 7 28 8 29 9 30 10 8 11 9 12 26 13
REMARK SMILES IDX 10 14 11 15 25 16 27 17 12 18 24 19 23 20 13 21 21 22 14 23
REMARK SMILES IDX 15 24 20 25 22 26 16 27 19 28 17 29 18 30
REMARK H PARENT 18 31
REMARK Flexibility Score: inf
ROOT
ATOM      1  C   UNL     1       6.188   0.777   5.153  1.00  0.00     0.012 C 
ATOM      2  C   UNL     1       5.896  -0.596   5.789  1.00  0.00     0.012 C 
ENDROOT
BRANCH   1   3
ATOM      3  C   UNL     1       7.245   0.696   4.058  1.00  0.00    -0.028 C 
ATOM      4  C   UNL     1       7.152   0.140   2.833  1.00  0.00    -0.027 C 
BRANCH   4   5
ATOM      5  C   UNL     1       5.933  -0.523   2.215  1.00  0.00     0.014 C 
BRANCH   5   6
ATOM      6  C   UNL     1       5.183   0.510   1.326  1.00  0.00     0.004 C 
ATOM      7  C   UNL     1       3.655   0.479   1.452  1.00  0.00     0.004 C 
ENDBRANCH   5   6
BRANCH   5   8
ATOM      8  C   UNL     1       6.327  -1.836   1.457  1.00  0.00    -0.011 C 
ATOM      9  C   UNL     1       5.101  -2.724   1.187  1.00  0.00     0.008 C 
ATOM     10  C   UNL     1       7.015  -1.529   0.112  1.00  0.00     0.008 C 
ENDBRANCH   5   8
ENDBRANCH   4   5
ENDBRANCH   1   3
BRANCH   1  11
ATOM     11  C   UNL     1       4.951   1.673   4.771  1.00  0.00     0.002 C 
ATOM     12  C   UNL     1       3.528   1.098   5.001  1.00  0.00     0.005 C 
ATOM     13  C   UNL     1       4.889   3.067   5.454  1.00  0.00    -0.026 C 
ATOM     14  C   UNL     1       2.604   2.293   5.294  1.00  0.00     0.005 C 
ATOM     15  C   UNL     1       3.477   3.518   5.054  1.00  0.00    -0.001 C 
ATOM     16  C   UNL     1       5.877   4.105   4.882  1.00  0.00     0.007 C 
ATOM     17  C   UNL     1       5.072   2.937   7.002  1.00  0.00     0.012 C 
ATOM     18  C   UNL     1       3.068   4.852   5.711  1.00  0.00     0.000 C 
ATOM     19  C   UNL     1       5.597   5.515   5.449  1.00  0.00     0.005 C 
ATOM     20  C   UNL     1       4.100   5.962   5.327  1.00  0.00     0.003 C 
ATOM     21  C   UNL     1       1.674   5.290   5.241  1.00  0.00     0.031 C 
ATOM     22  C   UNL     1       3.768   7.310   6.077  1.00  0.00    -0.008 C 
ATOM     23  C   UNL     1       1.342   6.697   5.666  1.00  0.00    -0.027 C 
ATOM     24  C   UNL     1       2.273   7.643   5.933  1.00  0.00    -0.065 C 
ATOM     25  C   UNL     1       4.600   8.466   5.442  1.00  0.00     0.014 C 
ATOM     26  C   UNL     1       4.102   7.219   7.594  1.00  0.00     0.016 C 
ATOM     27  C   UNL     1       1.802   9.046   6.270  1.00  0.00     0.063 C 
ATOM     28  C   UNL     1       4.165   9.864   5.910  1.00  0.00     0.033 C 
ATOM     29  C   UNL     1       2.682  10.107   5.598  1.00  0.00     0.118 C 
BRANCH  29  30
ATOM     30  O   UNL     1       2.304  11.375   6.061  1.00  0.00    -0.393 OA
ATOM     31  H   UNL     1       2.649  12.036   5.404  1.00  0.00     0.210 HD
ENDBRANCH  29  30
ENDBRANCH   1  11
TORSDOF 6
ENDMDL
MODEL 4
REMARK VINA RESULT:    -6.296      1.555      3.258
REMARK INTER + INTRA:          -9.942
REMARK INTER:                  -9.301
REMARK INTRA:                  -0.640
REMARK UNBOUND:                -1.621
REMARK SMILES CC[C@H](C=C[C@H](C)[C@H]1CC[C@H]2[C@@H]3CC=C4C[C@@H](O)CC[C@]4(C)[C@H]3CC[C@]12C)C(C)C
REMARK SMILES IDX 6 1 7 2 5 3 4 4 3 5 2 6 1 7 28 8 29 9 30 10 8 11 9 12 26 13
REMARK SMILES IDX 10 14 11 15 25 16 27 17 12 18 24 19 23 20 13 21 21 22 14 23
REMARK SMILES IDX 15 24 20 25 22 26 16 27 19 28 17 29 18 30
REMARK H PARENT 18 31
REMARK Flexibility Score: inf
ROOT
ATOM      1  C   UNL     1       5.186  -1.703   4.419  1.00  0.00     0.012 C 
ATOM      2  C   UNL     1       4.371  -2.002   5.692  1.00  0.00     0.012 C 
ENDROOT
BRANCH   1   3
ATOM      3  C   UNL     1       4.329  -1.743   3.159  1.00  0.00    -0.028 C 
ATOM      4  C   UNL     1       4.430  -2.567   2.096  1.00  0.00    -0.027 C 
BRANCH   4   5
ATOM      5  C   UNL     1       5.418  -3.703   1.904  1.00  0.00     0.014 C 
BRANCH   5   6
ATOM      6  C   UNL     1       4.701  -5.057   2.174  1.00  0.00     0.004 C 
ATOM      7  C   UNL     1       3.928  -5.125   3.496  1.00  0.00     0.004 C 
ENDBRANCH   5   6
BRANCH   5   8
ATOM      8  C   UNL     1       6.103  -3.625   0.497  1.00  0.00    -0.011 C 
ATOM      9  C   UNL     1       5.134  -4.027  -0.627  1.00  0.00     0.008 C 
ATOM     10  C   UNL     1       6.634  -2.208   0.203  1.00  0.00     0.008 C 
ENDBRANCH   5   8
ENDBRANCH   4   5
ENDBRANCH   1   3
BRANCH   1  11
ATOM     11  C   UNL     1       6.179  -0.482   4.469  1.00  0.00     0.002 C 
ATOM     12  C   UNL     1       7.143  -0.270   3.271  1.00  0.00     0.005 C 
ATOM     13  C   UNL     1       5.525   0.915   4.654  1.00  0.00    -0.026 C 
ATOM     14  C   UNL     1       7.405   1.243   3.169  1.00  0.00     0.005 C 
ATOM     15  C   UNL     1       6.732   1.830   4.403  1.00  0.00    -0.001 C 
ATOM     16  C   UNL     1       5.026   1.202   6.086  1.00  0.00     0.007 C 
ATOM     17  C   UNL     1       4.370   1.131   3.621  1.00  0.00     0.012 C 
ATOM     18  C   UNL     1       6.355   3.325   4.393  1.00  0.00     0.000 C 
ATOM     19  C   UNL     1       4.604   2.681   6.244  1.00  0.00     0.005 C 
ATOM     20  C   UNL     1       5.684   3.705   5.754  1.00  0.00     0.003 C 
ATOM     21  C   UNL     1       7.598   4.203   4.193  1.00  0.00     0.031 C 
ATOM     22  C   UNL     1       5.188   5.202   5.728  1.00  0.00    -0.008 C 
ATOM     23  C   UNL     1       7.310   5.664   4.420  1.00  0.00    -0.027 C 
ATOM     24  C   UNL     1       6.301   6.122   5.198  1.00  0.00    -0.065 C 
ATOM     25  C   UNL     1       4.822   5.644   7.178  1.00  0.00     0.014 C 
ATOM     26  C   UNL     1       3.938   5.375   4.816  1.00  0.00     0.016 C 
ATOM     27  C   UNL     1       6.172   7.619   5.409  1.00  0.00     0.063 C 
ATOM     28  C   UNL     1       4.580   7.156   7.316  1.00  0.00     0.033 C 
ATOM     29  C   UNL     1       5.814   7.950   6.863  1.00  0.00     0.118 C 
BRANCH  29  30
ATOM     30  O   UNL     1       5.557   9.324   6.971  1.00  0.00    -0.393 OA
ATOM     31  H   UNL     1       5.558   9.542   7.940  1.00  0.00     0.210 HD
ENDBRANCH  29  30
ENDBRANCH   1  11
TORSDOF 6
ENDMDL
MODEL 5
REMARK VINA RESULT:    -6.236      7.991     11.584
REMARK INTER + INTRA:          -9.862
REMARK INTER:                  -7.966
REMARK INTRA:                  -1.896
REMARK UNBOUND:                -1.621
REMARK SMILES CC[C@H](C=C[C@H](C)[C@H]1CC[C@H]2[C@@H]3CC=C4C[C@@H](O)CC[C@]4(C)[C@H]3CC[C@]12C)C(C)C
REMARK SMILES IDX 6 1 7 2 5 3 4 4 3 5 2 6 1 7 28 8 29 9 30 10 8 11 9 12 26 13
REMARK SMILES IDX 10 14 11 15 25 16 27 17 12 18 24 19 23 20 13 21 21 22 14 23
REMARK SMILES IDX 15 24 20 25 22 26 16 27 19 28 17 29 18 30
REMARK H PARENT 18 31
REMARK Flexibility Score: inf
ROOT
ATOM      1  C   UNL     1       0.550   7.894   7.729  1.00  0.00     0.012 C 
ATOM      2  C   UNL     1       0.184   8.029   6.238  1.00  0.00     0.012 C 
ENDROOT
BRANCH   1   3
ATOM      3  C   UNL     1       1.758   6.991   7.949  1.00  0.00    -0.028 C 
ATOM      4  C   UNL     1       3.028   7.336   8.246  1.00  0.00    -0.027 C 
BRANCH   4   5
ATOM      5  C   UNL     1       3.570   8.736   8.475  1.00  0.00     0.014 C 
BRANCH   5   6
ATOM      6  C   UNL     1       4.393   8.758   9.795  1.00  0.00     0.004 C 
ATOM      7  C   UNL     1       3.854   9.705  10.874  1.00  0.00     0.004 C 
ENDBRANCH   5   6
BRANCH   5   8
ATOM      8  C   UNL     1       4.371   9.243   7.228  1.00  0.00    -0.011 C 
ATOM      9  C   UNL     1       5.134   8.097   6.541  1.00  0.00     0.008 C 
ATOM     10  C   UNL     1       3.444   9.905   6.189  1.00  0.00     0.008 C 
ENDBRANCH   5   8
ENDBRANCH   4   5
ENDBRANCH   1   3
BRANCH   1  11
ATOM     11  C   UNL     1       0.584   9.214   8.587  1.00  0.00     0.002 C 
ATOM     12  C   UNL     1       0.074  10.527   7.934  1.00  0.00     0.005 C 
ATOM     13  C   UNL     1      -0.182   9.163   9.937  1.00  0.00    -0.026 C 
ATOM     14  C   UNL     1      -0.496  11.398   9.068  1.00  0.00     0.005 C 
ATOM     15  C   UNL     1      -0.142  10.643  10.343  1.00  0.00    -0.001 C 
ATOM     16  C   UNL     1       0.533   8.367  11.048  1.00  0.00     0.007 C 
ATOM     17  C   UNL     1      -1.637   8.626   9.731  1.00  0.00     0.012 C 
ATOM     18  C   UNL     1      -0.959  10.933  11.619  1.00  0.00     0.000 C 
ATOM     19  C   UNL     1      -0.172   8.555  12.412  1.00  0.00     0.005 C 
ATOM     20  C   UNL     1      -0.421  10.054  12.795  1.00  0.00     0.003 C 
ATOM     21  C   UNL     1      -0.846  12.412  12.017  1.00  0.00     0.031 C 
ATOM     22  C   UNL     1      -1.311  10.249  14.083  1.00  0.00    -0.008 C 
ATOM     23  C   UNL     1      -1.423  12.682  13.382  1.00  0.00    -0.027 C 
ATOM     24  C   UNL     1      -1.531  11.747  14.354  1.00  0.00    -0.065 C 
ATOM     25  C   UNL     1      -0.578   9.622  15.309  1.00  0.00     0.014 C 
ATOM     26  C   UNL     1      -2.704   9.572  13.926  1.00  0.00     0.016 C 
ATOM     27  C   UNL     1      -2.055  12.173  15.714  1.00  0.00     0.063 C 
ATOM     28  C   UNL     1      -1.220   9.983  16.658  1.00  0.00     0.033 C 
ATOM     29  C   UNL     1      -1.269  11.506  16.849  1.00  0.00     0.118 C 
BRANCH  29  30
ATOM     30  O   UNL     1      -1.885  11.808  18.072  1.00  0.00    -0.393 OA
ATOM     31  H   UNL     1      -1.251  11.539  18.788  1.00  0.00     0.210 HD
ENDBRANCH  29  30
ENDBRANCH   1  11
TORSDOF 6
ENDMDL
MODEL 6
REMARK VINA RESULT:    -6.191      3.422      8.963
REMARK INTER + INTRA:          -9.803
REMARK INTER:                  -8.607
REMARK INTRA:                  -1.195
REMARK UNBOUND:                -1.621
REMARK SMILES CC[C@H](C=C[C@H](C)[C@H]1CC[C@H]2[C@@H]3CC=C4C[C@@H](O)CC[C@]4(C)[C@H]3CC[C@]12C)C(C)C
REMARK SMILES IDX 6 1 7 2 5 3 4 4 3 5 2 6 1 7 28 8 29 9 30 10 8 11 9 12 26 13
REMARK SMILES IDX 10 14 11 15 25 16 27 17 12 18 24 19 23 20 13 21 21 22 14 23
REMARK SMILES IDX 15 24 20 25 22 26 16 27 19 28 17 29 18 30
REMARK H PARENT 18 31
REMARK Flexibility Score: inf
ROOT
ATOM      1  C   UNL     1       2.219   9.919   5.974  1.00  0.00     0.012 C 
ATOM      2  C   UNL     1       2.106  11.437   5.735  1.00  0.00     0.012 C 
ENDROOT
BRANCH   1   3
ATOM      3  C   UNL     1       0.900   9.194   5.733  1.00  0.00    -0.028 C 
ATOM      4  C   UNL     1       0.133   9.184   4.624  1.00  0.00    -0.027 C 
BRANCH   4   5
ATOM      5  C   UNL     1       0.418   9.877   3.303  1.00  0.00     0.014 C 
BRANCH   5   6
ATOM      6  C   UNL     1       0.999   8.843   2.296  1.00  0.00     0.004 C 
ATOM      7  C   UNL     1       0.629   7.384   2.585  1.00  0.00     0.004 C 
ENDBRANCH   5   6
BRANCH   5   8
ATOM      8  C   UNL     1      -0.852  10.625   2.772  1.00  0.00    -0.011 C 
ATOM      9  C   UNL     1      -2.088   9.709   2.766  1.00  0.00     0.008 C 
ATOM     10  C   UNL     1      -1.170  11.873   3.619  1.00  0.00     0.008 C 
ENDBRANCH   5   8
ENDBRANCH   4   5
ENDBRANCH   1   3
BRANCH   1  11
ATOM     11  C   UNL     1       3.467   9.182   5.358  1.00  0.00     0.002 C 
ATOM     12  C   UNL     1       4.859   9.857   5.491  1.00  0.00     0.005 C 
ATOM     13  C   UNL     1       3.719   7.737   5.869  1.00  0.00    -0.026 C 
ATOM     14  C   UNL     1       5.901   8.726   5.543  1.00  0.00     0.005 C 
ATOM     15  C   UNL     1       5.103   7.459   5.266  1.00  0.00    -0.001 C 
ATOM     16  C   UNL     1       2.752   6.678   5.297  1.00  0.00     0.007 C 
ATOM     17  C   UNL     1       3.714   7.690   7.433  1.00  0.00     0.012 C 
ATOM     18  C   UNL     1       5.691   6.107   5.719  1.00  0.00     0.000 C 
ATOM     19  C   UNL     1       3.208   5.248   5.667  1.00  0.00     0.005 C 
ATOM     20  C   UNL     1       4.709   4.953   5.329  1.00  0.00     0.003 C 
ATOM     21  C   UNL     1       7.048   5.847   5.050  1.00  0.00     0.031 C 
ATOM     22  C   UNL     1       5.233   3.571   5.880  1.00  0.00    -0.008 C 
ATOM     23  C   UNL     1       7.536   4.439   5.274  1.00  0.00    -0.027 C 
ATOM     24  C   UNL     1       6.721   3.391   5.534  1.00  0.00    -0.065 C 
ATOM     25  C   UNL     1       4.422   2.416   5.217  1.00  0.00     0.014 C 
ATOM     26  C   UNL     1       5.078   3.474   7.426  1.00  0.00     0.016 C 
ATOM     27  C   UNL     1       7.336   2.009   5.657  1.00  0.00     0.063 C 
ATOM     28  C   UNL     1       5.018   1.022   5.472  1.00  0.00     0.033 C 
ATOM     29  C   UNL     1       6.467   0.948   4.972  1.00  0.00     0.118 C 
BRANCH  29  30
ATOM     30  O   UNL     1       6.995  -0.322   5.243  1.00  0.00    -0.393 OA
ATOM     31  H   UNL     1       7.698  -0.201   5.936  1.00  0.00     0.210 HD
ENDBRANCH  29  30
ENDBRANCH   1  11
TORSDOF 6
ENDMDL
MODEL 7
REMARK VINA RESULT:    -6.187      4.273      6.679
REMARK INTER + INTRA:          -9.797
REMARK INTER:                  -8.154
REMARK INTRA:                  -1.643
REMARK UNBOUND:                -1.621
REMARK SMILES CC[C@H](C=C[C@H](C)[C@H]1CC[C@H]2[C@@H]3CC=C4C[C@@H](O)CC[C@]4(C)[C@H]3CC[C@]12C)C(C)C
REMARK SMILES IDX 6 1 7 2 5 3 4 4 3 5 2 6 1 7 28 8 29 9 30 10 8 11 9 12 26 13
REMARK SMILES IDX 10 14 11 15 25 16 27 17 12 18 24 19 23 20 13 21 21 22 14 23
REMARK SMILES IDX 15 24 20 25 22 26 16 27 19 28 17 29 18 30
REMARK H PARENT 18 31
REMARK Flexibility Score: inf
ROOT
ATOM      1  C   UNL     1       7.443   1.376   2.882  1.00  0.00     0.012 C 
ATOM      2  C   UNL     1       8.061   2.610   2.197  1.00  0.00     0.012 C 
ENDROOT
BRANCH   1   3
ATOM      3  C   UNL     1       7.780   0.080   2.154  1.00  0.00    -0.028 C 
ATOM      4  C   UNL     1       6.951  -0.913   1.769  1.00  0.00    -0.027 C 
BRANCH   4   5
ATOM      5  C   UNL     1       5.443  -0.967   1.938  1.00  0.00     0.014 C 
BRANCH   5   6
ATOM      6  C   UNL     1       4.796   0.211   1.155  1.00  0.00     0.004 C 
ATOM      7  C   UNL     1       3.338   0.507   1.524  1.00  0.00     0.004 C 
ENDBRANCH   5   6
BRANCH   5   8
ATOM      8  C   UNL     1       4.880  -2.372   1.535  1.00  0.00    -0.011 C 
ATOM      9  C   UNL     1       5.868  -3.143   0.642  1.00  0.00     0.008 C 
ATOM     10  C   UNL     1       4.565  -3.234   2.773  1.00  0.00     0.008 C 
ENDBRANCH   5   8
ENDBRANCH   4   5
ENDBRANCH   1   3
BRANCH   1  11
ATOM     11  C   UNL     1       7.580   1.275   4.448  1.00  0.00     0.002 C 
ATOM     12  C   UNL     1       8.120   2.509   5.219  1.00  0.00     0.005 C 
ATOM     13  C   UNL     1       6.281   0.910   5.217  1.00  0.00    -0.026 C 
ATOM     14  C   UNL     1       7.476   2.479   6.617  1.00  0.00     0.005 C 
ATOM     15  C   UNL     1       6.732   1.151   6.666  1.00  0.00    -0.001 C 
ATOM     16  C   UNL     1       5.869  -0.574   5.110  1.00  0.00     0.007 C 
ATOM     17  C   UNL     1       5.098   1.837   4.784  1.00  0.00     0.012 C 
ATOM     18  C   UNL     1       5.583   0.989   7.682  1.00  0.00     0.000 C 
ATOM     19  C   UNL     1       4.712  -0.903   6.080  1.00  0.00     0.005 C 
ATOM     20  C   UNL     1       4.971  -0.444   7.556  1.00  0.00     0.003 C 
ATOM     21  C   UNL     1       6.089   1.186   9.117  1.00  0.00     0.031 C 
ATOM     22  C   UNL     1       3.721  -0.598   8.507  1.00  0.00    -0.008 C 
ATOM     23  C   UNL     1       5.059   0.798  10.146  1.00  0.00    -0.027 C 
ATOM     24  C   UNL     1       4.061  -0.087   9.917  1.00  0.00    -0.065 C 
ATOM     25  C   UNL     1       3.334  -2.106   8.602  1.00  0.00     0.014 C 
ATOM     26  C   UNL     1       2.497   0.206   7.980  1.00  0.00     0.016 C 
ATOM     27  C   UNL     1       3.140  -0.452  11.067  1.00  0.00     0.063 C 
ATOM     28  C   UNL     1       2.304  -2.407   9.702  1.00  0.00     0.033 C 
ATOM     29  C   UNL     1       2.822  -1.952  11.074  1.00  0.00     0.118 C 
BRANCH  29  30
ATOM     30  O   UNL     1       1.853  -2.211  12.054  1.00  0.00    -0.393 OA
ATOM     31  H   UNL     1       2.274  -2.812  12.723  1.00  0.00     0.210 HD
ENDBRANCH  29  30
ENDBRANCH   1  11
TORSDOF 6
ENDMDL
MODEL 8
REMARK VINA RESULT:    -5.971      4.963      8.168
REMARK INTER + INTRA:          -9.511
REMARK INTER:                  -7.876
REMARK INTRA:                  -1.636
REMARK UNBOUND:                -1.621
REMARK SMILES CC[C@H](C=C[C@H](C)[C@H]1CC[C@H]2[C@@H]3CC=C4C[C@@H](O)CC[C@]4(C)[C@H]3CC[C@]12C)C(C)C
REMARK SMILES IDX 6 1 7 2 5 3 4 4 3 5 2 6 1 7 28 8 29 9 30 10 8 11 9 12 26 13
REMARK SMILES IDX 10 14 11 15 25 16 27 17 12 18 24 19 23 20 13 21 21 22 14 23
REMARK SMILES IDX 15 24 20 25 22 26 16 27 19 28 17 29 18 30
REMARK H PARENT 18 31
REMARK Flexibility Score: inf
ROOT
ATOM      1  C   UNL     1       2.527  -1.003   9.224  1.00  0.00     0.012 C 
ATOM      2  C   UNL     1       1.001  -0.933   9.432  1.00  0.00     0.012 C 
ENDROOT
BRANCH   1   3
ATOM      3  C   UNL     1       3.296  -0.891  10.535  1.00  0.00    -0.028 C 
ATOM      4  C   UNL     1       4.629  -0.814  10.728  1.00  0.00    -0.027 C 
BRANCH   4   5
ATOM      5  C   UNL     1       5.711  -0.783   9.663  1.00  0.00     0.014 C 
BRANCH   5   6
ATOM      6  C   UNL     1       6.483   0.565   9.755  1.00  0.00     0.004 C 
ATOM      7  C   UNL     1       5.805   1.745   9.049  1.00  0.00     0.004 C 
ENDBRANCH   5   6
BRANCH   5   8
ATOM      8  C   UNL     1       6.636  -2.044   9.761  1.00  0.00    -0.011 C 
ATOM      9  C   UNL     1       6.485  -2.752  11.118  1.00  0.00     0.008 C 
ATOM     10  C   UNL     1       6.331  -3.059   8.642  1.00  0.00     0.008 C 
ENDBRANCH   5   8
ENDBRANCH   4   5
ENDBRANCH   1   3
BRANCH   1  11
ATOM     11  C   UNL     1       3.074  -2.126   8.265  1.00  0.00     0.002 C 
ATOM     12  C   UNL     1       2.271  -3.449   8.150  1.00  0.00     0.005 C 
ATOM     13  C   UNL     1       3.287  -1.705   6.784  1.00  0.00    -0.026 C 
ATOM     14  C   UNL     1       2.507  -3.993   6.730  1.00  0.00     0.005 C 
ATOM     15  C   UNL     1       3.564  -3.070   6.138  1.00  0.00    -0.001 C 
ATOM     16  C   UNL     1       4.532  -0.826   6.542  1.00  0.00     0.007 C 
ATOM     17  C   UNL     1       2.008  -1.008   6.214  1.00  0.00     0.012 C 
ATOM     18  C   UNL     1       3.693  -2.988   4.603  1.00  0.00     0.000 C 
ATOM     19  C   UNL     1       4.802  -0.644   5.031  1.00  0.00     0.005 C 
ATOM     20  C   UNL     1       4.836  -1.989   4.227  1.00  0.00     0.003 C 
ATOM     21  C   UNL     1       4.023  -4.364   4.007  1.00  0.00     0.031 C 
ATOM     22  C   UNL     1       4.914  -1.802   2.663  1.00  0.00    -0.008 C 
ATOM     23  C   UNL     1       4.395  -4.281   2.549  1.00  0.00    -0.027 C 
ATOM     24  C   UNL     1       4.902  -3.171   1.963  1.00  0.00    -0.065 C 
ATOM     25  C   UNL     1       6.241  -1.067   2.302  1.00  0.00     0.014 C 
ATOM     26  C   UNL     1       3.713  -0.970   2.124  1.00  0.00     0.016 C 
ATOM     27  C   UNL     1       5.313  -3.248   0.503  1.00  0.00     0.063 C 
ATOM     28  C   UNL     1       6.552  -1.066   0.796  1.00  0.00     0.033 C 
ATOM     29  C   UNL     1       6.628  -2.500   0.253  1.00  0.00     0.118 C 
BRANCH  29  30
ATOM     30  O   UNL     1       6.883  -2.470  -1.125  1.00  0.00    -0.393 OA
ATOM     31  H   UNL     1       6.050  -2.765  -1.579  1.00  0.00     0.210 HD
ENDBRANCH  29  30
ENDBRANCH   1  11
TORSDOF 6
ENDMDL
