MODEL 1
REMARK VINA RESULT:    -4.667      0.000      0.000
REMARK INTER + INTRA:         -11.271
REMARK INTER:                  -8.760
REMARK INTRA:                  -2.510
REMARK UNBOUND:                -2.510
REMARK SMILES CCCCCCCCC=CCCCCCCCC(=O)[O-]
REMARK SMILES IDX 10 1 9 2 11 3 12 4 13 5 14 6 15 7 16 8 17 9 18 10 19 11
REMARK SMILES IDX 20 12 8 13 7 14 6 15 5 16 4 17 3 18 2 19 1 20
REMARK H PARENT
REMARK Flexibility Score: inf
ROOT
ATOM      1  C   UNL     1     -35.142 -32.219   6.832  1.00  0.00    -0.031 C 
ATOM      2  C   UNL     1     -34.781 -30.928   6.866  1.00  0.00    -0.031 C 
ENDROOT
BRANCH   1   3
ATOM      3  C   UNL     1     -34.623 -33.151   5.772  1.00  0.00     0.027 C 
BRANCH   3   4
ATOM      4  C   UNL     1     -34.464 -32.429   4.429  1.00  0.00     0.004 C 
BRANCH   4   5
ATOM      5  C   UNL     1     -35.764 -32.493   3.614  1.00  0.00     0.000 C 
BRANCH   5   6
ATOM      6  C   UNL     1     -36.401 -31.109   3.395  1.00  0.00     0.000 C 
BRANCH   6   7
ATOM      7  C   UNL     1     -37.589 -30.823   4.337  1.00  0.00     0.000 C 
BRANCH   7   8
ATOM      8  C   UNL     1     -38.239 -32.116   4.860  1.00  0.00     0.006 C 
BRANCH   8   9
ATOM      9  C   UNL     1     -39.741 -32.176   4.553  1.00  0.00     0.053 C 
BRANCH   9  10
ATOM     10  C   UNL     1     -40.564 -32.129   5.806  1.00  0.00     0.041 C 
ATOM     11  O   UNL     1     -41.806 -32.331   5.756  1.00  0.00    -0.550 OA
ATOM     12  O   UNL     1     -39.953 -31.900   7.033  1.00  0.00    -0.550 OA
ENDBRANCH   9  10
ENDBRANCH   8   9
ENDBRANCH   7   8
ENDBRANCH   6   7
ENDBRANCH   5   6
ENDBRANCH   4   5
ENDBRANCH   3   4
ENDBRANCH   1   3
BRANCH   2  13
ATOM     13  C   UNL     1     -35.344 -29.972   7.883  1.00  0.00     0.027 C 
BRANCH  13  14
ATOM     14  C   UNL     1     -36.848 -30.199   8.099  1.00  0.00     0.004 C 
BRANCH  14  15
ATOM     15  C   UNL     1     -37.744 -29.058   7.575  1.00  0.00     0.000 C 
BRANCH  15  16
ATOM     16  C   UNL     1     -37.036 -28.048   6.653  1.00  0.00     0.000 C 
BRANCH  16  17
ATOM     17  C   UNL     1     -37.240 -26.591   7.093  1.00  0.00    -0.000 C 
BRANCH  17  18
ATOM     18  C   UNL     1     -36.408 -26.274   8.344  1.00  0.00    -0.000 C 
BRANCH  18  19
ATOM     19  C   UNL     1     -37.253 -26.266   9.628  1.00  0.00    -0.003 C 
ATOM     20  C   UNL     1     -36.697 -27.193  10.708  1.00  0.00     0.004 C 
ENDBRANCH  18  19
ENDBRANCH  17  18
ENDBRANCH  16  17
ENDBRANCH  15  16
ENDBRANCH  14  15
ENDBRANCH  13  14
ENDBRANCH   2  13
TORSDOF 15
ENDMDL
MODEL 2
REMARK VINA RESULT:    -4.648      2.308      5.731
REMARK INTER + INTRA:         -11.235
REMARK INTER:                  -8.440
REMARK INTRA:                  -2.794
REMARK UNBOUND:                -2.510
REMARK SMILES CCCCCCCCC=CCCCCCCCC(=O)[O-]
REMARK SMILES IDX 10 1 9 2 11 3 12 4 13 5 14 6 15 7 16 8 17 9 18 10 19 11
REMARK SMILES IDX 20 12 8 13 7 14 6 15 5 16 4 17 3 18 2 19 1 20
REMARK H PARENT
REMARK Flexibility Score: inf
ROOT
ATOM      1  C   UNL     1     -37.661 -31.610   8.137  1.00  0.00    -0.031 C 
ATOM      2  C   UNL     1     -38.937 -31.199   8.168  1.00  0.00    -0.031 C 
ENDROOT
BRANCH   1   3
ATOM      3  C   UNL     1     -36.696 -31.257   9.234  1.00  0.00     0.027 C 
BRANCH   3   4
ATOM      4  C   UNL     1     -35.645 -30.254   8.746  1.00  0.00     0.004 C 
BRANCH   4   5
ATOM      5  C   UNL     1     -35.337 -30.463   7.256  1.00  0.00     0.000 C 
BRANCH   5   6
ATOM      6  C   UNL     1     -35.432 -29.164   6.437  1.00  0.00     0.000 C 
BRANCH   6   7
ATOM      7  C   UNL     1     -36.868 -28.820   5.992  1.00  0.00     0.000 C 
BRANCH   7   8
ATOM      8  C   UNL     1     -37.256 -27.375   6.349  1.00  0.00     0.006 C 
BRANCH   8   9
ATOM      9  C   UNL     1     -36.397 -26.807   7.487  1.00  0.00     0.053 C 
BRANCH   9  10
ATOM     10  C   UNL     1     -37.141 -26.796   8.789  1.00  0.00     0.041 C 
ATOM     11  O   UNL     1     -38.094 -27.597   8.980  1.00  0.00    -0.550 OA
ATOM     12  O   UNL     1     -36.758 -25.928   9.805  1.00  0.00    -0.550 OA
ENDBRANCH   9  10
ENDBRANCH   8   9
ENDBRANCH   7   8
ENDBRANCH   6   7
ENDBRANCH   5   6
ENDBRANCH   4   5
ENDBRANCH   3   4
ENDBRANCH   1   3
BRANCH   2  13
ATOM     13  C   UNL     1     -39.894 -31.493   7.044  1.00  0.00     0.027 C 
BRANCH  13  14
ATOM     14  C   UNL     1     -39.617 -32.865   6.410  1.00  0.00     0.004 C 
BRANCH  14  15
ATOM     15  C   UNL     1     -39.444 -32.833   4.878  1.00  0.00     0.000 C 
BRANCH  15  16
ATOM     16  C   UNL     1     -38.480 -31.751   4.357  1.00  0.00     0.000 C 
BRANCH  16  17
ATOM     17  C   UNL     1     -37.011 -32.199   4.374  1.00  0.00    -0.000 C 
BRANCH  17  18
ATOM     18  C   UNL     1     -36.191 -31.430   3.327  1.00  0.00    -0.000 C 
BRANCH  18  19
ATOM     19  C   UNL     1     -34.679 -31.499   3.595  1.00  0.00    -0.003 C 
ATOM     20  C   UNL     1     -34.289 -32.677   4.487  1.00  0.00     0.004 C 
ENDBRANCH  18  19
ENDBRANCH  17  18
ENDBRANCH  16  17
ENDBRANCH  15  16
ENDBRANCH  14  15
ENDBRANCH  13  14
ENDBRANCH   2  13
TORSDOF 15
ENDMDL
MODEL 3
REMARK VINA RESULT:    -4.631      2.848      5.989
REMARK INTER + INTRA:         -11.203
REMARK INTER:                  -8.450
REMARK INTRA:                  -2.753
REMARK UNBOUND:                -2.510
REMARK SMILES CCCCCCCCC=CCCCCCCCC(=O)[O-]
REMARK SMILES IDX 10 1 9 2 11 3 12 4 13 5 14 6 15 7 16 8 17 9 18 10 19 11
REMARK SMILES IDX 20 12 8 13 7 14 6 15 5 16 4 17 3 18 2 19 1 20
REMARK H PARENT
REMARK Flexibility Score: inf
ROOT
ATOM      1  C   UNL     1     -37.023 -31.346   7.963  1.00  0.00    -0.031 C 
ATOM      2  C   UNL     1     -38.133 -30.597   8.035  1.00  0.00    -0.031 C 
ENDROOT
BRANCH   1   3
ATOM      3  C   UNL     1     -35.659 -30.750   8.179  1.00  0.00     0.027 C 
BRANCH   3   4
ATOM      4  C   UNL     1     -34.831 -30.780   6.890  1.00  0.00     0.004 C 
BRANCH   4   5
ATOM      5  C   UNL     1     -34.731 -29.379   6.269  1.00  0.00     0.000 C 
BRANCH   5   6
ATOM      6  C   UNL     1     -35.279 -28.276   7.190  1.00  0.00     0.000 C 
BRANCH   6   7
ATOM      7  C   UNL     1     -36.516 -27.554   6.616  1.00  0.00     0.000 C 
BRANCH   7   8
ATOM      8  C   UNL     1     -37.102 -26.531   7.606  1.00  0.00     0.006 C 
BRANCH   8   9
ATOM      9  C   UNL     1     -37.565 -27.188   8.914  1.00  0.00     0.053 C 
BRANCH   9  10
ATOM     10  C   UNL     1     -36.885 -26.585  10.106  1.00  0.00     0.041 C 
ATOM     11  O   UNL     1     -37.216 -26.936  11.269  1.00  0.00    -0.550 OA
ATOM     12  O   UNL     1     -35.859 -25.664   9.933  1.00  0.00    -0.550 OA
ENDBRANCH   9  10
ENDBRANCH   8   9
ENDBRANCH   7   8
ENDBRANCH   6   7
ENDBRANCH   5   6
ENDBRANCH   4   5
ENDBRANCH   3   4
ENDBRANCH   1   3
BRANCH   2  13
ATOM     13  C   UNL     1     -39.497 -31.171   7.757  1.00  0.00     0.027 C 
BRANCH  13  14
ATOM     14  C   UNL     1     -39.497 -32.704   7.857  1.00  0.00     0.004 C 
BRANCH  14  15
ATOM     15  C   UNL     1     -39.982 -33.423   6.582  1.00  0.00     0.000 C 
BRANCH  15  16
ATOM     16  C   UNL     1     -40.673 -32.516   5.548  1.00  0.00     0.000 C 
BRANCH  16  17
ATOM     17  C   UNL     1     -39.808 -32.258   4.305  1.00  0.00    -0.000 C 
BRANCH  17  18
ATOM     18  C   UNL     1     -38.525 -33.101   4.345  1.00  0.00    -0.000 C 
BRANCH  18  19
ATOM     19  C   UNL     1     -37.253 -32.239   4.359  1.00  0.00    -0.003 C 
ATOM     20  C   UNL     1     -37.551 -30.741   4.299  1.00  0.00     0.004 C 
ENDBRANCH  18  19
ENDBRANCH  17  18
ENDBRANCH  16  17
ENDBRANCH  15  16
ENDBRANCH  14  15
ENDBRANCH  13  14
ENDBRANCH   2  13
TORSDOF 15
ENDMDL
MODEL 4
REMARK VINA RESULT:    -4.624      2.342      3.820
REMARK INTER + INTRA:         -11.190
REMARK INTER:                  -8.461
REMARK INTRA:                  -2.729
REMARK UNBOUND:                -2.510
REMARK SMILES CCCCCCCCC=CCCCCCCCC(=O)[O-]
REMARK SMILES IDX 10 1 9 2 11 3 12 4 13 5 14 6 15 7 16 8 17 9 18 10 19 11
REMARK SMILES IDX 20 12 8 13 7 14 6 15 5 16 4 17 3 18 2 19 1 20
REMARK H PARENT
REMARK Flexibility Score: inf
ROOT
ATOM      1  C   UNL     1     -37.790 -30.672   8.396  1.00  0.00    -0.031 C 
ATOM      2  C   UNL     1     -36.646 -30.909   7.738  1.00  0.00    -0.031 C 
ENDROOT
BRANCH   1   3
ATOM      3  C   UNL     1     -39.125 -30.789   7.715  1.00  0.00     0.027 C 
BRANCH   3   4
ATOM      4  C   UNL     1     -39.371 -32.218   7.218  1.00  0.00     0.004 C 
BRANCH   4   5
ATOM      5  C   UNL     1     -39.799 -32.221   5.744  1.00  0.00     0.000 C 
BRANCH   5   6
ATOM      6  C   UNL     1     -38.618 -32.422   4.778  1.00  0.00     0.000 C 
BRANCH   6   7
ATOM      7  C   UNL     1     -37.999 -31.099   4.280  1.00  0.00     0.000 C 
BRANCH   7   8
ATOM      8  C   UNL     1     -36.521 -31.262   3.887  1.00  0.00     0.006 C 
BRANCH   8   9
ATOM      9  C   UNL     1     -36.017 -32.696   4.104  1.00  0.00     0.053 C 
BRANCH   9  10
ATOM     10  C   UNL     1     -34.628 -32.714   4.670  1.00  0.00     0.041 C 
ATOM     11  O   UNL     1     -33.662 -32.274   3.992  1.00  0.00    -0.550 OA
ATOM     12  O   UNL     1     -34.406 -33.182   5.960  1.00  0.00    -0.550 OA
ENDBRANCH   9  10
ENDBRANCH   8   9
ENDBRANCH   7   8
ENDBRANCH   6   7
ENDBRANCH   5   6
ENDBRANCH   4   5
ENDBRANCH   3   4
ENDBRANCH   1   3
BRANCH   2  13
ATOM     13  C   UNL     1     -35.302 -30.732   8.393  1.00  0.00     0.027 C 
BRANCH  13  14
ATOM     14  C   UNL     1     -34.322 -29.980   7.480  1.00  0.00     0.004 C 
BRANCH  14  15
ATOM     15  C   UNL     1     -34.993 -29.219   6.319  1.00  0.00     0.000 C 
BRANCH  15  16
ATOM     16  C   UNL     1     -35.330 -27.747   6.616  1.00  0.00     0.000 C 
BRANCH  16  17
ATOM     17  C   UNL     1     -36.813 -27.415   6.392  1.00  0.00    -0.000 C 
BRANCH  17  18
ATOM     18  C   UNL     1     -37.336 -26.472   7.485  1.00  0.00    -0.000 C 
BRANCH  18  19
ATOM     19  C   UNL     1     -37.237 -27.085   8.891  1.00  0.00    -0.003 C 
ATOM     20  C   UNL     1     -36.311 -26.298   9.817  1.00  0.00     0.004 C 
ENDBRANCH  18  19
ENDBRANCH  17  18
ENDBRANCH  16  17
ENDBRANCH  15  16
ENDBRANCH  14  15
ENDBRANCH  13  14
ENDBRANCH   2  13
TORSDOF 15
ENDMDL
MODEL 5
REMARK VINA RESULT:    -4.605     14.354     15.920
REMARK INTER + INTRA:         -11.154
REMARK INTER:                 -10.204
REMARK INTRA:                  -0.950
REMARK UNBOUND:                -2.510
REMARK SMILES CCCCCCCCC=CCCCCCCCC(=O)[O-]
REMARK SMILES IDX 10 1 9 2 11 3 12 4 13 5 14 6 15 7 16 8 17 9 18 10 19 11
REMARK SMILES IDX 20 12 8 13 7 14 6 15 5 16 4 17 3 18 2 19 1 20
REMARK H PARENT
REMARK Flexibility Score: inf
ROOT
ATOM      1  C   UNL     1     -43.911 -16.450   7.732  1.00  0.00    -0.031 C 
ATOM      2  C   UNL     1     -42.866 -16.279   8.554  1.00  0.00    -0.031 C 
ENDROOT
BRANCH   1   3
ATOM      3  C   UNL     1     -44.210 -15.475   6.628  1.00  0.00     0.027 C 
BRANCH   3   4
ATOM      4  C   UNL     1     -45.691 -15.079   6.623  1.00  0.00     0.004 C 
BRANCH   4   5
ATOM      5  C   UNL     1     -46.137 -14.641   5.220  1.00  0.00     0.000 C 
BRANCH   5   6
ATOM      6  C   UNL     1     -45.137 -15.042   4.122  1.00  0.00     0.000 C 
BRANCH   6   7
ATOM      7  C   UNL     1     -45.812 -15.562   2.836  1.00  0.00     0.000 C 
BRANCH   7   8
ATOM      8  C   UNL     1     -45.044 -16.741   2.214  1.00  0.00     0.006 C 
BRANCH   8   9
ATOM      9  C   UNL     1     -45.969 -17.700   1.452  1.00  0.00     0.053 C 
BRANCH   9  10
ATOM     10  C   UNL     1     -45.658 -19.133   1.764  1.00  0.00     0.041 C 
ATOM     11  O   UNL     1     -46.586 -19.981   1.837  1.00  0.00    -0.550 OA
ATOM     12  O   UNL     1     -44.341 -19.540   1.938  1.00  0.00    -0.550 OA
ENDBRANCH   9  10
ENDBRANCH   8   9
ENDBRANCH   7   8
ENDBRANCH   6   7
ENDBRANCH   5   6
ENDBRANCH   4   5
ENDBRANCH   3   4
ENDBRANCH   1   3
BRANCH   2  13
ATOM     13  C   UNL     1     -42.597 -17.214   9.702  1.00  0.00     0.027 C 
BRANCH  13  14
ATOM     14  C   UNL     1     -43.751 -18.207   9.906  1.00  0.00     0.004 C 
BRANCH  14  15
ATOM     15  C   UNL     1     -44.661 -17.885  11.109  1.00  0.00     0.000 C 
BRANCH  15  16
ATOM     16  C   UNL     1     -43.955 -17.891  12.477  1.00  0.00     0.000 C 
BRANCH  16  17
ATOM     17  C   UNL     1     -44.921 -18.120  13.648  1.00  0.00    -0.000 C 
BRANCH  17  18
ATOM     18  C   UNL     1     -46.261 -18.683  13.152  1.00  0.00    -0.000 C 
BRANCH  18  19
ATOM     19  C   UNL     1     -46.666 -19.973  13.882  1.00  0.00    -0.003 C 
ATOM     20  C   UNL     1     -45.510 -20.963  14.021  1.00  0.00     0.004 C 
ENDBRANCH  18  19
ENDBRANCH  17  18
ENDBRANCH  16  17
ENDBRANCH  15  16
ENDBRANCH  14  15
ENDBRANCH  13  14
ENDBRANCH   2  13
TORSDOF 15
ENDMDL
MODEL 6
REMARK VINA RESULT:    -4.603      3.379      5.288
REMARK INTER + INTRA:         -11.150
REMARK INTER:                  -8.638
REMARK INTRA:                  -2.512
REMARK UNBOUND:                -2.510
REMARK SMILES CCCCCCCCC=CCCCCCCCC(=O)[O-]
REMARK SMILES IDX 10 1 9 2 11 3 12 4 13 5 14 6 15 7 16 8 17 9 18 10 19 11
REMARK SMILES IDX 20 12 8 13 7 14 6 15 5 16 4 17 3 18 2 19 1 20
REMARK H PARENT
REMARK Flexibility Score: inf
ROOT
ATOM      1  C   UNL     1     -38.031 -31.155   4.469  1.00  0.00    -0.031 C 
ATOM      2  C   UNL     1     -38.387 -32.254   5.150  1.00  0.00    -0.031 C 
ENDROOT
BRANCH   1   3
ATOM      3  C   UNL     1     -36.760 -31.108   3.667  1.00  0.00     0.027 C 
BRANCH   3   4
ATOM      4  C   UNL     1     -35.904 -32.356   3.910  1.00  0.00     0.004 C 
BRANCH   4   5
ATOM      5  C   UNL     1     -34.594 -31.993   4.625  1.00  0.00     0.000 C 
BRANCH   5   6
ATOM      6  C   UNL     1     -34.733 -31.981   6.157  1.00  0.00     0.000 C 
BRANCH   6   7
ATOM      7  C   UNL     1     -34.480 -30.595   6.787  1.00  0.00     0.000 C 
BRANCH   7   8
ATOM      8  C   UNL     1     -33.928 -29.586   5.765  1.00  0.00     0.006 C 
BRANCH   8   9
ATOM      9  C   UNL     1     -33.274 -28.374   6.442  1.00  0.00     0.053 C 
BRANCH   9  10
ATOM     10  C   UNL     1     -31.926 -28.074   5.856  1.00  0.00     0.041 C 
ATOM     11  O   UNL     1     -31.168 -27.235   6.409  1.00  0.00    -0.550 OA
ATOM     12  O   UNL     1     -31.493 -28.749   4.720  1.00  0.00    -0.550 OA
ENDBRANCH   9  10
ENDBRANCH   8   9
ENDBRANCH   7   8
ENDBRANCH   6   7
ENDBRANCH   5   6
ENDBRANCH   4   5
ENDBRANCH   3   4
ENDBRANCH   1   3
BRANCH   2  13
ATOM     13  C   UNL     1     -39.623 -32.290   6.008  1.00  0.00     0.027 C 
BRANCH  13  14
ATOM     14  C   UNL     1     -39.455 -31.445   7.280  1.00  0.00     0.004 C 
BRANCH  14  15
ATOM     15  C   UNL     1     -38.083 -31.599   7.967  1.00  0.00     0.000 C 
BRANCH  15  16
ATOM     16  C   UNL     1     -37.402 -30.275   8.359  1.00  0.00     0.000 C 
BRANCH  16  17
ATOM     17  C   UNL     1     -38.135 -29.040   7.815  1.00  0.00    -0.000 C 
BRANCH  17  18
ATOM     18  C   UNL     1     -37.303 -28.341   6.729  1.00  0.00    -0.000 C 
BRANCH  18  19
ATOM     19  C   UNL     1     -36.846 -26.936   7.148  1.00  0.00    -0.003 C 
ATOM     20  C   UNL     1     -37.349 -26.538   8.535  1.00  0.00     0.004 C 
ENDBRANCH  18  19
ENDBRANCH  17  18
ENDBRANCH  16  17
ENDBRANCH  15  16
ENDBRANCH  14  15
ENDBRANCH  13  14
ENDBRANCH   2  13
TORSDOF 15
ENDMDL
MODEL 7
REMARK VINA RESULT:    -4.588      1.827      2.395
REMARK INTER + INTRA:         -11.122
REMARK INTER:                  -8.183
REMARK INTRA:                  -2.939
REMARK UNBOUND:                -2.510
REMARK SMILES CCCCCCCCC=CCCCCCCCC(=O)[O-]
REMARK SMILES IDX 10 1 9 2 11 3 12 4 13 5 14 6 15 7 16 8 17 9 18 10 19 11
REMARK SMILES IDX 20 12 8 13 7 14 6 15 5 16 4 17 3 18 2 19 1 20
REMARK H PARENT
REMARK Flexibility Score: inf
ROOT
ATOM      1  C   UNL     1     -35.165 -32.223   6.646  1.00  0.00    -0.031 C 
ATOM      2  C   UNL     1     -36.004 -32.603   7.621  1.00  0.00    -0.031 C 
ENDROOT
BRANCH   1   3
ATOM      3  C   UNL     1     -34.624 -33.208   5.647  1.00  0.00     0.027 C 
BRANCH   3   4
ATOM      4  C   UNL     1     -34.264 -32.518   4.327  1.00  0.00     0.004 C 
BRANCH   4   5
ATOM      5  C   UNL     1     -35.013 -31.185   4.182  1.00  0.00     0.000 C 
BRANCH   5   6
ATOM      6  C   UNL     1     -36.232 -31.284   3.248  1.00  0.00     0.000 C 
BRANCH   6   7
ATOM      7  C   UNL     1     -37.583 -31.233   3.993  1.00  0.00     0.000 C 
BRANCH   7   8
ATOM      8  C   UNL     1     -38.090 -32.636   4.371  1.00  0.00     0.006 C 
BRANCH   8   9
ATOM      9  C   UNL     1     -39.485 -32.597   5.008  1.00  0.00     0.053 C 
BRANCH   9  10
ATOM     10  C   UNL     1     -40.565 -32.780   3.983  1.00  0.00     0.041 C 
ATOM     11  O   UNL     1     -41.258 -31.797   3.610  1.00  0.00    -0.550 OA
ATOM     12  O   UNL     1     -40.782 -34.030   3.413  1.00  0.00    -0.550 OA
ENDBRANCH   9  10
ENDBRANCH   8   9
ENDBRANCH   7   8
ENDBRANCH   6   7
ENDBRANCH   5   6
ENDBRANCH   4   5
ENDBRANCH   3   4
ENDBRANCH   1   3
BRANCH   2  13
ATOM     13  C   UNL     1     -36.499 -31.637   8.663  1.00  0.00     0.027 C 
BRANCH  13  14
ATOM     14  C   UNL     1     -38.000 -31.353   8.504  1.00  0.00     0.004 C 
BRANCH  14  15
ATOM     15  C   UNL     1     -38.333 -30.257   7.471  1.00  0.00     0.000 C 
BRANCH  15  16
ATOM     16  C   UNL     1     -37.538 -28.948   7.634  1.00  0.00     0.000 C 
BRANCH  16  17
ATOM     17  C   UNL     1     -36.803 -28.531   6.351  1.00  0.00    -0.000 C 
BRANCH  17  18
ATOM     18  C   UNL     1     -35.490 -27.806   6.682  1.00  0.00    -0.000 C 
BRANCH  18  19
ATOM     19  C   UNL     1     -34.333 -28.777   6.964  1.00  0.00    -0.003 C 
ATOM     20  C   UNL     1     -33.048 -28.397   6.231  1.00  0.00     0.004 C 
ENDBRANCH  18  19
ENDBRANCH  17  18
ENDBRANCH  16  17
ENDBRANCH  15  16
ENDBRANCH  14  15
ENDBRANCH  13  14
ENDBRANCH   2  13
TORSDOF 15
ENDMDL
MODEL 8
REMARK VINA RESULT:    -4.587      2.581      5.663
REMARK INTER + INTRA:         -11.119
REMARK INTER:                  -8.207
REMARK INTRA:                  -2.912
REMARK UNBOUND:                -2.510
REMARK SMILES CCCCCCCCC=CCCCCCCCC(=O)[O-]
REMARK SMILES IDX 10 1 9 2 11 3 12 4 13 5 14 6 15 7 16 8 17 9 18 10 19 11
REMARK SMILES IDX 20 12 8 13 7 14 6 15 5 16 4 17 3 18 2 19 1 20
REMARK H PARENT
REMARK Flexibility Score: inf
ROOT
ATOM      1  C   UNL     1     -36.522 -32.889   8.081  1.00  0.00    -0.031 C 
ATOM      2  C   UNL     1     -35.776 -33.646   7.262  1.00  0.00    -0.031 C 
ENDROOT
BRANCH   1   3
ATOM      3  C   UNL     1     -37.590 -33.493   8.951  1.00  0.00     0.027 C 
BRANCH   3   4
ATOM      4  C   UNL     1     -38.750 -32.514   9.163  1.00  0.00     0.004 C 
BRANCH   4   5
ATOM      5  C   UNL     1     -39.109 -31.796   7.854  1.00  0.00     0.000 C 
BRANCH   5   6
ATOM      6  C   UNL     1     -39.114 -30.263   7.995  1.00  0.00     0.000 C 
BRANCH   6   7
ATOM      7  C   UNL     1     -37.844 -29.590   7.434  1.00  0.00     0.000 C 
BRANCH   7   8
ATOM      8  C   UNL     1     -36.881 -29.147   8.549  1.00  0.00     0.006 C 
BRANCH   8   9
ATOM      9  C   UNL     1     -36.126 -27.861   8.188  1.00  0.00     0.053 C 
BRANCH   9  10
ATOM     10  C   UNL     1     -37.055 -26.689   8.070  1.00  0.00     0.041 C 
ATOM     11  O   UNL     1     -37.375 -26.246   6.936  1.00  0.00    -0.550 OA
ATOM     12  O   UNL     1     -37.596 -26.110   9.212  1.00  0.00    -0.550 OA
ENDBRANCH   9  10
ENDBRANCH   8   9
ENDBRANCH   7   8
ENDBRANCH   6   7
ENDBRANCH   5   6
ENDBRANCH   4   5
ENDBRANCH   3   4
ENDBRANCH   1   3
BRANCH   2  13
ATOM     13  C   UNL     1     -34.749 -33.044   6.341  1.00  0.00     0.027 C 
BRANCH  13  14
ATOM     14  C   UNL     1     -34.648 -31.522   6.524  1.00  0.00     0.004 C 
BRANCH  14  15
ATOM     15  C   UNL     1     -34.692 -30.719   5.208  1.00  0.00     0.000 C 
BRANCH  15  16
ATOM     16  C   UNL     1     -34.684 -31.573   3.927  1.00  0.00     0.000 C 
BRANCH  16  17
ATOM     17  C   UNL     1     -36.065 -31.665   3.260  1.00  0.00    -0.000 C 
BRANCH  17  18
ATOM     18  C   UNL     1     -37.109 -30.859   4.046  1.00  0.00    -0.000 C 
BRANCH  18  19
ATOM     19  C   UNL     1     -38.373 -31.676   4.360  1.00  0.00    -0.003 C 
ATOM     20  C   UNL     1     -38.096 -33.174   4.472  1.00  0.00     0.004 C 
ENDBRANCH  18  19
ENDBRANCH  17  18
ENDBRANCH  16  17
ENDBRANCH  15  16
ENDBRANCH  14  15
ENDBRANCH  13  14
ENDBRANCH   2  13
TORSDOF 15
ENDMDL
MODEL 9
REMARK VINA RESULT:    -4.554      1.931      2.856
REMARK INTER + INTRA:         -11.058
REMARK INTER:                  -8.662
REMARK INTRA:                  -2.396
REMARK UNBOUND:                -2.510
REMARK SMILES CCCCCCCCC=CCCCCCCCC(=O)[O-]
REMARK SMILES IDX 10 1 9 2 11 3 12 4 13 5 14 6 15 7 16 8 17 9 18 10 19 11
REMARK SMILES IDX 20 12 8 13 7 14 6 15 5 16 4 17 3 18 2 19 1 20
REMARK H PARENT
REMARK Flexibility Score: inf
ROOT
ATOM      1  C   UNL     1     -34.622 -30.753   5.096  1.00  0.00    -0.031 C 
ATOM      2  C   UNL     1     -34.488 -30.984   6.411  1.00  0.00    -0.031 C 
ENDROOT
BRANCH   1   3
ATOM      3  C   UNL     1     -34.834 -31.876   4.120  1.00  0.00     0.027 C 
BRANCH   3   4
ATOM      4  C   UNL     1     -35.995 -31.571   3.168  1.00  0.00     0.004 C 
BRANCH   4   5
ATOM      5  C   UNL     1     -37.232 -31.097   3.945  1.00  0.00     0.000 C 
BRANCH   5   6
ATOM      6  C   UNL     1     -38.104 -32.261   4.449  1.00  0.00     0.000 C 
BRANCH   6   7
ATOM      7  C   UNL     1     -38.767 -31.986   5.814  1.00  0.00     0.000 C 
BRANCH   7   8
ATOM      8  C   UNL     1     -38.044 -30.876   6.597  1.00  0.00     0.006 C 
BRANCH   8   9
ATOM      9  C   UNL     1     -38.391 -30.899   8.092  1.00  0.00     0.053 C 
BRANCH   9  10
ATOM     10  C   UNL     1     -37.243 -31.398   8.917  1.00  0.00     0.041 C 
ATOM     11  O   UNL     1     -36.779 -32.553   8.724  1.00  0.00    -0.550 OA
ATOM     12  O   UNL     1     -36.661 -30.575   9.875  1.00  0.00    -0.550 OA
ENDBRANCH   9  10
ENDBRANCH   8   9
ENDBRANCH   7   8
ENDBRANCH   6   7
ENDBRANCH   5   6
ENDBRANCH   4   5
ENDBRANCH   3   4
ENDBRANCH   1   3
BRANCH   2  13
ATOM     13  C   UNL     1     -34.212 -29.874   7.388  1.00  0.00     0.027 C 
BRANCH  13  14
ATOM     14  C   UNL     1     -33.626 -28.638   6.689  1.00  0.00     0.004 C 
BRANCH  14  15
ATOM     15  C   UNL     1     -34.546 -27.400   6.710  1.00  0.00     0.000 C 
BRANCH  15  16
ATOM     16  C   UNL     1     -36.053 -27.711   6.666  1.00  0.00     0.000 C 
BRANCH  16  17
ATOM     17  C   UNL     1     -36.899 -26.684   7.433  1.00  0.00    -0.000 C 
BRANCH  17  18
ATOM     18  C   UNL     1     -37.635 -27.346   8.608  1.00  0.00    -0.000 C 
BRANCH  18  19
ATOM     19  C   UNL     1     -37.259 -26.729   9.964  1.00  0.00    -0.003 C 
ATOM     20  C   UNL     1     -35.962 -25.924   9.909  1.00  0.00     0.004 C 
ENDBRANCH  18  19
ENDBRANCH  17  18
ENDBRANCH  16  17
ENDBRANCH  15  16
ENDBRANCH  14  15
ENDBRANCH  13  14
ENDBRANCH   2  13
TORSDOF 15
ENDMDL
