MODEL 1
REMARK VINA RESULT:    79.156      0.000      0.000
REMARK INTER + INTRA:          94.601
REMARK INTER:                  93.039
REMARK INTRA:                   1.562
REMARK UNBOUND:                 1.562
REMARK SMILES C=C(C)[C@@H]1CC[C@]2(CO)CC[C@]3(C)[C@@H](CC[C@@H]4[C@@]5(C)CC[C@H](O)C(C)(C)[C@@H]5CC[C@@]43C)[C@H]12
REMARK SMILES IDX 4 1 5 2 6 3 7 4 32 5 14 6 15 7 16 8 17 9 18 10 20 11 21 12
REMARK SMILES IDX 22 13 24 14 27 15 28 16 29 17 30 18 12 19 11 20 10 21 13 22
REMARK SMILES IDX 31 23 25 24 26 25 19 26 2 27 3 28 1 29 8 30 9 31 23 33
REMARK H PARENT 9 32 23 34
REMARK Flexibility Score: inf
ROOT
ATOM      1  C   UNL     1       2.766 -13.819  11.380  1.00  0.00     0.018 C 
ATOM      2  C   UNL     1       4.150 -14.411  11.103  1.00  0.00     0.009 C 
ATOM      3  C   UNL     1       4.590 -15.068  12.396  1.00  0.00     0.010 C 
ATOM      4  C   UNL     1       3.979 -14.222  13.531  1.00  0.00    -0.003 C 
ATOM      5  C   UNL     1       2.706 -13.546  12.924  1.00  0.00     0.008 C 
ATOM      6  C   UNL     1       1.333 -13.864  13.643  1.00  0.00    -0.000 C 
ATOM      7  C   UNL     1       0.232 -12.939  13.075  1.00  0.00     0.005 C 
ATOM      8  C   UNL     1      -0.968 -12.787  13.993  1.00  0.00     0.005 C 
ATOM      9  C   UNL     1      -0.601 -12.091  15.335  1.00  0.00     0.002 C 
ATOM     10  C   UNL     1      -0.919 -10.506  15.294  1.00  0.00    -0.026 C 
ATOM     11  C   UNL     1      -2.460 -10.322  15.493  1.00  0.00     0.010 C 
ATOM     12  C   UNL     1      -2.894  -8.881  15.778  1.00  0.00     0.033 C 
ATOM     13  C   UNL     1      -2.183  -8.310  17.013  1.00  0.00     0.120 C 
ATOM     14  C   UNL     1      -0.627  -8.337  16.871  1.00  0.00    -0.006 C 
ATOM     15  C   UNL     1      -0.175  -9.811  16.477  1.00  0.00     0.003 C 
ATOM     16  C   UNL     1       1.365 -10.019  16.389  1.00  0.00     0.005 C 
ATOM     17  C   UNL     1       1.819 -11.359  15.758  1.00  0.00     0.008 C 
ATOM     18  C   UNL     1       0.824 -12.549  15.936  1.00  0.00    -0.024 C 
ATOM     19  C   UNL     1       1.363 -13.923  15.246  1.00  0.00    -0.024 C 
ATOM     20  C   UNL     1       2.801 -14.343  15.759  1.00  0.00     0.008 C 
ATOM     21  C   UNL     1       3.609 -15.125  14.727  1.00  0.00     0.010 C 
ATOM     22  C   UNL     1       0.448 -15.125  15.702  1.00  0.00     0.012 C 
ATOM     23  C   UNL     1       0.709 -12.822  17.482  1.00  0.00     0.012 C 
ATOM     24  C   UNL     1      -0.160  -7.210  15.897  1.00  0.00     0.014 C 
ATOM     25  C   UNL     1      -0.024  -8.003  18.265  1.00  0.00     0.014 C 
ATOM     26  C   UNL     1      -0.512  -9.838  13.939  1.00  0.00     0.012 C 
ENDROOT
BRANCH   1  27
ATOM     27  C   UNL     1       1.673 -14.693  10.748  1.00  0.00    -0.077 C 
ATOM     28  C   UNL     1       0.487 -15.122  11.578  1.00  0.00     0.039 C 
ATOM     29  C   UNL     1       1.673 -15.012   9.442  1.00  0.00     0.008 C 
ENDBRANCH   1  27
BRANCH   4  30
ATOM     30  C   UNL     1       5.020 -13.129  13.944  1.00  0.00     0.163 C 
BRANCH  30  31
ATOM     31  O   UNL     1       6.192 -13.701  14.468  1.00  0.00    -0.396 OA
ATOM     32  H   UNL     1       6.338 -14.562  13.997  1.00  0.00     0.210 HD
ENDBRANCH  30  31
ENDBRANCH   4  30
BRANCH  13  33
ATOM     33  O   UNL     1      -2.646  -6.997  17.226  1.00  0.00    -0.393 OA
ATOM     34  H   UNL     1      -3.035  -6.676  16.371  1.00  0.00     0.210 HD
ENDBRANCH  13  33
TORSDOF 4
ENDMDL
