MODEL 1
REMARK VINA RESULT:    -2.477      0.000      0.000
REMARK INTER + INTRA:          -3.005
REMARK INTER:                  -2.912
REMARK INTRA:                  -0.093
REMARK UNBOUND:                -0.093
REMARK SMILES O=C([O-])CCC(=O)[O-]
REMARK SMILES IDX 4 1 2 2 1 3 3 4 5 5 6 6 7 7 8 8
REMARK H PARENT
REMARK Flexibility Score: inf
ROOT
ATOM      1  C   UNL     1     -20.309  12.963 -24.731  1.00  0.00     0.059 C 
ENDROOT
BRANCH   1   2
ATOM      2  C   UNL     1     -18.872  13.229 -24.401  1.00  0.00     0.042 C 
ATOM      3  O   UNL     1     -18.043  12.281 -24.371  1.00  0.00    -0.550 OA
ATOM      4  O   UNL     1     -18.441  14.528 -24.165  1.00  0.00    -0.550 OA
ENDBRANCH   1   2
BRANCH   1   5
ATOM      5  C   UNL     1     -21.132  14.256 -24.741  1.00  0.00     0.059 C 
BRANCH   5   6
ATOM      6  C   UNL     1     -21.992  14.372 -23.520  1.00  0.00     0.042 C 
ATOM      7  O   UNL     1     -23.075  15.013 -23.564  1.00  0.00    -0.550 OA
ATOM      8  O   UNL     1     -21.615  13.738 -22.343  1.00  0.00    -0.550 OA
ENDBRANCH   5   6
ENDBRANCH   1   5
TORSDOF 3
ENDMDL
MODEL 2
REMARK VINA RESULT:    -2.472      0.108      3.852
REMARK INTER + INTRA:          -2.998
REMARK INTER:                  -2.903
REMARK INTRA:                  -0.095
REMARK UNBOUND:                -0.093
REMARK SMILES O=C([O-])CCC(=O)[O-]
REMARK SMILES IDX 4 1 2 2 1 3 3 4 5 5 6 6 7 7 8 8
REMARK H PARENT
REMARK Flexibility Score: inf
ROOT
ATOM      1  C   UNL     1     -21.177  14.232 -24.719  1.00  0.00     0.059 C 
ENDROOT
BRANCH   1   2
ATOM      2  C   UNL     1     -22.081  14.294 -23.525  1.00  0.00     0.042 C 
ATOM      3  O   UNL     1     -21.742  13.742 -22.445  1.00  0.00    -0.550 OA
ATOM      4  O   UNL     1     -23.278  14.994 -23.596  1.00  0.00    -0.550 OA
ENDBRANCH   1   2
BRANCH   1   5
ATOM      5  C   UNL     1     -20.338  12.949 -24.724  1.00  0.00     0.059 C 
BRANCH   5   6
ATOM      6  C   UNL     1     -18.905  13.226 -24.388  1.00  0.00     0.042 C 
ATOM      7  O   UNL     1     -18.062  12.290 -24.382  1.00  0.00    -0.550 OA
ATOM      8  O   UNL     1     -18.493  14.525 -24.120  1.00  0.00    -0.550 OA
ENDBRANCH   5   6
ENDBRANCH   1   5
TORSDOF 3
ENDMDL
MODEL 3
REMARK VINA RESULT:    -2.467     15.075     16.546
REMARK INTER + INTRA:          -2.993
REMARK INTER:                  -2.900
REMARK INTRA:                  -0.093
REMARK UNBOUND:                -0.093
REMARK SMILES O=C([O-])CCC(=O)[O-]
REMARK SMILES IDX 4 1 2 2 1 3 3 4 5 5 6 6 7 7 8 8
REMARK H PARENT
REMARK Flexibility Score: inf
ROOT
ATOM      1  C   UNL     1     -24.747  29.988 -20.243  1.00  0.00     0.059 C 
ENDROOT
BRANCH   1   2
ATOM      2  C   UNL     1     -24.390  29.663 -18.825  1.00  0.00     0.042 C 
ATOM      3  O   UNL     1     -24.394  30.567 -17.948  1.00  0.00    -0.550 OA
ATOM      4  O   UNL     1     -24.089  28.356 -18.466  1.00  0.00    -0.550 OA
ENDBRANCH   1   2
BRANCH   1   5
ATOM      5  C   UNL     1     -24.766  28.731 -21.121  1.00  0.00     0.059 C 
BRANCH   5   6
ATOM      6  C   UNL     1     -23.566  28.665 -22.015  1.00  0.00     0.042 C 
ATOM      7  O   UNL     1     -22.499  29.248 -21.689  1.00  0.00    -0.550 OA
ATOM      8  O   UNL     1     -23.616  27.925 -23.190  1.00  0.00    -0.550 OA
ENDBRANCH   5   6
ENDBRANCH   1   5
TORSDOF 3
ENDMDL
MODEL 4
REMARK VINA RESULT:    -2.465     15.004     16.263
REMARK INTER + INTRA:          -2.990
REMARK INTER:                  -2.903
REMARK INTRA:                  -0.087
REMARK UNBOUND:                -0.093
REMARK SMILES O=C([O-])CCC(=O)[O-]
REMARK SMILES IDX 4 1 2 2 1 3 3 4 5 5 6 6 7 7 8 8
REMARK H PARENT
REMARK Flexibility Score: inf
ROOT
ATOM      1  C   UNL     1     -24.793  28.755 -21.164  1.00  0.00     0.059 C 
ENDROOT
BRANCH   1   2
ATOM      2  C   UNL     1     -23.554  28.593 -21.990  1.00  0.00     0.042 C 
ATOM      3  O   UNL     1     -22.494  29.193 -21.667  1.00  0.00    -0.550 OA
ATOM      4  O   UNL     1     -23.559  27.751 -23.095  1.00  0.00    -0.550 OA
ENDBRANCH   1   2
BRANCH   1   5
ATOM      5  C   UNL     1     -24.730  30.017 -20.296  1.00  0.00     0.059 C 
BRANCH   5   6
ATOM      6  C   UNL     1     -24.427  29.688 -18.866  1.00  0.00     0.042 C 
ATOM      7  O   UNL     1     -24.412  30.597 -17.995  1.00  0.00    -0.550 OA
ATOM      8  O   UNL     1     -24.202  28.370 -18.490  1.00  0.00    -0.550 OA
ENDBRANCH   5   6
ENDBRANCH   1   5
TORSDOF 3
ENDMDL
MODEL 5
REMARK VINA RESULT:    -2.463     15.025     16.304
REMARK INTER + INTRA:          -2.988
REMARK INTER:                  -2.888
REMARK INTRA:                  -0.100
REMARK UNBOUND:                -0.093
REMARK SMILES O=C([O-])CCC(=O)[O-]
REMARK SMILES IDX 4 1 2 2 1 3 3 4 5 5 6 6 7 7 8 8
REMARK H PARENT
REMARK Flexibility Score: inf
ROOT
ATOM      1  C   UNL     1     -24.737  28.645 -21.055  1.00  0.00     0.059 C 
ENDROOT
BRANCH   1   2
ATOM      2  C   UNL     1     -23.553  28.608 -21.972  1.00  0.00     0.042 C 
ATOM      3  O   UNL     1     -22.501  29.235 -21.674  1.00  0.00    -0.550 OA
ATOM      4  O   UNL     1     -23.597  27.851 -23.135  1.00  0.00    -0.550 OA
ENDBRANCH   1   2
BRANCH   1   5
ATOM      5  C   UNL     1     -24.752  29.921 -20.205  1.00  0.00     0.059 C 
BRANCH   5   6
ATOM      6  C   UNL     1     -24.397  29.637 -18.778  1.00  0.00     0.042 C 
ATOM      7  O   UNL     1     -24.057  28.476 -18.427  1.00  0.00    -0.550 OA
ATOM      8  O   UNL     1     -24.403  30.665 -17.844  1.00  0.00    -0.550 OA
ENDBRANCH   5   6
ENDBRANCH   1   5
TORSDOF 3
ENDMDL
MODEL 6
REMARK VINA RESULT:    -2.456      0.126      3.842
REMARK INTER + INTRA:          -2.980
REMARK INTER:                  -2.881
REMARK INTRA:                  -0.099
REMARK UNBOUND:                -0.093
REMARK SMILES O=C([O-])CCC(=O)[O-]
REMARK SMILES IDX 4 1 2 2 1 3 3 4 5 5 6 6 7 7 8 8
REMARK H PARENT
REMARK Flexibility Score: inf
ROOT
ATOM      1  C   UNL     1     -21.094  14.240 -24.732  1.00  0.00     0.059 C 
ENDROOT
BRANCH   1   2
ATOM      2  C   UNL     1     -21.989  14.331 -23.534  1.00  0.00     0.042 C 
ATOM      3  O   UNL     1     -23.047  15.012 -23.583  1.00  0.00    -0.550 OA
ATOM      4  O   UNL     1     -21.673  13.632 -22.376  1.00  0.00    -0.550 OA
ENDBRANCH   1   2
BRANCH   1   5
ATOM      5  C   UNL     1     -20.249  12.962 -24.708  1.00  0.00     0.059 C 
BRANCH   5   6
ATOM      6  C   UNL     1     -18.823  13.250 -24.351  1.00  0.00     0.042 C 
ATOM      7  O   UNL     1     -18.488  14.397 -23.954  1.00  0.00    -0.550 OA
ATOM      8  O   UNL     1     -17.872  12.240 -24.420  1.00  0.00    -0.550 OA
ENDBRANCH   5   6
ENDBRANCH   1   5
TORSDOF 3
ENDMDL
MODEL 7
REMARK VINA RESULT:    -2.224     14.543     15.724
REMARK INTER + INTRA:          -2.707
REMARK INTER:                  -2.583
REMARK INTRA:                  -0.123
REMARK UNBOUND:                -0.093
REMARK SMILES O=C([O-])CCC(=O)[O-]
REMARK SMILES IDX 4 1 2 2 1 3 3 4 5 5 6 6 7 7 8 8
REMARK H PARENT
REMARK Flexibility Score: inf
ROOT
ATOM      1  C   UNL     1     -22.334  28.671 -20.635  1.00  0.00     0.059 C 
ENDROOT
BRANCH   1   2
ATOM      2  C   UNL     1     -22.453  27.796 -21.846  1.00  0.00     0.042 C 
ATOM      3  O   UNL     1     -23.401  27.965 -22.658  1.00  0.00    -0.550 OA
ATOM      4  O   UNL     1     -21.497  26.820 -22.095  1.00  0.00    -0.550 OA
ENDBRANCH   1   2
BRANCH   1   5
ATOM      5  C   UNL     1     -23.533  28.499 -19.696  1.00  0.00     0.059 C 
BRANCH   5   6
ATOM      6  C   UNL     1     -24.341  29.756 -19.599  1.00  0.00     0.042 C 
ATOM      7  O   UNL     1     -24.944  30.203 -20.611  1.00  0.00    -0.550 OA
ATOM      8  O   UNL     1     -24.461  30.413 -18.381  1.00  0.00    -0.550 OA
ENDBRANCH   5   6
ENDBRANCH   1   5
TORSDOF 3
ENDMDL
MODEL 8
REMARK VINA RESULT:    -2.185     14.324     15.820
REMARK INTER + INTRA:          -2.661
REMARK INTER:                  -2.556
REMARK INTRA:                  -0.104
REMARK UNBOUND:                -0.093
REMARK SMILES O=C([O-])CCC(=O)[O-]
REMARK SMILES IDX 4 1 2 2 1 3 3 4 5 5 6 6 7 7 8 8
REMARK H PARENT
REMARK Flexibility Score: inf
ROOT
ATOM      1  C   UNL     1     -23.158  29.475 -21.649  1.00  0.00     0.059 C 
ENDROOT
BRANCH   1   2
ATOM      2  C   UNL     1     -24.515  29.578 -21.024  1.00  0.00     0.042 C 
ATOM      3  O   UNL     1     -25.122  30.682 -21.005  1.00  0.00    -0.550 OA
ATOM      4  O   UNL     1     -25.125  28.448 -20.495  1.00  0.00    -0.550 OA
ENDBRANCH   1   2
BRANCH   1   5
ATOM      5  C   UNL     1     -22.721  28.014 -21.809  1.00  0.00     0.059 C 
BRANCH   5   6
ATOM      6  C   UNL     1     -21.683  27.636 -20.798  1.00  0.00     0.042 C 
ATOM      7  O   UNL     1     -21.951  26.802 -19.893  1.00  0.00    -0.550 OA
ATOM      8  O   UNL     1     -20.405  28.176 -20.879  1.00  0.00    -0.550 OA
ENDBRANCH   5   6
ENDBRANCH   1   5
TORSDOF 3
ENDMDL
MODEL 9
REMARK VINA RESULT:    -2.094     15.801     17.228
REMARK INTER + INTRA:          -2.554
REMARK INTER:                  -2.520
REMARK INTRA:                  -0.033
REMARK UNBOUND:                -0.093
REMARK SMILES O=C([O-])CCC(=O)[O-]
REMARK SMILES IDX 4 1 2 2 1 3 3 4 5 5 6 6 7 7 8 8
REMARK H PARENT
REMARK Flexibility Score: inf
ROOT
ATOM      1  C   UNL     1     -24.372  30.002 -18.931  1.00  0.00     0.059 C 
ENDROOT
BRANCH   1   2
ATOM      2  C   UNL     1     -24.519  29.938 -17.442  1.00  0.00     0.042 C 
ATOM      3  O   UNL     1     -24.623  28.825 -16.862  1.00  0.00    -0.550 OA
ATOM      4  O   UNL     1     -24.503  31.107 -16.691  1.00  0.00    -0.550 OA
ENDBRANCH   1   2
BRANCH   1   5
ATOM      5  C   UNL     1     -23.310  29.017 -19.434  1.00  0.00     0.059 C 
BRANCH   5   6
ATOM      6  C   UNL     1     -22.981  29.250 -20.877  1.00  0.00     0.042 C 
ATOM      7  O   UNL     1     -23.813  29.817 -21.634  1.00  0.00    -0.550 OA
ATOM      8  O   UNL     1     -21.739  28.878 -21.375  1.00  0.00    -0.550 OA
ENDBRANCH   5   6
ENDBRANCH   1   5
TORSDOF 3
ENDMDL
