MODEL 1
REMARK VINA RESULT:    -4.736      0.000      0.000
REMARK INTER + INTRA:          -8.019
REMARK INTER:                  -7.504
REMARK INTRA:                  -0.515
REMARK UNBOUND:                -0.515
REMARK SMILES CCCCCCCCCCCC(=O)[O-]
REMARK SMILES IDX 7 1 8 2 9 3 10 4 11 5 12 6 13 7 14 8 6 9 5 10 4 11 3 12 2 13
REMARK SMILES IDX 1 14
REMARK H PARENT
REMARK Flexibility Score: inf
ROOT
ATOM      1  C   UNL     1      36.345 106.660 262.670  1.00  0.00     0.000 C 
ENDROOT
BRANCH   1   2
ATOM      2  C   UNL     1      36.111 105.634 263.793  1.00  0.00     0.000 C 
BRANCH   2   3
ATOM      3  C   UNL     1      34.875 105.954 264.651  1.00  0.00     0.000 C 
BRANCH   3   4
ATOM      4  C   UNL     1      35.113 106.981 265.773  1.00  0.00     0.006 C 
BRANCH   4   5
ATOM      5  C   UNL     1      35.215 106.336 267.160  1.00  0.00     0.053 C 
BRANCH   5   6
ATOM      6  C   UNL     1      35.264 107.389 268.223  1.00  0.00     0.041 C 
ATOM      7  O   UNL     1      35.112 108.602 267.921  1.00  0.00    -0.550 OA
ATOM      8  O   UNL     1      35.431 107.025 269.554  1.00  0.00    -0.550 OA
ENDBRANCH   5   6
ENDBRANCH   4   5
ENDBRANCH   3   4
ENDBRANCH   2   3
ENDBRANCH   1   2
BRANCH   1   9
ATOM      9  C   UNL     1      37.844 106.957 262.455  1.00  0.00     0.000 C 
BRANCH   9  10
ATOM     10  C   UNL     1      38.384 106.450 261.107  1.00  0.00    -0.000 C 
BRANCH  10  11
ATOM     11  C   UNL     1      37.312 105.761 260.253  1.00  0.00    -0.000 C 
BRANCH  11  12
ATOM     12  C   UNL     1      37.692 105.788 258.765  1.00  0.00    -0.000 C 
BRANCH  12  13
ATOM     13  C   UNL     1      36.554 106.310 257.875  1.00  0.00    -0.003 C 
ATOM     14  C   UNL     1      36.019 107.666 258.333  1.00  0.00     0.004 C 
ENDBRANCH  12  13
ENDBRANCH  11  12
ENDBRANCH  10  11
ENDBRANCH   9  10
ENDBRANCH   1   9
TORSDOF 10
ENDMDL
MODEL 2
REMARK VINA RESULT:    -4.584      3.945      7.879
REMARK INTER + INTRA:          -7.778
REMARK INTER:                  -7.299
REMARK INTRA:                  -0.479
REMARK UNBOUND:                -0.515
REMARK SMILES CCCCCCCCCCCC(=O)[O-]
REMARK SMILES IDX 7 1 8 2 9 3 10 4 11 5 12 6 13 7 14 8 6 9 5 10 4 11 3 12 2 13
REMARK SMILES IDX 1 14
REMARK H PARENT
REMARK Flexibility Score: inf
ROOT
ATOM      1  C   UNL     1      35.335 107.093 263.467  1.00  0.00     0.000 C 
ENDROOT
BRANCH   1   2
ATOM      2  C   UNL     1      36.447 106.163 262.952  1.00  0.00     0.000 C 
BRANCH   2   3
ATOM      3  C   UNL     1      37.620 106.926 262.313  1.00  0.00     0.000 C 
BRANCH   3   4
ATOM      4  C   UNL     1      38.218 106.265 261.058  1.00  0.00     0.006 C 
BRANCH   4   5
ATOM      5  C   UNL     1      37.156 105.620 260.160  1.00  0.00     0.053 C 
BRANCH   5   6
ATOM      6  C   UNL     1      37.089 106.324 258.841  1.00  0.00     0.041 C 
ATOM      7  O   UNL     1      37.796 105.930 257.876  1.00  0.00    -0.550 OA
ATOM      8  O   UNL     1      36.210 107.385 258.664  1.00  0.00    -0.550 OA
ENDBRANCH   5   6
ENDBRANCH   4   5
ENDBRANCH   3   4
ENDBRANCH   2   3
ENDBRANCH   1   2
BRANCH   1   9
ATOM      9  C   UNL     1      34.940 106.777 264.925  1.00  0.00     0.000 C 
BRANCH   9  10
ATOM     10  C   UNL     1      34.876 105.271 265.231  1.00  0.00    -0.000 C 
BRANCH  10  11
ATOM     11  C   UNL     1      34.897 104.964 266.735  1.00  0.00    -0.000 C 
BRANCH  11  12
ATOM     12  C   UNL     1      35.048 106.251 267.557  1.00  0.00    -0.000 C 
BRANCH  12  13
ATOM     13  C   UNL     1      35.094 105.984 269.069  1.00  0.00    -0.003 C 
ATOM     14  C   UNL     1      35.469 107.225 269.878  1.00  0.00     0.004 C 
ENDBRANCH  12  13
ENDBRANCH  11  12
ENDBRANCH  10  11
ENDBRANCH   9  10
ENDBRANCH   1   9
TORSDOF 10
ENDMDL
MODEL 3
REMARK VINA RESULT:    -4.118      0.854      1.012
REMARK INTER + INTRA:          -7.041
REMARK INTER:                  -7.076
REMARK INTRA:                   0.035
REMARK UNBOUND:                -0.515
REMARK SMILES CCCCCCCCCCCC(=O)[O-]
REMARK SMILES IDX 7 1 8 2 9 3 10 4 11 5 12 6 13 7 14 8 6 9 5 10 4 11 3 12 2 13
REMARK SMILES IDX 1 14
REMARK H PARENT
REMARK Flexibility Score: inf
ROOT
ATOM      1  C   UNL     1      35.907 106.699 263.530  1.00  0.00     0.000 C 
ENDROOT
BRANCH   1   2
ATOM      2  C   UNL     1      35.736 105.223 263.929  1.00  0.00     0.000 C 
BRANCH   2   3
ATOM      3  C   UNL     1      35.898 104.988 265.441  1.00  0.00     0.000 C 
BRANCH   3   4
ATOM      4  C   UNL     1      34.875 105.723 266.325  1.00  0.00     0.006 C 
BRANCH   4   5
ATOM      5  C   UNL     1      35.131 107.233 266.405  1.00  0.00     0.053 C 
BRANCH   5   6
ATOM      6  C   UNL     1      35.033 107.705 267.822  1.00  0.00     0.041 C 
ATOM      7  O   UNL     1      34.947 108.936 268.075  1.00  0.00    -0.550 OA
ATOM      8  O   UNL     1      34.988 106.783 268.860  1.00  0.00    -0.550 OA
ENDBRANCH   5   6
ENDBRANCH   4   5
ENDBRANCH   3   4
ENDBRANCH   2   3
ENDBRANCH   1   2
BRANCH   1   9
ATOM      9  C   UNL     1      37.388 107.074 263.307  1.00  0.00     0.000 C 
BRANCH   9  10
ATOM     10  C   UNL     1      37.860 106.877 261.857  1.00  0.00    -0.000 C 
BRANCH  10  11
ATOM     11  C   UNL     1      36.736 106.417 260.918  1.00  0.00    -0.000 C 
BRANCH  11  12
ATOM     12  C   UNL     1      37.260 105.405 259.888  1.00  0.00    -0.000 C 
BRANCH  12  13
ATOM     13  C   UNL     1      37.180 105.934 258.448  1.00  0.00    -0.003 C 
ATOM     14  C   UNL     1      36.367 107.222 258.335  1.00  0.00     0.004 C 
ENDBRANCH  12  13
ENDBRANCH  11  12
ENDBRANCH  10  11
ENDBRANCH   9  10
ENDBRANCH   1   9
TORSDOF 10
ENDMDL
MODEL 4
REMARK VINA RESULT:    -3.930      4.100      7.706
REMARK INTER + INTRA:          -6.742
REMARK INTER:                  -6.379
REMARK INTRA:                  -0.363
REMARK UNBOUND:                -0.515
REMARK SMILES CCCCCCCCCCCC(=O)[O-]
REMARK SMILES IDX 7 1 8 2 9 3 10 4 11 5 12 6 13 7 14 8 6 9 5 10 4 11 3 12 2 13
REMARK SMILES IDX 1 14
REMARK H PARENT
REMARK Flexibility Score: inf
ROOT
ATOM      1  C   UNL     1      34.888 106.041 264.263  1.00  0.00     0.000 C 
ENDROOT
BRANCH   1   2
ATOM      2  C   UNL     1      35.838 105.534 263.165  1.00  0.00     0.000 C 
BRANCH   2   3
ATOM      3  C   UNL     1      37.074 106.431 262.979  1.00  0.00     0.000 C 
BRANCH   3   4
ATOM      4  C   UNL     1      37.391 106.805 261.520  1.00  0.00     0.006 C 
BRANCH   4   5
ATOM      5  C   UNL     1      36.462 106.116 260.512  1.00  0.00     0.053 C 
BRANCH   5   6
ATOM      6  C   UNL     1      36.935 106.361 259.114  1.00  0.00     0.041 C 
ATOM      7  O   UNL     1      36.303 107.147 258.360  1.00  0.00    -0.550 OA
ATOM      8  O   UNL     1      38.102 105.759 258.659  1.00  0.00    -0.550 OA
ENDBRANCH   5   6
ENDBRANCH   4   5
ENDBRANCH   3   4
ENDBRANCH   2   3
ENDBRANCH   1   2
BRANCH   1   9
ATOM      9  C   UNL     1      35.653 106.589 265.487  1.00  0.00     0.000 C 
BRANCH   9  10
ATOM     10  C   UNL     1      35.559 108.117 265.637  1.00  0.00    -0.000 C 
BRANCH  10  11
ATOM     11  C   UNL     1      35.948 108.607 267.039  1.00  0.00    -0.000 C 
BRANCH  11  12
ATOM     12  C   UNL     1      34.875 108.229 268.070  1.00  0.00    -0.000 C 
BRANCH  12  13
ATOM     13  C   UNL     1      35.348 107.135 269.039  1.00  0.00    -0.003 C 
ATOM     14  C   UNL     1      34.887 105.738 268.625  1.00  0.00     0.004 C 
ENDBRANCH  12  13
ENDBRANCH  11  12
ENDBRANCH  10  11
ENDBRANCH   9  10
ENDBRANCH   1   9
TORSDOF 10
ENDMDL
MODEL 5
REMARK VINA RESULT:    -3.733      3.887      7.633
REMARK INTER + INTRA:          -6.430
REMARK INTER:                  -6.595
REMARK INTRA:                   0.165
REMARK UNBOUND:                -0.515
REMARK SMILES CCCCCCCCCCCC(=O)[O-]
REMARK SMILES IDX 7 1 8 2 9 3 10 4 11 5 12 6 13 7 14 8 6 9 5 10 4 11 3 12 2 13
REMARK SMILES IDX 1 14
REMARK H PARENT
REMARK Flexibility Score: inf
ROOT
ATOM      1  C   UNL     1      35.756 105.564 264.575  1.00  0.00     0.000 C 
ENDROOT
BRANCH   1   2
ATOM      2  C   UNL     1      35.150 104.721 263.440  1.00  0.00     0.000 C 
BRANCH   2   3
ATOM      3  C   UNL     1      35.651 105.141 262.047  1.00  0.00     0.000 C 
BRANCH   3   4
ATOM      4  C   UNL     1      36.845 106.112 262.053  1.00  0.00     0.006 C 
BRANCH   4   5
ATOM      5  C   UNL     1      37.025 106.846 260.719  1.00  0.00     0.053 C 
BRANCH   5   6
ATOM      6  C   UNL     1      37.721 105.966 259.729  1.00  0.00     0.041 C 
ATOM      7  O   UNL     1      38.657 105.210 260.101  1.00  0.00    -0.550 OA
ATOM      8  O   UNL     1      37.305 105.946 258.404  1.00  0.00    -0.550 OA
ENDBRANCH   5   6
ENDBRANCH   4   5
ENDBRANCH   3   4
ENDBRANCH   2   3
ENDBRANCH   1   2
BRANCH   1   9
ATOM      9  C   UNL     1      35.231 107.016 264.565  1.00  0.00     0.000 C 
BRANCH   9  10
ATOM     10  C   UNL     1      35.704 107.849 265.769  1.00  0.00    -0.000 C 
BRANCH  10  11
ATOM     11  C   UNL     1      34.875 107.596 267.035  1.00  0.00    -0.000 C 
BRANCH  11  12
ATOM     12  C   UNL     1      35.112 106.177 267.573  1.00  0.00    -0.000 C 
BRANCH  12  13
ATOM     13  C   UNL     1      34.919 106.083 269.094  1.00  0.00    -0.003 C 
ATOM     14  C   UNL     1      35.628 107.205 269.852  1.00  0.00     0.004 C 
ENDBRANCH  12  13
ENDBRANCH  11  12
ENDBRANCH  10  11
ENDBRANCH   9  10
ENDBRANCH   1   9
TORSDOF 10
ENDMDL
MODEL 6
REMARK VINA RESULT:    -3.323      2.816      6.857
REMARK INTER + INTRA:          -5.780
REMARK INTER:                  -5.357
REMARK INTRA:                  -0.423
REMARK UNBOUND:                -0.515
REMARK SMILES CCCCCCCCCCCC(=O)[O-]
REMARK SMILES IDX 7 1 8 2 9 3 10 4 11 5 12 6 13 7 14 8 6 9 5 10 4 11 3 12 2 13
REMARK SMILES IDX 1 14
REMARK H PARENT
REMARK Flexibility Score: inf
ROOT
ATOM      1  C   UNL     1      35.911 105.055 263.807  1.00  0.00     0.000 C 
ENDROOT
BRANCH   1   2
ATOM      2  C   UNL     1      35.285 104.856 262.416  1.00  0.00     0.000 C 
BRANCH   2   3
ATOM      3  C   UNL     1      36.314 104.953 261.276  1.00  0.00     0.000 C 
BRANCH   3   4
ATOM      4  C   UNL     1      36.793 106.380 260.954  1.00  0.00     0.006 C 
BRANCH   4   5
ATOM      5  C   UNL     1      38.319 106.521 260.994  1.00  0.00     0.053 C 
BRANCH   5   6
ATOM      6  C   UNL     1      38.769 106.952 262.354  1.00  0.00     0.041 C 
ATOM      7  O   UNL     1      37.923 107.296 263.222  1.00  0.00    -0.550 OA
ATOM      8  O   UNL     1      40.120 106.929 262.679  1.00  0.00    -0.550 OA
ENDBRANCH   5   6
ENDBRANCH   4   5
ENDBRANCH   3   4
ENDBRANCH   2   3
ENDBRANCH   1   2
BRANCH   1   9
ATOM      9  C   UNL     1      34.912 105.666 264.813  1.00  0.00     0.000 C 
BRANCH   9  10
ATOM     10  C   UNL     1      34.878 107.203 264.791  1.00  0.00    -0.000 C 
BRANCH  10  11
ATOM     11  C   UNL     1      35.563 107.836 266.010  1.00  0.00    -0.000 C 
BRANCH  11  12
ATOM     12  C   UNL     1      34.875 107.404 267.313  1.00  0.00    -0.000 C 
BRANCH  12  13
ATOM     13  C   UNL     1      35.770 107.600 268.546  1.00  0.00    -0.003 C 
ATOM     14  C   UNL     1      35.255 106.855 269.776  1.00  0.00     0.004 C 
ENDBRANCH  12  13
ENDBRANCH  11  12
ENDBRANCH  10  11
ENDBRANCH   9  10
ENDBRANCH   1   9
TORSDOF 10
ENDMDL
MODEL 7
REMARK VINA RESULT:    -3.242      1.431      2.715
REMARK INTER + INTRA:          -5.652
REMARK INTER:                  -4.911
REMARK INTRA:                  -0.741
REMARK UNBOUND:                -0.515
REMARK SMILES CCCCCCCCCCCC(=O)[O-]
REMARK SMILES IDX 7 1 8 2 9 3 10 4 11 5 12 6 13 7 14 8 6 9 5 10 4 11 3 12 2 13
REMARK SMILES IDX 1 14
REMARK H PARENT
REMARK Flexibility Score: inf
ROOT
ATOM      1  C   UNL     1      35.555 104.422 262.091  1.00  0.00     0.000 C 
ENDROOT
BRANCH   1   2
ATOM      2  C   UNL     1      34.918 104.706 263.462  1.00  0.00     0.000 C 
BRANCH   2   3
ATOM      3  C   UNL     1      35.856 105.473 264.411  1.00  0.00     0.000 C 
BRANCH   3   4
ATOM      4  C   UNL     1      35.284 106.792 264.961  1.00  0.00     0.006 C 
BRANCH   4   5
ATOM      5  C   UNL     1      35.048 106.755 266.476  1.00  0.00     0.053 C 
BRANCH   5   6
ATOM      6  C   UNL     1      35.038 108.142 267.037  1.00  0.00     0.041 C 
ATOM      7  O   UNL     1      35.221 108.328 268.269  1.00  0.00    -0.550 OA
ATOM      8  O   UNL     1      34.875 109.233 266.192  1.00  0.00    -0.550 OA
ENDBRANCH   5   6
ENDBRANCH   4   5
ENDBRANCH   3   4
ENDBRANCH   2   3
ENDBRANCH   1   2
BRANCH   1   9
ATOM      9  C   UNL     1      36.143 105.696 261.447  1.00  0.00     0.000 C 
BRANCH   9  10
ATOM     10  C   UNL     1      36.763 105.454 260.061  1.00  0.00    -0.000 C 
BRANCH  10  11
ATOM     11  C   UNL     1      38.025 106.293 259.814  1.00  0.00    -0.000 C 
BRANCH  11  12
ATOM     12  C   UNL     1      39.075 106.042 260.905  1.00  0.00    -0.000 C 
BRANCH  12  13
ATOM     13  C   UNL     1      39.392 107.305 261.720  1.00  0.00    -0.003 C 
ATOM     14  C   UNL     1      38.904 107.215 263.165  1.00  0.00     0.004 C 
ENDBRANCH  12  13
ENDBRANCH  11  12
ENDBRANCH  10  11
ENDBRANCH   9  10
ENDBRANCH   1   9
TORSDOF 10
ENDMDL
MODEL 8
REMARK VINA RESULT:    -2.909      1.220      2.340
REMARK INTER + INTRA:          -5.124
REMARK INTER:                  -4.721
REMARK INTRA:                  -0.403
REMARK UNBOUND:                -0.515
REMARK SMILES CCCCCCCCCCCC(=O)[O-]
REMARK SMILES IDX 7 1 8 2 9 3 10 4 11 5 12 6 13 7 14 8 6 9 5 10 4 11 3 12 2 13
REMARK SMILES IDX 1 14
REMARK H PARENT
REMARK Flexibility Score: inf
ROOT
ATOM      1  C   UNL     1      34.877 105.674 264.916  1.00  0.00     0.000 C 
ENDROOT
BRANCH   1   2
ATOM      2  C   UNL     1      35.161 104.388 265.712  1.00  0.00     0.000 C 
BRANCH   2   3
ATOM      3  C   UNL     1      34.971 104.567 267.228  1.00  0.00     0.000 C 
BRANCH   3   4
ATOM      4  C   UNL     1      34.985 106.027 267.716  1.00  0.00     0.006 C 
BRANCH   4   5
ATOM      5  C   UNL     1      34.927 106.147 269.243  1.00  0.00     0.053 C 
BRANCH   5   6
ATOM      6  C   UNL     1      35.494 107.460 269.686  1.00  0.00     0.041 C 
ATOM      7  O   UNL     1      35.044 108.536 269.213  1.00  0.00    -0.550 OA
ATOM      8  O   UNL     1      36.486 107.495 270.658  1.00  0.00    -0.550 OA
ENDBRANCH   5   6
ENDBRANCH   4   5
ENDBRANCH   3   4
ENDBRANCH   2   3
ENDBRANCH   1   2
BRANCH   1   9
ATOM      9  C   UNL     1      35.682 105.734 263.600  1.00  0.00     0.000 C 
BRANCH   9  10
ATOM     10  C   UNL     1      36.711 106.877 263.561  1.00  0.00    -0.000 C 
BRANCH  10  11
ATOM     11  C   UNL     1      37.607 106.835 262.316  1.00  0.00    -0.000 C 
BRANCH  11  12
ATOM     12  C   UNL     1      36.835 106.301 261.101  1.00  0.00    -0.000 C 
BRANCH  12  13
ATOM     13  C   UNL     1      37.498 106.679 259.768  1.00  0.00    -0.003 C 
ATOM     14  C   UNL     1      37.136 105.722 258.634  1.00  0.00     0.004 C 
ENDBRANCH  12  13
ENDBRANCH  11  12
ENDBRANCH  10  11
ENDBRANCH   9  10
ENDBRANCH   1   9
TORSDOF 10
ENDMDL
