MODEL 1
REMARK VINA RESULT:    -4.664      0.000      0.000
REMARK INTER + INTRA:          -5.286
REMARK INTER:                  -5.073
REMARK INTRA:                  -0.213
REMARK UNBOUND:                -0.213
REMARK SMILES CC(C)(C)[C@H]1C=C[C@@H](O)CC1
REMARK SMILES IDX 5 1 11 2 10 3 8 4 7 5 6 6 2 7 1 8 3 9 4 10 9 11
REMARK H PARENT 9 12
REMARK Flexibility Score: inf
ROOT
ATOM      1  C   UNL     1     114.957 125.969 123.879  1.00  0.00     0.017 C 
ATOM      2  C   UNL     1     116.371 126.304 124.421  1.00  0.00     0.011 C 
ATOM      3  C   UNL     1     116.327 127.488 125.389  1.00  0.00     0.037 C 
ATOM      4  C   UNL     1     115.417 127.196 126.593  1.00  0.00     0.137 C 
ATOM      5  C   UNL     1     114.111 126.551 126.190  1.00  0.00     0.000 C 
ATOM      6  C   UNL     1     113.929 125.940 125.007  1.00  0.00    -0.025 C 
ENDROOT
BRANCH   1   7
ATOM      7  C   UNL     1     114.915 124.667 122.989  1.00  0.00    -0.032 C 
ATOM      8  C   UNL     1     114.570 123.426 123.849  1.00  0.00     0.011 C 
ATOM      9  C   UNL     1     113.871 124.781 121.853  1.00  0.00     0.011 C 
ATOM     10  C   UNL     1     116.305 124.409 122.356  1.00  0.00     0.011 C 
ENDBRANCH   1   7
BRANCH   4  11
ATOM     11  O   UNL     1     116.083 126.409 127.550  1.00  0.00    -0.389 OA
ATOM     12  H   UNL     1     116.785 126.969 127.972  1.00  0.00     0.211 HD
ENDBRANCH   4  11
TORSDOF 2
ENDMDL
MODEL 2
REMARK VINA RESULT:    -4.664      7.053      8.329
REMARK INTER + INTRA:          -5.286
REMARK INTER:                  -5.071
REMARK INTRA:                  -0.214
REMARK UNBOUND:                -0.213
REMARK SMILES CC(C)(C)[C@H]1C=C[C@@H](O)CC1
REMARK SMILES IDX 5 1 11 2 10 3 8 4 7 5 6 6 2 7 1 8 3 9 4 10 9 11
REMARK H PARENT 9 12
REMARK Flexibility Score: inf
ROOT
ATOM      1  C   UNL     1     115.105 119.092 127.176  1.00  0.00     0.017 C 
ATOM      2  C   UNL     1     113.852 118.381 127.752  1.00  0.00     0.011 C 
ATOM      3  C   UNL     1     112.565 119.061 127.280  1.00  0.00     0.037 C 
ATOM      4  C   UNL     1     112.452 119.048 125.748  1.00  0.00     0.137 C 
ATOM      5  C   UNL     1     113.749 119.420 125.068  1.00  0.00     0.000 C 
ATOM      6  C   UNL     1     114.942 119.370 125.685  1.00  0.00    -0.025 C 
ENDROOT
BRANCH   1   7
ATOM      7  C   UNL     1     116.459 118.351 127.509  1.00  0.00    -0.032 C 
ATOM      8  C   UNL     1     116.952 118.723 128.930  1.00  0.00     0.011 C 
ATOM      9  C   UNL     1     116.307 116.814 127.430  1.00  0.00     0.011 C 
ATOM     10  C   UNL     1     117.563 118.789 126.515  1.00  0.00     0.011 C 
ENDBRANCH   1   7
BRANCH   4  11
ATOM     11  O   UNL     1     111.991 117.802 125.286  1.00  0.00    -0.389 OA
ATOM     12  H   UNL     1     111.980 117.829 124.294  1.00  0.00     0.211 HD
ENDBRANCH   4  11
TORSDOF 2
ENDMDL
MODEL 3
REMARK VINA RESULT:    -4.628     15.238     15.689
REMARK INTER + INTRA:          -5.246
REMARK INTER:                  -5.028
REMARK INTRA:                  -0.219
REMARK UNBOUND:                -0.213
REMARK SMILES CC(C)(C)[C@H]1C=C[C@@H](O)CC1
REMARK SMILES IDX 5 1 11 2 10 3 8 4 7 5 6 6 2 7 1 8 3 9 4 10 9 11
REMARK H PARENT 9 12
REMARK Flexibility Score: inf
ROOT
ATOM      1  C   UNL     1     124.385 120.828 113.683  1.00  0.00     0.017 C 
ATOM      2  C   UNL     1     125.463 121.745 113.048  1.00  0.00     0.011 C 
ATOM      3  C   UNL     1     126.233 122.518 114.121  1.00  0.00     0.037 C 
ATOM      4  C   UNL     1     126.940 121.568 115.099  1.00  0.00     0.137 C 
ATOM      5  C   UNL     1     126.055 120.424 115.538  1.00  0.00     0.000 C 
ATOM      6  C   UNL     1     124.954 120.048 114.864  1.00  0.00    -0.025 C 
ENDROOT
BRANCH   1   7
ATOM      7  C   UNL     1     123.655 119.897 112.638  1.00  0.00    -0.032 C 
ATOM      8  C   UNL     1     122.791 118.834 113.362  1.00  0.00     0.011 C 
ATOM      9  C   UNL     1     122.741 120.705 111.688  1.00  0.00     0.011 C 
ATOM     10  C   UNL     1     124.698 119.132 111.786  1.00  0.00     0.011 C 
ENDBRANCH   1   7
BRANCH   4  11
ATOM     11  O   UNL     1     128.142 121.082 114.553  1.00  0.00    -0.389 OA
ATOM     12  H   UNL     1     127.975 120.162 114.218  1.00  0.00     0.211 HD
ENDBRANCH   4  11
TORSDOF 2
ENDMDL
MODEL 4
REMARK VINA RESULT:    -4.570     15.094     16.067
REMARK INTER + INTRA:          -5.183
REMARK INTER:                  -4.969
REMARK INTRA:                  -0.214
REMARK UNBOUND:                -0.213
REMARK SMILES CC(C)(C)[C@H]1C=C[C@@H](O)CC1
REMARK SMILES IDX 5 1 11 2 10 3 8 4 7 5 6 6 2 7 1 8 3 9 4 10 9 11
REMARK H PARENT 9 12
REMARK Flexibility Score: inf
ROOT
ATOM      1  C   UNL     1     125.310 121.194 114.503  1.00  0.00     0.017 C 
ATOM      2  C   UNL     1     124.633 119.799 114.485  1.00  0.00     0.011 C 
ATOM      3  C   UNL     1     123.255 119.862 113.821  1.00  0.00     0.037 C 
ATOM      4  C   UNL     1     123.353 120.357 112.370  1.00  0.00     0.137 C 
ATOM      5  C   UNL     1     124.273 121.548 112.225  1.00  0.00     0.000 C 
ATOM      6  C   UNL     1     125.195 121.878 113.144  1.00  0.00    -0.025 C 
ENDROOT
BRANCH   1   7
ATOM      7  C   UNL     1     126.793 121.168 115.044  1.00  0.00    -0.032 C 
ATOM      8  C   UNL     1     127.699 120.318 114.119  1.00  0.00     0.011 C 
ATOM      9  C   UNL     1     127.393 122.590 115.145  1.00  0.00     0.011 C 
ATOM     10  C   UNL     1     126.836 120.515 116.448  1.00  0.00     0.011 C 
ENDBRANCH   1   7
BRANCH   4  11
ATOM     11  O   UNL     1     123.748 119.319 111.507  1.00  0.00    -0.389 OA
ATOM     12  H   UNL     1     123.331 119.483 110.621  1.00  0.00     0.211 HD
ENDBRANCH   4  11
TORSDOF 2
ENDMDL
MODEL 5
REMARK VINA RESULT:    -4.549      4.540      6.606
REMARK INTER + INTRA:          -5.160
REMARK INTER:                  -4.943
REMARK INTRA:                  -0.217
REMARK UNBOUND:                -0.213
REMARK SMILES CC(C)(C)[C@H]1C=C[C@@H](O)CC1
REMARK SMILES IDX 5 1 11 2 10 3 8 4 7 5 6 6 2 7 1 8 3 9 4 10 9 11
REMARK H PARENT 9 12
REMARK Flexibility Score: inf
ROOT
ATOM      1  C   UNL     1     113.917 119.872 124.207  1.00  0.00     0.017 C 
ATOM      2  C   UNL     1     112.454 119.740 124.704  1.00  0.00     0.011 C 
ATOM      3  C   UNL     1     112.275 118.489 125.569  1.00  0.00     0.037 C 
ATOM      4  C   UNL     1     113.191 118.522 126.802  1.00  0.00     0.137 C 
ATOM      5  C   UNL     1     114.596 118.967 126.467  1.00  0.00     0.000 C 
ATOM      6  C   UNL     1     114.907 119.633 125.342  1.00  0.00    -0.025 C 
ENDROOT
BRANCH   1   7
ATOM      7  C   UNL     1     114.200 121.217 123.431  1.00  0.00    -0.032 C 
ATOM      8  C   UNL     1     115.676 121.282 122.967  1.00  0.00     0.011 C 
ATOM      9  C   UNL     1     113.290 121.366 122.189  1.00  0.00     0.011 C 
ATOM     10  C   UNL     1     113.962 122.430 124.364  1.00  0.00     0.011 C 
ENDBRANCH   1   7
BRANCH   4  11
ATOM     11  O   UNL     1     112.645 119.330 127.815  1.00  0.00    -0.389 OA
ATOM     12  H   UNL     1     112.922 120.268 127.641  1.00  0.00     0.211 HD
ENDBRANCH   4  11
TORSDOF 2
ENDMDL
MODEL 6
REMARK VINA RESULT:    -4.408     14.435     15.862
REMARK INTER + INTRA:          -5.007
REMARK INTER:                  -4.794
REMARK INTRA:                  -0.213
REMARK UNBOUND:                -0.213
REMARK SMILES CC(C)(C)[C@H]1C=C[C@@H](O)CC1
REMARK SMILES IDX 5 1 11 2 10 3 8 4 7 5 6 6 2 7 1 8 3 9 4 10 9 11
REMARK H PARENT 9 12
REMARK Flexibility Score: inf
ROOT
ATOM      1  C   UNL     1     124.793 120.298 112.744  1.00  0.00     0.017 C 
ATOM      2  C   UNL     1     125.826 119.438 113.517  1.00  0.00     0.011 C 
ATOM      3  C   UNL     1     127.154 120.181 113.679  1.00  0.00     0.037 C 
ATOM      4  C   UNL     1     126.970 121.500 114.446  1.00  0.00     0.137 C 
ATOM      5  C   UNL     1     125.764 122.281 113.975  1.00  0.00     0.000 C 
ATOM      6  C   UNL     1     124.758 121.727 113.277  1.00  0.00    -0.025 C 
ENDROOT
BRANCH   1   7
ATOM      7  C   UNL     1     123.357 119.645 112.670  1.00  0.00    -0.032 C 
ATOM      8  C   UNL     1     122.473 120.382 111.633  1.00  0.00     0.011 C 
ATOM      9  C   UNL     1     123.426 118.150 112.280  1.00  0.00     0.011 C 
ATOM     10  C   UNL     1     122.647 119.765 114.041  1.00  0.00     0.011 C 
ENDBRANCH   1   7
BRANCH   4  11
ATOM     11  O   UNL     1     126.900 121.273 115.832  1.00  0.00    -0.389 OA
ATOM     12  H   UNL     1     127.715 120.774 116.102  1.00  0.00     0.211 HD
ENDBRANCH   4  11
TORSDOF 2
ENDMDL
MODEL 7
REMARK VINA RESULT:    -4.378      2.633      4.500
REMARK INTER + INTRA:          -4.975
REMARK INTER:                  -4.764
REMARK INTRA:                  -0.211
REMARK UNBOUND:                -0.213
REMARK SMILES CC(C)(C)[C@H]1C=C[C@@H](O)CC1
REMARK SMILES IDX 5 1 11 2 10 3 8 4 7 5 6 6 2 7 1 8 3 9 4 10 9 11
REMARK H PARENT 9 12
REMARK Flexibility Score: inf
ROOT
ATOM      1  C   UNL     1     115.469 125.180 123.596  1.00  0.00     0.017 C 
ATOM      2  C   UNL     1     116.814 125.231 122.827  1.00  0.00     0.011 C 
ATOM      3  C   UNL     1     116.924 124.077 121.828  1.00  0.00     0.037 C 
ATOM      4  C   UNL     1     115.788 124.119 120.794  1.00  0.00     0.137 C 
ATOM      5  C   UNL     1     114.442 124.396 121.423  1.00  0.00     0.000 C 
ATOM      6  C   UNL     1     114.301 124.937 122.645  1.00  0.00    -0.025 C 
ENDROOT
BRANCH   1   7
ATOM      7  C   UNL     1     115.233 126.425 124.538  1.00  0.00    -0.032 C 
ATOM      8  C   UNL     1     116.436 127.400 124.469  1.00  0.00     0.011 C 
ATOM      9  C   UNL     1     113.952 127.202 124.154  1.00  0.00     0.011 C 
ATOM     10  C   UNL     1     115.106 125.963 126.011  1.00  0.00     0.011 C 
ENDBRANCH   1   7
BRANCH   4  11
ATOM     11  O   UNL     1     116.062 125.054 119.780  1.00  0.00    -0.389 OA
ATOM     12  H   UNL     1     116.637 124.612 119.103  1.00  0.00     0.211 HD
ENDBRANCH   4  11
TORSDOF 2
ENDMDL
MODEL 8
REMARK VINA RESULT:    -4.355     14.743     15.961
REMARK INTER + INTRA:          -4.950
REMARK INTER:                  -4.738
REMARK INTRA:                  -0.212
REMARK UNBOUND:                -0.213
REMARK SMILES CC(C)(C)[C@H]1C=C[C@@H](O)CC1
REMARK SMILES IDX 5 1 11 2 10 3 8 4 7 5 6 6 2 7 1 8 3 9 4 10 9 11
REMARK H PARENT 9 12
REMARK Flexibility Score: inf
ROOT
ATOM      1  C   UNL     1     124.640 120.918 114.038  1.00  0.00     0.017 C 
ATOM      2  C   UNL     1     123.979 119.588 114.483  1.00  0.00     0.011 C 
ATOM      3  C   UNL     1     122.531 119.499 113.995  1.00  0.00     0.037 C 
ATOM      4  C   UNL     1     122.449 119.576 112.463  1.00  0.00     0.137 C 
ATOM      5  C   UNL     1     123.333 120.659 111.889  1.00  0.00     0.000 C 
ATOM      6  C   UNL     1     124.356 121.207 112.567  1.00  0.00    -0.025 C 
ENDROOT
BRANCH   1   7
ATOM      7  C   UNL     1     126.177 121.006 114.386  1.00  0.00    -0.032 C 
ATOM      8  C   UNL     1     126.654 122.480 114.389  1.00  0.00     0.011 C 
ATOM      9  C   UNL     1     126.488 120.388 115.770  1.00  0.00     0.011 C 
ATOM     10  C   UNL     1     127.009 120.260 113.314  1.00  0.00     0.011 C 
ENDBRANCH   1   7
BRANCH   4  11
ATOM     11  O   UNL     1     122.748 118.332 111.878  1.00  0.00    -0.389 OA
ATOM     12  H   UNL     1     122.886 118.477 110.905  1.00  0.00     0.211 HD
ENDBRANCH   4  11
TORSDOF 2
ENDMDL
MODEL 9
REMARK VINA RESULT:    -4.340     13.742     15.295
REMARK INTER + INTRA:          -4.933
REMARK INTER:                  -4.720
REMARK INTRA:                  -0.213
REMARK UNBOUND:                -0.213
REMARK SMILES CC(C)(C)[C@H]1C=C[C@@H](O)CC1
REMARK SMILES IDX 5 1 11 2 10 3 8 4 7 5 6 6 2 7 1 8 3 9 4 10 9 11
REMARK H PARENT 9 12
REMARK Flexibility Score: inf
ROOT
ATOM      1  C   UNL     1     124.125 119.734 113.198  1.00  0.00     0.017 C 
ATOM      2  C   UNL     1     122.664 119.972 112.733  1.00  0.00     0.011 C 
ATOM      3  C   UNL     1     121.735 118.867 113.242  1.00  0.00     0.037 C 
ATOM      4  C   UNL     1     121.735 118.796 114.777  1.00  0.00     0.137 C 
ATOM      5  C   UNL     1     123.126 118.887 115.361  1.00  0.00     0.000 C 
ATOM      6  C   UNL     1     124.178 119.373 114.679  1.00  0.00    -0.025 C 
ENDROOT
BRANCH   1   7
ATOM      7  C   UNL     1     125.105 120.914 112.827  1.00  0.00    -0.032 C 
ATOM      8  C   UNL     1     125.784 121.482 114.098  1.00  0.00     0.011 C 
ATOM      9  C   UNL     1     126.209 120.458 111.845  1.00  0.00     0.011 C 
ATOM     10  C   UNL     1     124.315 122.077 112.175  1.00  0.00     0.011 C 
ENDBRANCH   1   7
BRANCH   4  11
ATOM     11  O   UNL     1     120.901 119.785 115.329  1.00  0.00    -0.389 OA
ATOM     12  H   UNL     1     120.779 120.496 114.648  1.00  0.00     0.211 HD
ENDBRANCH   4  11
TORSDOF 2
ENDMDL
