MODEL 1
REMARK VINA RESULT:    -4.638      0.000      0.000
REMARK INTER + INTRA:          -7.342
REMARK INTER:                  -6.808
REMARK INTRA:                  -0.534
REMARK UNBOUND:                -0.534
REMARK SMILES O=C([O-])CCCCCCCC(=O)[O-]
REMARK SMILES IDX 7 1 6 2 5 3 4 4 2 5 1 6 3 7 8 8 9 9 10 10 11 11 12 12 13 13
REMARK H PARENT
REMARK Flexibility Score: inf
ROOT
ATOM      1  C   UNL     1     -17.249  34.735  81.983  1.00  0.00     0.000 C 
ENDROOT
BRANCH   1   2
ATOM      2  C   UNL     1     -17.927  34.650  80.607  1.00  0.00     0.000 C 
BRANCH   2   3
ATOM      3  C   UNL     1     -17.848  35.998  79.873  1.00  0.00     0.006 C 
BRANCH   3   4
ATOM      4  C   UNL     1     -19.131  36.824  80.036  1.00  0.00     0.053 C 
BRANCH   4   5
ATOM      5  C   UNL     1     -19.555  37.453  78.744  1.00  0.00     0.041 C 
ATOM      6  O   UNL     1     -20.701  37.966  78.636  1.00  0.00    -0.550 OA
ATOM      7  O   UNL     1     -18.674  37.505  77.672  1.00  0.00    -0.550 OA
ENDBRANCH   4   5
ENDBRANCH   3   4
ENDBRANCH   2   3
ENDBRANCH   1   2
BRANCH   1   8
ATOM      8  C   UNL     1     -16.134  35.793  82.039  1.00  0.00     0.000 C 
BRANCH   8   9
ATOM      9  C   UNL     1     -16.260  36.815  83.187  1.00  0.00     0.006 C 
BRANCH   9  10
ATOM     10  C   UNL     1     -17.583  37.594  83.205  1.00  0.00     0.053 C 
BRANCH  10  11
ATOM     11  C   UNL     1     -18.501  37.116  84.287  1.00  0.00     0.041 C 
ATOM     12  O   UNL     1     -19.600  37.696  84.490  1.00  0.00    -0.550 OA
ATOM     13  O   UNL     1     -18.127  36.049  85.095  1.00  0.00    -0.550 OA
ENDBRANCH  10  11
ENDBRANCH   9  10
ENDBRANCH   8   9
ENDBRANCH   1   8
TORSDOF 8
ENDMDL
MODEL 2
REMARK VINA RESULT:    -4.284      3.679      5.355
REMARK INTER + INTRA:          -6.822
REMARK INTER:                  -6.612
REMARK INTRA:                  -0.210
REMARK UNBOUND:                -0.534
REMARK SMILES O=C([O-])CCCCCCCC(=O)[O-]
REMARK SMILES IDX 7 1 6 2 5 3 4 4 2 5 1 6 3 7 8 8 9 9 10 10 11 11 12 12 13 13
REMARK H PARENT
REMARK Flexibility Score: inf
ROOT
ATOM      1  C   UNL     1     -20.072  38.152  85.353  1.00  0.00     0.000 C 
ENDROOT
BRANCH   1   2
ATOM      2  C   UNL     1     -18.773  37.426  84.972  1.00  0.00     0.000 C 
BRANCH   2   3
ATOM      3  C   UNL     1     -18.648  37.288  83.447  1.00  0.00     0.006 C 
BRANCH   3   4
ATOM      4  C   UNL     1     -17.204  37.474  82.963  1.00  0.00     0.053 C 
BRANCH   4   5
ATOM      5  C   UNL     1     -16.918  36.660  81.738  1.00  0.00     0.041 C 
ATOM      6  O   UNL     1     -16.409  35.513  81.845  1.00  0.00    -0.550 OA
ATOM      7  O   UNL     1     -17.245  37.154  80.482  1.00  0.00    -0.550 OA
ENDBRANCH   4   5
ENDBRANCH   3   4
ENDBRANCH   2   3
ENDBRANCH   1   2
BRANCH   1   8
ATOM      8  C   UNL     1     -19.993  38.844  86.725  1.00  0.00     0.000 C 
BRANCH   8   9
ATOM      9  C   UNL     1     -20.572  38.032  87.901  1.00  0.00     0.006 C 
BRANCH   9  10
ATOM     10  C   UNL     1     -20.093  38.488  89.287  1.00  0.00     0.053 C 
BRANCH  10  11
ATOM     11  C   UNL     1     -18.929  37.680  89.772  1.00  0.00     0.041 C 
ATOM     12  O   UNL     1     -18.749  36.508  89.349  1.00  0.00    -0.550 OA
ATOM     13  O   UNL     1     -18.060  38.211  90.717  1.00  0.00    -0.550 OA
ENDBRANCH  10  11
ENDBRANCH   9  10
ENDBRANCH   8   9
ENDBRANCH   1   8
TORSDOF 8
ENDMDL
MODEL 3
REMARK VINA RESULT:    -4.282      2.675      3.793
REMARK INTER + INTRA:          -6.819
REMARK INTER:                  -6.543
REMARK INTRA:                  -0.276
REMARK UNBOUND:                -0.534
REMARK SMILES O=C([O-])CCCCCCCC(=O)[O-]
REMARK SMILES IDX 7 1 6 2 5 3 4 4 2 5 1 6 3 7 8 8 9 9 10 10 11 11 12 12 13 13
REMARK H PARENT
REMARK Flexibility Score: inf
ROOT
ATOM      1  C   UNL     1     -18.085  36.687  83.896  1.00  0.00     0.000 C 
ENDROOT
BRANCH   1   2
ATOM      2  C   UNL     1     -16.963  37.238  83.004  1.00  0.00     0.000 C 
BRANCH   2   3
ATOM      3  C   UNL     1     -16.457  36.163  82.030  1.00  0.00     0.006 C 
BRANCH   3   4
ATOM      4  C   UNL     1     -17.556  35.163  81.647  1.00  0.00     0.053 C 
BRANCH   4   5
ATOM      5  C   UNL     1     -17.967  35.310  80.213  1.00  0.00     0.041 C 
ATOM      6  O   UNL     1     -17.749  34.380  79.393  1.00  0.00    -0.550 OA
ATOM      7  O   UNL     1     -18.622  36.461  79.792  1.00  0.00    -0.550 OA
ENDBRANCH   4   5
ENDBRANCH   3   4
ENDBRANCH   2   3
ENDBRANCH   1   2
BRANCH   1   8
ATOM      8  C   UNL     1     -19.126  37.754  84.278  1.00  0.00     0.000 C 
BRANCH   8   9
ATOM      9  C   UNL     1     -19.525  37.773  85.768  1.00  0.00     0.006 C 
BRANCH   9  10
ATOM     10  C   UNL     1     -19.909  39.159  86.306  1.00  0.00     0.053 C 
BRANCH  10  11
ATOM     11  C   UNL     1     -20.556  39.078  87.655  1.00  0.00     0.041 C 
ATOM     12  O   UNL     1     -21.219  40.051  88.101  1.00  0.00    -0.550 OA
ATOM     13  O   UNL     1     -20.398  37.939  88.434  1.00  0.00    -0.550 OA
ENDBRANCH  10  11
ENDBRANCH   9  10
ENDBRANCH   8   9
ENDBRANCH   1   8
TORSDOF 8
ENDMDL
MODEL 4
REMARK VINA RESULT:    -4.274     11.838     14.410
REMARK INTER + INTRA:          -6.807
REMARK INTER:                  -6.348
REMARK INTRA:                  -0.459
REMARK UNBOUND:                -0.534
REMARK SMILES O=C([O-])CCCCCCCC(=O)[O-]
REMARK SMILES IDX 7 1 6 2 5 3 4 4 2 5 1 6 3 7 8 8 9 9 10 10 11 11 12 12 13 13
REMARK H PARENT
REMARK Flexibility Score: inf
ROOT
ATOM      1  C   UNL     1     -26.676  46.407  89.255  1.00  0.00     0.000 C 
ENDROOT
BRANCH   1   2
ATOM      2  C   UNL     1     -26.942  45.794  90.638  1.00  0.00     0.000 C 
BRANCH   2   3
ATOM      3  C   UNL     1     -26.150  44.491  90.823  1.00  0.00     0.006 C 
BRANCH   3   4
ATOM      4  C   UNL     1     -26.942  43.436  91.607  1.00  0.00     0.053 C 
BRANCH   4   5
ATOM      5  C   UNL     1     -28.077  42.880  90.802  1.00  0.00     0.041 C 
ATOM      6  O   UNL     1     -29.202  42.694  91.338  1.00  0.00    -0.550 OA
ATOM      7  O   UNL     1     -27.902  42.601  89.453  1.00  0.00    -0.550 OA
ENDBRANCH   4   5
ENDBRANCH   3   4
ENDBRANCH   2   3
ENDBRANCH   1   2
BRANCH   1   8
ATOM      8  C   UNL     1     -25.869  45.477  88.332  1.00  0.00     0.000 C 
BRANCH   8   9
ATOM      9  C   UNL     1     -25.464  46.093  86.977  1.00  0.00     0.006 C 
BRANCH   9  10
ATOM     10  C   UNL     1     -24.158  46.901  87.010  1.00  0.00     0.053 C 
BRANCH  10  11
ATOM     11  C   UNL     1     -23.004  46.124  86.456  1.00  0.00     0.041 C 
ATOM     12  O   UNL     1     -22.588  45.095  87.049  1.00  0.00    -0.550 OA
ATOM     13  O   UNL     1     -22.366  46.557  85.300  1.00  0.00    -0.550 OA
ENDBRANCH  10  11
ENDBRANCH   9  10
ENDBRANCH   8   9
ENDBRANCH   1   8
TORSDOF 8
ENDMDL
MODEL 5
REMARK VINA RESULT:    -4.209     11.441     13.653
REMARK INTER + INTRA:          -6.712
REMARK INTER:                  -6.327
REMARK INTRA:                  -0.385
REMARK UNBOUND:                -0.534
REMARK SMILES O=C([O-])CCCCCCCC(=O)[O-]
REMARK SMILES IDX 7 1 6 2 5 3 4 4 2 5 1 6 3 7 8 8 9 9 10 10 11 11 12 12 13 13
REMARK H PARENT
REMARK Flexibility Score: inf
ROOT
ATOM      1  C   UNL     1     -26.464  46.727  88.506  1.00  0.00     0.000 C 
ENDROOT
BRANCH   1   2
ATOM      2  C   UNL     1     -25.884  45.976  87.299  1.00  0.00     0.000 C 
BRANCH   2   3
ATOM      3  C   UNL     1     -24.540  45.322  87.652  1.00  0.00     0.006 C 
BRANCH   3   4
ATOM      4  C   UNL     1     -23.354  46.035  86.988  1.00  0.00     0.053 C 
BRANCH   4   5
ATOM      5  C   UNL     1     -22.159  45.139  86.873  1.00  0.00     0.041 C 
ATOM      6  O   UNL     1     -22.209  43.958  87.307  1.00  0.00    -0.550 OA
ATOM      7  O   UNL     1     -21.002  45.597  86.256  1.00  0.00    -0.550 OA
ENDBRANCH   4   5
ENDBRANCH   3   4
ENDBRANCH   2   3
ENDBRANCH   1   2
BRANCH   1   8
ATOM      8  C   UNL     1     -26.100  46.074  89.851  1.00  0.00     0.000 C 
BRANCH   8   9
ATOM      9  C   UNL     1     -27.251  45.314  90.542  1.00  0.00     0.006 C 
BRANCH   9  10
ATOM     10  C   UNL     1     -26.964  43.828  90.806  1.00  0.00     0.053 C 
BRANCH  10  11
ATOM     11  C   UNL     1     -28.130  42.960  90.447  1.00  0.00     0.041 C 
ATOM     12  O   UNL     1     -28.967  42.624  91.326  1.00  0.00    -0.550 OA
ATOM     13  O   UNL     1     -28.275  42.493  89.146  1.00  0.00    -0.550 OA
ENDBRANCH  10  11
ENDBRANCH   9  10
ENDBRANCH   8   9
ENDBRANCH   1   8
TORSDOF 8
ENDMDL
MODEL 6
REMARK VINA RESULT:    -4.186      6.306      8.960
REMARK INTER + INTRA:          -6.677
REMARK INTER:                  -6.127
REMARK INTRA:                  -0.550
REMARK UNBOUND:                -0.534
REMARK SMILES O=C([O-])CCCCCCCC(=O)[O-]
REMARK SMILES IDX 7 1 6 2 5 3 4 4 2 5 1 6 3 7 8 8 9 9 10 10 11 11 12 12 13 13
REMARK H PARENT
REMARK Flexibility Score: inf
ROOT
ATOM      1  C   UNL     1     -21.064  42.363  87.778  1.00  0.00     0.000 C 
ENDROOT
BRANCH   1   2
ATOM      2  C   UNL     1     -20.380  41.625  88.939  1.00  0.00     0.000 C 
BRANCH   2   3
ATOM      3  C   UNL     1     -19.494  40.483  88.418  1.00  0.00     0.006 C 
BRANCH   3   4
ATOM      4  C   UNL     1     -19.756  40.173  86.939  1.00  0.00     0.053 C 
BRANCH   4   5
ATOM      5  C   UNL     1     -20.210  38.758  86.738  1.00  0.00     0.041 C 
ATOM      6  O   UNL     1     -20.894  38.182  87.624  1.00  0.00    -0.550 OA
ATOM      7  O   UNL     1     -19.905  38.091  85.559  1.00  0.00    -0.550 OA
ENDBRANCH   4   5
ENDBRANCH   3   4
ENDBRANCH   2   3
ENDBRANCH   1   2
BRANCH   1   8
ATOM      8  C   UNL     1     -20.643  43.839  87.673  1.00  0.00     0.000 C 
BRANCH   8   9
ATOM      9  C   UNL     1     -20.450  44.363  86.235  1.00  0.00     0.006 C 
BRANCH   9  10
ATOM     10  C   UNL     1     -19.336  43.659  85.445  1.00  0.00     0.053 C 
BRANCH  10  11
ATOM     11  C   UNL     1     -18.299  44.624  84.958  1.00  0.00     0.041 C 
ATOM     12  O   UNL     1     -17.330  44.941  85.696  1.00  0.00    -0.550 OA
ATOM     13  O   UNL     1     -18.421  45.198  83.699  1.00  0.00    -0.550 OA
ENDBRANCH  10  11
ENDBRANCH   9  10
ENDBRANCH   8   9
ENDBRANCH   1   8
TORSDOF 8
ENDMDL
MODEL 7
REMARK VINA RESULT:    -4.182     11.364     13.836
REMARK INTER + INTRA:          -6.672
REMARK INTER:                  -6.095
REMARK INTRA:                  -0.576
REMARK UNBOUND:                -0.534
REMARK SMILES O=C([O-])CCCCCCCC(=O)[O-]
REMARK SMILES IDX 7 1 6 2 5 3 4 4 2 5 1 6 3 7 8 8 9 9 10 10 11 11 12 12 13 13
REMARK H PARENT
REMARK Flexibility Score: inf
ROOT
ATOM      1  C   UNL     1     -26.247  46.079  88.380  1.00  0.00     0.000 C 
ENDROOT
BRANCH   1   2
ATOM      2  C   UNL     1     -24.956  45.730  87.625  1.00  0.00     0.000 C 
BRANCH   2   3
ATOM      3  C   UNL     1     -23.718  46.057  88.474  1.00  0.00     0.006 C 
BRANCH   3   4
ATOM      4  C   UNL     1     -22.651  44.958  88.393  1.00  0.00     0.053 C 
BRANCH   4   5
ATOM      5  C   UNL     1     -23.207  43.614  88.756  1.00  0.00     0.041 C 
ATOM      6  O   UNL     1     -23.667  43.410  89.910  1.00  0.00    -0.550 OA
ATOM      7  O   UNL     1     -23.248  42.600  87.808  1.00  0.00    -0.550 OA
ENDBRANCH   4   5
ENDBRANCH   3   4
ENDBRANCH   2   3
ENDBRANCH   1   2
BRANCH   1   8
ATOM      8  C   UNL     1     -26.089  46.002  89.908  1.00  0.00     0.000 C 
BRANCH   8   9
ATOM      9  C   UNL     1     -27.255  45.319  90.653  1.00  0.00     0.006 C 
BRANCH   9  10
ATOM     10  C   UNL     1     -27.017  43.839  90.986  1.00  0.00     0.053 C 
BRANCH  10  11
ATOM     11  C   UNL     1     -28.160  42.975  90.549  1.00  0.00     0.041 C 
ATOM     12  O   UNL     1     -29.021  42.593  91.384  1.00  0.00    -0.550 OA
ATOM     13  O   UNL     1     -28.254  42.564  89.226  1.00  0.00    -0.550 OA
ENDBRANCH  10  11
ENDBRANCH   9  10
ENDBRANCH   8   9
ENDBRANCH   1   8
TORSDOF 8
ENDMDL
MODEL 8
REMARK VINA RESULT:    -4.144      7.222      9.490
REMARK INTER + INTRA:          -6.616
REMARK INTER:                  -6.125
REMARK INTRA:                  -0.492
REMARK UNBOUND:                -0.534
REMARK SMILES O=C([O-])CCCCCCCC(=O)[O-]
REMARK SMILES IDX 7 1 6 2 5 3 4 4 2 5 1 6 3 7 8 8 9 9 10 10 11 11 12 12 13 13
REMARK H PARENT
REMARK Flexibility Score: inf
ROOT
ATOM      1  C   UNL     1     -20.626  38.732  87.934  1.00  0.00     0.000 C 
ENDROOT
BRANCH   1   2
ATOM      2  C   UNL     1     -19.732  37.777  88.739  1.00  0.00     0.000 C 
BRANCH   2   3
ATOM      3  C   UNL     1     -19.741  38.143  90.231  1.00  0.00     0.006 C 
BRANCH   3   4
ATOM      4  C   UNL     1     -18.355  38.568  90.734  1.00  0.00     0.053 C 
BRANCH   4   5
ATOM      5  C   UNL     1     -18.257  40.053  90.908  1.00  0.00     0.041 C 
ATOM      6  O   UNL     1     -17.206  40.568  91.372  1.00  0.00    -0.550 OA
ATOM      7  O   UNL     1     -19.313  40.870  90.524  1.00  0.00    -0.550 OA
ENDBRANCH   4   5
ENDBRANCH   3   4
ENDBRANCH   2   3
ENDBRANCH   1   2
BRANCH   1   8
ATOM      8  C   UNL     1     -19.880  39.427  86.783  1.00  0.00     0.000 C 
BRANCH   8   9
ATOM      9  C   UNL     1     -19.528  40.908  87.032  1.00  0.00     0.006 C 
BRANCH   9  10
ATOM     10  C   UNL     1     -20.706  41.879  86.865  1.00  0.00     0.053 C 
BRANCH  10  11
ATOM     11  C   UNL     1     -20.267  43.207  86.328  1.00  0.00     0.041 C 
ATOM     12  O   UNL     1     -20.916  44.249  86.605  1.00  0.00    -0.550 OA
ATOM     13  O   UNL     1     -19.159  43.287  85.495  1.00  0.00    -0.550 OA
ENDBRANCH  10  11
ENDBRANCH   9  10
ENDBRANCH   8   9
ENDBRANCH   1   8
TORSDOF 8
ENDMDL
MODEL 9
REMARK VINA RESULT:    -4.128      3.339      6.938
REMARK INTER + INTRA:          -6.592
REMARK INTER:                  -6.479
REMARK INTRA:                  -0.113
REMARK UNBOUND:                -0.534
REMARK SMILES O=C([O-])CCCCCCCC(=O)[O-]
REMARK SMILES IDX 7 1 6 2 5 3 4 4 2 5 1 6 3 7 8 8 9 9 10 10 11 11 12 12 13 13
REMARK H PARENT
REMARK Flexibility Score: inf
ROOT
ATOM      1  C   UNL     1     -18.682  37.346  84.616  1.00  0.00     0.000 C 
ENDROOT
BRANCH   1   2
ATOM      2  C   UNL     1     -19.914  38.101  85.136  1.00  0.00     0.000 C 
BRANCH   2   3
ATOM      3  C   UNL     1     -19.886  38.210  86.668  1.00  0.00     0.006 C 
BRANCH   3   4
ATOM      4  C   UNL     1     -19.890  39.667  87.147  1.00  0.00     0.053 C 
BRANCH   4   5
ATOM      5  C   UNL     1     -19.490  39.781  88.587  1.00  0.00     0.041 C 
ATOM      6  O   UNL     1     -19.064  38.771  89.207  1.00  0.00    -0.550 OA
ATOM      7  O   UNL     1     -19.554  41.010  89.232  1.00  0.00    -0.550 OA
ENDBRANCH   4   5
ENDBRANCH   3   4
ENDBRANCH   2   3
ENDBRANCH   1   2
BRANCH   1   8
ATOM      8  C   UNL     1     -18.774  37.005  83.119  1.00  0.00     0.000 C 
BRANCH   8   9
ATOM      9  C   UNL     1     -17.430  37.015  82.362  1.00  0.00     0.006 C 
BRANCH   9  10
ATOM     10  C   UNL     1     -17.534  36.653  80.873  1.00  0.00     0.053 C 
BRANCH  10  11
ATOM     11  C   UNL     1     -17.542  35.171  80.656  1.00  0.00     0.041 C 
ATOM     12  O   UNL     1     -17.294  34.389  81.610  1.00  0.00    -0.550 OA
ATOM     13  O   UNL     1     -17.789  34.656  79.390  1.00  0.00    -0.550 OA
ENDBRANCH  10  11
ENDBRANCH   9  10
ENDBRANCH   8   9
ENDBRANCH   1   8
TORSDOF 8
ENDMDL
