MODEL 1
REMARK VINA RESULT:    -5.561      0.000      0.000
REMARK INTER + INTRA:          -6.704
REMARK INTER:                  -6.536
REMARK INTRA:                  -0.168
REMARK UNBOUND:                -0.168
REMARK SMILES COc1ccc(C=CC(=O)[O-])cc1
REMARK SMILES IDX 6 1 5 2 12 3 4 4 13 5 3 6 7 7 8 8 9 9 10 10 11 11 2 12 1 13
REMARK H PARENT
REMARK Flexibility Score: inf
ROOT
ATOM      1  C   UNL     1     -33.016  14.578  53.343  1.00  0.00    -0.025 A 
ATOM      2  C   UNL     1     -34.338  15.006  53.144  1.00  0.00     0.012 A 
ATOM      3  C   UNL     1     -32.039  14.929  52.392  1.00  0.00     0.012 A 
ATOM      4  C   UNL     1     -34.673  15.790  52.037  1.00  0.00     0.047 A 
ATOM      5  C   UNL     1     -32.376  15.713  51.284  1.00  0.00     0.047 A 
ATOM      6  C   UNL     1     -33.700  16.153  51.101  1.00  0.00     0.118 A 
ENDROOT
BRANCH   1   7
ATOM      7  C   UNL     1     -32.712  13.739  54.529  1.00  0.00     0.010 C 
ATOM      8  C   UNL     1     -33.094  12.460  54.654  1.00  0.00     0.025 C 
BRANCH   8   9
ATOM      9  C   UNL     1     -32.761  11.662  55.845  1.00  0.00     0.064 C 
ATOM     10  O   UNL     1     -31.740  11.950  56.521  1.00  0.00    -0.545 OA
ATOM     11  O   UNL     1     -33.557  10.590  56.234  1.00  0.00    -0.545 OA
ENDBRANCH   8   9
ENDBRANCH   1   7
BRANCH   6  12
ATOM     12  O   UNL     1     -34.087  16.942  50.006  1.00  0.00    -0.497 OA
ATOM     13  C   UNL     1     -35.358  16.865  49.370  1.00  0.00     0.278 C 
ENDBRANCH   6  12
TORSDOF 3
ENDMDL
MODEL 2
REMARK VINA RESULT:    -5.513      0.178      1.349
REMARK INTER + INTRA:          -6.648
REMARK INTER:                  -6.491
REMARK INTRA:                  -0.157
REMARK UNBOUND:                -0.168
REMARK SMILES COc1ccc(C=CC(=O)[O-])cc1
REMARK SMILES IDX 6 1 5 2 12 3 4 4 13 5 3 6 7 7 8 8 9 9 10 10 11 11 2 12 1 13
REMARK H PARENT
REMARK Flexibility Score: inf
ROOT
ATOM      1  C   UNL     1     -33.131  14.446  53.380  1.00  0.00    -0.025 A 
ATOM      2  C   UNL     1     -32.189  14.711  52.373  1.00  0.00     0.012 A 
ATOM      3  C   UNL     1     -34.414  15.016  53.275  1.00  0.00     0.012 A 
ATOM      4  C   UNL     1     -32.527  15.504  51.274  1.00  0.00     0.047 A 
ATOM      5  C   UNL     1     -34.750  15.810  52.174  1.00  0.00     0.047 A 
ATOM      6  C   UNL     1     -33.806  16.056  51.161  1.00  0.00     0.118 A 
ENDROOT
BRANCH   1   7
ATOM      7  C   UNL     1     -32.721  13.606  54.533  1.00  0.00     0.010 C 
ATOM      8  C   UNL     1     -33.129  12.343  54.717  1.00  0.00     0.025 C 
BRANCH   8   9
ATOM      9  C   UNL     1     -32.688  11.542  55.870  1.00  0.00     0.064 C 
ATOM     10  O   UNL     1     -31.698  11.922  56.548  1.00  0.00    -0.545 OA
ATOM     11  O   UNL     1     -33.346  10.369  56.223  1.00  0.00    -0.545 OA
ENDBRANCH   8   9
ENDBRANCH   1   7
BRANCH   6  12
ATOM     12  O   UNL     1     -34.095  16.846  50.037  1.00  0.00    -0.497 OA
ATOM     13  C   UNL     1     -35.328  16.810  49.326  1.00  0.00     0.278 C 
ENDBRANCH   6  12
TORSDOF 3
ENDMDL
MODEL 3
REMARK VINA RESULT:    -5.413      9.679     12.118
REMARK INTER + INTRA:          -6.531
REMARK INTER:                  -6.361
REMARK INTRA:                  -0.170
REMARK UNBOUND:                -0.168
REMARK SMILES COc1ccc(C=CC(=O)[O-])cc1
REMARK SMILES IDX 6 1 5 2 12 3 4 4 13 5 3 6 7 7 8 8 9 9 10 10 11 11 2 12 1 13
REMARK H PARENT
REMARK Flexibility Score: inf
ROOT
ATOM      1  C   UNL     1     -28.242   7.015  58.351  1.00  0.00    -0.025 A 
ATOM      2  C   UNL     1     -27.902   6.518  59.619  1.00  0.00     0.012 A 
ATOM      3  C   UNL     1     -28.899   6.163  57.442  1.00  0.00     0.012 A 
ATOM      4  C   UNL     1     -28.234   5.210  59.983  1.00  0.00     0.047 A 
ATOM      5  C   UNL     1     -29.229   4.855  57.808  1.00  0.00     0.047 A 
ATOM      6  C   UNL     1     -28.901   4.370  59.087  1.00  0.00     0.118 A 
ENDROOT
BRANCH   1   7
ATOM      7  C   UNL     1     -27.859   8.408  58.008  1.00  0.00     0.010 C 
ATOM      8  C   UNL     1     -26.728   8.993  58.425  1.00  0.00     0.025 C 
BRANCH   8   9
ATOM      9  C   UNL     1     -26.383  10.374  58.051  1.00  0.00     0.064 C 
ATOM     10  O   UNL     1     -26.993  10.932  57.102  1.00  0.00    -0.545 OA
ATOM     11  O   UNL     1     -25.391  11.073  58.729  1.00  0.00    -0.545 OA
ENDBRANCH   8   9
ENDBRANCH   1   7
BRANCH   6  12
ATOM     12  O   UNL     1     -29.211   3.065  59.500  1.00  0.00    -0.497 OA
ATOM     13  C   UNL     1     -30.400   2.704  60.196  1.00  0.00     0.278 C 
ENDBRANCH   6  12
TORSDOF 3
ENDMDL
MODEL 4
REMARK VINA RESULT:    -5.311      3.332      4.383
REMARK INTER + INTRA:          -6.410
REMARK INTER:                  -6.233
REMARK INTRA:                  -0.177
REMARK UNBOUND:                -0.168
REMARK SMILES COc1ccc(C=CC(=O)[O-])cc1
REMARK SMILES IDX 6 1 5 2 12 3 4 4 13 5 3 6 7 7 8 8 9 9 10 10 11 11 2 12 1 13
REMARK H PARENT
REMARK Flexibility Score: inf
ROOT
ATOM      1  C   UNL     1     -32.318  15.317  52.268  1.00  0.00    -0.025 A 
ATOM      2  C   UNL     1     -32.761  15.759  51.012  1.00  0.00     0.012 A 
ATOM      3  C   UNL     1     -33.275  14.982  53.246  1.00  0.00     0.012 A 
ATOM      4  C   UNL     1     -34.126  15.839  50.726  1.00  0.00     0.047 A 
ATOM      5  C   UNL     1     -34.641  15.064  52.958  1.00  0.00     0.047 A 
ATOM      6  C   UNL     1     -35.076  15.491  51.690  1.00  0.00     0.118 A 
ENDROOT
BRANCH   1   7
ATOM      7  C   UNL     1     -30.857  15.259  52.526  1.00  0.00     0.010 C 
ATOM      8  C   UNL     1     -29.982  16.160  52.059  1.00  0.00     0.025 C 
BRANCH   8   9
ATOM      9  C   UNL     1     -28.542  16.069  52.349  1.00  0.00     0.064 C 
ATOM     10  O   UNL     1     -27.932  17.079  52.787  1.00  0.00    -0.545 OA
ATOM     11  O   UNL     1     -27.843  14.885  52.144  1.00  0.00    -0.545 OA
ENDBRANCH   8   9
ENDBRANCH   1   7
BRANCH   6  12
ATOM     12  O   UNL     1     -36.436  15.588  51.354  1.00  0.00    -0.497 OA
ATOM     13  C   UNL     1     -36.933  16.265  50.205  1.00  0.00     0.278 C 
ENDBRANCH   6  12
TORSDOF 3
ENDMDL
MODEL 5
REMARK VINA RESULT:    -5.267      3.326      4.321
REMARK INTER + INTRA:          -6.359
REMARK INTER:                  -6.199
REMARK INTRA:                  -0.160
REMARK UNBOUND:                -0.168
REMARK SMILES COc1ccc(C=CC(=O)[O-])cc1
REMARK SMILES IDX 6 1 5 2 12 3 4 4 13 5 3 6 7 7 8 8 9 9 10 10 11 11 2 12 1 13
REMARK H PARENT
REMARK Flexibility Score: inf
ROOT
ATOM      1  C   UNL     1     -32.328  15.362  52.144  1.00  0.00    -0.025 A 
ATOM      2  C   UNL     1     -33.234  14.985  53.148  1.00  0.00     0.012 A 
ATOM      3  C   UNL     1     -32.832  15.743  50.885  1.00  0.00     0.012 A 
ATOM      4  C   UNL     1     -34.611  15.014  52.912  1.00  0.00     0.047 A 
ATOM      5  C   UNL     1     -34.210  15.770  50.650  1.00  0.00     0.047 A 
ATOM      6  C   UNL     1     -35.111  15.408  51.668  1.00  0.00     0.118 A 
ENDROOT
BRANCH   1   7
ATOM      7  C   UNL     1     -30.875  15.305  52.440  1.00  0.00     0.010 C 
ATOM      8  C   UNL     1     -30.013  16.285  52.135  1.00  0.00     0.025 C 
BRANCH   8   9
ATOM      9  C   UNL     1     -28.581  16.191  52.458  1.00  0.00     0.064 C 
ATOM     10  O   UNL     1     -27.965  17.213  52.859  1.00  0.00    -0.545 OA
ATOM     11  O   UNL     1     -27.893  14.990  52.324  1.00  0.00    -0.545 OA
ENDBRANCH   8   9
ENDBRANCH   1   7
BRANCH   6  12
ATOM     12  O   UNL     1     -36.502  15.420  51.481  1.00  0.00    -0.497 OA
ATOM     13  C   UNL     1     -37.158  16.017  50.367  1.00  0.00     0.278 C 
ENDBRANCH   6  12
TORSDOF 3
ENDMDL
MODEL 6
REMARK VINA RESULT:    -5.250      2.178      5.998
REMARK INTER + INTRA:          -6.338
REMARK INTER:                  -6.163
REMARK INTRA:                  -0.175
REMARK UNBOUND:                -0.168
REMARK SMILES COc1ccc(C=CC(=O)[O-])cc1
REMARK SMILES IDX 6 1 5 2 12 3 4 4 13 5 3 6 7 7 8 8 9 9 10 10 11 11 2 12 1 13
REMARK H PARENT
REMARK Flexibility Score: inf
ROOT
ATOM      1  C   UNL     1     -32.504  15.519  51.967  1.00  0.00    -0.025 A 
ATOM      2  C   UNL     1     -32.915  14.578  52.924  1.00  0.00     0.012 A 
ATOM      3  C   UNL     1     -31.127  15.767  51.807  1.00  0.00     0.012 A 
ATOM      4  C   UNL     1     -31.974  13.880  53.685  1.00  0.00     0.047 A 
ATOM      5  C   UNL     1     -30.187  15.068  52.571  1.00  0.00     0.047 A 
ATOM      6  C   UNL     1     -30.607  14.114  53.516  1.00  0.00     0.118 A 
ENDROOT
BRANCH   1   7
ATOM      7  C   UNL     1     -33.542  16.242  51.190  1.00  0.00     0.010 C 
ATOM      8  C   UNL     1     -34.753  15.738  50.916  1.00  0.00     0.025 C 
BRANCH   8   9
ATOM      9  C   UNL     1     -35.757  16.495  50.151  1.00  0.00     0.064 C 
ATOM     10  O   UNL     1     -35.397  17.171  49.152  1.00  0.00    -0.545 OA
ATOM     11  O   UNL     1     -37.098  16.477  50.515  1.00  0.00    -0.545 OA
ENDBRANCH   8   9
ENDBRANCH   1   7
BRANCH   6  12
ATOM     12  O   UNL     1     -29.702  13.387  54.305  1.00  0.00    -0.497 OA
ATOM     13  C   UNL     1     -28.294  13.603  54.319  1.00  0.00     0.278 C 
ENDBRANCH   6  12
TORSDOF 3
ENDMDL
MODEL 7
REMARK VINA RESULT:    -5.246      1.942      6.172
REMARK INTER + INTRA:          -6.333
REMARK INTER:                  -6.182
REMARK INTRA:                  -0.152
REMARK UNBOUND:                -0.168
REMARK SMILES COc1ccc(C=CC(=O)[O-])cc1
REMARK SMILES IDX 6 1 5 2 12 3 4 4 13 5 3 6 7 7 8 8 9 9 10 10 11 11 2 12 1 13
REMARK H PARENT
REMARK Flexibility Score: inf
ROOT
ATOM      1  C   UNL     1     -32.922  15.383  52.411  1.00  0.00    -0.025 A 
ATOM      2  C   UNL     1     -31.564  15.435  52.058  1.00  0.00     0.012 A 
ATOM      3  C   UNL     1     -33.317  14.541  53.468  1.00  0.00     0.012 A 
ATOM      4  C   UNL     1     -30.618  14.684  52.761  1.00  0.00     0.047 A 
ATOM      5  C   UNL     1     -32.368  13.790  54.169  1.00  0.00     0.047 A 
ATOM      6  C   UNL     1     -31.007  13.860  53.820  1.00  0.00     0.118 A 
ENDROOT
BRANCH   1   7
ATOM      7  C   UNL     1     -33.890  16.192  51.628  1.00  0.00     0.010 C 
ATOM      8  C   UNL     1     -34.875  15.664  50.889  1.00  0.00     0.025 C 
BRANCH   8   9
ATOM      9  C   UNL     1     -35.820  16.504  50.137  1.00  0.00     0.064 C 
ATOM     10  O   UNL     1     -37.032  16.532  50.474  1.00  0.00    -0.545 OA
ATOM     11  O   UNL     1     -35.396  17.269  49.056  1.00  0.00    -0.545 OA
ENDBRANCH   8   9
ENDBRANCH   1   7
BRANCH   6  12
ATOM     12  O   UNL     1     -30.018  13.126  54.494  1.00  0.00    -0.497 OA
ATOM     13  C   UNL     1     -29.251  13.624  55.585  1.00  0.00     0.278 C 
ENDBRANCH   6  12
TORSDOF 3
ENDMDL
MODEL 8
REMARK VINA RESULT:    -5.178      6.830      7.302
REMARK INTER + INTRA:          -6.254
REMARK INTER:                  -6.090
REMARK INTRA:                  -0.164
REMARK UNBOUND:                -0.168
REMARK SMILES COc1ccc(C=CC(=O)[O-])cc1
REMARK SMILES IDX 6 1 5 2 12 3 4 4 13 5 3 6 7 7 8 8 9 9 10 10 11 11 2 12 1 13
REMARK H PARENT
REMARK Flexibility Score: inf
ROOT
ATOM      1  C   UNL     1     -26.892  15.576  55.773  1.00  0.00    -0.025 A 
ATOM      2  C   UNL     1     -26.445  14.558  54.916  1.00  0.00     0.012 A 
ATOM      3  C   UNL     1     -27.425  16.751  55.210  1.00  0.00     0.012 A 
ATOM      4  C   UNL     1     -26.553  14.696  53.530  1.00  0.00     0.047 A 
ATOM      5  C   UNL     1     -27.531  16.888  53.822  1.00  0.00     0.047 A 
ATOM      6  C   UNL     1     -27.097  15.856  52.971  1.00  0.00     0.118 A 
ENDROOT
BRANCH   1   7
ATOM      7  C   UNL     1     -26.747  15.385  57.238  1.00  0.00     0.010 C 
ATOM      8  C   UNL     1     -27.663  15.778  58.135  1.00  0.00     0.025 C 
BRANCH   8   9
ATOM      9  C   UNL     1     -27.483  15.558  59.578  1.00  0.00     0.064 C 
ATOM     10  O   UNL     1     -26.883  14.527  59.980  1.00  0.00    -0.545 OA
ATOM     11  O   UNL     1     -27.967  16.471  60.508  1.00  0.00    -0.545 OA
ENDBRANCH   8   9
ENDBRANCH   1   7
BRANCH   6  12
ATOM     12  O   UNL     1     -27.183  15.947  51.573  1.00  0.00    -0.497 OA
ATOM     13  C   UNL     1     -27.349  14.832  50.704  1.00  0.00     0.278 C 
ENDBRANCH   6  12
TORSDOF 3
ENDMDL
MODEL 9
REMARK VINA RESULT:    -5.075      2.078      2.822
REMARK INTER + INTRA:          -6.133
REMARK INTER:                  -5.961
REMARK INTRA:                  -0.172
REMARK UNBOUND:                -0.168
REMARK SMILES COc1ccc(C=CC(=O)[O-])cc1
REMARK SMILES IDX 6 1 5 2 12 3 4 4 13 5 3 6 7 7 8 8 9 9 10 10 11 11 2 12 1 13
REMARK H PARENT
REMARK Flexibility Score: inf
ROOT
ATOM      1  C   UNL     1     -32.393  14.386  53.233  1.00  0.00    -0.025 A 
ATOM      2  C   UNL     1     -32.050  15.018  52.027  1.00  0.00     0.012 A 
ATOM      3  C   UNL     1     -33.691  14.568  53.749  1.00  0.00     0.012 A 
ATOM      4  C   UNL     1     -32.988  15.790  51.337  1.00  0.00     0.047 A 
ATOM      5  C   UNL     1     -34.628  15.342  53.057  1.00  0.00     0.047 A 
ATOM      6  C   UNL     1     -34.281  15.957  51.840  1.00  0.00     0.118 A 
ENDROOT
BRANCH   1   7
ATOM      7  C   UNL     1     -31.359  13.584  53.934  1.00  0.00     0.010 C 
ATOM      8  C   UNL     1     -30.048  13.859  53.891  1.00  0.00     0.025 C 
BRANCH   8   9
ATOM      9  C   UNL     1     -29.058  13.042  54.610  1.00  0.00     0.064 C 
ATOM     10  O   UNL     1     -28.221  12.364  53.960  1.00  0.00    -0.545 OA
ATOM     11  O   UNL     1     -29.033  13.006  56.000  1.00  0.00    -0.545 OA
ENDBRANCH   8   9
ENDBRANCH   1   7
BRANCH   6  12
ATOM     12  O   UNL     1     -35.186  16.743  51.109  1.00  0.00    -0.497 OA
ATOM     13  C   UNL     1     -35.465  16.569  49.724  1.00  0.00     0.278 C 
ENDBRANCH   6  12
TORSDOF 3
ENDMDL
