MODEL 1
REMARK VINA RESULT:    -5.845      0.000      0.000
REMARK INTER + INTRA:          -6.483
REMARK INTER:                  -6.357
REMARK INTRA:                  -0.125
REMARK UNBOUND:                -0.125
REMARK SMILES Cc1ccc(C(C)C)cc1O
REMARK SMILES IDX 1 1 2 2 10 3 9 4 5 5 4 6 3 7 11 8 6 10 7 11 8 12
REMARK H PARENT 11 9
REMARK Flexibility Score: inf
ROOT
ATOM      1  C   UNL     1      35.892  -1.239 102.183  1.00  0.00     0.048 C 
ATOM      2  C   UNL     1      36.658   0.024 102.465  1.00  0.00    -0.009 A 
ATOM      3  C   UNL     1      36.385   1.217 101.760  1.00  0.00     0.118 A 
ATOM      4  C   UNL     1      37.116   2.376 102.047  1.00  0.00     0.050 A 
ATOM      5  C   UNL     1      38.123   2.371 103.029  1.00  0.00    -0.042 A 
ATOM      6  C   UNL     1      38.388   1.181 103.723  1.00  0.00     0.004 A 
ATOM      7  C   UNL     1      37.663   0.020 103.444  1.00  0.00     0.007 A 
ENDROOT
BRANCH   3   8
ATOM      8  O   UNL     1      35.398   1.285 100.775  1.00  0.00    -0.508 OA
ATOM      9  H   UNL     1      35.580   1.094  99.798  1.00  0.00     0.293 HD
ENDBRANCH   3   8
BRANCH   5  10
ATOM     10  C   UNL     1      38.919   3.626 103.342  1.00  0.00     0.013 C 
ATOM     11  C   UNL     1      39.326   3.667 104.819  1.00  0.00     0.012 C 
ATOM     12  C   UNL     1      38.141   4.886 102.948  1.00  0.00     0.012 C 
ENDBRANCH   5  10
TORSDOF 2
ENDMDL
MODEL 2
REMARK VINA RESULT:    -5.834      2.497      4.840
REMARK INTER + INTRA:          -6.471
REMARK INTER:                  -6.344
REMARK INTRA:                  -0.127
REMARK UNBOUND:                -0.125
REMARK SMILES Cc1ccc(C(C)C)cc1O
REMARK SMILES IDX 1 1 2 2 10 3 9 4 5 5 4 6 3 7 11 8 6 10 7 11 8 12
REMARK H PARENT 11 9
REMARK Flexibility Score: inf
ROOT
ATOM      1  C   UNL     1      38.926   5.602 102.968  1.00  0.00     0.048 C 
ATOM      2  C   UNL     1      38.740   4.173 103.396  1.00  0.00    -0.009 A 
ATOM      3  C   UNL     1      39.292   3.693 104.604  1.00  0.00     0.118 A 
ATOM      4  C   UNL     1      39.100   2.356 104.974  1.00  0.00     0.050 A 
ATOM      5  C   UNL     1      38.364   1.479 104.158  1.00  0.00    -0.042 A 
ATOM      6  C   UNL     1      37.819   1.964 102.959  1.00  0.00     0.004 A 
ATOM      7  C   UNL     1      38.006   3.296 102.582  1.00  0.00     0.007 A 
ENDROOT
BRANCH   3   8
ATOM      8  O   UNL     1      40.033   4.515 105.457  1.00  0.00    -0.508 OA
ATOM      9  H   UNL     1      40.281   4.249 106.401  1.00  0.00     0.293 HD
ENDBRANCH   3   8
BRANCH   5  10
ATOM     10  C   UNL     1      38.154   0.029 104.555  1.00  0.00     0.013 C 
ATOM     11  C   UNL     1      37.007  -0.602 103.757  1.00  0.00     0.012 C 
ATOM     12  C   UNL     1      37.914  -0.102 106.064  1.00  0.00     0.012 C 
ENDBRANCH   5  10
TORSDOF 2
ENDMDL
MODEL 3
REMARK VINA RESULT:    -5.795      4.129      5.469
REMARK INTER + INTRA:          -6.429
REMARK INTER:                  -6.302
REMARK INTRA:                  -0.127
REMARK UNBOUND:                -0.125
REMARK SMILES Cc1ccc(C(C)C)cc1O
REMARK SMILES IDX 1 1 2 2 10 3 9 4 5 5 4 6 3 7 11 8 6 10 7 11 8 12
REMARK H PARENT 11 9
REMARK Flexibility Score: inf
ROOT
ATOM      1  C   UNL     1      38.294   0.995 109.849  1.00  0.00     0.048 C 
ATOM      2  C   UNL     1      38.608   1.396 108.434  1.00  0.00    -0.009 A 
ATOM      3  C   UNL     1      39.262   2.615 108.147  1.00  0.00     0.118 A 
ATOM      4  C   UNL     1      39.540   2.959 106.819  1.00  0.00     0.050 A 
ATOM      5  C   UNL     1      39.178   2.108 105.760  1.00  0.00    -0.042 A 
ATOM      6  C   UNL     1      38.528   0.899 106.054  1.00  0.00     0.004 A 
ATOM      7  C   UNL     1      38.246   0.548 107.376  1.00  0.00     0.007 A 
ENDROOT
BRANCH   3   8
ATOM      8  O   UNL     1      39.647   3.503 109.155  1.00  0.00    -0.508 OA
ATOM      9  H   UNL     1      39.360   4.473 109.174  1.00  0.00     0.293 HD
ENDBRANCH   3   8
BRANCH   5  10
ATOM     10  C   UNL     1      39.478   2.477 104.319  1.00  0.00     0.013 C 
ATOM     11  C   UNL     1      39.184   3.958 104.056  1.00  0.00     0.012 C 
ATOM     12  C   UNL     1      38.705   1.580 103.346  1.00  0.00     0.012 C 
ENDBRANCH   5  10
TORSDOF 2
ENDMDL
MODEL 4
REMARK VINA RESULT:    -5.766      2.802      4.691
REMARK INTER + INTRA:          -6.397
REMARK INTER:                  -6.269
REMARK INTRA:                  -0.128
REMARK UNBOUND:                -0.125
REMARK SMILES Cc1ccc(C(C)C)cc1O
REMARK SMILES IDX 1 1 2 2 10 3 9 4 5 5 4 6 3 7 11 8 6 10 7 11 8 12
REMARK H PARENT 11 9
REMARK Flexibility Score: inf
ROOT
ATOM      1  C   UNL     1      39.568   2.492 107.869  1.00  0.00     0.048 C 
ATOM      2  C   UNL     1      39.205   2.213 106.436  1.00  0.00    -0.009 A 
ATOM      3  C   UNL     1      39.507   3.137 105.412  1.00  0.00     0.118 A 
ATOM      4  C   UNL     1      39.156   2.846 104.088  1.00  0.00     0.050 A 
ATOM      5  C   UNL     1      38.504   1.644 103.760  1.00  0.00    -0.042 A 
ATOM      6  C   UNL     1      38.208   0.731 104.784  1.00  0.00     0.004 A 
ATOM      7  C   UNL     1      38.554   1.013 106.108  1.00  0.00     0.007 A 
ENDROOT
BRANCH   3   8
ATOM      8  O   UNL     1      40.153   4.348 105.674  1.00  0.00    -0.508 OA
ATOM      9  H   UNL     1      41.094   4.402 106.041  1.00  0.00     0.293 HD
ENDBRANCH   3   8
BRANCH   5  10
ATOM     10  C   UNL     1      38.122   1.325 102.326  1.00  0.00     0.013 C 
ATOM     11  C   UNL     1      36.600   1.240 102.166  1.00  0.00     0.012 C 
ATOM     12  C   UNL     1      38.801   0.038 101.845  1.00  0.00     0.012 C 
ENDBRANCH   5  10
TORSDOF 2
ENDMDL
MODEL 5
REMARK VINA RESULT:    -5.709      9.778     11.760
REMARK INTER + INTRA:          -6.336
REMARK INTER:                  -6.211
REMARK INTRA:                  -0.125
REMARK UNBOUND:                -0.125
REMARK SMILES Cc1ccc(C(C)C)cc1O
REMARK SMILES IDX 1 1 2 2 10 3 9 4 5 5 4 6 3 7 11 8 6 10 7 11 8 12
REMARK H PARENT 11 9
REMARK Flexibility Score: inf
ROOT
ATOM      1  C   UNL     1      35.174  -4.099 109.730  1.00  0.00     0.048 C 
ATOM      2  C   UNL     1      35.696  -5.453 109.335  1.00  0.00    -0.009 A 
ATOM      3  C   UNL     1      35.205  -6.631 109.940  1.00  0.00     0.118 A 
ATOM      4  C   UNL     1      35.711  -7.876 109.549  1.00  0.00     0.050 A 
ATOM      5  C   UNL     1      36.705  -7.974 108.558  1.00  0.00    -0.042 A 
ATOM      6  C   UNL     1      37.187  -6.798 107.963  1.00  0.00     0.004 A 
ATOM      7  C   UNL     1      36.688  -5.551 108.347  1.00  0.00     0.007 A 
ENDROOT
BRANCH   3   8
ATOM      8  O   UNL     1      34.219  -6.599 110.929  1.00  0.00    -0.508 OA
ATOM      9  H   UNL     1      33.455  -5.935 110.924  1.00  0.00     0.293 HD
ENDBRANCH   3   8
BRANCH   5  10
ATOM     10  C   UNL     1      37.257  -9.322 108.132  1.00  0.00     0.013 C 
ATOM     11  C   UNL     1      37.558  -9.345 106.629  1.00  0.00     0.012 C 
ATOM     12  C   UNL     1      36.305 -10.458 108.522  1.00  0.00     0.012 C 
ENDBRANCH   5  10
TORSDOF 2
ENDMDL
MODEL 6
REMARK VINA RESULT:    -5.693      5.588      6.815
REMARK INTER + INTRA:          -6.317
REMARK INTER:                  -6.190
REMARK INTRA:                  -0.128
REMARK UNBOUND:                -0.125
REMARK SMILES Cc1ccc(C(C)C)cc1O
REMARK SMILES IDX 1 1 2 2 10 3 9 4 5 5 4 6 3 7 11 8 6 10 7 11 8 12
REMARK H PARENT 11 9
REMARK Flexibility Score: inf
ROOT
ATOM      1  C   UNL     1      38.503   1.125 105.247  1.00  0.00     0.048 C 
ATOM      2  C   UNL     1      38.557   1.082 106.750  1.00  0.00    -0.009 A 
ATOM      3  C   UNL     1      39.296   2.037 107.482  1.00  0.00     0.118 A 
ATOM      4  C   UNL     1      39.326   1.970 108.880  1.00  0.00     0.050 A 
ATOM      5  C   UNL     1      38.630   0.961 109.571  1.00  0.00    -0.042 A 
ATOM      6  C   UNL     1      37.899   0.016 108.835  1.00  0.00     0.004 A 
ATOM      7  C   UNL     1      37.864   0.076 107.440  1.00  0.00     0.007 A 
ENDROOT
BRANCH   3   8
ATOM      8  O   UNL     1      40.008   3.062 106.854  1.00  0.00    -0.508 OA
ATOM      9  H   UNL     1      40.227   3.939 107.309  1.00  0.00     0.293 HD
ENDBRANCH   3   8
BRANCH   5  10
ATOM     10  C   UNL     1      38.661   0.884 111.086  1.00  0.00     0.013 C 
ATOM     11  C   UNL     1      39.532  -0.284 111.562  1.00  0.00     0.012 C 
ATOM     12  C   UNL     1      37.244   0.788 111.664  1.00  0.00     0.012 C 
ENDBRANCH   5  10
TORSDOF 2
ENDMDL
MODEL 7
REMARK VINA RESULT:    -5.688      8.689     10.489
REMARK INTER + INTRA:          -6.312
REMARK INTER:                  -6.185
REMARK INTRA:                  -0.128
REMARK UNBOUND:                -0.125
REMARK SMILES Cc1ccc(C(C)C)cc1O
REMARK SMILES IDX 1 1 2 2 10 3 9 4 5 5 4 6 3 7 11 8 6 10 7 11 8 12
REMARK H PARENT 11 9
REMARK Flexibility Score: inf
ROOT
ATOM      1  C   UNL     1      37.415  -6.458 101.991  1.00  0.00     0.048 C 
ATOM      2  C   UNL     1      37.510  -7.022 103.382  1.00  0.00    -0.009 A 
ATOM      3  C   UNL     1      37.807  -8.385 103.599  1.00  0.00     0.118 A 
ATOM      4  C   UNL     1      37.888  -8.879 104.907  1.00  0.00     0.050 A 
ATOM      5  C   UNL     1      37.678  -8.036 106.013  1.00  0.00    -0.042 A 
ATOM      6  C   UNL     1      37.383  -6.682 105.787  1.00  0.00     0.004 A 
ATOM      7  C   UNL     1      37.300  -6.181 104.486  1.00  0.00     0.007 A 
ENDROOT
BRANCH   3   8
ATOM      8  O   UNL     1      38.026  -9.272 102.543  1.00  0.00    -0.508 OA
ATOM      9  H   UNL     1      37.618  -9.148 101.625  1.00  0.00     0.293 HD
ENDBRANCH   3   8
BRANCH   5  10
ATOM     10  C   UNL     1      37.765  -8.567 107.432  1.00  0.00     0.013 C 
ATOM     11  C   UNL     1      37.097  -9.941 107.549  1.00  0.00     0.012 C 
ATOM     12  C   UNL     1      37.164  -7.573 108.432  1.00  0.00     0.012 C 
ENDBRANCH   5  10
TORSDOF 2
ENDMDL
MODEL 8
REMARK VINA RESULT:    -5.572      6.614      8.606
REMARK INTER + INTRA:          -6.186
REMARK INTER:                  -6.060
REMARK INTRA:                  -0.126
REMARK UNBOUND:                -0.125
REMARK SMILES Cc1ccc(C(C)C)cc1O
REMARK SMILES IDX 1 1 2 2 10 3 9 4 5 5 4 6 3 7 11 8 6 10 7 11 8 12
REMARK H PARENT 11 9
REMARK Flexibility Score: inf
ROOT
ATOM      1  C   UNL     1      38.101  -8.719 105.158  1.00  0.00     0.048 C 
ATOM      2  C   UNL     1      37.716  -7.611 104.217  1.00  0.00    -0.009 A 
ATOM      3  C   UNL     1      37.691  -7.815 102.819  1.00  0.00     0.118 A 
ATOM      4  C   UNL     1      37.327  -6.763 101.970  1.00  0.00     0.050 A 
ATOM      5  C   UNL     1      36.985  -5.500 102.488  1.00  0.00    -0.042 A 
ATOM      6  C   UNL     1      37.014  -5.307 103.878  1.00  0.00     0.004 A 
ATOM      7  C   UNL     1      37.376  -6.351 104.732  1.00  0.00     0.007 A 
ENDROOT
BRANCH   3   8
ATOM      8  O   UNL     1      38.019  -9.045 102.245  1.00  0.00    -0.508 OA
ATOM      9  H   UNL     1      38.967  -9.304 102.002  1.00  0.00     0.293 HD
ENDBRANCH   3   8
BRANCH   5  10
ATOM     10  C   UNL     1      36.591  -4.357 101.571  1.00  0.00     0.013 C 
ATOM     11  C   UNL     1      35.663  -3.370 102.287  1.00  0.00     0.012 C 
ATOM     12  C   UNL     1      35.951  -4.880 100.280  1.00  0.00     0.012 C 
ENDBRANCH   5  10
TORSDOF 2
ENDMDL
MODEL 9
REMARK VINA RESULT:    -5.542      6.836      8.563
REMARK INTER + INTRA:          -6.154
REMARK INTER:                  -6.026
REMARK INTRA:                  -0.128
REMARK UNBOUND:                -0.125
REMARK SMILES Cc1ccc(C(C)C)cc1O
REMARK SMILES IDX 1 1 2 2 10 3 9 4 5 5 4 6 3 7 11 8 6 10 7 11 8 12
REMARK H PARENT 11 9
REMARK Flexibility Score: inf
ROOT
ATOM      1  C   UNL     1      36.306  -3.931 100.065  1.00  0.00     0.048 C 
ATOM      2  C   UNL     1      36.668  -4.868 101.184  1.00  0.00    -0.009 A 
ATOM      3  C   UNL     1      37.013  -6.213 100.929  1.00  0.00     0.118 A 
ATOM      4  C   UNL     1      37.346  -7.060 101.994  1.00  0.00     0.050 A 
ATOM      5  C   UNL     1      37.341  -6.590 103.320  1.00  0.00    -0.042 A 
ATOM      6  C   UNL     1      36.996  -5.251 103.564  1.00  0.00     0.004 A 
ATOM      7  C   UNL     1      36.663  -4.400 102.508  1.00  0.00     0.007 A 
ENDROOT
BRANCH   3   8
ATOM      8  O   UNL     1      37.036  -6.739  99.635  1.00  0.00    -0.508 OA
ATOM      9  H   UNL     1      37.364  -7.673  99.425  1.00  0.00     0.293 HD
ENDBRANCH   3   8
BRANCH   5  10
ATOM     10  C   UNL     1      37.701  -7.504 104.477  1.00  0.00     0.013 C 
ATOM     11  C   UNL     1      37.394  -6.838 105.823  1.00  0.00     0.012 C 
ATOM     12  C   UNL     1      39.167  -7.944 104.399  1.00  0.00     0.012 C 
ENDBRANCH   5  10
TORSDOF 2
ENDMDL
