MODEL 1
REMARK VINA RESULT:    -5.730      0.000      0.000
REMARK INTER + INTRA:          -7.434
REMARK INTER:                  -7.070
REMARK INTRA:                  -0.365
REMARK UNBOUND:                -0.365
REMARK SMILES O=c1c(O)c(-c2cc(O)c(O)c(O)c2)oc2cc(O)cc(O)c12
REMARK SMILES IDX 5 1 3 2 2 3 1 4 23 5 21 6 20 7 18 8 17 9 16 10 15 11 6 12
REMARK SMILES IDX 7 13 8 14 14 15 10 16 12 17 9 18 11 20 13 22 4 24 22 26
REMARK SMILES IDX 19 28
REMARK H PARENT 9 19 11 21 13 23 4 25 22 27 19 29
REMARK Flexibility Score: inf
ROOT
ATOM      1  C   UNL     1       7.452  16.573  21.362  1.00  0.00     0.180 A 
ATOM      2  C   UNL     1       8.530  16.655  20.463  1.00  0.00     0.208 A 
ATOM      3  C   UNL     1       8.828  17.892  19.870  1.00  0.00     0.238 A 
ATOM      4  O   UNL     1       9.746  17.942  19.010  1.00  0.00    -0.285 OA
ATOM      5  C   UNL     1       8.082  19.043  20.224  1.00  0.00     0.111 A 
ATOM      6  C   UNL     1       8.325  20.356  19.719  1.00  0.00     0.134 A 
ATOM      7  C   UNL     1       7.456  21.398  20.059  1.00  0.00     0.093 A 
ATOM      8  C   UNL     1       6.388  21.190  20.936  1.00  0.00     0.123 A 
ATOM      9  C   UNL     1       6.175  19.925  21.477  1.00  0.00     0.094 A 
ATOM     10  C   UNL     1       7.003  18.855  21.127  1.00  0.00     0.146 A 
ATOM     11  O   UNL     1       6.750  17.662  21.650  1.00  0.00    -0.452 OA
ENDROOT
BRANCH   1  12
ATOM     12  C   UNL     1       7.067  15.302  22.016  1.00  0.00     0.029 A 
ATOM     13  C   UNL     1       6.153  14.417  21.418  1.00  0.00     0.062 A 
ATOM     14  C   UNL     1       5.785  13.230  22.065  1.00  0.00     0.162 A 
ATOM     15  C   UNL     1       7.579  14.998  23.288  1.00  0.00     0.062 A 
ATOM     16  C   UNL     1       6.316  12.922  23.323  1.00  0.00     0.200 A 
ATOM     17  C   UNL     1       7.214  13.811  23.939  1.00  0.00     0.162 A 
BRANCH  14  18
ATOM     18  O   UNL     1       4.883  12.352  21.464  1.00  0.00    -0.504 OA
ATOM     19  H   UNL     1       5.198  11.532  20.961  1.00  0.00     0.293 HD
ENDBRANCH  14  18
BRANCH  16  20
ATOM     20  O   UNL     1       5.940  11.734  23.951  1.00  0.00    -0.502 OA
ATOM     21  H   UNL     1       6.475  10.880  23.850  1.00  0.00     0.293 HD
ENDBRANCH  16  20
BRANCH  17  22
ATOM     22  O   UNL     1       7.740  13.513  25.195  1.00  0.00    -0.504 OA
ATOM     23  H   UNL     1       7.142  13.384  26.005  1.00  0.00     0.293 HD
ENDBRANCH  17  22
ENDBRANCH   1  12
BRANCH   2  24
ATOM     24  O   UNL     1       9.301  15.524  20.185  1.00  0.00    -0.502 OA
ATOM     25  H   UNL     1       9.281  15.059  19.285  1.00  0.00     0.293 HD
ENDBRANCH   2  24
BRANCH   6  26
ATOM     26  O   UNL     1       9.413  20.693  18.907  1.00  0.00    -0.507 OA
ATOM     27  H   UNL     1       9.421  20.642  17.900  1.00  0.00     0.293 HD
ENDBRANCH   6  26
BRANCH   8  28
ATOM     28  O   UNL     1       5.538  22.238  21.283  1.00  0.00    -0.508 OA
ATOM     29  H   UNL     1       5.139  22.312  22.211  1.00  0.00     0.293 HD
ENDBRANCH   8  28
TORSDOF 7
ENDMDL
MODEL 2
REMARK VINA RESULT:    -5.177      2.160      2.900
REMARK INTER + INTRA:          -6.752
REMARK INTER:                  -6.399
REMARK INTRA:                  -0.353
REMARK UNBOUND:                -0.365
REMARK SMILES O=c1c(O)c(-c2cc(O)c(O)c(O)c2)oc2cc(O)cc(O)c12
REMARK SMILES IDX 5 1 3 2 2 3 1 4 23 5 21 6 20 7 18 8 17 9 16 10 15 11 6 12
REMARK SMILES IDX 7 13 8 14 14 15 10 16 12 17 9 18 11 20 13 22 4 24 22 26
REMARK SMILES IDX 19 28
REMARK H PARENT 9 19 11 21 13 23 4 25 22 27 19 29
REMARK Flexibility Score: inf
ROOT
ATOM      1  C   UNL     1       7.602  17.713  20.947  1.00  0.00     0.180 A 
ATOM      2  C   UNL     1       6.901  18.441  19.971  1.00  0.00     0.208 A 
ATOM      3  C   UNL     1       7.289  19.763  19.700  1.00  0.00     0.238 A 
ATOM      4  O   UNL     1       6.611  20.434  18.879  1.00  0.00    -0.285 OA
ATOM      5  C   UNL     1       8.407  20.322  20.367  1.00  0.00     0.111 A 
ATOM      6  C   UNL     1       8.916  21.636  20.139  1.00  0.00     0.134 A 
ATOM      7  C   UNL     1       9.962  22.119  20.934  1.00  0.00     0.093 A 
ATOM      8  C   UNL     1      10.560  21.314  21.906  1.00  0.00     0.123 A 
ATOM      9  C   UNL     1      10.107  20.011  22.099  1.00  0.00     0.094 A 
ATOM     10  C   UNL     1       9.039  19.513  21.347  1.00  0.00     0.146 A 
ATOM     11  O   UNL     1       8.625  18.274  21.580  1.00  0.00    -0.452 OA
ENDROOT
BRANCH   1  12
ATOM     12  C   UNL     1       7.244  16.320  21.299  1.00  0.00     0.029 A 
ATOM     13  C   UNL     1       7.849  15.224  20.658  1.00  0.00     0.062 A 
ATOM     14  C   UNL     1       7.478  13.914  20.990  1.00  0.00     0.162 A 
ATOM     15  C   UNL     1       6.238  16.085  22.250  1.00  0.00     0.062 A 
ATOM     16  C   UNL     1       6.490  13.686  21.956  1.00  0.00     0.200 A 
ATOM     17  C   UNL     1       5.865  14.776  22.586  1.00  0.00     0.162 A 
BRANCH  14  18
ATOM     18  O   UNL     1       8.086  12.830  20.357  1.00  0.00    -0.504 OA
ATOM     19  H   UNL     1       9.012  12.902  19.953  1.00  0.00     0.293 HD
ENDBRANCH  14  18
BRANCH  16  20
ATOM     20  O   UNL     1       6.138  12.375  22.275  1.00  0.00    -0.502 OA
ATOM     21  H   UNL     1       6.341  11.968  23.180  1.00  0.00     0.293 HD
ENDBRANCH  16  20
BRANCH  17  22
ATOM     22  O   UNL     1       4.875  14.555  23.542  1.00  0.00    -0.504 OA
ATOM     23  H   UNL     1       5.012  13.906  24.309  1.00  0.00     0.293 HD
ENDBRANCH  17  22
ENDBRANCH   1  12
BRANCH   2  24
ATOM     24  O   UNL     1       5.849  17.847  19.270  1.00  0.00    -0.502 OA
ATOM     25  H   UNL     1       5.408  18.290  18.472  1.00  0.00     0.293 HD
ENDBRANCH   2  24
BRANCH   6  26
ATOM     26  O   UNL     1       8.452  22.492  19.135  1.00  0.00    -0.507 OA
ATOM     27  H   UNL     1       8.884  22.613  18.232  1.00  0.00     0.293 HD
ENDBRANCH   6  26
BRANCH   8  28
ATOM     28  O   UNL     1      11.612  21.797  22.681  1.00  0.00    -0.508 OA
ATOM     29  H   UNL     1      12.096  22.655  22.442  1.00  0.00     0.293 HD
ENDBRANCH   8  28
TORSDOF 7
ENDMDL
MODEL 3
REMARK VINA RESULT:    -5.071      2.144      2.989
REMARK INTER + INTRA:          -6.621
REMARK INTER:                  -6.256
REMARK INTRA:                  -0.365
REMARK UNBOUND:                -0.365
REMARK SMILES O=c1c(O)c(-c2cc(O)c(O)c(O)c2)oc2cc(O)cc(O)c12
REMARK SMILES IDX 5 1 3 2 2 3 1 4 23 5 21 6 20 7 18 8 17 9 16 10 15 11 6 12
REMARK SMILES IDX 7 13 8 14 14 15 10 16 12 17 9 18 11 20 13 22 4 24 22 26
REMARK SMILES IDX 19 28
REMARK H PARENT 9 19 11 21 13 23 4 25 22 27 19 29
REMARK Flexibility Score: inf
ROOT
ATOM      1  C   UNL     1       7.447  17.720  20.976  1.00  0.00     0.180 A 
ATOM      2  C   UNL     1       6.760  18.459  19.997  1.00  0.00     0.208 A 
ATOM      3  C   UNL     1       7.163  19.777  19.732  1.00  0.00     0.238 A 
ATOM      4  O   UNL     1       6.497  20.458  18.909  1.00  0.00    -0.285 OA
ATOM      5  C   UNL     1       8.282  20.323  20.409  1.00  0.00     0.111 A 
ATOM      6  C   UNL     1       8.805  21.632  20.188  1.00  0.00     0.134 A 
ATOM      7  C   UNL     1       9.851  22.103  20.991  1.00  0.00     0.093 A 
ATOM      8  C   UNL     1      10.434  21.289  21.965  1.00  0.00     0.123 A 
ATOM      9  C   UNL     1       9.967  19.991  22.151  1.00  0.00     0.094 A 
ATOM     10  C   UNL     1       8.899  19.505  21.391  1.00  0.00     0.146 A 
ATOM     11  O   UNL     1       8.472  18.269  21.617  1.00  0.00    -0.452 OA
ENDROOT
BRANCH   1  12
ATOM     12  C   UNL     1       7.073  16.330  21.321  1.00  0.00     0.029 A 
ATOM     13  C   UNL     1       6.135  16.053  22.330  1.00  0.00     0.062 A 
ATOM     14  C   UNL     1       5.812  14.729  22.657  1.00  0.00     0.162 A 
ATOM     15  C   UNL     1       7.710  15.262  20.669  1.00  0.00     0.062 A 
ATOM     16  C   UNL     1       6.434  13.668  21.987  1.00  0.00     0.200 A 
ATOM     17  C   UNL     1       7.389  13.935  20.991  1.00  0.00     0.162 A 
BRANCH  14  18
ATOM     18  O   UNL     1       4.875  14.459  23.654  1.00  0.00    -0.504 OA
ATOM     19  H   UNL     1       4.884  13.586  24.167  1.00  0.00     0.293 HD
ENDBRANCH  14  18
BRANCH  16  20
ATOM     20  O   UNL     1       6.097  12.357  22.323  1.00  0.00    -0.502 OA
ATOM     21  H   UNL     1       6.783  11.612  22.341  1.00  0.00     0.293 HD
ENDBRANCH  16  20
BRANCH  17  22
ATOM     22  O   UNL     1       8.017  12.883  20.327  1.00  0.00    -0.504 OA
ATOM     23  H   UNL     1       8.282  12.954  19.351  1.00  0.00     0.293 HD
ENDBRANCH  17  22
ENDBRANCH   1  12
BRANCH   2  24
ATOM     24  O   UNL     1       5.708  17.876  19.287  1.00  0.00    -0.502 OA
ATOM     25  H   UNL     1       4.862  17.548  19.739  1.00  0.00     0.293 HD
ENDBRANCH   2  24
BRANCH   6  26
ATOM     26  O   UNL     1       8.356  22.496  19.184  1.00  0.00    -0.507 OA
ATOM     27  H   UNL     1       8.380  22.296  18.195  1.00  0.00     0.293 HD
ENDBRANCH   6  26
BRANCH   8  28
ATOM     28  O   UNL     1      11.486  21.759  22.748  1.00  0.00    -0.508 OA
ATOM     29  H   UNL     1      11.876  22.684  22.612  1.00  0.00     0.293 HD
ENDBRANCH   8  28
TORSDOF 7
ENDMDL
MODEL 4
REMARK VINA RESULT:    -4.942      3.166      7.253
REMARK INTER + INTRA:          -6.462
REMARK INTER:                  -6.123
REMARK INTRA:                  -0.339
REMARK UNBOUND:                -0.365
REMARK SMILES O=c1c(O)c(-c2cc(O)c(O)c(O)c2)oc2cc(O)cc(O)c12
REMARK SMILES IDX 5 1 3 2 2 3 1 4 23 5 21 6 20 7 18 8 17 9 16 10 15 11 6 12
REMARK SMILES IDX 7 13 8 14 14 15 10 16 12 17 9 18 11 20 13 22 4 24 22 26
REMARK SMILES IDX 19 28
REMARK H PARENT 9 19 11 21 13 23 4 25 22 27 19 29
REMARK Flexibility Score: inf
ROOT
ATOM      1  C   UNL     1       8.215  19.895  21.559  1.00  0.00     0.180 A 
ATOM      2  C   UNL     1       7.154  20.151  20.674  1.00  0.00     0.208 A 
ATOM      3  C   UNL     1       6.549  19.074  20.006  1.00  0.00     0.238 A 
ATOM      4  O   UNL     1       5.651  19.317  19.160  1.00  0.00    -0.285 OA
ATOM      5  C   UNL     1       6.974  17.750  20.275  1.00  0.00     0.111 A 
ATOM      6  C   UNL     1       6.402  16.579  19.690  1.00  0.00     0.134 A 
ATOM      7  C   UNL     1       6.974  15.328  19.949  1.00  0.00     0.093 A 
ATOM      8  C   UNL     1       8.058  15.197  20.821  1.00  0.00     0.123 A 
ATOM      9  C   UNL     1       8.588  16.327  21.439  1.00  0.00     0.094 A 
ATOM     10  C   UNL     1       8.063  17.594  21.172  1.00  0.00     0.146 A 
ATOM     11  O   UNL     1       8.613  18.646  21.766  1.00  0.00    -0.452 OA
ENDROOT
BRANCH   1  12
ATOM     12  C   UNL     1       8.912  20.978  22.288  1.00  0.00     0.029 A 
ATOM     13  C   UNL     1      10.151  21.477  21.849  1.00  0.00     0.062 A 
ATOM     14  C   UNL     1      10.806  22.487  22.567  1.00  0.00     0.162 A 
ATOM     15  C   UNL     1       8.356  21.480  23.475  1.00  0.00     0.062 A 
ATOM     16  C   UNL     1      10.234  23.000  23.738  1.00  0.00     0.200 A 
ATOM     17  C   UNL     1       9.007  22.492  24.196  1.00  0.00     0.162 A 
BRANCH  14  18
ATOM     18  O   UNL     1      12.031  22.984  22.124  1.00  0.00    -0.504 OA
ATOM     19  H   UNL     1      12.337  22.864  21.165  1.00  0.00     0.293 HD
ENDBRANCH  14  18
BRANCH  16  20
ATOM     20  O   UNL     1      10.899  24.008  24.437  1.00  0.00    -0.502 OA
ATOM     21  H   UNL     1      11.201  24.864  23.989  1.00  0.00     0.293 HD
ENDBRANCH  16  20
BRANCH  17  22
ATOM     22  O   UNL     1       8.438  22.993  25.366  1.00  0.00    -0.504 OA
ATOM     23  H   UNL     1       7.535  22.671  25.698  1.00  0.00     0.293 HD
ENDBRANCH  17  22
ENDBRANCH   1  12
BRANCH   2  24
ATOM     24  O   UNL     1       6.699  21.458  20.481  1.00  0.00    -0.502 OA
ATOM     25  H   UNL     1       5.721  21.677  20.335  1.00  0.00     0.293 HD
ENDBRANCH   2  24
BRANCH   6  26
ATOM     26  O   UNL     1       5.266  16.586  18.875  1.00  0.00    -0.507 OA
ATOM     27  H   UNL     1       5.224  16.971  17.944  1.00  0.00     0.293 HD
ENDBRANCH   6  26
BRANCH   8  28
ATOM     28  O   UNL     1       8.609  13.946  21.087  1.00  0.00    -0.508 OA
ATOM     29  H   UNL     1       8.228  13.101  20.679  1.00  0.00     0.293 HD
ENDBRANCH   8  28
TORSDOF 7
ENDMDL
MODEL 5
REMARK VINA RESULT:    -4.928      2.753      3.780
REMARK INTER + INTRA:          -6.445
REMARK INTER:                  -6.081
REMARK INTRA:                  -0.364
REMARK UNBOUND:                -0.365
REMARK SMILES O=c1c(O)c(-c2cc(O)c(O)c(O)c2)oc2cc(O)cc(O)c12
REMARK SMILES IDX 5 1 3 2 2 3 1 4 23 5 21 6 20 7 18 8 17 9 16 10 15 11 6 12
REMARK SMILES IDX 7 13 8 14 14 15 10 16 12 17 9 18 11 20 13 22 4 24 22 26
REMARK SMILES IDX 19 28
REMARK H PARENT 9 19 11 21 13 23 4 25 22 27 19 29
REMARK Flexibility Score: inf
ROOT
ATOM      1  C   UNL     1       8.395  19.082  21.078  1.00  0.00     0.180 A 
ATOM      2  C   UNL     1       9.101  19.865  20.148  1.00  0.00     0.208 A 
ATOM      3  C   UNL     1       9.536  21.145  20.527  1.00  0.00     0.238 A 
ATOM      4  O   UNL     1      10.101  21.869  19.667  1.00  0.00    -0.285 OA
ATOM      5  C   UNL     1       9.308  21.605  21.847  1.00  0.00     0.111 A 
ATOM      6  C   UNL     1       9.743  22.867  22.354  1.00  0.00     0.134 A 
ATOM      7  C   UNL     1       9.369  23.259  23.645  1.00  0.00     0.093 A 
ATOM      8  C   UNL     1       8.628  22.410  24.470  1.00  0.00     0.123 A 
ATOM      9  C   UNL     1       8.246  21.154  24.005  1.00  0.00     0.094 A 
ATOM     10  C   UNL     1       8.572  20.749  22.708  1.00  0.00     0.146 A 
ATOM     11  O   UNL     1       8.168  19.553  22.298  1.00  0.00    -0.452 OA
ENDROOT
BRANCH   1  12
ATOM     12  C   UNL     1       7.893  17.729  20.748  1.00  0.00     0.029 A 
ATOM     13  C   UNL     1       6.630  17.540  20.158  1.00  0.00     0.062 A 
ATOM     14  C   UNL     1       6.164  16.250  19.875  1.00  0.00     0.162 A 
ATOM     15  C   UNL     1       8.665  16.606  21.083  1.00  0.00     0.062 A 
ATOM     16  C   UNL     1       6.949  15.134  20.191  1.00  0.00     0.200 A 
ATOM     17  C   UNL     1       8.203  15.312  20.801  1.00  0.00     0.162 A 
BRANCH  14  18
ATOM     18  O   UNL     1       4.914  16.067  19.283  1.00  0.00    -0.504 OA
ATOM     19  H   UNL     1       4.823  15.748  18.327  1.00  0.00     0.293 HD
ENDBRANCH  14  18
BRANCH  16  20
ATOM     20  O   UNL     1       6.469  13.857  19.899  1.00  0.00    -0.502 OA
ATOM     21  H   UNL     1       5.837  13.683  19.127  1.00  0.00     0.293 HD
ENDBRANCH  16  20
BRANCH  17  22
ATOM     22  O   UNL     1       8.985  14.205  21.126  1.00  0.00    -0.504 OA
ATOM     23  H   UNL     1       9.408  13.625  20.410  1.00  0.00     0.293 HD
ENDBRANCH  17  22
ENDBRANCH   1  12
BRANCH   2  24
ATOM     24  O   UNL     1       9.382  19.363  18.875  1.00  0.00    -0.502 OA
ATOM     25  H   UNL     1       9.281  19.921  18.036  1.00  0.00     0.293 HD
ENDBRANCH   2  24
BRANCH   6  26
ATOM     26  O   UNL     1      10.560  23.755  21.647  1.00  0.00    -0.507 OA
ATOM     27  H   UNL     1      10.641  23.792  20.643  1.00  0.00     0.293 HD
ENDBRANCH   6  26
BRANCH   8  28
ATOM     28  O   UNL     1       8.275  22.801  25.760  1.00  0.00    -0.508 OA
ATOM     29  H   UNL     1       8.473  23.733  26.104  1.00  0.00     0.293 HD
ENDBRANCH   8  28
TORSDOF 7
ENDMDL
MODEL 6
REMARK VINA RESULT:    -4.654      1.974      7.055
REMARK INTER + INTRA:          -6.108
REMARK INTER:                  -6.481
REMARK INTRA:                   0.373
REMARK UNBOUND:                -0.365
REMARK SMILES O=c1c(O)c(-c2cc(O)c(O)c(O)c2)oc2cc(O)cc(O)c12
REMARK SMILES IDX 5 1 3 2 2 3 1 4 23 5 21 6 20 7 18 8 17 9 16 10 15 11 6 12
REMARK SMILES IDX 7 13 8 14 14 15 10 16 12 17 9 18 11 20 13 22 4 24 22 26
REMARK SMILES IDX 19 28
REMARK H PARENT 9 19 11 21 13 23 4 25 22 27 19 29
REMARK Flexibility Score: inf
ROOT
ATOM      1  C   UNL     1       7.618  17.379  21.130  1.00  0.00     0.180 A 
ATOM      2  C   UNL     1       6.921  16.974  19.978  1.00  0.00     0.208 A 
ATOM      3  C   UNL     1       6.305  15.713  19.964  1.00  0.00     0.238 A 
ATOM      4  O   UNL     1       5.747  15.326  18.904  1.00  0.00    -0.285 OA
ATOM      5  C   UNL     1       6.345  14.895  21.120  1.00  0.00     0.111 A 
ATOM      6  C   UNL     1       5.717  13.618  21.233  1.00  0.00     0.134 A 
ATOM      7  C   UNL     1       5.913  12.852  22.389  1.00  0.00     0.093 A 
ATOM      8  C   UNL     1       6.662  13.343  23.461  1.00  0.00     0.123 A 
ATOM      9  C   UNL     1       7.232  14.611  23.382  1.00  0.00     0.094 A 
ATOM     10  C   UNL     1       7.086  15.384  22.227  1.00  0.00     0.146 A 
ATOM     11  O   UNL     1       7.666  16.577  22.186  1.00  0.00    -0.452 OA
ENDROOT
BRANCH   1  12
ATOM     12  C   UNL     1       8.305  18.688  21.215  1.00  0.00     0.029 A 
ATOM     13  C   UNL     1       8.524  19.320  22.452  1.00  0.00     0.062 A 
ATOM     14  C   UNL     1       9.156  20.569  22.509  1.00  0.00     0.162 A 
ATOM     15  C   UNL     1       8.695  19.340  20.036  1.00  0.00     0.062 A 
ATOM     16  C   UNL     1       9.563  21.205  21.329  1.00  0.00     0.200 A 
ATOM     17  C   UNL     1       9.329  20.590  20.088  1.00  0.00     0.162 A 
BRANCH  14  18
ATOM     18  O   UNL     1       9.378  21.190  23.738  1.00  0.00    -0.504 OA
ATOM     19  H   UNL     1       9.868  20.719  24.489  1.00  0.00     0.293 HD
ENDBRANCH  14  18
BRANCH  16  20
ATOM     20  O   UNL     1      10.194  22.447  21.406  1.00  0.00    -0.502 OA
ATOM     21  H   UNL     1       9.707  23.280  21.713  1.00  0.00     0.293 HD
ENDBRANCH  16  20
BRANCH  17  22
ATOM     22  O   UNL     1       9.725  21.223  18.910  1.00  0.00    -0.504 OA
ATOM     23  H   UNL     1       9.219  22.019  18.538  1.00  0.00     0.293 HD
ENDBRANCH  17  22
ENDBRANCH   1  12
BRANCH   2  24
ATOM     24  O   UNL     1       6.829  17.827  18.875  1.00  0.00    -0.502 OA
ATOM     25  H   UNL     1       6.700  18.827  18.971  1.00  0.00     0.293 HD
ENDBRANCH   2  24
BRANCH   6  26
ATOM     26  O   UNL     1       4.876  13.069  20.259  1.00  0.00    -0.507 OA
ATOM     27  H   UNL     1       5.119  12.300  19.653  1.00  0.00     0.293 HD
ENDBRANCH   6  26
BRANCH   8  28
ATOM     28  O   UNL     1       6.836  12.582  24.614  1.00  0.00    -0.508 OA
ATOM     29  H   UNL     1       7.256  12.972  25.449  1.00  0.00     0.293 HD
ENDBRANCH   8  28
TORSDOF 7
ENDMDL
MODEL 7
REMARK VINA RESULT:    -4.630      2.577      7.445
REMARK INTER + INTRA:          -6.078
REMARK INTER:                  -5.926
REMARK INTRA:                  -0.151
REMARK UNBOUND:                -0.365
REMARK SMILES O=c1c(O)c(-c2cc(O)c(O)c(O)c2)oc2cc(O)cc(O)c12
REMARK SMILES IDX 5 1 3 2 2 3 1 4 23 5 21 6 20 7 18 8 17 9 16 10 15 11 6 12
REMARK SMILES IDX 7 13 8 14 14 15 10 16 12 17 9 18 11 20 13 22 4 24 22 26
REMARK SMILES IDX 19 28
REMARK H PARENT 9 19 11 21 13 23 4 25 22 27 19 29
REMARK Flexibility Score: inf
ROOT
ATOM      1  C   UNL     1       8.325  19.317  21.295  1.00  0.00     0.180 A 
ATOM      2  C   UNL     1       7.107  19.313  21.996  1.00  0.00     0.208 A 
ATOM      3  C   UNL     1       6.305  18.161  21.958  1.00  0.00     0.238 A 
ATOM      4  O   UNL     1       5.182  18.190  22.525  1.00  0.00    -0.285 OA
ATOM      5  C   UNL     1       6.756  17.009  21.268  1.00  0.00     0.111 A 
ATOM      6  C   UNL     1       6.047  15.772  21.201  1.00  0.00     0.134 A 
ATOM      7  C   UNL     1       6.539  14.735  20.400  1.00  0.00     0.093 A 
ATOM      8  C   UNL     1       7.748  14.868  19.713  1.00  0.00     0.123 A 
ATOM      9  C   UNL     1       8.476  16.050  19.816  1.00  0.00     0.094 A 
ATOM     10  C   UNL     1       7.991  17.117  20.577  1.00  0.00     0.146 A 
ATOM     11  O   UNL     1       8.706  18.234  20.629  1.00  0.00    -0.452 OA
ENDROOT
BRANCH   1  12
ATOM     12  C   UNL     1       9.218  20.498  21.275  1.00  0.00     0.029 A 
ATOM     13  C   UNL     1       9.559  21.139  20.070  1.00  0.00     0.062 A 
ATOM     14  C   UNL     1      10.424  22.241  20.071  1.00  0.00     0.162 A 
ATOM     15  C   UNL     1       9.785  20.955  22.475  1.00  0.00     0.062 A 
ATOM     16  C   UNL     1      10.968  22.706  21.275  1.00  0.00     0.200 A 
ATOM     17  C   UNL     1      10.651  22.058  22.481  1.00  0.00     0.162 A 
BRANCH  14  18
ATOM     18  O   UNL     1      10.754  22.878  18.875  1.00  0.00    -0.504 OA
ATOM     19  H   UNL     1      11.197  23.788  18.864  1.00  0.00     0.293 HD
ENDBRANCH  14  18
BRANCH  16  20
ATOM     20  O   UNL     1      11.825  23.807  21.256  1.00  0.00    -0.502 OA
ATOM     21  H   UNL     1      12.146  24.224  20.391  1.00  0.00     0.293 HD
ENDBRANCH  16  20
BRANCH  17  22
ATOM     22  O   UNL     1      11.196  22.512  23.681  1.00  0.00    -0.504 OA
ATOM     23  H   UNL     1      11.243  21.918  24.502  1.00  0.00     0.293 HD
ENDBRANCH  17  22
ENDBRANCH   1  12
BRANCH   2  24
ATOM     24  O   UNL     1       6.716  20.432  22.734  1.00  0.00    -0.502 OA
ATOM     25  H   UNL     1       6.408  21.292  22.296  1.00  0.00     0.293 HD
ENDBRANCH   2  24
BRANCH   6  26
ATOM     26  O   UNL     1       4.875  15.502  21.916  1.00  0.00    -0.507 OA
ATOM     27  H   UNL     1       4.259  16.201  22.302  1.00  0.00     0.293 HD
ENDBRANCH   6  26
BRANCH   8  28
ATOM     28  O   UNL     1       8.240  13.824  18.933  1.00  0.00    -0.508 OA
ATOM     29  H   UNL     1       7.794  13.555  18.064  1.00  0.00     0.293 HD
ENDBRANCH   8  28
TORSDOF 7
ENDMDL
MODEL 8
REMARK VINA RESULT:    -4.543      1.989      6.830
REMARK INTER + INTRA:          -5.970
REMARK INTER:                  -5.667
REMARK INTRA:                  -0.302
REMARK UNBOUND:                -0.365
REMARK SMILES O=c1c(O)c(-c2cc(O)c(O)c(O)c2)oc2cc(O)cc(O)c12
REMARK SMILES IDX 5 1 3 2 2 3 1 4 23 5 21 6 20 7 18 8 17 9 16 10 15 11 6 12
REMARK SMILES IDX 7 13 8 14 14 15 10 16 12 17 9 18 11 20 13 22 4 24 22 26
REMARK SMILES IDX 19 28
REMARK H PARENT 9 19 11 21 13 23 4 25 22 27 19 29
REMARK Flexibility Score: inf
ROOT
ATOM      1  C   UNL     1       7.768  18.604  21.261  1.00  0.00     0.180 A 
ATOM      2  C   UNL     1       8.594  18.183  20.204  1.00  0.00     0.208 A 
ATOM      3  C   UNL     1       8.520  16.849  19.773  1.00  0.00     0.238 A 
ATOM      4  O   UNL     1       9.315  16.460  18.878  1.00  0.00    -0.285 OA
ATOM      5  C   UNL     1       7.583  15.967  20.365  1.00  0.00     0.111 A 
ATOM      6  C   UNL     1       7.389  14.607  19.977  1.00  0.00     0.134 A 
ATOM      7  C   UNL     1       6.508  13.800  20.704  1.00  0.00     0.093 A 
ATOM      8  C   UNL     1       5.764  14.319  21.767  1.00  0.00     0.123 A 
ATOM      9  C   UNL     1       5.904  15.659  22.118  1.00  0.00     0.094 A 
ATOM     10  C   UNL     1       6.805  16.481  21.435  1.00  0.00     0.146 A 
ATOM     11  O   UNL     1       6.923  17.747  21.818  1.00  0.00    -0.452 OA
ENDROOT
BRANCH   1  12
ATOM     12  C   UNL     1       7.799  19.990  21.781  1.00  0.00     0.029 A 
ATOM     13  C   UNL     1       8.403  20.297  23.013  1.00  0.00     0.062 A 
ATOM     14  C   UNL     1       8.401  21.612  23.497  1.00  0.00     0.162 A 
ATOM     15  C   UNL     1       7.163  21.012  21.059  1.00  0.00     0.062 A 
ATOM     16  C   UNL     1       7.784  22.631  22.762  1.00  0.00     0.200 A 
ATOM     17  C   UNL     1       7.159  22.330  21.540  1.00  0.00     0.162 A 
BRANCH  14  18
ATOM     18  O   UNL     1       9.007  21.913  24.717  1.00  0.00    -0.504 OA
ATOM     19  H   UNL     1       9.827  21.413  25.039  1.00  0.00     0.293 HD
ENDBRANCH  14  18
BRANCH  16  20
ATOM     20  O   UNL     1       7.795  23.935  23.259  1.00  0.00    -0.502 OA
ATOM     21  H   UNL     1       8.538  24.588  23.040  1.00  0.00     0.293 HD
ENDBRANCH  16  20
BRANCH  17  22
ATOM     22  O   UNL     1       6.536  23.339  20.807  1.00  0.00    -0.504 OA
ATOM     23  H   UNL     1       6.280  24.223  21.232  1.00  0.00     0.293 HD
ENDBRANCH  17  22
ENDBRANCH   1  12
BRANCH   2  24
ATOM     24  O   UNL     1       9.458  19.088  19.583  1.00  0.00    -0.502 OA
ATOM     25  H   UNL     1       9.427  20.084  19.768  1.00  0.00     0.293 HD
ENDBRANCH   2  24
BRANCH   6  26
ATOM     26  O   UNL     1       8.015  14.010  18.877  1.00  0.00    -0.507 OA
ATOM     27  H   UNL     1       8.927  13.580  18.893  1.00  0.00     0.293 HD
ENDBRANCH   6  26
BRANCH   8  28
ATOM     28  O   UNL     1       4.875  13.513  22.474  1.00  0.00    -0.508 OA
ATOM     29  H   UNL     1       5.117  12.566  22.742  1.00  0.00     0.293 HD
ENDBRANCH   8  28
TORSDOF 7
ENDMDL
MODEL 9
REMARK VINA RESULT:    -3.975      1.981      6.755
REMARK INTER + INTRA:          -5.270
REMARK INTER:                  -4.962
REMARK INTRA:                  -0.308
REMARK UNBOUND:                -0.365
REMARK SMILES O=c1c(O)c(-c2cc(O)c(O)c(O)c2)oc2cc(O)cc(O)c12
REMARK SMILES IDX 5 1 3 2 2 3 1 4 23 5 21 6 20 7 18 8 17 9 16 10 15 11 6 12
REMARK SMILES IDX 7 13 8 14 14 15 10 16 12 17 9 18 11 20 13 22 4 24 22 26
REMARK SMILES IDX 19 28
REMARK H PARENT 9 19 11 21 13 23 4 25 22 27 19 29
REMARK Flexibility Score: inf
ROOT
ATOM      1  C   UNL     1       8.382  17.814  21.044  1.00  0.00     0.180 A 
ATOM      2  C   UNL     1       8.966  17.131  19.962  1.00  0.00     0.208 A 
ATOM      3  C   UNL     1       8.704  15.762  19.800  1.00  0.00     0.238 A 
ATOM      4  O   UNL     1       9.289  15.141  18.875  1.00  0.00    -0.285 OA
ATOM      5  C   UNL     1       7.818  15.103  20.688  1.00  0.00     0.111 A 
ATOM      6  C   UNL     1       7.445  13.728  20.592  1.00  0.00     0.134 A 
ATOM      7  C   UNL     1       6.644  13.159  21.589  1.00  0.00     0.093 A 
ATOM      8  C   UNL     1       6.150  13.929  22.644  1.00  0.00     0.123 A 
ATOM      9  C   UNL     1       6.462  15.284  22.716  1.00  0.00     0.094 A 
ATOM     10  C   UNL     1       7.291  15.873  21.758  1.00  0.00     0.146 A 
ATOM     11  O   UNL     1       7.581  17.162  21.878  1.00  0.00    -0.452 OA
ENDROOT
BRANCH   1  12
ATOM     12  C   UNL     1       8.622  19.254  21.289  1.00  0.00     0.029 A 
ATOM     13  C   UNL     1       7.679  20.227  20.916  1.00  0.00     0.062 A 
ATOM     14  C   UNL     1       7.936  21.587  21.137  1.00  0.00     0.162 A 
ATOM     15  C   UNL     1       9.840  19.664  21.852  1.00  0.00     0.062 A 
ATOM     16  C   UNL     1       9.144  21.988  21.719  1.00  0.00     0.200 A 
ATOM     17  C   UNL     1      10.102  21.024  22.075  1.00  0.00     0.162 A 
BRANCH  14  18
ATOM     18  O   UNL     1       6.994  22.549  20.772  1.00  0.00    -0.504 OA
ATOM     19  H   UNL     1       6.006  22.418  20.950  1.00  0.00     0.293 HD
ENDBRANCH  14  18
BRANCH  16  20
ATOM     20  O   UNL     1       9.380  23.347  21.934  1.00  0.00    -0.502 OA
ATOM     21  H   UNL     1       9.825  23.932  21.238  1.00  0.00     0.293 HD
ENDBRANCH  16  20
BRANCH  17  22
ATOM     22  O   UNL     1      11.310  21.418  22.648  1.00  0.00    -0.504 OA
ATOM     23  H   UNL     1      11.898  20.763  23.152  1.00  0.00     0.293 HD
ENDBRANCH  17  22
ENDBRANCH   1  12
BRANCH   2  24
ATOM     24  O   UNL     1       9.777  17.816  19.054  1.00  0.00    -0.502 OA
ATOM     25  H   UNL     1       9.428  18.163  18.168  1.00  0.00     0.293 HD
ENDBRANCH   2  24
BRANCH   6  26
ATOM     26  O   UNL     1       7.810  12.890  19.533  1.00  0.00    -0.507 OA
ATOM     27  H   UNL     1       8.693  12.411  19.453  1.00  0.00     0.293 HD
ENDBRANCH   6  26
BRANCH   8  28
ATOM     28  O   UNL     1       5.338  13.358  23.622  1.00  0.00    -0.508 OA
ATOM     29  H   UNL     1       5.555  12.457  24.031  1.00  0.00     0.293 HD
ENDBRANCH   8  28
TORSDOF 7
ENDMDL
