MODEL 1
REMARK VINA RESULT:    -6.227      0.000      0.000
REMARK INTER + INTRA:          -7.643
REMARK INTER:                  -7.319
REMARK INTRA:                  -0.324
REMARK UNBOUND:                -0.324
REMARK SMILES O=c1c(O)c(-c2ccc(O)c(O)c2)oc2cc(O)ccc12
REMARK SMILES IDX 5 1 3 2 2 3 1 4 21 5 15 6 14 7 16 8 17 9 19 10 20 11 6 12
REMARK SMILES IDX 7 13 8 14 9 15 13 16 11 17 10 18 12 20 4 22 18 24
REMARK H PARENT 10 19 12 21 4 23 18 25
REMARK Flexibility Score: inf
ROOT
ATOM      1  C   UNL     1     114.226  48.625  22.552  1.00  0.00     0.180 A 
ATOM      2  C   UNL     1     114.625  49.003  23.852  1.00  0.00     0.208 A 
ATOM      3  C   UNL     1     115.803  49.748  24.008  1.00  0.00     0.235 A 
ATOM      4  O   UNL     1     116.175  50.106  25.159  1.00  0.00    -0.285 OA
ATOM      5  C   UNL     1     116.564  50.081  22.877  1.00  0.00     0.069 A 
ATOM      6  C   UNL     1     116.111  49.646  21.613  1.00  0.00     0.142 A 
ATOM      7  O   UNL     1     114.985  48.950  21.507  1.00  0.00    -0.452 OA
ATOM      8  C   UNL     1     116.847  49.950  20.463  1.00  0.00     0.094 A 
ATOM      9  C   UNL     1     118.032  50.687  20.557  1.00  0.00     0.119 A 
ATOM     10  C   UNL     1     118.485  51.122  21.810  1.00  0.00     0.047 A 
ATOM     11  C   UNL     1     117.757  50.822  22.966  1.00  0.00     0.020 A 
ENDROOT
BRANCH   1  12
ATOM     12  C   UNL     1     112.987  47.855  22.302  1.00  0.00     0.025 A 
ATOM     13  C   UNL     1     113.048  46.455  22.226  1.00  0.00     0.016 A 
ATOM     14  C   UNL     1     111.895  45.708  21.971  1.00  0.00     0.051 A 
ATOM     15  C   UNL     1     110.667  46.352  21.773  1.00  0.00     0.157 A 
ATOM     16  C   UNL     1     111.755  48.499  22.083  1.00  0.00     0.062 A 
ATOM     17  C   UNL     1     110.598  47.750  21.825  1.00  0.00     0.158 A 
BRANCH  15  18
ATOM     18  O   UNL     1     109.513  45.612  21.520  1.00  0.00    -0.504 OA
ATOM     19  H   UNL     1     109.498  44.604  21.624  1.00  0.00     0.293 HD
ENDBRANCH  15  18
BRANCH  17  20
ATOM     20  O   UNL     1     109.377  48.389  21.614  1.00  0.00    -0.504 OA
ATOM     21  H   UNL     1     109.145  48.810  20.722  1.00  0.00     0.293 HD
ENDBRANCH  17  20
ENDBRANCH   1  12
BRANCH   2  22
ATOM     22  O   UNL     1     113.873  48.614  24.963  1.00  0.00    -0.502 OA
ATOM     23  H   UNL     1     114.302  48.286  25.820  1.00  0.00     0.293 HD
ENDBRANCH   2  22
BRANCH   9  24
ATOM     24  O   UNL     1     118.752  50.981  19.401  1.00  0.00    -0.508 OA
ATOM     25  H   UNL     1     119.762  51.060  19.412  1.00  0.00     0.293 HD
ENDBRANCH   9  24
TORSDOF 5
ENDMDL
MODEL 2
REMARK VINA RESULT:    -6.071      1.816      6.952
REMARK INTER + INTRA:          -7.459
REMARK INTER:                  -7.136
REMARK INTRA:                  -0.324
REMARK UNBOUND:                -0.324
REMARK SMILES O=c1c(O)c(-c2ccc(O)c(O)c2)oc2cc(O)ccc12
REMARK SMILES IDX 5 1 3 2 2 3 1 4 21 5 15 6 14 7 16 8 17 9 19 10 20 11 6 12
REMARK SMILES IDX 7 13 8 14 9 15 13 16 11 17 10 18 12 20 4 22 18 24
REMARK H PARENT 10 19 12 21 4 23 18 25
REMARK Flexibility Score: inf
ROOT
ATOM      1  C   UNL     1     115.245  48.269  21.699  1.00  0.00     0.180 A 
ATOM      2  C   UNL     1     115.587  47.048  21.079  1.00  0.00     0.208 A 
ATOM      3  C   UNL     1     114.563  46.143  20.760  1.00  0.00     0.235 A 
ATOM      4  O   UNL     1     114.842  45.049  20.196  1.00  0.00    -0.285 OA
ATOM      5  C   UNL     1     113.235  46.462  21.079  1.00  0.00     0.069 A 
ATOM      6  C   UNL     1     112.978  47.693  21.721  1.00  0.00     0.142 A 
ATOM      7  O   UNL     1     113.974  48.527  21.998  1.00  0.00    -0.452 OA
ATOM      8  C   UNL     1     111.668  48.044  22.065  1.00  0.00     0.094 A 
ATOM      9  C   UNL     1     110.606  47.180  21.775  1.00  0.00     0.119 A 
ATOM     10  C   UNL     1     110.857  45.957  21.137  1.00  0.00     0.047 A 
ATOM     11  C   UNL     1     112.163  45.598  20.790  1.00  0.00     0.020 A 
ENDROOT
BRANCH   1  12
ATOM     12  C   UNL     1     116.265  49.284  22.050  1.00  0.00     0.025 A 
ATOM     13  C   UNL     1     116.844  49.266  23.329  1.00  0.00     0.016 A 
ATOM     14  C   UNL     1     117.793  50.226  23.690  1.00  0.00     0.051 A 
ATOM     15  C   UNL     1     118.165  51.227  22.783  1.00  0.00     0.157 A 
ATOM     16  C   UNL     1     116.626  50.302  21.149  1.00  0.00     0.062 A 
ATOM     17  C   UNL     1     117.577  51.267  21.512  1.00  0.00     0.158 A 
BRANCH  15  18
ATOM     18  O   UNL     1     119.113  52.185  23.137  1.00  0.00    -0.504 OA
ATOM     19  H   UNL     1     120.012  51.923  23.523  1.00  0.00     0.293 HD
ENDBRANCH  15  18
BRANCH  17  20
ATOM     20  O   UNL     1     117.939  52.272  20.616  1.00  0.00    -0.504 OA
ATOM     21  H   UNL     1     118.910  52.500  20.438  1.00  0.00     0.293 HD
ENDBRANCH  17  20
ENDBRANCH   1  12
BRANCH   2  22
ATOM     22  O   UNL     1     116.923  46.736  20.817  1.00  0.00    -0.502 OA
ATOM     23  H   UNL     1     117.286  45.795  20.901  1.00  0.00     0.293 HD
ENDBRANCH   2  22
BRANCH   9  24
ATOM     24  O   UNL     1     109.308  47.545  22.124  1.00  0.00    -0.508 OA
ATOM     25  H   UNL     1     109.128  48.282  22.795  1.00  0.00     0.293 HD
ENDBRANCH   9  24
TORSDOF 5
ENDMDL
MODEL 3
REMARK VINA RESULT:    -5.937      2.905      6.715
REMARK INTER + INTRA:          -7.302
REMARK INTER:                  -6.984
REMARK INTRA:                  -0.317
REMARK UNBOUND:                -0.324
REMARK SMILES O=c1c(O)c(-c2ccc(O)c(O)c2)oc2cc(O)ccc12
REMARK SMILES IDX 5 1 3 2 2 3 1 4 21 5 15 6 14 7 16 8 17 9 19 10 20 11 6 12
REMARK SMILES IDX 7 13 8 14 9 15 13 16 11 17 10 18 12 20 4 22 18 24
REMARK H PARENT 10 19 12 21 4 23 18 25
REMARK Flexibility Score: inf
ROOT
ATOM      1  C   UNL     1     115.564  47.801  21.349  1.00  0.00     0.180 A 
ATOM      2  C   UNL     1     114.155  47.857  21.371  1.00  0.00     0.208 A 
ATOM      3  C   UNL     1     113.427  46.723  20.977  1.00  0.00     0.235 A 
ATOM      4  O   UNL     1     112.166  46.746  20.998  1.00  0.00    -0.285 OA
ATOM      5  C   UNL     1     114.113  45.575  20.555  1.00  0.00     0.069 A 
ATOM      6  C   UNL     1     115.524  45.606  20.539  1.00  0.00     0.142 A 
ATOM      7  O   UNL     1     116.176  46.697  20.928  1.00  0.00    -0.452 OA
ATOM      8  C   UNL     1     116.245  44.485  20.115  1.00  0.00     0.094 A 
ATOM      9  C   UNL     1     115.574  43.327  19.706  1.00  0.00     0.119 A 
ATOM     10  C   UNL     1     114.173  43.291  19.722  1.00  0.00     0.047 A 
ATOM     11  C   UNL     1     113.444  44.408  20.143  1.00  0.00     0.020 A 
ENDROOT
BRANCH   1  12
ATOM     12  C   UNL     1     116.403  48.947  21.768  1.00  0.00     0.025 A 
ATOM     13  C   UNL     1     116.760  49.084  23.118  1.00  0.00     0.016 A 
ATOM     14  C   UNL     1     117.533  50.170  23.540  1.00  0.00     0.051 A 
ATOM     15  C   UNL     1     117.947  51.141  22.620  1.00  0.00     0.157 A 
ATOM     16  C   UNL     1     116.803  49.935  20.850  1.00  0.00     0.062 A 
ATOM     17  C   UNL     1     117.578  51.026  21.274  1.00  0.00     0.158 A 
BRANCH  15  18
ATOM     18  O   UNL     1     118.720  52.224  23.035  1.00  0.00    -0.504 OA
ATOM     19  H   UNL     1     118.406  53.179  22.904  1.00  0.00     0.293 HD
ENDBRANCH  15  18
BRANCH  17  20
ATOM     20  O   UNL     1     117.979  52.002  20.362  1.00  0.00    -0.504 OA
ATOM     21  H   UNL     1     117.800  52.986  20.525  1.00  0.00     0.293 HD
ENDBRANCH  17  20
ENDBRANCH   1  12
BRANCH   2  22
ATOM     22  O   UNL     1     113.498  49.031  21.749  1.00  0.00    -0.502 OA
ATOM     23  H   UNL     1     113.198  49.201  22.701  1.00  0.00     0.293 HD
ENDBRANCH   2  22
BRANCH   9  24
ATOM     24  O   UNL     1     116.308  42.219  19.288  1.00  0.00    -0.508 OA
ATOM     25  H   UNL     1     116.535  41.464  19.924  1.00  0.00     0.293 HD
ENDBRANCH   9  24
TORSDOF 5
ENDMDL
MODEL 4
REMARK VINA RESULT:    -5.893      4.907      7.373
REMARK INTER + INTRA:          -7.250
REMARK INTER:                  -6.935
REMARK INTRA:                  -0.315
REMARK UNBOUND:                -0.324
REMARK SMILES O=c1c(O)c(-c2ccc(O)c(O)c2)oc2cc(O)ccc12
REMARK SMILES IDX 5 1 3 2 2 3 1 4 21 5 15 6 14 7 16 8 17 9 19 10 20 11 6 12
REMARK SMILES IDX 7 13 8 14 9 15 13 16 11 17 10 18 12 20 4 22 18 24
REMARK H PARENT 10 19 12 21 4 23 18 25
REMARK Flexibility Score: inf
ROOT
ATOM      1  C   UNL     1     108.398  45.785  20.077  1.00  0.00     0.180 A 
ATOM      2  C   UNL     1     108.355  44.674  20.945  1.00  0.00     0.208 A 
ATOM      3  C   UNL     1     109.562  44.138  21.418  1.00  0.00     0.235 A 
ATOM      4  O   UNL     1     109.549  43.151  22.204  1.00  0.00    -0.285 OA
ATOM      5  C   UNL     1     110.777  44.704  21.004  1.00  0.00     0.069 A 
ATOM      6  C   UNL     1     110.737  45.799  20.115  1.00  0.00     0.142 A 
ATOM      7  O   UNL     1     109.572  46.282  19.697  1.00  0.00    -0.452 OA
ATOM      8  C   UNL     1     111.927  46.385  19.671  1.00  0.00     0.094 A 
ATOM      9  C   UNL     1     113.162  45.892  20.105  1.00  0.00     0.119 A 
ATOM     10  C   UNL     1     113.207  44.805  20.990  1.00  0.00     0.047 A 
ATOM     11  C   UNL     1     112.022  44.212  21.438  1.00  0.00     0.020 A 
ENDROOT
BRANCH   1  12
ATOM     12  C   UNL     1     107.168  46.418  19.550  1.00  0.00     0.025 A 
ATOM     13  C   UNL     1     106.734  46.109  18.251  1.00  0.00     0.016 A 
ATOM     14  C   UNL     1     105.588  46.711  17.724  1.00  0.00     0.051 A 
ATOM     15  C   UNL     1     104.867  47.641  18.484  1.00  0.00     0.157 A 
ATOM     16  C   UNL     1     106.453  47.368  20.302  1.00  0.00     0.062 A 
ATOM     17  C   UNL     1     105.303  47.974  19.773  1.00  0.00     0.158 A 
BRANCH  15  18
ATOM     18  O   UNL     1     103.722  48.242  17.965  1.00  0.00    -0.504 OA
ATOM     19  H   UNL     1     102.908  47.696  17.707  1.00  0.00     0.293 HD
ENDBRANCH  15  18
BRANCH  17  20
ATOM     20  O   UNL     1     104.591  48.910  20.522  1.00  0.00    -0.504 OA
ATOM     21  H   UNL     1     103.581  48.968  20.477  1.00  0.00     0.293 HD
ENDBRANCH  17  20
ENDBRANCH   1  12
BRANCH   2  22
ATOM     22  O   UNL     1     107.131  44.100  21.301  1.00  0.00    -0.502 OA
ATOM     23  H   UNL     1     106.428  43.855  20.615  1.00  0.00     0.293 HD
ENDBRANCH   2  22
BRANCH   9  24
ATOM     24  O   UNL     1     114.338  46.487  19.654  1.00  0.00    -0.508 OA
ATOM     25  H   UNL     1     115.236  46.031  19.758  1.00  0.00     0.293 HD
ENDBRANCH   9  24
TORSDOF 5
ENDMDL
MODEL 5
REMARK VINA RESULT:    -5.889      7.398      9.754
REMARK INTER + INTRA:          -7.245
REMARK INTER:                  -6.927
REMARK INTRA:                  -0.319
REMARK UNBOUND:                -0.324
REMARK SMILES O=c1c(O)c(-c2ccc(O)c(O)c2)oc2cc(O)ccc12
REMARK SMILES IDX 5 1 3 2 2 3 1 4 21 5 15 6 14 7 16 8 17 9 19 10 20 11 6 12
REMARK SMILES IDX 7 13 8 14 9 15 13 16 11 17 10 18 12 20 4 22 18 24
REMARK H PARENT 10 19 12 21 4 23 18 25
REMARK Flexibility Score: inf
ROOT
ATOM      1  C   UNL     1     107.578  43.298  24.161  1.00  0.00     0.180 A 
ATOM      2  C   UNL     1     108.271  44.447  24.599  1.00  0.00     0.208 A 
ATOM      3  C   UNL     1     108.497  45.488  23.687  1.00  0.00     0.235 A 
ATOM      4  O   UNL     1     109.104  46.530  24.057  1.00  0.00    -0.285 OA
ATOM      5  C   UNL     1     108.050  45.356  22.363  1.00  0.00     0.069 A 
ATOM      6  C   UNL     1     107.387  44.165  21.996  1.00  0.00     0.142 A 
ATOM      7  O   UNL     1     107.184  43.206  22.893  1.00  0.00    -0.452 OA
ATOM      8  C   UNL     1     106.935  43.991  20.684  1.00  0.00     0.094 A 
ATOM      9  C   UNL     1     107.136  44.993  19.729  1.00  0.00     0.119 A 
ATOM     10  C   UNL     1     107.793  46.178  20.089  1.00  0.00     0.047 A 
ATOM     11  C   UNL     1     108.249  46.360  21.399  1.00  0.00     0.020 A 
ENDROOT
BRANCH   1  12
ATOM     12  C   UNL     1     107.284  42.165  25.068  1.00  0.00     0.025 A 
ATOM     13  C   UNL     1     108.217  41.124  25.198  1.00  0.00     0.016 A 
ATOM     14  C   UNL     1     107.952  40.034  26.031  1.00  0.00     0.051 A 
ATOM     15  C   UNL     1     106.742  39.962  26.735  1.00  0.00     0.157 A 
ATOM     16  C   UNL     1     106.062  42.079  25.760  1.00  0.00     0.062 A 
ATOM     17  C   UNL     1     105.795  40.984  26.596  1.00  0.00     0.158 A 
BRANCH  15  18
ATOM     18  O   UNL     1     106.474  38.879  27.569  1.00  0.00    -0.504 OA
ATOM     19  H   UNL     1     105.948  38.990  28.428  1.00  0.00     0.293 HD
ENDBRANCH  15  18
BRANCH  17  20
ATOM     20  O   UNL     1     104.586  40.903  27.286  1.00  0.00    -0.504 OA
ATOM     21  H   UNL     1     104.556  40.726  28.284  1.00  0.00     0.293 HD
ENDBRANCH  17  20
ENDBRANCH   1  12
BRANCH   2  22
ATOM     22  O   UNL     1     108.747  44.530  25.910  1.00  0.00    -0.502 OA
ATOM     23  H   UNL     1     108.163  44.326  26.712  1.00  0.00     0.293 HD
ENDBRANCH   2  22
BRANCH   9  24
ATOM     24  O   UNL     1     106.679  44.803  18.427  1.00  0.00    -0.508 OA
ATOM     25  H   UNL     1     106.545  45.583  17.794  1.00  0.00     0.293 HD
ENDBRANCH   9  24
TORSDOF 5
ENDMDL
MODEL 6
REMARK VINA RESULT:    -5.881      0.577      1.469
REMARK INTER + INTRA:          -7.236
REMARK INTER:                  -6.927
REMARK INTRA:                  -0.309
REMARK UNBOUND:                -0.324
REMARK SMILES O=c1c(O)c(-c2ccc(O)c(O)c2)oc2cc(O)ccc12
REMARK SMILES IDX 5 1 3 2 2 3 1 4 21 5 15 6 14 7 16 8 17 9 19 10 20 11 6 12
REMARK SMILES IDX 7 13 8 14 9 15 13 16 11 17 10 18 12 20 4 22 18 24
REMARK H PARENT 10 19 12 21 4 23 18 25
REMARK Flexibility Score: inf
ROOT
ATOM      1  C   UNL     1     114.204  48.638  22.562  1.00  0.00     0.180 A 
ATOM      2  C   UNL     1     114.601  48.994  23.868  1.00  0.00     0.208 A 
ATOM      3  C   UNL     1     115.786  49.727  24.038  1.00  0.00     0.235 A 
ATOM      4  O   UNL     1     116.157  50.066  25.196  1.00  0.00    -0.285 OA
ATOM      5  C   UNL     1     116.553  50.069  22.915  1.00  0.00     0.069 A 
ATOM      6  C   UNL     1     116.100  49.655  21.644  1.00  0.00     0.142 A 
ATOM      7  O   UNL     1     114.968  48.970  21.524  1.00  0.00    -0.452 OA
ATOM      8  C   UNL     1     116.842  49.968  20.500  1.00  0.00     0.094 A 
ATOM      9  C   UNL     1     118.034  50.693  20.607  1.00  0.00     0.119 A 
ATOM     10  C   UNL     1     118.486  51.107  21.868  1.00  0.00     0.047 A 
ATOM     11  C   UNL     1     117.752  50.798  23.017  1.00  0.00     0.020 A 
ENDROOT
BRANCH   1  12
ATOM     12  C   UNL     1     112.958  47.882  22.298  1.00  0.00     0.025 A 
ATOM     13  C   UNL     1     111.773  48.581  22.018  1.00  0.00     0.016 A 
ATOM     14  C   UNL     1     110.581  47.890  21.786  1.00  0.00     0.051 A 
ATOM     15  C   UNL     1     110.554  46.491  21.847  1.00  0.00     0.157 A 
ATOM     16  C   UNL     1     112.922  46.478  22.378  1.00  0.00     0.062 A 
ATOM     17  C   UNL     1     111.725  45.784  22.148  1.00  0.00     0.158 A 
BRANCH  15  18
ATOM     18  O   UNL     1     109.368  45.796  21.614  1.00  0.00    -0.504 OA
ATOM     19  H   UNL     1     109.240  44.844  21.937  1.00  0.00     0.293 HD
ENDBRANCH  15  18
BRANCH  17  20
ATOM     20  O   UNL     1     111.692  44.392  22.221  1.00  0.00    -0.504 OA
ATOM     21  H   UNL     1     112.475  43.861  22.584  1.00  0.00     0.293 HD
ENDBRANCH  17  20
ENDBRANCH   1  12
BRANCH   2  22
ATOM     22  O   UNL     1     113.842  48.597  24.972  1.00  0.00    -0.502 OA
ATOM     23  H   UNL     1     113.745  49.174  25.799  1.00  0.00     0.293 HD
ENDBRANCH   2  22
BRANCH   9  24
ATOM     24  O   UNL     1     118.760  50.996  19.458  1.00  0.00    -0.508 OA
ATOM     25  H   UNL     1     118.435  50.720  18.539  1.00  0.00     0.293 HD
ENDBRANCH   9  24
TORSDOF 5
ENDMDL
MODEL 7
REMARK VINA RESULT:    -5.830      4.011      4.686
REMARK INTER + INTRA:          -7.177
REMARK INTER:                  -6.860
REMARK INTRA:                  -0.317
REMARK UNBOUND:                -0.324
REMARK SMILES O=c1c(O)c(-c2ccc(O)c(O)c2)oc2cc(O)ccc12
REMARK SMILES IDX 5 1 3 2 2 3 1 4 21 5 15 6 14 7 16 8 17 9 19 10 20 11 6 12
REMARK SMILES IDX 7 13 8 14 9 15 13 16 11 17 10 18 12 20 4 22 18 24
REMARK H PARENT 10 19 12 21 4 23 18 25
REMARK Flexibility Score: inf
ROOT
ATOM      1  C   UNL     1     116.032  45.834  21.342  1.00  0.00     0.180 A 
ATOM      2  C   UNL     1     115.672  45.777  22.705  1.00  0.00     0.208 A 
ATOM      3  C   UNL     1     115.694  46.960  23.460  1.00  0.00     0.235 A 
ATOM      4  O   UNL     1     115.367  46.936  24.678  1.00  0.00    -0.285 OA
ATOM      5  C   UNL     1     116.091  48.160  22.851  1.00  0.00     0.069 A 
ATOM      6  C   UNL     1     116.460  48.130  21.489  1.00  0.00     0.142 A 
ATOM      7  O   UNL     1     116.416  46.991  20.807  1.00  0.00    -0.452 OA
ATOM      8  C   UNL     1     116.870  49.304  20.849  1.00  0.00     0.094 A 
ATOM      9  C   UNL     1     116.917  50.512  21.552  1.00  0.00     0.119 A 
ATOM     10  C   UNL     1     116.551  50.547  22.904  1.00  0.00     0.047 A 
ATOM     11  C   UNL     1     116.140  49.378  23.553  1.00  0.00     0.020 A 
ENDROOT
BRANCH   1  12
ATOM     12  C   UNL     1     116.015  44.635  20.474  1.00  0.00     0.025 A 
ATOM     13  C   UNL     1     117.160  43.826  20.392  1.00  0.00     0.016 A 
ATOM     14  C   UNL     1     117.175  42.701  19.563  1.00  0.00     0.051 A 
ATOM     15  C   UNL     1     116.051  42.377  18.793  1.00  0.00     0.157 A 
ATOM     16  C   UNL     1     114.896  44.318  19.683  1.00  0.00     0.062 A 
ATOM     17  C   UNL     1     114.911  43.189  18.850  1.00  0.00     0.158 A 
BRANCH  15  18
ATOM     18  O   UNL     1     116.059  41.255  17.967  1.00  0.00    -0.504 OA
ATOM     19  H   UNL     1     115.202  40.778  17.713  1.00  0.00     0.293 HD
ENDBRANCH  15  18
BRANCH  17  20
ATOM     20  O   UNL     1     113.798  42.873  18.072  1.00  0.00    -0.504 OA
ATOM     21  H   UNL     1     113.236  42.051  18.260  1.00  0.00     0.293 HD
ENDBRANCH  17  20
ENDBRANCH   1  12
BRANCH   2  22
ATOM     22  O   UNL     1     115.329  44.558  23.296  1.00  0.00    -0.502 OA
ATOM     23  H   UNL     1     114.620  43.949  22.907  1.00  0.00     0.293 HD
ENDBRANCH   2  22
BRANCH   9  24
ATOM     24  O   UNL     1     117.328  51.672  20.898  1.00  0.00    -0.508 OA
ATOM     25  H   UNL     1     117.463  51.694  19.894  1.00  0.00     0.293 HD
ENDBRANCH   9  24
TORSDOF 5
ENDMDL
MODEL 8
REMARK VINA RESULT:    -5.758      2.530      7.621
REMARK INTER + INTRA:          -7.092
REMARK INTER:                  -6.826
REMARK INTRA:                  -0.265
REMARK UNBOUND:                -0.324
REMARK SMILES O=c1c(O)c(-c2ccc(O)c(O)c2)oc2cc(O)ccc12
REMARK SMILES IDX 5 1 3 2 2 3 1 4 21 5 15 6 14 7 16 8 17 9 19 10 20 11 6 12
REMARK SMILES IDX 7 13 8 14 9 15 13 16 11 17 10 18 12 20 4 22 18 24
REMARK H PARENT 10 19 12 21 4 23 18 25
REMARK Flexibility Score: inf
ROOT
ATOM      1  C   UNL     1     112.622  46.861  21.525  1.00  0.00     0.180 A 
ATOM      2  C   UNL     1     111.796  46.725  20.390  1.00  0.00     0.208 A 
ATOM      3  C   UNL     1     110.448  46.379  20.572  1.00  0.00     0.235 A 
ATOM      4  O   UNL     1     109.687  46.261  19.573  1.00  0.00    -0.285 OA
ATOM      5  C   UNL     1     109.962  46.157  21.869  1.00  0.00     0.069 A 
ATOM      6  C   UNL     1     110.857  46.290  22.952  1.00  0.00     0.142 A 
ATOM      7  O   UNL     1     112.124  46.628  22.737  1.00  0.00    -0.452 OA
ATOM      8  C   UNL     1     110.413  46.068  24.259  1.00  0.00     0.094 A 
ATOM      9  C   UNL     1     109.081  45.715  24.502  1.00  0.00     0.119 A 
ATOM     10  C   UNL     1     108.188  45.584  23.430  1.00  0.00     0.047 A 
ATOM     11  C   UNL     1     108.623  45.803  22.120  1.00  0.00     0.020 A 
ENDROOT
BRANCH   1  12
ATOM     12  C   UNL     1     114.048  47.242  21.418  1.00  0.00     0.025 A 
ATOM     13  C   UNL     1     114.431  48.566  21.686  1.00  0.00     0.016 A 
ATOM     14  C   UNL     1     115.769  48.955  21.571  1.00  0.00     0.051 A 
ATOM     15  C   UNL     1     116.740  48.027  21.171  1.00  0.00     0.157 A 
ATOM     16  C   UNL     1     115.024  46.320  20.998  1.00  0.00     0.062 A 
ATOM     17  C   UNL     1     116.366  46.710  20.880  1.00  0.00     0.158 A 
BRANCH  15  18
ATOM     18  O   UNL     1     118.076  48.409  21.057  1.00  0.00    -0.504 OA
ATOM     19  H   UNL     1     118.653  48.093  20.285  1.00  0.00     0.293 HD
ENDBRANCH  15  18
BRANCH  17  20
ATOM     20  O   UNL     1     117.333  45.793  20.469  1.00  0.00    -0.504 OA
ATOM     21  H   UNL     1     117.790  45.872  19.568  1.00  0.00     0.293 HD
ENDBRANCH  17  20
ENDBRANCH   1  12
BRANCH   2  22
ATOM     22  O   UNL     1     112.320  46.904  19.107  1.00  0.00    -0.502 OA
ATOM     23  H   UNL     1     113.100  46.359  18.760  1.00  0.00     0.293 HD
ENDBRANCH   2  22
BRANCH   9  24
ATOM     24  O   UNL     1     108.656  45.498  25.811  1.00  0.00    -0.508 OA
ATOM     25  H   UNL     1     108.270  44.607  26.101  1.00  0.00     0.293 HD
ENDBRANCH   9  24
TORSDOF 5
ENDMDL
MODEL 9
REMARK VINA RESULT:    -5.709      2.414      7.220
REMARK INTER + INTRA:          -7.034
REMARK INTER:                  -6.781
REMARK INTRA:                  -0.253
REMARK UNBOUND:                -0.324
REMARK SMILES O=c1c(O)c(-c2ccc(O)c(O)c2)oc2cc(O)ccc12
REMARK SMILES IDX 5 1 3 2 2 3 1 4 21 5 15 6 14 7 16 8 17 9 19 10 20 11 6 12
REMARK SMILES IDX 7 13 8 14 9 15 13 16 11 17 10 18 12 20 4 22 18 24
REMARK H PARENT 10 19 12 21 4 23 18 25
REMARK Flexibility Score: inf
ROOT
ATOM      1  C   UNL     1     112.417  46.994  21.795  1.00  0.00     0.180 A 
ATOM      2  C   UNL     1     111.812  46.878  23.064  1.00  0.00     0.208 A 
ATOM      3  C   UNL     1     110.459  46.516  23.137  1.00  0.00     0.235 A 
ATOM      4  O   UNL     1     109.898  46.395  24.261  1.00  0.00    -0.285 OA
ATOM      5  C   UNL     1     109.738  46.299  21.954  1.00  0.00     0.069 A 
ATOM      6  C   UNL     1     110.408  46.458  20.722  1.00  0.00     0.142 A 
ATOM      7  O   UNL     1     111.694  46.793  20.696  1.00  0.00    -0.452 OA
ATOM      8  C   UNL     1     109.722  46.260  19.520  1.00  0.00     0.094 A 
ATOM      9  C   UNL     1     108.369  45.902  19.529  1.00  0.00     0.119 A 
ATOM     10  C   UNL     1     107.700  45.741  20.750  1.00  0.00     0.047 A 
ATOM     11  C   UNL     1     108.378  45.938  21.957  1.00  0.00     0.020 A 
ENDROOT
BRANCH   1  12
ATOM     12  C   UNL     1     113.845  47.353  21.635  1.00  0.00     0.025 A 
ATOM     13  C   UNL     1     114.245  48.687  21.810  1.00  0.00     0.016 A 
ATOM     14  C   UNL     1     115.583  49.054  21.644  1.00  0.00     0.051 A 
ATOM     15  C   UNL     1     116.538  48.093  21.284  1.00  0.00     0.157 A 
ATOM     16  C   UNL     1     114.803  46.396  21.255  1.00  0.00     0.062 A 
ATOM     17  C   UNL     1     116.147  46.764  21.085  1.00  0.00     0.158 A 
BRANCH  15  18
ATOM     18  O   UNL     1     117.874  48.453  21.120  1.00  0.00    -0.504 OA
ATOM     19  H   UNL     1     118.461  48.006  20.424  1.00  0.00     0.293 HD
ENDBRANCH  15  18
BRANCH  17  20
ATOM     20  O   UNL     1     117.096  45.813  20.715  1.00  0.00    -0.504 OA
ATOM     21  H   UNL     1     117.320  45.637  19.742  1.00  0.00     0.293 HD
ENDBRANCH  17  20
ENDBRANCH   1  12
BRANCH   2  22
ATOM     22  O   UNL     1     112.543  47.148  24.224  1.00  0.00    -0.502 OA
ATOM     23  H   UNL     1     112.097  47.368  25.106  1.00  0.00     0.293 HD
ENDBRANCH   2  22
BRANCH   9  24
ATOM     24  O   UNL     1     107.701  45.708  18.323  1.00  0.00    -0.508 OA
ATOM     25  H   UNL     1     108.150  45.255  17.536  1.00  0.00     0.293 HD
ENDBRANCH   9  24
TORSDOF 5
ENDMDL
