MODEL 1
REMARK VINA RESULT:    -4.317      0.000      0.000
REMARK INTER + INTRA:          -6.088
REMARK INTER:                  -5.831
REMARK INTRA:                  -0.257
REMARK UNBOUND:                -0.257
REMARK SMILES CCCCCCCC(=O)[O-]
REMARK SMILES IDX 5 1 6 2 7 3 8 4 9 5 10 6 4 7 3 8 2 9 1 10
REMARK H PARENT
REMARK Flexibility Score: inf
ROOT
ATOM      1  C   UNL     1      11.365  13.466  69.947  1.00  0.00     0.000 C 
ENDROOT
BRANCH   1   2
ATOM      2  C   UNL     1      12.560  14.117  70.667  1.00  0.00     0.006 C 
BRANCH   2   3
ATOM      3  C   UNL     1      13.904  13.797  70.000  1.00  0.00     0.053 C 
BRANCH   3   4
ATOM      4  C   UNL     1      14.804  14.990  70.039  1.00  0.00     0.041 C 
ATOM      5  O   UNL     1      14.333  16.132  70.287  1.00  0.00    -0.550 OA
ATOM      6  O   UNL     1      16.172  14.836  69.851  1.00  0.00    -0.550 OA
ENDBRANCH   3   4
ENDBRANCH   2   3
ENDBRANCH   1   2
BRANCH   1   7
ATOM      7  C   UNL     1      11.613  13.100  68.470  1.00  0.00     0.000 C 
BRANCH   7   8
ATOM      8  C   UNL     1      10.468  12.332  67.786  1.00  0.00    -0.000 C 
BRANCH   8   9
ATOM      9  C   UNL     1       9.544  11.623  68.788  1.00  0.00    -0.003 C 
ATOM     10  C   UNL     1       9.271  10.185  68.359  1.00  0.00     0.004 C 
ENDBRANCH   8   9
ENDBRANCH   7   8
ENDBRANCH   1   7
TORSDOF 6
ENDMDL
MODEL 2
REMARK VINA RESULT:    -4.307      2.382      2.932
REMARK INTER + INTRA:          -6.075
REMARK INTER:                  -5.623
REMARK INTRA:                  -0.452
REMARK UNBOUND:                -0.257
REMARK SMILES CCCCCCCC(=O)[O-]
REMARK SMILES IDX 5 1 6 2 7 3 8 4 9 5 10 6 4 7 3 8 2 9 1 10
REMARK H PARENT
REMARK Flexibility Score: inf
ROOT
ATOM      1  C   UNL     1      12.734  13.373  69.207  1.00  0.00     0.000 C 
ENDROOT
BRANCH   1   2
ATOM      2  C   UNL     1      13.392  14.736  68.925  1.00  0.00     0.006 C 
BRANCH   2   3
ATOM      3  C   UNL     1      12.925  15.361  67.605  1.00  0.00     0.053 C 
BRANCH   3   4
ATOM      4  C   UNL     1      11.860  16.380  67.858  1.00  0.00     0.041 C 
ATOM      5  O   UNL     1      11.018  16.653  66.963  1.00  0.00    -0.550 OA
ATOM      6  O   UNL     1      11.765  16.993  69.102  1.00  0.00    -0.550 OA
ENDBRANCH   3   4
ENDBRANCH   2   3
ENDBRANCH   1   2
BRANCH   1   7
ATOM      7  C   UNL     1      11.418  13.437  70.007  1.00  0.00     0.000 C 
BRANCH   7   8
ATOM      8  C   UNL     1      10.135  13.409  69.157  1.00  0.00    -0.000 C 
BRANCH   8   9
ATOM      9  C   UNL     1      10.179  12.351  68.045  1.00  0.00    -0.003 C 
ATOM     10  C   UNL     1       9.521  11.051  68.498  1.00  0.00     0.004 C 
ENDBRANCH   8   9
ENDBRANCH   7   8
ENDBRANCH   1   7
TORSDOF 6
ENDMDL
MODEL 3
REMARK VINA RESULT:    -4.301      2.828      4.917
REMARK INTER + INTRA:          -6.066
REMARK INTER:                  -5.447
REMARK INTRA:                  -0.619
REMARK UNBOUND:                -0.257
REMARK SMILES CCCCCCCC(=O)[O-]
REMARK SMILES IDX 5 1 6 2 7 3 8 4 9 5 10 6 4 7 3 8 2 9 1 10
REMARK H PARENT
REMARK Flexibility Score: inf
ROOT
ATOM      1  C   UNL     1      13.683  15.128  69.105  1.00  0.00     0.000 C 
ENDROOT
BRANCH   1   2
ATOM      2  C   UNL     1      13.442  13.664  69.513  1.00  0.00     0.006 C 
BRANCH   2   3
ATOM      3  C   UNL     1      12.135  13.095  68.949  1.00  0.00     0.053 C 
BRANCH   3   4
ATOM      4  C   UNL     1      10.973  13.527  69.786  1.00  0.00     0.041 C 
ATOM      5  O   UNL     1      11.057  13.514  71.043  1.00  0.00    -0.550 OA
ATOM      6  O   UNL     1       9.814  13.995  69.179  1.00  0.00    -0.550 OA
ENDBRANCH   3   4
ENDBRANCH   2   3
ENDBRANCH   1   2
BRANCH   1   7
ATOM      7  C   UNL     1      14.190  16.045  70.236  1.00  0.00     0.000 C 
BRANCH   7   8
ATOM      8  C   UNL     1      13.101  16.868  70.949  1.00  0.00    -0.000 C 
BRANCH   8   9
ATOM      9  C   UNL     1      11.870  17.118  70.066  1.00  0.00    -0.003 C 
ATOM     10  C   UNL     1      10.589  17.108  70.895  1.00  0.00     0.004 C 
ENDBRANCH   8   9
ENDBRANCH   7   8
ENDBRANCH   1   7
TORSDOF 6
ENDMDL
MODEL 4
REMARK VINA RESULT:    -4.298      2.283      3.314
REMARK INTER + INTRA:          -6.062
REMARK INTER:                  -5.554
REMARK INTRA:                  -0.508
REMARK UNBOUND:                -0.257
REMARK SMILES CCCCCCCC(=O)[O-]
REMARK SMILES IDX 5 1 6 2 7 3 8 4 9 5 10 6 4 7 3 8 2 9 1 10
REMARK H PARENT
REMARK Flexibility Score: inf
ROOT
ATOM      1  C   UNL     1      10.925  13.560  69.708  1.00  0.00     0.000 C 
ENDROOT
BRANCH   1   2
ATOM      2  C   UNL     1      12.224  13.103  69.022  1.00  0.00     0.006 C 
BRANCH   2   3
ATOM      3  C   UNL     1      13.483  13.665  69.692  1.00  0.00     0.053 C 
BRANCH   3   4
ATOM      4  C   UNL     1      13.778  15.039  69.181  1.00  0.00     0.041 C 
ATOM      5  O   UNL     1      13.578  15.322  67.971  1.00  0.00    -0.550 OA
ATOM      6  O   UNL     1      14.228  16.023  70.053  1.00  0.00    -0.550 OA
ENDBRANCH   3   4
ENDBRANCH   2   3
ENDBRANCH   1   2
BRANCH   1   7
ATOM      7  C   UNL     1       9.754  13.864  68.753  1.00  0.00     0.000 C 
BRANCH   7   8
ATOM      8  C   UNL     1       9.264  15.323  68.761  1.00  0.00    -0.000 C 
BRANCH   8   9
ATOM      9  C   UNL     1      10.138  16.249  67.901  1.00  0.00    -0.003 C 
ATOM     10  C   UNL     1      10.758  17.358  68.746  1.00  0.00     0.004 C 
ENDBRANCH   8   9
ENDBRANCH   7   8
ENDBRANCH   1   7
TORSDOF 6
ENDMDL
MODEL 5
REMARK VINA RESULT:    -4.294      2.661      4.518
REMARK INTER + INTRA:          -6.057
REMARK INTER:                  -5.540
REMARK INTRA:                  -0.516
REMARK UNBOUND:                -0.257
REMARK SMILES CCCCCCCC(=O)[O-]
REMARK SMILES IDX 5 1 6 2 7 3 8 4 9 5 10 6 4 7 3 8 2 9 1 10
REMARK H PARENT
REMARK Flexibility Score: inf
ROOT
ATOM      1  C   UNL     1      12.497  13.236  69.196  1.00  0.00     0.000 C 
ENDROOT
BRANCH   1   2
ATOM      2  C   UNL     1      11.141  13.364  69.911  1.00  0.00     0.006 C 
BRANCH   2   3
ATOM      3  C   UNL     1      11.277  13.799  71.375  1.00  0.00     0.053 C 
BRANCH   3   4
ATOM      4  C   UNL     1      11.237  15.290  71.483  1.00  0.00     0.041 C 
ATOM      5  O   UNL     1      10.528  15.965  70.690  1.00  0.00    -0.550 OA
ATOM      6  O   UNL     1      11.942  15.933  72.493  1.00  0.00    -0.550 OA
ENDBRANCH   3   4
ENDBRANCH   2   3
ENDBRANCH   1   2
BRANCH   1   7
ATOM      7  C   UNL     1      12.921  14.469  68.374  1.00  0.00     0.000 C 
BRANCH   7   8
ATOM      8  C   UNL     1      13.964  15.378  69.049  1.00  0.00    -0.000 C 
BRANCH   8   9
ATOM      9  C   UNL     1      14.723  14.674  70.184  1.00  0.00    -0.003 C 
ATOM     10  C   UNL     1      16.214  14.583  69.873  1.00  0.00     0.004 C 
ENDBRANCH   8   9
ENDBRANCH   7   8
ENDBRANCH   1   7
TORSDOF 6
ENDMDL
MODEL 6
REMARK VINA RESULT:    -4.236      2.442      4.686
REMARK INTER + INTRA:          -5.979
REMARK INTER:                  -5.317
REMARK INTRA:                  -0.662
REMARK UNBOUND:                -0.257
REMARK SMILES CCCCCCCC(=O)[O-]
REMARK SMILES IDX 5 1 6 2 7 3 8 4 9 5 10 6 4 7 3 8 2 9 1 10
REMARK H PARENT
REMARK Flexibility Score: inf
ROOT
ATOM      1  C   UNL     1      11.535  13.381  69.778  1.00  0.00     0.000 C 
ENDROOT
BRANCH   1   2
ATOM      2  C   UNL     1      11.625  13.768  68.291  1.00  0.00     0.006 C 
BRANCH   2   3
ATOM      3  C   UNL     1      11.064  15.166  68.004  1.00  0.00     0.053 C 
BRANCH   3   4
ATOM      4  C   UNL     1      12.081  16.003  67.297  1.00  0.00     0.041 C 
ATOM      5  O   UNL     1      13.221  15.533  67.039  1.00  0.00    -0.550 OA
ATOM      6  O   UNL     1      11.755  17.286  66.876  1.00  0.00    -0.550 OA
ENDBRANCH   3   4
ENDBRANCH   2   3
ENDBRANCH   1   2
BRANCH   1   7
ATOM      7  C   UNL     1      12.483  14.156  70.714  1.00  0.00     0.000 C 
BRANCH   7   8
ATOM      8  C   UNL     1      13.954  14.204  70.260  1.00  0.00    -0.000 C 
BRANCH   8   9
ATOM      9  C   UNL     1      14.510  15.634  70.194  1.00  0.00    -0.003 C 
ATOM     10  C   UNL     1      13.490  16.643  70.714  1.00  0.00     0.004 C 
ENDBRANCH   8   9
ENDBRANCH   7   8
ENDBRANCH   1   7
TORSDOF 6
ENDMDL
MODEL 7
REMARK VINA RESULT:    -4.202      3.264      4.459
REMARK INTER + INTRA:          -5.933
REMARK INTER:                  -5.333
REMARK INTRA:                  -0.600
REMARK UNBOUND:                -0.257
REMARK SMILES CCCCCCCC(=O)[O-]
REMARK SMILES IDX 5 1 6 2 7 3 8 4 9 5 10 6 4 7 3 8 2 9 1 10
REMARK H PARENT
REMARK Flexibility Score: inf
ROOT
ATOM      1  C   UNL     1      13.461  15.344  68.929  1.00  0.00     0.000 C 
ENDROOT
BRANCH   1   2
ATOM      2  C   UNL     1      13.291  13.920  69.489  1.00  0.00     0.006 C 
BRANCH   2   3
ATOM      3  C   UNL     1      12.223  13.110  68.744  1.00  0.00     0.053 C 
BRANCH   3   4
ATOM      4  C   UNL     1      10.929  13.139  69.492  1.00  0.00     0.041 C 
ATOM      5  O   UNL     1       9.856  12.821  68.915  1.00  0.00    -0.550 OA
ATOM      6  O   UNL     1      10.912  13.470  70.842  1.00  0.00    -0.550 OA
ENDBRANCH   3   4
ENDBRANCH   2   3
ENDBRANCH   1   2
BRANCH   1   7
ATOM      7  C   UNL     1      13.026  15.524  67.461  1.00  0.00     0.000 C 
BRANCH   7   8
ATOM      8  C   UNL     1      11.847  16.489  67.242  1.00  0.00    -0.000 C 
BRANCH   8   9
ATOM      9  C   UNL     1      11.240  16.996  68.559  1.00  0.00    -0.003 C 
ATOM     10  C   UNL     1       9.793  16.533  68.709  1.00  0.00     0.004 C 
ENDBRANCH   8   9
ENDBRANCH   7   8
ENDBRANCH   1   7
TORSDOF 6
ENDMDL
MODEL 8
REMARK VINA RESULT:    -4.149      2.816      4.585
REMARK INTER + INTRA:          -5.862
REMARK INTER:                  -5.249
REMARK INTRA:                  -0.613
REMARK UNBOUND:                -0.257
REMARK SMILES CCCCCCCC(=O)[O-]
REMARK SMILES IDX 5 1 6 2 7 3 8 4 9 5 10 6 4 7 3 8 2 9 1 10
REMARK H PARENT
REMARK Flexibility Score: inf
ROOT
ATOM      1  C   UNL     1      11.141  13.975  68.074  1.00  0.00     0.000 C 
ENDROOT
BRANCH   1   2
ATOM      2  C   UNL     1       9.765  14.168  68.737  1.00  0.00     0.006 C 
BRANCH   2   3
ATOM      3  C   UNL     1       9.348  15.641  68.827  1.00  0.00     0.053 C 
BRANCH   3   4
ATOM      4  C   UNL     1      10.336  16.416  69.639  1.00  0.00     0.041 C 
ATOM      5  O   UNL     1      10.550  16.106  70.841  1.00  0.00    -0.550 OA
ATOM      6  O   UNL     1      11.058  17.449  69.055  1.00  0.00    -0.550 OA
ENDBRANCH   3   4
ENDBRANCH   2   3
ENDBRANCH   1   2
BRANCH   1   7
ATOM      7  C   UNL     1      12.057  12.942  68.760  1.00  0.00     0.000 C 
BRANCH   7   8
ATOM      8  C   UNL     1      13.239  13.537  69.547  1.00  0.00    -0.000 C 
BRANCH   8   9
ATOM      9  C   UNL     1      13.672  14.913  69.021  1.00  0.00    -0.003 C 
ATOM     10  C   UNL     1      14.112  15.823  70.164  1.00  0.00     0.004 C 
ENDBRANCH   8   9
ENDBRANCH   7   8
ENDBRANCH   1   7
TORSDOF 6
ENDMDL
MODEL 9
REMARK VINA RESULT:    -4.098      2.392      4.070
REMARK INTER + INTRA:          -5.792
REMARK INTER:                  -5.231
REMARK INTRA:                  -0.561
REMARK UNBOUND:                -0.257
REMARK SMILES CCCCCCCC(=O)[O-]
REMARK SMILES IDX 5 1 6 2 7 3 8 4 9 5 10 6 4 7 3 8 2 9 1 10
REMARK H PARENT
REMARK Flexibility Score: inf
ROOT
ATOM      1  C   UNL     1      11.228  13.574  70.916  1.00  0.00     0.000 C 
ENDROOT
BRANCH   1   2
ATOM      2  C   UNL     1      12.538  13.540  70.109  1.00  0.00     0.006 C 
BRANCH   2   3
ATOM      3  C   UNL     1      12.338  13.900  68.632  1.00  0.00     0.053 C 
BRANCH   3   4
ATOM      4  C   UNL     1      13.230  15.037  68.246  1.00  0.00     0.041 C 
ATOM      5  O   UNL     1      12.985  15.712  67.211  1.00  0.00    -0.550 OA
ATOM      6  O   UNL     1      14.303  15.386  69.057  1.00  0.00    -0.550 OA
ENDBRANCH   3   4
ENDBRANCH   2   3
ENDBRANCH   1   2
BRANCH   1   7
ATOM      7  C   UNL     1      11.203  14.587  72.078  1.00  0.00     0.000 C 
BRANCH   7   8
ATOM      8  C   UNL     1      11.751  15.984  71.740  1.00  0.00    -0.000 C 
BRANCH   8   9
ATOM      9  C   UNL     1      10.652  16.968  71.313  1.00  0.00    -0.003 C 
ATOM     10  C   UNL     1      10.802  17.355  69.845  1.00  0.00     0.004 C 
ENDBRANCH   8   9
ENDBRANCH   7   8
ENDBRANCH   1   7
TORSDOF 6
ENDMDL
