MODEL 1
REMARK VINA RESULT:    -4.536      0.000      0.000
REMARK INTER + INTRA:          -5.096
REMARK INTER:                  -4.934
REMARK INTRA:                  -0.162
REMARK UNBOUND:                -0.162
REMARK SMILES C=C(C)[C@H]1CC[C@H](C)C[C@@H]1O
REMARK SMILES IDX 8 1 7 2 6 3 5 4 4 5 10 6 9 7 11 8 2 10 1 11 3 12
REMARK H PARENT 11 9
REMARK Flexibility Score: inf
ROOT
ATOM      1  C   UNL     1     177.875 191.355 197.512  1.00  0.00     0.008 C 
ATOM      2  C   UNL     1     179.050 191.242 198.490  1.00  0.00    -0.012 C 
ATOM      3  C   UNL     1     178.576 191.490 199.935  1.00  0.00     0.004 C 
ATOM      4  C   UNL     1     179.740 191.362 200.924  1.00  0.00     0.011 C 
ATOM      5  C   UNL     1     180.419 189.982 200.805  1.00  0.00     0.043 C 
ATOM      6  C   UNL     1     180.896 189.724 199.356  1.00  0.00     0.121 C 
ATOM      7  C   UNL     1     179.721 189.861 198.370  1.00  0.00     0.035 C 
ENDROOT
BRANCH   6   8
ATOM      8  O   UNL     1     181.435 188.429 199.268  1.00  0.00    -0.392 OA
ATOM      9  H   UNL     1     182.395 188.534 199.036  1.00  0.00     0.210 HD
ENDBRANCH   6   8
BRANCH   5  10
ATOM     10  C   UNL     1     181.559 189.845 201.807  1.00  0.00    -0.075 C 
ATOM     11  C   UNL     1     181.614 188.813 202.667  1.00  0.00     0.008 C 
ATOM     12  C   UNL     1     182.656 190.878 201.849  1.00  0.00     0.039 C 
ENDBRANCH   5  10
TORSDOF 2
ENDMDL
MODEL 2
REMARK VINA RESULT:    -4.391     10.650     11.924
REMARK INTER + INTRA:          -4.938
REMARK INTER:                  -4.756
REMARK INTRA:                  -0.182
REMARK UNBOUND:                -0.162
REMARK SMILES C=C(C)[C@H]1CC[C@H](C)C[C@@H]1O
REMARK SMILES IDX 8 1 7 2 6 3 5 4 4 5 10 6 9 7 11 8 2 10 1 11 3 12
REMARK H PARENT 11 9
REMARK Flexibility Score: inf
ROOT
ATOM      1  C   UNL     1     185.344 192.286 187.724  1.00  0.00     0.008 C 
ATOM      2  C   UNL     1     184.674 190.966 188.123  1.00  0.00    -0.012 C 
ATOM      3  C   UNL     1     185.583 189.772 187.777  1.00  0.00     0.004 C 
ATOM      4  C   UNL     1     184.930 188.447 188.187  1.00  0.00     0.011 C 
ATOM      5  C   UNL     1     184.580 188.445 189.689  1.00  0.00     0.043 C 
ATOM      6  C   UNL     1     183.668 189.642 190.046  1.00  0.00     0.121 C 
ATOM      7  C   UNL     1     184.330 190.967 189.624  1.00  0.00     0.035 C 
ENDROOT
BRANCH   6   8
ATOM      8  O   UNL     1     183.436 189.653 191.432  1.00  0.00    -0.392 OA
ATOM      9  H   UNL     1     183.155 188.735 191.682  1.00  0.00     0.210 HD
ENDBRANCH   6   8
BRANCH   5  10
ATOM     10  C   UNL     1     183.956 187.117 190.103  1.00  0.00    -0.075 C 
ATOM     11  C   UNL     1     184.511 186.350 191.056  1.00  0.00     0.008 C 
ATOM     12  C   UNL     1     182.689 186.640 189.440  1.00  0.00     0.039 C 
ENDBRANCH   5  10
TORSDOF 2
ENDMDL
MODEL 3
REMARK VINA RESULT:    -4.391     10.150     11.394
REMARK INTER + INTRA:          -4.937
REMARK INTER:                  -4.745
REMARK INTRA:                  -0.192
REMARK UNBOUND:                -0.162
REMARK SMILES C=C(C)[C@H]1CC[C@H](C)C[C@@H]1O
REMARK SMILES IDX 8 1 7 2 6 3 5 4 4 5 10 6 9 7 11 8 2 10 1 11 3 12
REMARK H PARENT 11 9
REMARK Flexibility Score: inf
ROOT
ATOM      1  C   UNL     1     185.799 192.969 188.842  1.00  0.00     0.008 C 
ATOM      2  C   UNL     1     185.592 191.522 189.303  1.00  0.00    -0.012 C 
ATOM      3  C   UNL     1     185.065 191.487 190.750  1.00  0.00     0.004 C 
ATOM      4  C   UNL     1     184.838 190.045 191.218  1.00  0.00     0.011 C 
ATOM      5  C   UNL     1     183.872 189.302 190.271  1.00  0.00     0.043 C 
ATOM      6  C   UNL     1     184.393 189.334 188.815  1.00  0.00     0.121 C 
ATOM      7  C   UNL     1     184.624 190.786 188.357  1.00  0.00     0.035 C 
ENDROOT
BRANCH   6   8
ATOM      8  O   UNL     1     183.452 188.720 187.971  1.00  0.00    -0.392 OA
ATOM      9  H   UNL     1     182.685 189.347 187.894  1.00  0.00     0.210 HD
ENDBRANCH   6   8
BRANCH   5  10
ATOM     10  C   UNL     1     183.625 187.877 190.751  1.00  0.00    -0.075 C 
ATOM     11  C   UNL     1     182.402 187.467 191.127  1.00  0.00     0.008 C 
ATOM     12  C   UNL     1     184.765 186.892 190.811  1.00  0.00     0.039 C 
ENDBRANCH   5  10
TORSDOF 2
ENDMDL
MODEL 4
REMARK VINA RESULT:    -4.333     12.238     13.502
REMARK INTER + INTRA:          -4.874
REMARK INTER:                  -4.746
REMARK INTRA:                  -0.129
REMARK UNBOUND:                -0.162
REMARK SMILES C=C(C)[C@H]1CC[C@H](C)C[C@@H]1O
REMARK SMILES IDX 8 1 7 2 6 3 5 4 4 5 10 6 9 7 11 8 2 10 1 11 3 12
REMARK H PARENT 11 9
REMARK Flexibility Score: inf
ROOT
ATOM      1  C   UNL     1     185.708 189.312 185.089  1.00  0.00     0.008 C 
ATOM      2  C   UNL     1     185.900 189.963 186.463  1.00  0.00    -0.012 C 
ATOM      3  C   UNL     1     186.804 191.205 186.351  1.00  0.00     0.004 C 
ATOM      4  C   UNL     1     186.991 191.873 187.717  1.00  0.00     0.011 C 
ATOM      5  C   UNL     1     185.630 192.248 188.340  1.00  0.00     0.043 C 
ATOM      6  C   UNL     1     184.715 191.006 188.455  1.00  0.00     0.121 C 
ATOM      7  C   UNL     1     184.539 190.338 187.079  1.00  0.00     0.035 C 
ENDROOT
BRANCH   6   8
ATOM      8  O   UNL     1     183.459 191.398 188.950  1.00  0.00    -0.392 OA
ATOM      9  H   UNL     1     183.591 192.270 189.407  1.00  0.00     0.210 HD
ENDBRANCH   6   8
BRANCH   5  10
ATOM     10  C   UNL     1     185.816 192.938 189.687  1.00  0.00    -0.075 C 
ATOM     11  C   UNL     1     185.768 194.276 189.800  1.00  0.00     0.008 C 
ATOM     12  C   UNL     1     186.060 192.117 190.928  1.00  0.00     0.039 C 
ENDBRANCH   5  10
TORSDOF 2
ENDMDL
MODEL 5
REMARK VINA RESULT:    -4.279     10.399     12.034
REMARK INTER + INTRA:          -4.815
REMARK INTER:                  -4.626
REMARK INTRA:                  -0.190
REMARK UNBOUND:                -0.162
REMARK SMILES C=C(C)[C@H]1CC[C@H](C)C[C@@H]1O
REMARK SMILES IDX 8 1 7 2 6 3 5 4 4 5 10 6 9 7 11 8 2 10 1 11 3 12
REMARK H PARENT 11 9
REMARK Flexibility Score: inf
ROOT
ATOM      1  C   UNL     1     182.315 185.984 189.941  1.00  0.00     0.008 C 
ATOM      2  C   UNL     1     183.407 187.028 189.686  1.00  0.00    -0.012 C 
ATOM      3  C   UNL     1     183.346 187.529 188.231  1.00  0.00     0.004 C 
ATOM      4  C   UNL     1     184.424 188.587 187.968  1.00  0.00     0.011 C 
ATOM      5  C   UNL     1     184.292 189.767 188.954  1.00  0.00     0.043 C 
ATOM      6  C   UNL     1     184.351 189.273 190.418  1.00  0.00     0.121 C 
ATOM      7  C   UNL     1     183.269 188.206 190.670  1.00  0.00     0.035 C 
ENDROOT
BRANCH   6   8
ATOM      8  O   UNL     1     184.148 190.360 191.285  1.00  0.00    -0.392 OA
ATOM      9  H   UNL     1     183.528 190.049 191.995  1.00  0.00     0.210 HD
ENDBRANCH   6   8
BRANCH   5  10
ATOM     10  C   UNL     1     185.347 190.832 188.675  1.00  0.00    -0.075 C 
ATOM     11  C   UNL     1     185.013 192.034 188.177  1.00  0.00     0.008 C 
ATOM     12  C   UNL     1     186.800 190.548 188.959  1.00  0.00     0.039 C 
ENDBRANCH   5  10
TORSDOF 2
ENDMDL
MODEL 6
REMARK VINA RESULT:    -4.205     10.268     11.868
REMARK INTER + INTRA:          -4.735
REMARK INTER:                  -4.543
REMARK INTRA:                  -0.192
REMARK UNBOUND:                -0.162
REMARK SMILES C=C(C)[C@H]1CC[C@H](C)C[C@@H]1O
REMARK SMILES IDX 8 1 7 2 6 3 5 4 4 5 10 6 9 7 11 8 2 10 1 11 3 12
REMARK H PARENT 11 9
REMARK Flexibility Score: inf
ROOT
ATOM      1  C   UNL     1     185.795 187.470 192.580  1.00  0.00     0.008 C 
ATOM      2  C   UNL     1     185.802 188.843 191.900  1.00  0.00    -0.012 C 
ATOM      3  C   UNL     1     186.914 188.914 190.836  1.00  0.00     0.004 C 
ATOM      4  C   UNL     1     186.920 190.278 190.137  1.00  0.00     0.011 C 
ATOM      5  C   UNL     1     185.546 190.583 189.507  1.00  0.00     0.043 C 
ATOM      6  C   UNL     1     184.423 190.513 190.568  1.00  0.00     0.121 C 
ATOM      7  C   UNL     1     184.429 189.142 191.269  1.00  0.00     0.035 C 
ENDROOT
BRANCH   6   8
ATOM      8  O   UNL     1     183.180 190.717 189.946  1.00  0.00    -0.392 OA
ATOM      9  H   UNL     1     183.221 191.608 189.509  1.00  0.00     0.210 HD
ENDBRANCH   6   8
BRANCH   5  10
ATOM     10  C   UNL     1     185.559 191.928 188.789  1.00  0.00    -0.075 C 
ATOM     11  C   UNL     1     185.461 192.007 187.450  1.00  0.00     0.008 C 
ATOM     12  C   UNL     1     185.686 193.205 189.579  1.00  0.00     0.039 C 
ENDBRANCH   5  10
TORSDOF 2
ENDMDL
MODEL 7
REMARK VINA RESULT:    -4.177     11.038     12.222
REMARK INTER + INTRA:          -4.705
REMARK INTER:                  -4.552
REMARK INTRA:                  -0.152
REMARK UNBOUND:                -0.162
REMARK SMILES C=C(C)[C@H]1CC[C@H](C)C[C@@H]1O
REMARK SMILES IDX 8 1 7 2 6 3 5 4 4 5 10 6 9 7 11 8 2 10 1 11 3 12
REMARK H PARENT 11 9
REMARK Flexibility Score: inf
ROOT
ATOM      1  C   UNL     1     183.872 189.772 190.283  1.00  0.00     0.008 C 
ATOM      2  C   UNL     1     184.999 190.779 190.030  1.00  0.00    -0.012 C 
ATOM      3  C   UNL     1     184.602 191.767 188.917  1.00  0.00     0.004 C 
ATOM      4  C   UNL     1     185.715 192.790 188.667  1.00  0.00     0.011 C 
ATOM      5  C   UNL     1     186.070 193.548 189.962  1.00  0.00     0.043 C 
ATOM      6  C   UNL     1     186.470 192.564 191.087  1.00  0.00     0.121 C 
ATOM      7  C   UNL     1     185.348 191.537 191.326  1.00  0.00     0.035 C 
ENDROOT
BRANCH   6   8
ATOM      8  O   UNL     1     186.708 193.283 192.270  1.00  0.00    -0.392 OA
ATOM      9  H   UNL     1     187.438 192.809 192.751  1.00  0.00     0.210 HD
ENDBRANCH   6   8
BRANCH   5  10
ATOM     10  C   UNL     1     187.159 194.585 189.708  1.00  0.00    -0.075 C 
ATOM     11  C   UNL     1     186.867 195.892 189.591  1.00  0.00     0.008 C 
ATOM     12  C   UNL     1     188.598 194.154 189.581  1.00  0.00     0.039 C 
ENDBRANCH   5  10
TORSDOF 2
ENDMDL
MODEL 8
REMARK VINA RESULT:    -4.173     10.517     11.881
REMARK INTER + INTRA:          -4.701
REMARK INTER:                  -4.517
REMARK INTRA:                  -0.184
REMARK UNBOUND:                -0.162
REMARK SMILES C=C(C)[C@H]1CC[C@H](C)C[C@@H]1O
REMARK SMILES IDX 8 1 7 2 6 3 5 4 4 5 10 6 9 7 11 8 2 10 1 11 3 12
REMARK H PARENT 11 9
REMARK Flexibility Score: inf
ROOT
ATOM      1  C   UNL     1     182.339 185.855 189.975  1.00  0.00     0.008 C 
ATOM      2  C   UNL     1     182.771 187.301 189.711  1.00  0.00    -0.012 C 
ATOM      3  C   UNL     1     183.344 187.937 190.991  1.00  0.00     0.004 C 
ATOM      4  C   UNL     1     183.794 189.380 190.734  1.00  0.00     0.011 C 
ATOM      5  C   UNL     1     184.827 189.441 189.590  1.00  0.00     0.043 C 
ATOM      6  C   UNL     1     184.261 188.803 188.300  1.00  0.00     0.121 C 
ATOM      7  C   UNL     1     183.805 187.357 188.570  1.00  0.00     0.035 C 
ENDROOT
BRANCH   6   8
ATOM      8  O   UNL     1     185.254 188.804 187.306  1.00  0.00    -0.392 OA
ATOM      9  H   UNL     1     184.903 188.264 186.550  1.00  0.00     0.210 HD
ENDBRANCH   6   8
BRANCH   5  10
ATOM     10  C   UNL     1     185.296 190.872 189.353  1.00  0.00    -0.075 C 
ATOM     11  C   UNL     1     184.457 191.815 188.890  1.00  0.00     0.008 C 
ATOM     12  C   UNL     1     186.726 191.255 189.635  1.00  0.00     0.039 C 
ENDBRANCH   5  10
TORSDOF 2
ENDMDL
MODEL 9
REMARK VINA RESULT:    -4.159     11.040     12.302
REMARK INTER + INTRA:          -4.685
REMARK INTER:                  -4.492
REMARK INTRA:                  -0.193
REMARK UNBOUND:                -0.162
REMARK SMILES C=C(C)[C@H]1CC[C@H](C)C[C@@H]1O
REMARK SMILES IDX 8 1 7 2 6 3 5 4 4 5 10 6 9 7 11 8 2 10 1 11 3 12
REMARK H PARENT 11 9
REMARK Flexibility Score: inf
ROOT
ATOM      1  C   UNL     1     183.260 187.449 188.153  1.00  0.00     0.008 C 
ATOM      2  C   UNL     1     184.296 188.523 188.500  1.00  0.00    -0.012 C 
ATOM      3  C   UNL     1     184.363 189.589 187.390  1.00  0.00     0.004 C 
ATOM      4  C   UNL     1     185.385 190.678 187.735  1.00  0.00     0.011 C 
ATOM      5  C   UNL     1     185.061 191.330 189.094  1.00  0.00     0.043 C 
ATOM      6  C   UNL     1     184.991 190.267 190.215  1.00  0.00     0.121 C 
ATOM      7  C   UNL     1     183.966 189.174 189.857  1.00  0.00     0.035 C 
ENDROOT
BRANCH   6   8
ATOM      8  O   UNL     1     184.616 190.885 191.420  1.00  0.00    -0.392 OA
ATOM      9  H   UNL     1     184.112 191.705 191.176  1.00  0.00     0.210 HD
ENDBRANCH   6   8
BRANCH   5  10
ATOM     10  C   UNL     1     186.061 192.432 189.424  1.00  0.00    -0.075 C 
ATOM     11  C   UNL     1     185.692 193.724 189.465  1.00  0.00     0.008 C 
ATOM     12  C   UNL     1     187.500 192.084 189.713  1.00  0.00     0.039 C 
ENDBRANCH   5  10
TORSDOF 2
ENDMDL
