MODEL 1
REMARK VINA RESULT:    -7.293      0.000      0.000
REMARK INTER + INTRA:         -10.614
REMARK INTER:                  -9.851
REMARK INTRA:                  -0.763
REMARK UNBOUND:                -0.763
REMARK SMILES O=c1c(-c2ccc(O)cc2)coc2c([C@H]3O[C@@H](CO)[C@H](O)[C@H](O)[C@H]3O)c(O)ccc12
REMARK SMILES IDX 3 1 11 2 12 3 13 4 30 5 2 6 1 7 29 8 28 9 26 10 14 11 4 12
REMARK SMILES IDX 5 13 6 14 7 15 10 16 9 17 8 18 15 20 24 21 16 22 22 23 17 24
REMARK SMILES IDX 20 25 25 26 23 28 18 30 19 31 21 33 27 35
REMARK H PARENT 8 19 25 27 23 29 19 32 21 34 27 36
REMARK Flexibility Score: inf
ROOT
ATOM      1  C   UNL     1      -4.668  -1.462  -5.007  1.00  0.00     0.065 A 
ATOM      2  C   UNL     1      -3.299  -1.691  -4.819  1.00  0.00     0.208 A 
ATOM      3  O   UNL     1      -2.815  -2.927  -4.771  1.00  0.00    -0.463 OA
ATOM      4  C   UNL     1      -3.575  -4.012  -4.898  1.00  0.00     0.147 A 
ATOM      5  C   UNL     1      -4.967  -3.871  -5.103  1.00  0.00     0.066 A 
ATOM      6  C   UNL     1      -5.513  -2.577  -5.161  1.00  0.00     0.200 A 
ATOM      7  O   UNL     1      -6.747  -2.414  -5.370  1.00  0.00    -0.288 OA
ATOM      8  C   UNL     1      -5.764  -5.017  -5.256  1.00  0.00     0.020 A 
ATOM      9  C   UNL     1      -5.186  -6.283  -5.218  1.00  0.00     0.047 A 
ATOM     10  C   UNL     1      -3.809  -6.436  -5.017  1.00  0.00     0.125 A 
ATOM     11  C   UNL     1      -2.987  -5.298  -4.832  1.00  0.00     0.069 A 
ENDROOT
BRANCH   1  12
ATOM     12  C   UNL     1      -5.187  -0.071  -5.048  1.00  0.00    -0.011 A 
ATOM     13  C   UNL     1      -4.927   0.758  -6.155  1.00  0.00     0.013 A 
ATOM     14  C   UNL     1      -5.426   2.064  -6.193  1.00  0.00     0.047 A 
ATOM     15  C   UNL     1      -6.191   2.556  -5.131  1.00  0.00     0.115 A 
ATOM     16  C   UNL     1      -5.962   0.428  -3.988  1.00  0.00     0.013 A 
ATOM     17  C   UNL     1      -6.459   1.735  -4.028  1.00  0.00     0.047 A 
BRANCH  15  18
ATOM     18  O   UNL     1      -6.681   3.859  -5.183  1.00  0.00    -0.508 OA
ATOM     19  H   UNL     1      -6.328   4.582  -4.566  1.00  0.00     0.293 HD
ENDBRANCH  15  18
ENDBRANCH   1  12
BRANCH  11  20
ATOM     20  C   UNL     1      -1.479  -5.423  -4.638  1.00  0.00     0.188 C 
ATOM     21  C   UNL     1      -0.778  -5.701  -5.992  1.00  0.00     0.179 C 
ATOM     22  O   UNL     1      -1.175  -6.432  -3.690  1.00  0.00    -0.362 OA
ATOM     23  C   UNL     1       0.747  -5.846  -5.788  1.00  0.00     0.177 C 
ATOM     24  C   UNL     1       0.206  -6.424  -3.366  1.00  0.00     0.176 C 
ATOM     25  C   UNL     1       1.055  -6.796  -4.610  1.00  0.00     0.177 C 
BRANCH  21  26
ATOM     26  O   UNL     1      -1.311  -6.832  -6.641  1.00  0.00    -0.387 OA
ATOM     27  H   UNL     1      -1.233  -7.606  -6.027  1.00  0.00     0.211 HD
ENDBRANCH  21  26
BRANCH  23  28
ATOM     28  O   UNL     1       1.312  -4.583  -5.539  1.00  0.00    -0.387 OA
ATOM     29  H   UNL     1       1.381  -4.487  -4.553  1.00  0.00     0.211 HD
ENDBRANCH  23  28
BRANCH  24  30
ATOM     30  C   UNL     1       0.444  -7.429  -2.229  1.00  0.00     0.191 C 
BRANCH  30  31
ATOM     31  O   UNL     1      -0.331  -7.092  -1.110  1.00  0.00    -0.394 OA
ATOM     32  H   UNL     1      -1.123  -6.596  -1.448  1.00  0.00     0.210 HD
ENDBRANCH  30  31
ENDBRANCH  24  30
BRANCH  25  33
ATOM     33  O   UNL     1       2.433  -6.801  -4.324  1.00  0.00    -0.388 OA
ATOM     34  H   UNL     1       2.677  -7.709  -4.004  1.00  0.00     0.211 HD
ENDBRANCH  25  33
ENDBRANCH  11  20
BRANCH  10  35
ATOM     35  O   UNL     1      -3.264  -7.719  -5.009  1.00  0.00    -0.507 OA
ATOM     36  H   UNL     1      -2.352  -7.916  -5.406  1.00  0.00     0.293 HD
ENDBRANCH  10  35
TORSDOF 9
ENDMDL
MODEL 2
REMARK VINA RESULT:    -7.174      1.694      8.550
REMARK INTER + INTRA:         -10.454
REMARK INTER:                  -9.269
REMARK INTRA:                  -1.185
REMARK UNBOUND:                -0.763
REMARK SMILES O=c1c(-c2ccc(O)cc2)coc2c([C@H]3O[C@@H](CO)[C@H](O)[C@H](O)[C@H]3O)c(O)ccc12
REMARK SMILES IDX 3 1 11 2 12 3 13 4 30 5 2 6 1 7 29 8 28 9 26 10 14 11 4 12
REMARK SMILES IDX 5 13 6 14 7 15 10 16 9 17 8 18 15 20 24 21 16 22 22 23 17 24
REMARK SMILES IDX 20 25 25 26 23 28 18 30 19 31 21 33 27 35
REMARK H PARENT 8 19 25 27 23 29 19 32 21 34 27 36
REMARK Flexibility Score: inf
ROOT
ATOM      1  C   UNL     1      -2.736  -4.543  -4.578  1.00  0.00     0.065 A 
ATOM      2  C   UNL     1      -2.896  -3.161  -4.411  1.00  0.00     0.208 A 
ATOM      3  O   UNL     1      -4.055  -2.572  -4.681  1.00  0.00    -0.463 OA
ATOM      4  C   UNL     1      -5.124  -3.233  -5.117  1.00  0.00     0.147 A 
ATOM      5  C   UNL     1      -5.054  -4.633  -5.303  1.00  0.00     0.066 A 
ATOM      6  C   UNL     1      -3.842  -5.291  -5.024  1.00  0.00     0.200 A 
ATOM      7  O   UNL     1      -3.753  -6.543  -5.152  1.00  0.00    -0.288 OA
ATOM      8  C   UNL     1      -6.188  -5.331  -5.745  1.00  0.00     0.020 A 
ATOM      9  C   UNL     1      -7.379  -4.651  -5.988  1.00  0.00     0.047 A 
ATOM     10  C   UNL     1      -7.463  -3.266  -5.807  1.00  0.00     0.125 A 
ATOM     11  C   UNL     1      -6.324  -2.534  -5.389  1.00  0.00     0.069 A 
ENDROOT
BRANCH   1  12
ATOM     12  C   UNL     1      -1.428  -5.179  -4.277  1.00  0.00    -0.011 A 
ATOM     13  C   UNL     1      -1.177  -5.736  -3.010  1.00  0.00     0.013 A 
ATOM     14  C   UNL     1       0.053  -6.342  -2.735  1.00  0.00     0.047 A 
ATOM     15  C   UNL     1       1.043  -6.402  -3.720  1.00  0.00     0.115 A 
ATOM     16  C   UNL     1      -0.430  -5.250  -5.264  1.00  0.00     0.013 A 
ATOM     17  C   UNL     1       0.799  -5.855  -4.986  1.00  0.00     0.047 A 
BRANCH  15  18
ATOM     18  O   UNL     1       2.264  -7.008  -3.431  1.00  0.00    -0.508 OA
ATOM     19  H   UNL     1       2.772  -7.536  -4.131  1.00  0.00     0.293 HD
ENDBRANCH  15  18
ENDBRANCH   1  12
BRANCH  11  20
ATOM     20  C   UNL     1      -6.383  -1.027  -5.154  1.00  0.00     0.188 C 
ATOM     21  C   UNL     1      -6.815  -0.720  -3.698  1.00  0.00     0.179 C 
ATOM     22  O   UNL     1      -7.254  -0.407  -6.085  1.00  0.00    -0.362 OA
ATOM     23  C   UNL     1      -6.892   0.806  -3.470  1.00  0.00     0.177 C 
ATOM     24  C   UNL     1      -7.168   1.007  -5.996  1.00  0.00     0.176 C 
ATOM     25  C   UNL     1      -7.674   1.492  -4.612  1.00  0.00     0.177 C 
BRANCH  21  26
ATOM     26  O   UNL     1      -8.033  -1.343  -3.365  1.00  0.00    -0.387 OA
ATOM     27  H   UNL     1      -8.285  -1.949  -4.108  1.00  0.00     0.211 HD
ENDBRANCH  21  26
BRANCH  23  28
ATOM     28  O   UNL     1      -5.592   1.339  -3.399  1.00  0.00    -0.387 OA
ATOM     29  H   UNL     1      -5.624   2.091  -2.751  1.00  0.00     0.211 HD
ENDBRANCH  23  28
BRANCH  24  30
ATOM     30  C   UNL     1      -8.012   1.617  -7.125  1.00  0.00     0.191 C 
BRANCH  30  31
ATOM     31  O   UNL     1      -9.288   1.953  -6.652  1.00  0.00    -0.394 OA
ATOM     32  H   UNL     1      -9.934   1.703  -7.364  1.00  0.00     0.210 HD
ENDBRANCH  30  31
ENDBRANCH  24  30
BRANCH  25  33
ATOM     33  O   UNL     1      -7.606   2.892  -4.489  1.00  0.00    -0.388 OA
ATOM     34  H   UNL     1      -8.467   3.271  -4.807  1.00  0.00     0.211 HD
ENDBRANCH  25  33
ENDBRANCH  11  20
BRANCH  10  35
ATOM     35  O   UNL     1      -8.679  -2.624  -6.038  1.00  0.00    -0.507 OA
ATOM     36  H   UNL     1      -8.794  -1.627  -5.894  1.00  0.00     0.293 HD
ENDBRANCH  10  35
TORSDOF 9
ENDMDL
MODEL 3
REMARK VINA RESULT:    -6.685      2.107      9.228
REMARK INTER + INTRA:          -9.793
REMARK INTER:                  -9.229
REMARK INTRA:                  -0.565
REMARK UNBOUND:                -0.763
REMARK SMILES O=c1c(-c2ccc(O)cc2)coc2c([C@H]3O[C@@H](CO)[C@H](O)[C@H](O)[C@H]3O)c(O)ccc12
REMARK SMILES IDX 3 1 11 2 12 3 13 4 30 5 2 6 1 7 29 8 28 9 26 10 14 11 4 12
REMARK SMILES IDX 5 13 6 14 7 15 10 16 9 17 8 18 15 20 24 21 16 22 22 23 17 24
REMARK SMILES IDX 20 25 25 26 23 28 18 30 19 31 21 33 27 35
REMARK H PARENT 8 19 25 27 23 29 19 32 21 34 27 36
REMARK Flexibility Score: inf
ROOT
ATOM      1  C   UNL     1      -3.457  -3.453  -4.886  1.00  0.00     0.065 A 
ATOM      2  C   UNL     1      -4.720  -3.090  -4.402  1.00  0.00     0.208 A 
ATOM      3  O   UNL     1      -5.225  -1.886  -4.649  1.00  0.00    -0.463 OA
ATOM      4  C   UNL     1      -4.586  -0.960  -5.358  1.00  0.00     0.147 A 
ATOM      5  C   UNL     1      -3.309  -1.247  -5.895  1.00  0.00     0.066 A 
ATOM      6  C   UNL     1      -2.745  -2.513  -5.655  1.00  0.00     0.200 A 
ATOM      7  O   UNL     1      -1.620  -2.812  -6.142  1.00  0.00    -0.288 OA
ATOM      8  C   UNL     1      -2.645  -0.276  -6.659  1.00  0.00     0.020 A 
ATOM      9  C   UNL     1      -3.243   0.959  -6.898  1.00  0.00     0.047 A 
ATOM     10  C   UNL     1      -4.508   1.255  -6.374  1.00  0.00     0.125 A 
ATOM     11  C   UNL     1      -5.186   0.302  -5.576  1.00  0.00     0.069 A 
ENDROOT
BRANCH   1  12
ATOM     12  C   UNL     1      -2.910  -4.801  -4.590  1.00  0.00    -0.011 A 
ATOM     13  C   UNL     1      -3.499  -5.951  -5.146  1.00  0.00     0.013 A 
ATOM     14  C   UNL     1      -2.973  -7.218  -4.871  1.00  0.00     0.047 A 
ATOM     15  C   UNL     1      -1.855  -7.352  -4.043  1.00  0.00     0.115 A 
ATOM     16  C   UNL     1      -1.781  -4.943  -3.764  1.00  0.00     0.013 A 
ATOM     17  C   UNL     1      -1.259  -6.211  -3.490  1.00  0.00     0.047 A 
BRANCH  15  18
ATOM     18  O   UNL     1      -1.344  -8.620  -3.778  1.00  0.00    -0.508 OA
ATOM     19  H   UNL     1      -1.608  -9.135  -2.946  1.00  0.00     0.293 HD
ENDBRANCH  15  18
ENDBRANCH   1  12
BRANCH  11  20
ATOM     20  C   UNL     1      -6.577   0.578  -5.010  1.00  0.00     0.188 C 
ATOM     21  C   UNL     1      -7.638  -0.299  -5.723  1.00  0.00     0.179 C 
ATOM     22  O   UNL     1      -6.900   1.954  -5.116  1.00  0.00    -0.362 OA
ATOM     23  C   UNL     1      -9.046  -0.003  -5.160  1.00  0.00     0.177 C 
ATOM     24  C   UNL     1      -8.103   2.248  -4.425  1.00  0.00     0.176 C 
ATOM     25  C   UNL     1      -9.300   1.519  -5.091  1.00  0.00     0.177 C 
BRANCH  21  26
ATOM     26  O   UNL     1      -7.607  -0.135  -7.121  1.00  0.00    -0.387 OA
ATOM     27  H   UNL     1      -6.994   0.616  -7.331  1.00  0.00     0.211 HD
ENDBRANCH  21  26
BRANCH  23  28
ATOM     28  O   UNL     1      -9.168  -0.563  -3.876  1.00  0.00    -0.387 OA
ATOM     29  H   UNL     1     -10.076  -0.963  -3.821  1.00  0.00     0.211 HD
ENDBRANCH  23  28
BRANCH  24  30
ATOM     30  C   UNL     1      -8.317   3.768  -4.445  1.00  0.00     0.191 C 
BRANCH  30  31
ATOM     31  O   UNL     1      -9.260   4.141  -3.476  1.00  0.00    -0.394 OA
ATOM     32  H   UNL     1      -9.290   5.134  -3.472  1.00  0.00     0.210 HD
ENDBRANCH  30  31
ENDBRANCH  24  30
BRANCH  25  33
ATOM     33  O   UNL     1     -10.513   1.790  -4.432  1.00  0.00    -0.388 OA
ATOM     34  H   UNL     1     -10.516   1.290  -3.575  1.00  0.00     0.211 HD
ENDBRANCH  25  33
ENDBRANCH  11  20
BRANCH  10  35
ATOM     35  O   UNL     1      -5.085   2.493  -6.655  1.00  0.00    -0.507 OA
ATOM     36  H   UNL     1      -4.537   3.273  -6.999  1.00  0.00     0.293 HD
ENDBRANCH  10  35
TORSDOF 9
ENDMDL
MODEL 4
REMARK VINA RESULT:    -6.446      1.761      8.163
REMARK INTER + INTRA:          -9.471
REMARK INTER:                  -9.449
REMARK INTRA:                  -0.022
REMARK UNBOUND:                -0.763
REMARK SMILES O=c1c(-c2ccc(O)cc2)coc2c([C@H]3O[C@@H](CO)[C@H](O)[C@H](O)[C@H]3O)c(O)ccc12
REMARK SMILES IDX 3 1 11 2 12 3 13 4 30 5 2 6 1 7 29 8 28 9 26 10 14 11 4 12
REMARK SMILES IDX 5 13 6 14 7 15 10 16 9 17 8 18 15 20 24 21 16 22 22 23 17 24
REMARK SMILES IDX 20 25 25 26 23 28 18 30 19 31 21 33 27 35
REMARK H PARENT 8 19 25 27 23 29 19 32 21 34 27 36
REMARK Flexibility Score: inf
ROOT
ATOM      1  C   UNL     1      -1.712  -5.670  -4.005  1.00  0.00     0.065 A 
ATOM      2  C   UNL     1      -1.841  -4.276  -4.075  1.00  0.00     0.208 A 
ATOM      3  O   UNL     1      -2.898  -3.718  -4.654  1.00  0.00    -0.463 OA
ATOM      4  C   UNL     1      -3.889  -4.422  -5.194  1.00  0.00     0.147 A 
ATOM      5  C   UNL     1      -3.845  -5.835  -5.157  1.00  0.00     0.066 A 
ATOM      6  C   UNL     1      -2.741  -6.460  -4.549  1.00  0.00     0.200 A 
ATOM      7  O   UNL     1      -2.683  -7.719  -4.474  1.00  0.00    -0.288 OA
ATOM      8  C   UNL     1      -4.901  -6.576  -5.710  1.00  0.00     0.020 A 
ATOM      9  C   UNL     1      -5.991  -5.924  -6.282  1.00  0.00     0.047 A 
ATOM     10  C   UNL     1      -6.048  -4.526  -6.324  1.00  0.00     0.125 A 
ATOM     11  C   UNL     1      -4.981  -3.755  -5.798  1.00  0.00     0.069 A 
ENDROOT
BRANCH   1  12
ATOM     12  C   UNL     1      -0.517  -6.271  -3.360  1.00  0.00    -0.011 A 
ATOM     13  C   UNL     1      -0.609  -6.855  -2.083  1.00  0.00     0.013 A 
ATOM     14  C   UNL     1       0.518  -7.428  -1.486  1.00  0.00     0.047 A 
ATOM     15  C   UNL     1       1.746  -7.429  -2.154  1.00  0.00     0.115 A 
ATOM     16  C   UNL     1       0.719  -6.282  -4.028  1.00  0.00     0.013 A 
ATOM     17  C   UNL     1       1.844  -6.855  -3.427  1.00  0.00     0.047 A 
BRANCH  15  18
ATOM     18  O   UNL     1       2.859  -8.003  -1.545  1.00  0.00    -0.508 OA
ATOM     19  H   UNL     1       3.152  -8.950  -1.759  1.00  0.00     0.293 HD
ENDBRANCH  15  18
ENDBRANCH   1  12
BRANCH  11  20
ATOM     20  C   UNL     1      -5.019  -2.230  -5.801  1.00  0.00     0.188 C 
ATOM     21  C   UNL     1      -4.452  -1.669  -4.472  1.00  0.00     0.179 C 
ATOM     22  O   UNL     1      -6.337  -1.760  -6.030  1.00  0.00    -0.362 OA
ATOM     23  C   UNL     1      -4.511  -0.125  -4.471  1.00  0.00     0.177 C 
ATOM     24  C   UNL     1      -6.348  -0.354  -6.223  1.00  0.00     0.176 C 
ATOM     25  C   UNL     1      -5.901   0.371  -4.926  1.00  0.00     0.177 C 
BRANCH  21  26
ATOM     26  O   UNL     1      -5.115  -2.200  -3.348  1.00  0.00    -0.387 OA
ATOM     27  H   UNL     1      -5.622  -1.468  -2.913  1.00  0.00     0.211 HD
ENDBRANCH  21  26
BRANCH  23  28
ATOM     28  O   UNL     1      -3.520   0.384  -5.330  1.00  0.00    -0.387 OA
ATOM     29  H   UNL     1      -2.815   0.781  -4.754  1.00  0.00     0.211 HD
ENDBRANCH  23  28
BRANCH  24  30
ATOM     30  C   UNL     1      -7.770   0.071  -6.618  1.00  0.00     0.191 C 
BRANCH  30  31
ATOM     31  O   UNL     1      -8.580  -1.056  -6.812  1.00  0.00    -0.394 OA
ATOM     32  H   UNL     1      -7.978  -1.846  -6.819  1.00  0.00     0.210 HD
ENDBRANCH  30  31
ENDBRANCH  24  30
BRANCH  25  33
ATOM     33  O   UNL     1      -5.903   1.770  -5.080  1.00  0.00    -0.388 OA
ATOM     34  H   UNL     1      -5.948   2.178  -4.176  1.00  0.00     0.211 HD
ENDBRANCH  25  33
ENDBRANCH  11  20
BRANCH  10  35
ATOM     35  O   UNL     1      -7.166  -3.909  -6.883  1.00  0.00    -0.507 OA
ATOM     36  H   UNL     1      -8.056  -4.387  -6.964  1.00  0.00     0.293 HD
ENDBRANCH  10  35
TORSDOF 9
ENDMDL
MODEL 5
REMARK VINA RESULT:    -6.399      2.700      5.069
REMARK INTER + INTRA:          -9.407
REMARK INTER:                  -9.330
REMARK INTRA:                  -0.077
REMARK UNBOUND:                -0.763
REMARK SMILES O=c1c(-c2ccc(O)cc2)coc2c([C@H]3O[C@@H](CO)[C@H](O)[C@H](O)[C@H]3O)c(O)ccc12
REMARK SMILES IDX 3 1 11 2 12 3 13 4 30 5 2 6 1 7 29 8 28 9 26 10 14 11 4 12
REMARK SMILES IDX 5 13 6 14 7 15 10 16 9 17 8 18 15 20 24 21 16 22 22 23 17 24
REMARK SMILES IDX 20 25 25 26 23 28 18 30 19 31 21 33 27 35
REMARK H PARENT 8 19 25 27 23 29 19 32 21 34 27 36
REMARK Flexibility Score: inf
ROOT
ATOM      1  C   UNL     1      -7.970   2.043  -4.739  1.00  0.00     0.065 A 
ATOM      2  C   UNL     1      -6.677   1.595  -4.438  1.00  0.00     0.208 A 
ATOM      3  O   UNL     1      -6.342   0.320  -4.604  1.00  0.00    -0.463 OA
ATOM      4  C   UNL     1      -7.186  -0.602  -5.058  1.00  0.00     0.147 A 
ATOM      5  C   UNL     1      -8.509  -0.233  -5.396  1.00  0.00     0.066 A 
ATOM      6  C   UNL     1      -8.898   1.109  -5.236  1.00  0.00     0.200 A 
ATOM      7  O   UNL     1     -10.062   1.477  -5.554  1.00  0.00    -0.288 OA
ATOM      8  C   UNL     1      -9.392  -1.204  -5.893  1.00  0.00     0.020 A 
ATOM      9  C   UNL     1      -8.967  -2.519  -6.063  1.00  0.00     0.047 A 
ATOM     10  C   UNL     1      -7.659  -2.897  -5.734  1.00  0.00     0.125 A 
ATOM     11  C   UNL     1      -6.757  -1.943  -5.203  1.00  0.00     0.069 A 
ENDROOT
BRANCH   1  12
ATOM     12  C   UNL     1      -8.324   3.471  -4.537  1.00  0.00    -0.011 A 
ATOM     13  C   UNL     1      -9.554   3.829  -3.955  1.00  0.00     0.013 A 
ATOM     14  C   UNL     1      -9.877   5.175  -3.759  1.00  0.00     0.047 A 
ATOM     15  C   UNL     1      -8.980   6.177  -4.137  1.00  0.00     0.115 A 
ATOM     16  C   UNL     1      -7.423   4.484  -4.908  1.00  0.00     0.013 A 
ATOM     17  C   UNL     1      -7.751   5.829  -4.711  1.00  0.00     0.047 A 
BRANCH  15  18
ATOM     18  O   UNL     1      -9.317   7.514  -3.936  1.00  0.00    -0.508 OA
ATOM     19  H   UNL     1      -9.541   8.127  -4.711  1.00  0.00     0.293 HD
ENDBRANCH  15  18
ENDBRANCH   1  12
BRANCH  11  20
ATOM     20  C   UNL     1      -5.316  -2.309  -4.858  1.00  0.00     0.188 C 
ATOM     21  C   UNL     1      -4.325  -1.525  -5.754  1.00  0.00     0.179 C 
ATOM     22  O   UNL     1      -5.111  -3.707  -4.974  1.00  0.00    -0.362 OA
ATOM     23  C   UNL     1      -2.869  -1.913  -5.414  1.00  0.00     0.177 C 
ATOM     24  C   UNL     1      -3.836  -4.076  -4.474  1.00  0.00     0.176 C 
ATOM     25  C   UNL     1      -2.714  -3.449  -5.343  1.00  0.00     0.177 C 
BRANCH  21  26
ATOM     26  O   UNL     1      -4.591  -1.710  -7.125  1.00  0.00    -0.387 OA
ATOM     27  H   UNL     1      -4.426  -0.851  -7.591  1.00  0.00     0.211 HD
ENDBRANCH  21  26
BRANCH  23  28
ATOM     28  O   UNL     1      -2.504  -1.342  -4.182  1.00  0.00    -0.387 OA
ATOM     29  H   UNL     1      -1.532  -1.143  -4.233  1.00  0.00     0.211 HD
ENDBRANCH  23  28
BRANCH  24  30
ATOM     30  C   UNL     1      -3.735  -5.609  -4.485  1.00  0.00     0.191 C 
BRANCH  30  31
ATOM     31  O   UNL     1      -2.544  -6.023  -3.870  1.00  0.00    -0.394 OA
ATOM     32  H   UNL     1      -2.684  -6.961  -3.575  1.00  0.00     0.210 HD
ENDBRANCH  30  31
ENDBRANCH  24  30
BRANCH  25  33
ATOM     33  O   UNL     1      -1.432  -3.797  -4.877  1.00  0.00    -0.388 OA
ATOM     34  H   UNL     1      -1.125  -4.591  -5.388  1.00  0.00     0.211 HD
ENDBRANCH  25  33
ENDBRANCH  11  20
BRANCH  10  35
ATOM     35  O   UNL     1      -7.263  -4.217  -5.940  1.00  0.00    -0.507 OA
ATOM     36  H   UNL     1      -7.065  -4.578  -6.866  1.00  0.00     0.293 HD
ENDBRANCH  10  35
TORSDOF 9
ENDMDL
MODEL 6
REMARK VINA RESULT:    -6.365      1.228      2.296
REMARK INTER + INTRA:          -9.361
REMARK INTER:                  -8.979
REMARK INTRA:                  -0.382
REMARK UNBOUND:                -0.763
REMARK SMILES O=c1c(-c2ccc(O)cc2)coc2c([C@H]3O[C@@H](CO)[C@H](O)[C@H](O)[C@H]3O)c(O)ccc12
REMARK SMILES IDX 3 1 11 2 12 3 13 4 30 5 2 6 1 7 29 8 28 9 26 10 14 11 4 12
REMARK SMILES IDX 5 13 6 14 7 15 10 16 9 17 8 18 15 20 24 21 16 22 22 23 17 24
REMARK SMILES IDX 20 25 25 26 23 28 18 30 19 31 21 33 27 35
REMARK H PARENT 8 19 25 27 23 29 19 32 21 34 27 36
REMARK Flexibility Score: inf
ROOT
ATOM      1  C   UNL     1      -4.471  -2.562  -4.982  1.00  0.00     0.065 A 
ATOM      2  C   UNL     1      -3.155  -2.985  -4.753  1.00  0.00     0.208 A 
ATOM      3  O   UNL     1      -2.824  -4.267  -4.852  1.00  0.00    -0.463 OA
ATOM      4  C   UNL     1      -3.695  -5.221  -5.171  1.00  0.00     0.147 A 
ATOM      5  C   UNL     1      -5.043  -4.881  -5.429  1.00  0.00     0.066 A 
ATOM      6  C   UNL     1      -5.428  -3.531  -5.336  1.00  0.00     0.200 A 
ATOM      7  O   UNL     1      -6.616  -3.189  -5.586  1.00  0.00    -0.288 OA
ATOM      8  C   UNL     1      -5.955  -5.886  -5.784  1.00  0.00     0.020 A 
ATOM      9  C   UNL     1      -5.535  -7.209  -5.892  1.00  0.00     0.047 A 
ATOM     10  C   UNL     1      -4.203  -7.559  -5.640  1.00  0.00     0.125 A 
ATOM     11  C   UNL     1      -3.268  -6.568  -5.253  1.00  0.00     0.069 A 
ENDROOT
BRANCH   1  12
ATOM     12  C   UNL     1      -4.819  -1.124  -4.856  1.00  0.00    -0.011 A 
ATOM     13  C   UNL     1      -4.277  -0.175  -5.743  1.00  0.00     0.013 A 
ATOM     14  C   UNL     1      -4.616   1.176  -5.626  1.00  0.00     0.047 A 
ATOM     15  C   UNL     1      -5.499   1.597  -4.628  1.00  0.00     0.115 A 
ATOM     16  C   UNL     1      -5.712  -0.694  -3.859  1.00  0.00     0.013 A 
ATOM     17  C   UNL     1      -6.048   0.658  -3.745  1.00  0.00     0.047 A 
BRANCH  15  18
ATOM     18  O   UNL     1      -5.827   2.947  -4.523  1.00  0.00    -0.508 OA
ATOM     19  H   UNL     1      -5.623   3.601  -5.270  1.00  0.00     0.293 HD
ENDBRANCH  15  18
ENDBRANCH   1  12
BRANCH  11  20
ATOM     20  C   UNL     1      -1.802  -6.906  -4.997  1.00  0.00     0.188 C 
ATOM     21  C   UNL     1      -1.562  -7.183  -3.491  1.00  0.00     0.179 C 
ATOM     22  O   UNL     1      -0.957  -5.868  -5.465  1.00  0.00    -0.362 OA
ATOM     23  C   UNL     1      -0.073  -7.506  -3.234  1.00  0.00     0.177 C 
ATOM     24  C   UNL     1       0.405  -6.257  -5.404  1.00  0.00     0.176 C 
ATOM     25  C   UNL     1       0.840  -6.473  -3.930  1.00  0.00     0.177 C 
BRANCH  21  26
ATOM     26  O   UNL     1      -1.995  -6.115  -2.682  1.00  0.00    -0.387 OA
ATOM     27  H   UNL     1      -2.919  -6.309  -2.381  1.00  0.00     0.211 HD
ENDBRANCH  21  26
BRANCH  23  28
ATOM     28  O   UNL     1       0.219  -8.796  -3.713  1.00  0.00    -0.387 OA
ATOM     29  H   UNL     1       1.182  -8.959  -3.532  1.00  0.00     0.211 HD
ENDBRANCH  23  28
BRANCH  24  30
ATOM     30  C   UNL     1       1.254  -5.160  -6.063  1.00  0.00     0.191 C 
BRANCH  30  31
ATOM     31  O   UNL     1       2.383  -5.720  -6.679  1.00  0.00    -0.394 OA
ATOM     32  H   UNL     1       2.266  -5.598  -7.658  1.00  0.00     0.210 HD
ENDBRANCH  30  31
ENDBRANCH  24  30
BRANCH  25  33
ATOM     33  O   UNL     1       2.190  -6.857  -3.831  1.00  0.00    -0.388 OA
ATOM     34  H   UNL     1       2.362  -7.137  -2.895  1.00  0.00     0.211 HD
ENDBRANCH  25  33
ENDBRANCH  11  20
BRANCH  10  35
ATOM     35  O   UNL     1      -3.814  -8.891  -5.782  1.00  0.00    -0.507 OA
ATOM     36  H   UNL     1      -4.110  -9.454  -6.570  1.00  0.00     0.293 HD
ENDBRANCH  10  35
TORSDOF 9
ENDMDL
MODEL 7
REMARK VINA RESULT:    -6.113      4.249      6.998
REMARK INTER + INTRA:          -9.021
REMARK INTER:                  -8.651
REMARK INTRA:                  -0.370
REMARK UNBOUND:                -0.763
REMARK SMILES O=c1c(-c2ccc(O)cc2)coc2c([C@H]3O[C@@H](CO)[C@H](O)[C@H](O)[C@H]3O)c(O)ccc12
REMARK SMILES IDX 3 1 11 2 12 3 13 4 30 5 2 6 1 7 29 8 28 9 26 10 14 11 4 12
REMARK SMILES IDX 5 13 6 14 7 15 10 16 9 17 8 18 15 20 24 21 16 22 22 23 17 24
REMARK SMILES IDX 20 25 25 26 23 28 18 30 19 31 21 33 27 35
REMARK H PARENT 8 19 25 27 23 29 19 32 21 34 27 36
REMARK Flexibility Score: inf
ROOT
ATOM      1  C   UNL     1      -8.784   3.212  -5.472  1.00  0.00     0.065 A 
ATOM      2  C   UNL     1      -7.456   2.766  -5.420  1.00  0.00     0.208 A 
ATOM      3  O   UNL     1      -7.169   1.472  -5.492  1.00  0.00    -0.463 OA
ATOM      4  C   UNL     1      -8.096   0.526  -5.618  1.00  0.00     0.147 A 
ATOM      5  C   UNL     1      -9.461   0.888  -5.690  1.00  0.00     0.066 A 
ATOM      6  C   UNL     1      -9.802   2.251  -5.619  1.00  0.00     0.200 A 
ATOM      7  O   UNL     1     -11.008   2.612  -5.707  1.00  0.00    -0.288 OA
ATOM      8  C   UNL     1     -10.436  -0.110  -5.842  1.00  0.00     0.020 A 
ATOM      9  C   UNL     1     -10.061  -1.448  -5.934  1.00  0.00     0.047 A 
ATOM     10  C   UNL     1      -8.713  -1.820  -5.866  1.00  0.00     0.125 A 
ATOM     11  C   UNL     1      -7.712  -0.835  -5.684  1.00  0.00     0.069 A 
ENDROOT
BRANCH   1  12
ATOM     12  C   UNL     1      -9.081   4.664  -5.381  1.00  0.00    -0.011 A 
ATOM     13  C   UNL     1      -9.597   5.216  -4.195  1.00  0.00     0.013 A 
ATOM     14  C   UNL     1      -9.866   6.586  -4.111  1.00  0.00     0.047 A 
ATOM     15  C   UNL     1      -9.621   7.420  -5.206  1.00  0.00     0.115 A 
ATOM     16  C   UNL     1      -8.831   5.509  -6.476  1.00  0.00     0.013 A 
ATOM     17  C   UNL     1      -9.102   6.878  -6.389  1.00  0.00     0.047 A 
BRANCH  15  18
ATOM     18  O   UNL     1      -9.895   8.782  -5.109  1.00  0.00    -0.508 OA
ATOM     19  H   UNL     1     -10.326   9.292  -5.871  1.00  0.00     0.293 HD
ENDBRANCH  15  18
ENDBRANCH   1  12
BRANCH  11  20
ATOM     20  C   UNL     1      -6.231  -1.199  -5.633  1.00  0.00     0.188 C 
ATOM     21  C   UNL     1      -5.818  -1.598  -4.194  1.00  0.00     0.179 C 
ATOM     22  O   UNL     1      -5.434  -0.130  -6.114  1.00  0.00    -0.362 OA
ATOM     23  C   UNL     1      -4.314  -1.947  -4.143  1.00  0.00     0.177 C 
ATOM     24  C   UNL     1      -4.079  -0.528  -6.248  1.00  0.00     0.176 C 
ATOM     25  C   UNL     1      -3.475  -0.864  -4.858  1.00  0.00     0.177 C 
BRANCH  21  26
ATOM     26  O   UNL     1      -6.136  -0.598  -3.255  1.00  0.00    -0.387 OA
ATOM     27  H   UNL     1      -5.363   0.019  -3.186  1.00  0.00     0.211 HD
ENDBRANCH  21  26
BRANCH  23  28
ATOM     28  O   UNL     1      -4.098  -3.195  -4.755  1.00  0.00    -0.387 OA
ATOM     29  H   UNL     1      -4.275  -3.074  -5.725  1.00  0.00     0.211 HD
ENDBRANCH  23  28
BRANCH  24  30
ATOM     30  C   UNL     1      -3.299   0.616  -6.913  1.00  0.00     0.191 C 
BRANCH  30  31
ATOM     31  O   UNL     1      -2.993   1.609  -5.972  1.00  0.00    -0.394 OA
ATOM     32  H   UNL     1      -3.502   1.392  -5.147  1.00  0.00     0.210 HD
ENDBRANCH  30  31
ENDBRANCH  24  30
BRANCH  25  33
ATOM     33  O   UNL     1      -2.128  -1.261  -4.952  1.00  0.00    -0.388 OA
ATOM     34  H   UNL     1      -1.609  -0.499  -5.320  1.00  0.00     0.211 HD
ENDBRANCH  25  33
ENDBRANCH  11  20
BRANCH  10  35
ATOM     35  O   UNL     1      -8.376  -3.168  -5.986  1.00  0.00    -0.507 OA
ATOM     36  H   UNL     1      -9.074  -3.901  -5.938  1.00  0.00     0.293 HD
ENDBRANCH  10  35
TORSDOF 9
ENDMDL
MODEL 8
REMARK VINA RESULT:    -5.964      2.321      8.795
REMARK INTER + INTRA:          -8.820
REMARK INTER:                  -8.425
REMARK INTRA:                  -0.394
REMARK UNBOUND:                -0.763
REMARK SMILES O=c1c(-c2ccc(O)cc2)coc2c([C@H]3O[C@@H](CO)[C@H](O)[C@H](O)[C@H]3O)c(O)ccc12
REMARK SMILES IDX 3 1 11 2 12 3 13 4 30 5 2 6 1 7 29 8 28 9 26 10 14 11 4 12
REMARK SMILES IDX 5 13 6 14 7 15 10 16 9 17 8 18 15 20 24 21 16 22 22 23 17 24
REMARK SMILES IDX 20 25 25 26 23 28 18 30 19 31 21 33 27 35
REMARK H PARENT 8 19 25 27 23 29 19 32 21 34 27 36
REMARK Flexibility Score: inf
ROOT
ATOM      1  C   UNL     1      -3.377  -3.977  -5.035  1.00  0.00     0.065 A 
ATOM      2  C   UNL     1      -4.740  -3.758  -4.790  1.00  0.00     0.208 A 
ATOM      3  O   UNL     1      -5.319  -2.614  -5.136  1.00  0.00    -0.463 OA
ATOM      4  C   UNL     1      -4.667  -1.617  -5.727  1.00  0.00     0.147 A 
ATOM      5  C   UNL     1      -3.291  -1.758  -6.021  1.00  0.00     0.066 A 
ATOM      6  C   UNL     1      -2.645  -2.957  -5.672  1.00  0.00     0.200 A 
ATOM      7  O   UNL     1      -1.425  -3.127  -5.944  1.00  0.00    -0.288 OA
ATOM      8  C   UNL     1      -2.609  -0.712  -6.662  1.00  0.00     0.020 A 
ATOM      9  C   UNL     1      -3.285   0.453  -7.017  1.00  0.00     0.047 A 
ATOM     10  C   UNL     1      -4.648   0.604  -6.733  1.00  0.00     0.125 A 
ATOM     11  C   UNL     1      -5.352  -0.424  -6.061  1.00  0.00     0.069 A 
ENDROOT
BRANCH   1  12
ATOM     12  C   UNL     1      -2.750  -5.261  -4.632  1.00  0.00    -0.011 A 
ATOM     13  C   UNL     1      -3.107  -6.464  -5.268  1.00  0.00     0.013 A 
ATOM     14  C   UNL     1      -2.506  -7.668  -4.891  1.00  0.00     0.047 A 
ATOM     15  C   UNL     1      -1.540  -7.687  -3.880  1.00  0.00     0.115 A 
ATOM     16  C   UNL     1      -1.773  -5.286  -3.621  1.00  0.00     0.013 A 
ATOM     17  C   UNL     1      -1.175  -6.493  -3.246  1.00  0.00     0.047 A 
BRANCH  15  18
ATOM     18  O   UNL     1      -0.951  -8.895  -3.515  1.00  0.00    -0.508 OA
ATOM     19  H   UNL     1      -1.483  -9.757  -3.482  1.00  0.00     0.293 HD
ENDBRANCH  15  18
ENDBRANCH   1  12
BRANCH  11  20
ATOM     20  C   UNL     1      -6.843  -0.308  -5.759  1.00  0.00     0.188 C 
ATOM     21  C   UNL     1      -7.068   0.318  -4.359  1.00  0.00     0.179 C 
ATOM     22  O   UNL     1      -7.478  -1.572  -5.860  1.00  0.00    -0.362 OA
ATOM     23  C   UNL     1      -8.578   0.416  -4.050  1.00  0.00     0.177 C 
ATOM     24  C   UNL     1      -8.887  -1.441  -5.768  1.00  0.00     0.176 C 
ATOM     25  C   UNL     1      -9.290  -0.918  -4.364  1.00  0.00     0.177 C 
BRANCH  21  26
ATOM     26  O   UNL     1      -6.390  -0.391  -3.348  1.00  0.00    -0.387 OA
ATOM     27  H   UNL     1      -7.039  -0.601  -2.629  1.00  0.00     0.211 HD
ENDBRANCH  21  26
BRANCH  23  28
ATOM     28  O   UNL     1      -9.150   1.450  -4.813  1.00  0.00    -0.387 OA
ATOM     29  H   UNL     1      -8.572   2.250  -4.693  1.00  0.00     0.211 HD
ENDBRANCH  23  28
BRANCH  24  30
ATOM     30  C   UNL     1      -9.521  -2.813  -6.036  1.00  0.00     0.191 C 
BRANCH  30  31
ATOM     31  O   UNL     1     -10.874  -2.668  -6.378  1.00  0.00    -0.394 OA
ATOM     32  H   UNL     1     -10.942  -2.826  -7.356  1.00  0.00     0.210 HD
ENDBRANCH  30  31
ENDBRANCH  24  30
BRANCH  25  33
ATOM     33  O   UNL     1     -10.685  -0.779  -4.235  1.00  0.00    -0.388 OA
ATOM     34  H   UNL     1     -10.866   0.077  -3.767  1.00  0.00     0.211 HD
ENDBRANCH  25  33
ENDBRANCH  11  20
BRANCH  10  35
ATOM     35  O   UNL     1      -5.296   1.775  -7.125  1.00  0.00    -0.507 OA
ATOM     36  H   UNL     1      -5.659   2.438  -6.449  1.00  0.00     0.293 HD
ENDBRANCH  10  35
TORSDOF 9
ENDMDL
MODEL 9
REMARK VINA RESULT:    -4.358      2.524      8.676
REMARK INTER + INTRA:          -6.650
REMARK INTER:                  -5.907
REMARK INTRA:                  -0.743
REMARK UNBOUND:                -0.763
REMARK SMILES O=c1c(-c2ccc(O)cc2)coc2c([C@H]3O[C@@H](CO)[C@H](O)[C@H](O)[C@H]3O)c(O)ccc12
REMARK SMILES IDX 3 1 11 2 12 3 13 4 30 5 2 6 1 7 29 8 28 9 26 10 14 11 4 12
REMARK SMILES IDX 5 13 6 14 7 15 10 16 9 17 8 18 15 20 24 21 16 22 22 23 17 24
REMARK SMILES IDX 20 25 25 26 23 28 18 30 19 31 21 33 27 35
REMARK H PARENT 8 19 25 27 23 29 19 32 21 34 27 36
REMARK Flexibility Score: inf
ROOT
ATOM      1  C   UNL     1       0.693  -6.994  -2.297  1.00  0.00     0.065 A 
ATOM      2  C   UNL     1       0.072  -5.741  -2.201  1.00  0.00     0.208 A 
ATOM      3  O   UNL     1      -0.797  -5.339  -3.120  1.00  0.00    -0.463 OA
ATOM      4  C   UNL     1      -1.138  -6.077  -4.173  1.00  0.00     0.147 A 
ATOM      5  C   UNL     1      -0.567  -7.360  -4.343  1.00  0.00     0.066 A 
ATOM      6  C   UNL     1       0.356  -7.820  -3.386  1.00  0.00     0.200 A 
ATOM      7  O   UNL     1       0.863  -8.970  -3.492  1.00  0.00    -0.288 OA
ATOM      8  C   UNL     1      -0.943  -8.145  -5.444  1.00  0.00     0.020 A 
ATOM      9  C   UNL     1      -1.879  -7.669  -6.359  1.00  0.00     0.047 A 
ATOM     10  C   UNL     1      -2.452  -6.401  -6.202  1.00  0.00     0.125 A 
ATOM     11  C   UNL     1      -2.069  -5.578  -5.115  1.00  0.00     0.069 A 
ENDROOT
BRANCH   1  12
ATOM     12  C   UNL     1       1.668  -7.419  -1.262  1.00  0.00    -0.011 A 
ATOM     13  C   UNL     1       2.979  -6.908  -1.260  1.00  0.00     0.013 A 
ATOM     14  C   UNL     1       3.891  -7.304  -0.277  1.00  0.00     0.047 A 
ATOM     15  C   UNL     1       3.506  -8.209   0.717  1.00  0.00     0.115 A 
ATOM     16  C   UNL     1       1.286  -8.323  -0.256  1.00  0.00     0.013 A 
ATOM     17  C   UNL     1       2.201  -8.718   0.726  1.00  0.00     0.047 A 
BRANCH  15  18
ATOM     18  O   UNL     1       4.425  -8.595   1.690  1.00  0.00    -0.508 OA
ATOM     19  H   UNL     1       5.112  -7.946   2.057  1.00  0.00     0.293 HD
ENDBRANCH  15  18
ENDBRANCH   1  12
BRANCH  11  20
ATOM     20  C   UNL     1      -2.692  -4.202  -4.895  1.00  0.00     0.188 C 
ATOM     21  C   UNL     1      -4.145  -4.339  -4.374  1.00  0.00     0.179 C 
ATOM     22  O   UNL     1      -2.648  -3.434  -6.086  1.00  0.00    -0.362 OA
ATOM     23  C   UNL     1      -4.778  -2.944  -4.172  1.00  0.00     0.177 C 
ATOM     24  C   UNL     1      -3.049  -2.095  -5.841  1.00  0.00     0.176 C 
ATOM     25  C   UNL     1      -4.538  -2.049  -5.407  1.00  0.00     0.177 C 
BRANCH  21  26
ATOM     26  O   UNL     1      -4.938  -5.135  -5.223  1.00  0.00    -0.387 OA
ATOM     27  H   UNL     1      -4.850  -4.786  -6.147  1.00  0.00     0.211 HD
ENDBRANCH  21  26
BRANCH  23  28
ATOM     28  O   UNL     1      -4.224  -2.337  -3.031  1.00  0.00    -0.387 OA
ATOM     29  H   UNL     1      -3.999  -1.402  -3.282  1.00  0.00     0.211 HD
ENDBRANCH  23  28
BRANCH  24  30
ATOM     30  C   UNL     1      -2.834  -1.281  -7.125  1.00  0.00     0.191 C 
BRANCH  30  31
ATOM     31  O   UNL     1      -2.905   0.092  -6.850  1.00  0.00    -0.394 OA
ATOM     32  H   UNL     1      -3.723   0.433  -7.298  1.00  0.00     0.210 HD
ENDBRANCH  30  31
ENDBRANCH  24  30
BRANCH  25  33
ATOM     33  O   UNL     1      -4.972  -0.733  -5.159  1.00  0.00    -0.388 OA
ATOM     34  H   UNL     1      -5.723  -0.536  -5.776  1.00  0.00     0.211 HD
ENDBRANCH  25  33
ENDBRANCH  11  20
BRANCH  10  35
ATOM     35  O   UNL     1      -3.403  -5.969  -7.125  1.00  0.00    -0.507 OA
ATOM     36  H   UNL     1      -3.572  -4.985  -7.298  1.00  0.00     0.293 HD
ENDBRANCH  10  35
TORSDOF 9
ENDMDL
