MODEL 1
REMARK VINA RESULT:    -3.514      0.000      0.000
REMARK INTER + INTRA:          -8.094
REMARK INTER:                  -6.184
REMARK INTRA:                  -1.910
REMARK UNBOUND:                -1.910
REMARK SMILES CCCCCCCCCCCCCCC(=O)[O-]
REMARK SMILES IDX 9 1 10 2 11 3 12 4 13 5 14 6 15 7 16 8 17 9 8 10 7 11 6 12
REMARK SMILES IDX 5 13 4 14 3 15 2 16 1 17
REMARK H PARENT
REMARK Flexibility Score: inf
ROOT
ATOM      1  C   UNL     1      29.765 160.171 118.648  1.00  0.00     0.000 C 
ENDROOT
BRANCH   1   2
ATOM      2  C   UNL     1      29.209 161.039 119.792  1.00  0.00     0.000 C 
BRANCH   2   3
ATOM      3  C   UNL     1      28.809 160.263 121.060  1.00  0.00     0.000 C 
BRANCH   3   4
ATOM      4  C   UNL     1      28.838 158.739 120.860  1.00  0.00     0.000 C 
BRANCH   4   5
ATOM      5  C   UNL     1      29.591 158.011 121.985  1.00  0.00     0.006 C 
BRANCH   5   6
ATOM      6  C   UNL     1      30.788 157.203 121.465  1.00  0.00     0.053 C 
BRANCH   6   7
ATOM      7  C   UNL     1      31.945 158.109 121.181  1.00  0.00     0.041 C 
ATOM      8  O   UNL     1      32.222 159.050 121.970  1.00  0.00    -0.550 OA
ATOM      9  O   UNL     1      32.687 157.944 120.018  1.00  0.00    -0.550 OA
ENDBRANCH   6   7
ENDBRANCH   5   6
ENDBRANCH   4   5
ENDBRANCH   3   4
ENDBRANCH   2   3
ENDBRANCH   1   2
BRANCH   1  10
ATOM     10  C   UNL     1      28.905 160.233 117.376  1.00  0.00     0.000 C 
BRANCH  10  11
ATOM     11  C   UNL     1      27.437 160.515 117.718  1.00  0.00    -0.000 C 
BRANCH  11  12
ATOM     12  C   UNL     1      26.658 159.206 117.920  1.00  0.00    -0.000 C 
BRANCH  12  13
ATOM     13  C   UNL     1      25.620 159.302 119.049  1.00  0.00    -0.000 C 
BRANCH  13  14
ATOM     14  C   UNL     1      25.430 157.972 119.793  1.00  0.00    -0.000 C 
BRANCH  14  15
ATOM     15  C   UNL     1      25.636 156.781 118.849  1.00  0.00    -0.000 C 
BRANCH  15  16
ATOM     16  C   UNL     1      26.189 155.568 119.604  1.00  0.00    -0.003 C 
ATOM     17  C   UNL     1      26.475 155.911 121.064  1.00  0.00     0.004 C 
ENDBRANCH  15  16
ENDBRANCH  14  15
ENDBRANCH  13  14
ENDBRANCH  12  13
ENDBRANCH  11  12
ENDBRANCH  10  11
ENDBRANCH   1  10
TORSDOF 13
ENDMDL
MODEL 2
REMARK VINA RESULT:    -3.496      1.647      4.083
REMARK INTER + INTRA:          -8.063
REMARK INTER:                  -6.414
REMARK INTRA:                  -1.649
REMARK UNBOUND:                -1.910
REMARK SMILES CCCCCCCCCCCCCCC(=O)[O-]
REMARK SMILES IDX 9 1 10 2 11 3 12 4 13 5 14 6 15 7 16 8 17 9 8 10 7 11 6 12
REMARK SMILES IDX 5 13 4 14 3 15 2 16 1 17
REMARK H PARENT
REMARK Flexibility Score: inf
ROOT
ATOM      1  C   UNL     1      27.962 157.355 121.202  1.00  0.00     0.000 C 
ENDROOT
BRANCH   1   2
ATOM      2  C   UNL     1      27.632 158.731 121.809  1.00  0.00     0.000 C 
BRANCH   2   3
ATOM      3  C   UNL     1      28.480 159.897 121.270  1.00  0.00     0.000 C 
BRANCH   3   4
ATOM      4  C   UNL     1      29.492 159.455 120.200  1.00  0.00     0.000 C 
BRANCH   4   5
ATOM      5  C   UNL     1      30.063 160.639 119.404  1.00  0.00     0.006 C 
BRANCH   5   6
ATOM      6  C   UNL     1      30.578 160.222 118.019  1.00  0.00     0.053 C 
BRANCH   6   7
ATOM      7  C   UNL     1      32.074 160.192 118.006  1.00  0.00     0.041 C 
ATOM      8  O   UNL     1      32.700 160.272 116.916  1.00  0.00    -0.550 OA
ATOM      9  O   UNL     1      32.776 160.026 119.193  1.00  0.00    -0.550 OA
ENDBRANCH   6   7
ENDBRANCH   5   6
ENDBRANCH   4   5
ENDBRANCH   3   4
ENDBRANCH   2   3
ENDBRANCH   1   2
BRANCH   1  10
ATOM     10  C   UNL     1      26.861 156.312 121.449  1.00  0.00     0.000 C 
BRANCH  10  11
ATOM     11  C   UNL     1      26.247 155.836 120.127  1.00  0.00    -0.000 C 
BRANCH  11  12
ATOM     12  C   UNL     1      25.449 156.964 119.454  1.00  0.00    -0.000 C 
BRANCH  12  13
ATOM     13  C   UNL     1      25.523 156.908 117.920  1.00  0.00    -0.000 C 
BRANCH  13  14
ATOM     14  C   UNL     1      25.666 158.298 117.283  1.00  0.00    -0.000 C 
BRANCH  14  15
ATOM     15  C   UNL     1      26.622 159.178 118.097  1.00  0.00    -0.000 C 
BRANCH  15  16
ATOM     16  C   UNL     1      26.881 160.512 117.388  1.00  0.00    -0.003 C 
ATOM     17  C   UNL     1      27.457 160.293 115.992  1.00  0.00     0.004 C 
ENDBRANCH  15  16
ENDBRANCH  14  15
ENDBRANCH  13  14
ENDBRANCH  12  13
ENDBRANCH  11  12
ENDBRANCH  10  11
ENDBRANCH   1  10
TORSDOF 13
ENDMDL
MODEL 3
REMARK VINA RESULT:    -3.490      2.751      5.580
REMARK INTER + INTRA:          -8.052
REMARK INTER:                  -6.112
REMARK INTRA:                  -1.940
REMARK UNBOUND:                -1.910
REMARK SMILES CCCCCCCCCCCCCCC(=O)[O-]
REMARK SMILES IDX 9 1 10 2 11 3 12 4 13 5 14 6 15 7 16 8 17 9 8 10 7 11 6 12
REMARK SMILES IDX 5 13 4 14 3 15 2 16 1 17
REMARK H PARENT
REMARK Flexibility Score: inf
ROOT
ATOM      1  C   UNL     1      28.551 160.263 117.417  1.00  0.00     0.000 C 
ENDROOT
BRANCH   1   2
ATOM      2  C   UNL     1      27.216 160.192 116.654  1.00  0.00     0.000 C 
BRANCH   2   3
ATOM      3  C   UNL     1      26.253 159.090 117.132  1.00  0.00     0.000 C 
BRANCH   3   4
ATOM      4  C   UNL     1      25.548 159.446 118.451  1.00  0.00     0.000 C 
BRANCH   4   5
ATOM      5  C   UNL     1      25.607 158.305 119.479  1.00  0.00     0.006 C 
BRANCH   5   6
ATOM      6  C   UNL     1      25.633 156.920 118.820  1.00  0.00     0.053 C 
BRANCH   6   7
ATOM      7  C   UNL     1      26.190 155.902 119.764  1.00  0.00     0.041 C 
ATOM      8  O   UNL     1      26.177 154.680 119.460  1.00  0.00    -0.550 OA
ATOM      9  O   UNL     1      26.680 156.298 121.003  1.00  0.00    -0.550 OA
ENDBRANCH   6   7
ENDBRANCH   5   6
ENDBRANCH   4   5
ENDBRANCH   3   4
ENDBRANCH   2   3
ENDBRANCH   1   2
BRANCH   1  10
ATOM     10  C   UNL     1      28.640 161.474 118.358  1.00  0.00     0.000 C 
BRANCH  10  11
ATOM     11  C   UNL     1      28.793 161.027 119.817  1.00  0.00    -0.000 C 
BRANCH  11  12
ATOM     12  C   UNL     1      29.029 159.511 119.906  1.00  0.00    -0.000 C 
BRANCH  12  13
ATOM     13  C   UNL     1      30.313 159.156 120.672  1.00  0.00    -0.000 C 
BRANCH  13  14
ATOM     14  C   UNL     1      31.504 160.040 120.274  1.00  0.00    -0.000 C 
BRANCH  14  15
ATOM     15  C   UNL     1      32.315 159.393 119.145  1.00  0.00    -0.000 C 
BRANCH  15  16
ATOM     16  C   UNL     1      32.232 160.225 117.860  1.00  0.00    -0.003 C 
ATOM     17  C   UNL     1      32.300 161.719 118.165  1.00  0.00     0.004 C 
ENDBRANCH  15  16
ENDBRANCH  14  15
ENDBRANCH  13  14
ENDBRANCH  12  13
ENDBRANCH  11  12
ENDBRANCH  10  11
ENDBRANCH   1  10
TORSDOF 13
ENDMDL
MODEL 4
REMARK VINA RESULT:    -3.480      2.811      4.694
REMARK INTER + INTRA:          -8.035
REMARK INTER:                  -6.504
REMARK INTRA:                  -1.531
REMARK UNBOUND:                -1.910
REMARK SMILES CCCCCCCCCCCCCCC(=O)[O-]
REMARK SMILES IDX 9 1 10 2 11 3 12 4 13 5 14 6 15 7 16 8 17 9 8 10 7 11 6 12
REMARK SMILES IDX 5 13 4 14 3 15 2 16 1 17
REMARK H PARENT
REMARK Flexibility Score: inf
ROOT
ATOM      1  C   UNL     1      32.396 158.070 120.286  1.00  0.00     0.000 C 
ENDROOT
BRANCH   1   2
ATOM      2  C   UNL     1      32.266 159.571 119.965  1.00  0.00     0.000 C 
BRANCH   2   3
ATOM      3  C   UNL     1      31.655 159.888 118.588  1.00  0.00     0.000 C 
BRANCH   3   4
ATOM      4  C   UNL     1      30.312 160.631 118.688  1.00  0.00     0.000 C 
BRANCH   4   5
ATOM      5  C   UNL     1      29.300 160.165 117.630  1.00  0.00     0.006 C 
BRANCH   5   6
ATOM      6  C   UNL     1      27.968 159.719 118.247  1.00  0.00     0.053 C 
BRANCH   6   7
ATOM      7  C   UNL     1      26.829 160.076 117.344  1.00  0.00     0.041 C 
ATOM      8  O   UNL     1      25.645 160.038 117.771  1.00  0.00    -0.550 OA
ATOM      9  O   UNL     1      27.071 160.402 116.015  1.00  0.00    -0.550 OA
ENDBRANCH   6   7
ENDBRANCH   5   6
ENDBRANCH   4   5
ENDBRANCH   3   4
ENDBRANCH   2   3
ENDBRANCH   1   2
BRANCH   1  10
ATOM     10  C   UNL     1      31.297 157.563 121.233  1.00  0.00     0.000 C 
BRANCH  10  11
ATOM     11  C   UNL     1      30.610 158.729 121.954  1.00  0.00    -0.000 C 
BRANCH  11  12
ATOM     12  C   UNL     1      29.088 158.685 121.744  1.00  0.00    -0.000 C 
BRANCH  12  13
ATOM     13  C   UNL     1      28.577 157.274 121.411  1.00  0.00    -0.000 C 
BRANCH  13  14
ATOM     14  C   UNL     1      27.117 157.271 120.935  1.00  0.00    -0.000 C 
BRANCH  14  15
ATOM     15  C   UNL     1      26.537 155.852 120.952  1.00  0.00    -0.000 C 
BRANCH  15  16
ATOM     16  C   UNL     1      26.041 155.443 119.561  1.00  0.00    -0.003 C 
ATOM     17  C   UNL     1      25.604 156.660 118.751  1.00  0.00     0.004 C 
ENDBRANCH  15  16
ENDBRANCH  14  15
ENDBRANCH  13  14
ENDBRANCH  12  13
ENDBRANCH  11  12
ENDBRANCH  10  11
ENDBRANCH   1  10
TORSDOF 13
ENDMDL
MODEL 5
REMARK VINA RESULT:    -3.451      2.784      4.864
REMARK INTER + INTRA:          -7.984
REMARK INTER:                  -6.495
REMARK INTRA:                  -1.490
REMARK UNBOUND:                -1.910
REMARK SMILES CCCCCCCCCCCCCCC(=O)[O-]
REMARK SMILES IDX 9 1 10 2 11 3 12 4 13 5 14 6 15 7 16 8 17 9 8 10 7 11 6 12
REMARK SMILES IDX 5 13 4 14 3 15 2 16 1 17
REMARK H PARENT
REMARK Flexibility Score: inf
ROOT
ATOM      1  C   UNL     1      32.016 157.988 120.525  1.00  0.00     0.000 C 
ENDROOT
BRANCH   1   2
ATOM      2  C   UNL     1      30.955 157.232 121.346  1.00  0.00     0.000 C 
BRANCH   2   3
ATOM      3  C   UNL     1      29.674 158.032 121.643  1.00  0.00     0.000 C 
BRANCH   3   4
ATOM      4  C   UNL     1      28.397 157.184 121.514  1.00  0.00     0.000 C 
BRANCH   4   5
ATOM      5  C   UNL     1      27.386 157.786 120.526  1.00  0.00     0.006 C 
BRANCH   5   6
ATOM      6  C   UNL     1      26.023 157.082 120.577  1.00  0.00     0.053 C 
BRANCH   6   7
ATOM      7  C   UNL     1      25.893 156.115 119.442  1.00  0.00     0.041 C 
ATOM      8  O   UNL     1      26.159 154.896 119.615  1.00  0.00    -0.550 OA
ATOM      9  O   UNL     1      25.526 156.568 118.181  1.00  0.00    -0.550 OA
ENDBRANCH   6   7
ENDBRANCH   5   6
ENDBRANCH   4   5
ENDBRANCH   3   4
ENDBRANCH   2   3
ENDBRANCH   1   2
BRANCH   1  10
ATOM     10  C   UNL     1      31.607 159.434 120.205  1.00  0.00     0.000 C 
BRANCH  10  11
ATOM     11  C   UNL     1      31.928 159.786 118.747  1.00  0.00    -0.000 C 
BRANCH  11  12
ATOM     12  C   UNL     1      30.666 160.246 118.002  1.00  0.00    -0.000 C 
BRANCH  12  13
ATOM     13  C   UNL     1      29.483 160.512 118.947  1.00  0.00    -0.000 C 
BRANCH  13  14
ATOM     14  C   UNL     1      28.200 160.898 118.196  1.00  0.00    -0.000 C 
BRANCH  14  15
ATOM     15  C   UNL     1      28.172 160.266 116.799  1.00  0.00    -0.000 C 
BRANCH  15  16
ATOM     16  C   UNL     1      26.757 159.808 116.430  1.00  0.00    -0.003 C 
ATOM     17  C   UNL     1      25.813 159.914 117.625  1.00  0.00     0.004 C 
ENDBRANCH  15  16
ENDBRANCH  14  15
ENDBRANCH  13  14
ENDBRANCH  12  13
ENDBRANCH  11  12
ENDBRANCH  10  11
ENDBRANCH   1  10
TORSDOF 13
ENDMDL
MODEL 6
REMARK VINA RESULT:    -3.426      2.587      5.187
REMARK INTER + INTRA:          -7.939
REMARK INTER:                  -6.318
REMARK INTRA:                  -1.620
REMARK UNBOUND:                -1.910
REMARK SMILES CCCCCCCCCCCCCCC(=O)[O-]
REMARK SMILES IDX 9 1 10 2 11 3 12 4 13 5 14 6 15 7 16 8 17 9 8 10 7 11 6 12
REMARK SMILES IDX 5 13 4 14 3 15 2 16 1 17
REMARK H PARENT
REMARK Flexibility Score: inf
ROOT
ATOM      1  C   UNL     1      28.821 159.890 118.124  1.00  0.00     0.000 C 
ENDROOT
BRANCH   1   2
ATOM      2  C   UNL     1      27.850 160.391 117.039  1.00  0.00     0.000 C 
BRANCH   2   3
ATOM      3  C   UNL     1      26.545 159.585 116.914  1.00  0.00     0.000 C 
BRANCH   3   4
ATOM      4  C   UNL     1      25.997 159.122 118.275  1.00  0.00     0.000 C 
BRANCH   4   5
ATOM      5  C   UNL     1      25.789 157.601 118.341  1.00  0.00     0.006 C 
BRANCH   5   6
ATOM      6  C   UNL     1      25.360 157.126 119.736  1.00  0.00     0.053 C 
BRANCH   6   7
ATOM      7  C   UNL     1      26.069 155.859 120.097  1.00  0.00     0.041 C 
ATOM      8  O   UNL     1      26.233 154.956 119.234  1.00  0.00    -0.550 OA
ATOM      9  O   UNL     1      26.505 155.653 121.400  1.00  0.00    -0.550 OA
ENDBRANCH   6   7
ENDBRANCH   5   6
ENDBRANCH   4   5
ENDBRANCH   3   4
ENDBRANCH   2   3
ENDBRANCH   1   2
BRANCH   1  10
ATOM     10  C   UNL     1      30.026 160.822 118.326  1.00  0.00     0.000 C 
BRANCH  10  11
ATOM     11  C   UNL     1      31.332 160.023 118.407  1.00  0.00    -0.000 C 
BRANCH  11  12
ATOM     12  C   UNL     1      31.819 159.910 119.860  1.00  0.00    -0.000 C 
BRANCH  12  13
ATOM     13  C   UNL     1      32.469 158.551 120.163  1.00  0.00    -0.000 C 
BRANCH  13  14
ATOM     14  C   UNL     1      31.557 157.629 120.985  1.00  0.00    -0.000 C 
BRANCH  14  15
ATOM     15  C   UNL     1      30.503 158.439 121.750  1.00  0.00    -0.000 C 
BRANCH  15  16
ATOM     16  C   UNL     1      29.089 157.941 121.433  1.00  0.00    -0.003 C 
ATOM     17  C   UNL     1      28.066 159.066 121.566  1.00  0.00     0.004 C 
ENDBRANCH  15  16
ENDBRANCH  14  15
ENDBRANCH  13  14
ENDBRANCH  12  13
ENDBRANCH  11  12
ENDBRANCH  10  11
ENDBRANCH   1  10
TORSDOF 13
ENDMDL
MODEL 7
REMARK VINA RESULT:    -3.358      2.517      5.338
REMARK INTER + INTRA:          -7.821
REMARK INTER:                  -6.018
REMARK INTRA:                  -1.803
REMARK UNBOUND:                -1.910
REMARK SMILES CCCCCCCCCCCCCCC(=O)[O-]
REMARK SMILES IDX 9 1 10 2 11 3 12 4 13 5 14 6 15 7 16 8 17 9 8 10 7 11 6 12
REMARK SMILES IDX 5 13 4 14 3 15 2 16 1 17
REMARK H PARENT
REMARK Flexibility Score: inf
ROOT
ATOM      1  C   UNL     1      29.549 160.079 118.502  1.00  0.00     0.000 C 
ENDROOT
BRANCH   1   2
ATOM      2  C   UNL     1      28.635 160.221 117.271  1.00  0.00     0.000 C 
BRANCH   2   3
ATOM      3  C   UNL     1      27.138 160.386 117.591  1.00  0.00     0.000 C 
BRANCH   3   4
ATOM      4  C   UNL     1      26.313 159.135 117.249  1.00  0.00     0.000 C 
BRANCH   4   5
ATOM      5  C   UNL     1      25.816 158.395 118.501  1.00  0.00     0.006 C 
BRANCH   5   6
ATOM      6  C   UNL     1      25.612 156.894 118.255  1.00  0.00     0.053 C 
BRANCH   6   7
ATOM      7  C   UNL     1      25.932 156.114 119.492  1.00  0.00     0.041 C 
ATOM      8  O   UNL     1      26.236 154.895 119.412  1.00  0.00    -0.550 OA
ATOM      9  O   UNL     1      25.845 156.722 120.738  1.00  0.00    -0.550 OA
ENDBRANCH   6   7
ENDBRANCH   5   6
ENDBRANCH   4   5
ENDBRANCH   3   4
ENDBRANCH   2   3
ENDBRANCH   1   2
BRANCH   1  10
ATOM     10  C   UNL     1      29.189 161.056 119.632  1.00  0.00     0.000 C 
BRANCH  10  11
ATOM     11  C   UNL     1      28.818 160.302 120.914  1.00  0.00    -0.000 C 
BRANCH  11  12
ATOM     12  C   UNL     1      28.654 158.799 120.641  1.00  0.00    -0.000 C 
BRANCH  12  13
ATOM     13  C   UNL     1      29.126 157.927 121.816  1.00  0.00    -0.000 C 
BRANCH  13  14
ATOM     14  C   UNL     1      30.415 157.155 121.499  1.00  0.00    -0.000 C 
BRANCH  14  15
ATOM     15  C   UNL     1      31.650 158.038 121.709  1.00  0.00    -0.000 C 
BRANCH  15  16
ATOM     16  C   UNL     1      32.376 158.295 120.384  1.00  0.00    -0.003 C 
ATOM     17  C   UNL     1      32.792 159.758 120.257  1.00  0.00     0.004 C 
ENDBRANCH  15  16
ENDBRANCH  14  15
ENDBRANCH  13  14
ENDBRANCH  12  13
ENDBRANCH  11  12
ENDBRANCH  10  11
ENDBRANCH   1  10
TORSDOF 13
ENDMDL
MODEL 8
REMARK VINA RESULT:    -3.352      1.142      3.668
REMARK INTER + INTRA:          -7.810
REMARK INTER:                  -6.507
REMARK INTRA:                  -1.303
REMARK UNBOUND:                -1.910
REMARK SMILES CCCCCCCCCCCCCCC(=O)[O-]
REMARK SMILES IDX 9 1 10 2 11 3 12 4 13 5 14 6 15 7 16 8 17 9 8 10 7 11 6 12
REMARK SMILES IDX 5 13 4 14 3 15 2 16 1 17
REMARK H PARENT
REMARK Flexibility Score: inf
ROOT
ATOM      1  C   UNL     1      26.554 156.077 120.361  1.00  0.00     0.000 C 
ENDROOT
BRANCH   1   2
ATOM      2  C   UNL     1      26.964 156.395 121.810  1.00  0.00     0.000 C 
BRANCH   2   3
ATOM      3  C   UNL     1      28.056 157.470 121.954  1.00  0.00     0.000 C 
BRANCH   3   4
ATOM      4  C   UNL     1      29.477 156.881 121.957  1.00  0.00     0.000 C 
BRANCH   4   5
ATOM      5  C   UNL     1      30.564 157.960 121.836  1.00  0.00     0.006 C 
BRANCH   5   6
ATOM      6  C   UNL     1      31.714 157.535 120.914  1.00  0.00     0.053 C 
BRANCH   6   7
ATOM      7  C   UNL     1      32.472 158.735 120.438  1.00  0.00     0.041 C 
ATOM      8  O   UNL     1      33.160 159.412 121.247  1.00  0.00    -0.550 OA
ATOM      9  O   UNL     1      32.379 159.135 119.111  1.00  0.00    -0.550 OA
ENDBRANCH   6   7
ENDBRANCH   5   6
ENDBRANCH   4   5
ENDBRANCH   3   4
ENDBRANCH   2   3
ENDBRANCH   1   2
BRANCH   1  10
ATOM     10  C   UNL     1      25.360 156.914 119.878  1.00  0.00     0.000 C 
BRANCH  10  11
ATOM     11  C   UNL     1      25.833 158.157 119.113  1.00  0.00    -0.000 C 
BRANCH  11  12
ATOM     12  C   UNL     1      25.580 158.005 117.606  1.00  0.00    -0.000 C 
BRANCH  12  13
ATOM     13  C   UNL     1      26.313 159.067 116.771  1.00  0.00    -0.000 C 
BRANCH  13  14
ATOM     14  C   UNL     1      26.679 160.313 117.590  1.00  0.00    -0.000 C 
BRANCH  14  15
ATOM     15  C   UNL     1      28.000 160.922 117.103  1.00  0.00    -0.000 C 
BRANCH  15  16
ATOM     16  C   UNL     1      29.200 160.224 117.751  1.00  0.00    -0.003 C 
ATOM     17  C   UNL     1      28.972 160.005 119.244  1.00  0.00     0.004 C 
ENDBRANCH  15  16
ENDBRANCH  14  15
ENDBRANCH  13  14
ENDBRANCH  12  13
ENDBRANCH  11  12
ENDBRANCH  10  11
ENDBRANCH   1  10
TORSDOF 13
ENDMDL
MODEL 9
REMARK VINA RESULT:    -3.351      2.668      5.408
REMARK INTER + INTRA:          -7.807
REMARK INTER:                  -6.618
REMARK INTRA:                  -1.189
REMARK UNBOUND:                -1.910
REMARK SMILES CCCCCCCCCCCCCCC(=O)[O-]
REMARK SMILES IDX 9 1 10 2 11 3 12 4 13 5 14 6 15 7 16 8 17 9 8 10 7 11 6 12
REMARK SMILES IDX 5 13 4 14 3 15 2 16 1 17
REMARK H PARENT
REMARK Flexibility Score: inf
ROOT
ATOM      1  C   UNL     1      28.136 160.273 116.786  1.00  0.00     0.000 C 
ENDROOT
BRANCH   1   2
ATOM      2  C   UNL     1      26.692 160.253 116.250  1.00  0.00     0.000 C 
BRANCH   2   3
ATOM      3  C   UNL     1      25.628 159.808 117.270  1.00  0.00     0.000 C 
BRANCH   3   4
ATOM      4  C   UNL     1      25.720 158.312 117.614  1.00  0.00     0.000 C 
BRANCH   4   5
ATOM      5  C   UNL     1      26.164 158.066 119.064  1.00  0.00     0.006 C 
BRANCH   5   6
ATOM      6  C   UNL     1      25.284 157.035 119.782  1.00  0.00     0.053 C 
BRANCH   6   7
ATOM      7  C   UNL     1      26.101 155.854 120.203  1.00  0.00     0.041 C 
ATOM      8  O   UNL     1      26.686 155.853 121.319  1.00  0.00    -0.550 OA
ATOM      9  O   UNL     1      26.257 154.774 119.343  1.00  0.00    -0.550 OA
ENDBRANCH   6   7
ENDBRANCH   5   6
ENDBRANCH   4   5
ENDBRANCH   3   4
ENDBRANCH   2   3
ENDBRANCH   1   2
BRANCH   1  10
ATOM     10  C   UNL     1      28.276 161.056 118.101  1.00  0.00     0.000 C 
BRANCH  10  11
ATOM     11  C   UNL     1      29.148 160.292 119.105  1.00  0.00    -0.000 C 
BRANCH  11  12
ATOM     12  C   UNL     1      30.581 160.847 119.123  1.00  0.00    -0.000 C 
BRANCH  12  13
ATOM     13  C   UNL     1      31.488 160.179 118.078  1.00  0.00    -0.000 C 
BRANCH  13  14
ATOM     14  C   UNL     1      32.676 159.440 118.712  1.00  0.00    -0.000 C 
BRANCH  14  15
ATOM     15  C   UNL     1      32.461 159.245 120.218  1.00  0.00    -0.000 C 
BRANCH  15  16
ATOM     16  C   UNL     1      32.329 157.759 120.568  1.00  0.00    -0.003 C 
ATOM     17  C   UNL     1      31.062 157.493 121.376  1.00  0.00     0.004 C 
ENDBRANCH  15  16
ENDBRANCH  14  15
ENDBRANCH  13  14
ENDBRANCH  12  13
ENDBRANCH  11  12
ENDBRANCH  10  11
ENDBRANCH   1  10
TORSDOF 13
ENDMDL
