MODEL 1
REMARK VINA RESULT:    -3.151      0.000      0.000
REMARK INTER + INTRA:          -9.083
REMARK INTER:                  -6.099
REMARK INTRA:                  -2.984
REMARK UNBOUND:                -2.984
REMARK SMILES CCCCCCCCCCCCCCCCCC(=O)[O-]
REMARK SMILES IDX 10 1 11 2 12 3 13 4 14 5 15 6 16 7 17 8 18 9 19 10 20 11
REMARK SMILES IDX 9 12 8 13 7 14 6 15 5 16 4 17 3 18 2 19 1 20
REMARK H PARENT
REMARK Flexibility Score: inf
ROOT
ATOM      1  C   UNL     1      61.227  31.593  58.566  1.00  0.00     0.000 C 
ENDROOT
BRANCH   1   2
ATOM      2  C   UNL     1      60.648  32.531  59.641  1.00  0.00     0.000 C 
BRANCH   2   3
ATOM      3  C   UNL     1      60.817  31.974  61.064  1.00  0.00     0.000 C 
BRANCH   3   4
ATOM      4  C   UNL     1      60.697  30.441  61.117  1.00  0.00     0.000 C 
BRANCH   4   5
ATOM      5  C   UNL     1      61.887  29.782  61.834  1.00  0.00     0.000 C 
BRANCH   5   6
ATOM      6  C   UNL     1      63.187  30.594  61.698  1.00  0.00     0.000 C 
BRANCH   6   7
ATOM      7  C   UNL     1      64.366  29.742  61.203  1.00  0.00     0.006 C 
BRANCH   7   8
ATOM      8  C   UNL     1      63.958  28.754  60.103  1.00  0.00     0.053 C 
BRANCH   8   9
ATOM      9  C   UNL     1      64.359  27.362  60.476  1.00  0.00     0.041 C 
ATOM     10  O   UNL     1      63.550  26.608  61.076  1.00  0.00    -0.550 OA
ATOM     11  O   UNL     1      65.647  26.914  60.206  1.00  0.00    -0.550 OA
ENDBRANCH   8   9
ENDBRANCH   7   8
ENDBRANCH   6   7
ENDBRANCH   5   6
ENDBRANCH   4   5
ENDBRANCH   3   4
ENDBRANCH   2   3
ENDBRANCH   1   2
BRANCH   1  12
ATOM     12  C   UNL     1      62.714  31.868  58.280  1.00  0.00     0.000 C 
BRANCH  12  13
ATOM     13  C   UNL     1      62.952  33.267  57.686  1.00  0.00    -0.000 C 
BRANCH  13  14
ATOM     14  C   UNL     1      63.917  34.112  58.534  1.00  0.00    -0.000 C 
BRANCH  14  15
ATOM     15  C   UNL     1      64.289  33.429  59.863  1.00  0.00    -0.000 C 
BRANCH  15  16
ATOM     16  C   UNL     1      63.772  34.195  61.095  1.00  0.00    -0.000 C 
BRANCH  16  17
ATOM     17  C   UNL     1      63.984  35.719  61.049  1.00  0.00    -0.000 C 
BRANCH  17  18
ATOM     18  C   UNL     1      62.712  36.510  61.402  1.00  0.00    -0.000 C 
BRANCH  18  19
ATOM     19  C   UNL     1      61.462  35.961  60.697  1.00  0.00    -0.003 C 
ATOM     20  C   UNL     1      61.271  36.547  59.298  1.00  0.00     0.004 C 
ENDBRANCH  18  19
ENDBRANCH  17  18
ENDBRANCH  16  17
ENDBRANCH  15  16
ENDBRANCH  14  15
ENDBRANCH  13  14
ENDBRANCH  12  13
ENDBRANCH   1  12
TORSDOF 16
ENDMDL
MODEL 2
REMARK VINA RESULT:    -2.981      4.353      5.997
REMARK INTER + INTRA:          -8.753
REMARK INTER:                  -7.853
REMARK INTRA:                  -0.901
REMARK UNBOUND:                -2.984
REMARK SMILES CCCCCCCCCCCCCCCCCC(=O)[O-]
REMARK SMILES IDX 10 1 11 2 12 3 13 4 14 5 15 6 16 7 17 8 18 9 19 10 20 11
REMARK SMILES IDX 9 12 8 13 7 14 6 15 5 16 4 17 3 18 2 19 1 20
REMARK H PARENT
REMARK Flexibility Score: inf
ROOT
ATOM      1  C   UNL     1      64.349  30.523  60.214  1.00  0.00     0.000 C 
ENDROOT
BRANCH   1   2
ATOM      2  C   UNL     1      65.861  30.232  60.220  1.00  0.00     0.000 C 
BRANCH   2   3
ATOM      3  C   UNL     1      66.198  28.873  60.854  1.00  0.00     0.000 C 
BRANCH   3   4
ATOM      4  C   UNL     1      67.519  28.900  61.643  1.00  0.00     0.000 C 
BRANCH   4   5
ATOM      5  C   UNL     1      68.751  28.975  60.726  1.00  0.00     0.000 C 
BRANCH   5   6
ATOM      6  C   UNL     1      69.921  29.745  61.366  1.00  0.00     0.000 C 
BRANCH   6   7
ATOM      7  C   UNL     1      70.711  30.575  60.342  1.00  0.00     0.006 C 
BRANCH   7   8
ATOM      8  C   UNL     1      71.497  31.720  60.992  1.00  0.00     0.053 C 
BRANCH   8   9
ATOM      9  C   UNL     1      71.236  33.007  60.275  1.00  0.00     0.041 C 
ATOM     10  O   UNL     1      70.761  32.997  59.109  1.00  0.00    -0.550 OA
ATOM     11  O   UNL     1      71.564  34.216  60.875  1.00  0.00    -0.550 OA
ENDBRANCH   8   9
ENDBRANCH   7   8
ENDBRANCH   6   7
ENDBRANCH   5   6
ENDBRANCH   4   5
ENDBRANCH   3   4
ENDBRANCH   2   3
ENDBRANCH   1   2
BRANCH   1  12
ATOM     12  C   UNL     1      63.648  30.033  61.492  1.00  0.00     0.000 C 
BRANCH  12  13
ATOM     13  C   UNL     1      62.129  29.869  61.308  1.00  0.00    -0.000 C 
BRANCH  13  14
ATOM     14  C   UNL     1      61.336  31.067  61.854  1.00  0.00    -0.000 C 
BRANCH  14  15
ATOM     15  C   UNL     1      61.014  32.108  60.767  1.00  0.00    -0.000 C 
BRANCH  15  16
ATOM     16  C   UNL     1      62.017  33.276  60.741  1.00  0.00    -0.000 C 
BRANCH  16  17
ATOM     17  C   UNL     1      61.403  34.656  60.442  1.00  0.00    -0.000 C 
BRANCH  17  18
ATOM     18  C   UNL     1      62.239  35.818  61.004  1.00  0.00    -0.000 C 
BRANCH  18  19
ATOM     19  C   UNL     1      63.745  35.630  60.762  1.00  0.00    -0.003 C 
ATOM     20  C   UNL     1      64.584  35.939  62.003  1.00  0.00     0.004 C 
ENDBRANCH  18  19
ENDBRANCH  17  18
ENDBRANCH  16  17
ENDBRANCH  15  16
ENDBRANCH  14  15
ENDBRANCH  13  14
ENDBRANCH  12  13
ENDBRANCH   1  12
TORSDOF 16
ENDMDL
MODEL 3
REMARK VINA RESULT:    -2.957      2.500      3.527
REMARK INTER + INTRA:          -8.708
REMARK INTER:                  -6.516
REMARK INTRA:                  -2.191
REMARK UNBOUND:                -2.984
REMARK SMILES CCCCCCCCCCCCCCCCCC(=O)[O-]
REMARK SMILES IDX 10 1 11 2 12 3 13 4 14 5 15 6 16 7 17 8 18 9 19 10 20 11
REMARK SMILES IDX 9 12 8 13 7 14 6 15 5 16 4 17 3 18 2 19 1 20
REMARK H PARENT
REMARK Flexibility Score: inf
ROOT
ATOM      1  C   UNL     1      61.027  32.935  60.666  1.00  0.00     0.000 C 
ENDROOT
BRANCH   1   2
ATOM      2  C   UNL     1      60.687  31.661  61.460  1.00  0.00     0.000 C 
BRANCH   2   3
ATOM      3  C   UNL     1      61.291  30.395  60.831  1.00  0.00     0.000 C 
BRANCH   3   4
ATOM      4  C   UNL     1      62.316  29.709  61.752  1.00  0.00     0.000 C 
BRANCH   4   5
ATOM      5  C   UNL     1      62.611  28.261  61.329  1.00  0.00     0.000 C 
BRANCH   5   6
ATOM      6  C   UNL     1      61.852  27.227  62.181  1.00  0.00     0.000 C 
BRANCH   6   7
ATOM      7  C   UNL     1      60.774  26.481  61.381  1.00  0.00     0.006 C 
BRANCH   7   8
ATOM      8  C   UNL     1      59.367  26.678  61.962  1.00  0.00     0.053 C 
BRANCH   8   9
ATOM      9  C   UNL     1      58.599  27.669  61.145  1.00  0.00     0.041 C 
ATOM     10  O   UNL     1      58.970  27.950  59.976  1.00  0.00    -0.550 OA
ATOM     11  O   UNL     1      57.501  28.320  61.695  1.00  0.00    -0.550 OA
ENDBRANCH   8   9
ENDBRANCH   7   8
ENDBRANCH   6   7
ENDBRANCH   5   6
ENDBRANCH   4   5
ENDBRANCH   3   4
ENDBRANCH   2   3
ENDBRANCH   1   2
BRANCH   1  12
ATOM     12  C   UNL     1      61.941  32.655  59.462  1.00  0.00     0.000 C 
BRANCH  12  13
ATOM     13  C   UNL     1      63.296  33.378  59.567  1.00  0.00    -0.000 C 
BRANCH  13  14
ATOM     14  C   UNL     1      63.785  33.506  61.018  1.00  0.00    -0.000 C 
BRANCH  14  15
ATOM     15  C   UNL     1      64.208  34.942  61.375  1.00  0.00    -0.000 C 
BRANCH  15  16
ATOM     16  C   UNL     1      63.436  36.009  60.577  1.00  0.00    -0.000 C 
BRANCH  16  17
ATOM     17  C   UNL     1      62.284  36.686  61.341  1.00  0.00    -0.000 C 
BRANCH  17  18
ATOM     18  C   UNL     1      60.941  36.605  60.595  1.00  0.00    -0.000 C 
BRANCH  18  19
ATOM     19  C   UNL     1      61.121  36.411  59.081  1.00  0.00    -0.003 C 
ATOM     20  C   UNL     1      59.935  35.695  58.434  1.00  0.00     0.004 C 
ENDBRANCH  18  19
ENDBRANCH  17  18
ENDBRANCH  16  17
ENDBRANCH  15  16
ENDBRANCH  14  15
ENDBRANCH  13  14
ENDBRANCH  12  13
ENDBRANCH   1  12
TORSDOF 16
ENDMDL
MODEL 4
REMARK VINA RESULT:    -2.945     10.470     12.911
REMARK INTER + INTRA:          -8.684
REMARK INTER:                  -5.638
REMARK INTRA:                  -3.046
REMARK UNBOUND:                -2.984
REMARK SMILES CCCCCCCCCCCCCCCCCC(=O)[O-]
REMARK SMILES IDX 10 1 11 2 12 3 13 4 14 5 15 6 16 7 17 8 18 9 19 10 20 11
REMARK SMILES IDX 9 12 8 13 7 14 6 15 5 16 4 17 3 18 2 19 1 20
REMARK H PARENT
REMARK Flexibility Score: inf
ROOT
ATOM      1  C   UNL     1      56.823  29.045  53.164  1.00  0.00     0.000 C 
ENDROOT
BRANCH   1   2
ATOM      2  C   UNL     1      55.605  29.695  52.482  1.00  0.00     0.000 C 
BRANCH   2   3
ATOM      3  C   UNL     1      55.401  29.201  51.041  1.00  0.00     0.000 C 
BRANCH   3   4
ATOM      4  C   UNL     1      53.938  29.315  50.578  1.00  0.00     0.000 C 
BRANCH   4   5
ATOM      5  C   UNL     1      53.506  28.133  49.694  1.00  0.00     0.000 C 
BRANCH   5   6
ATOM      6  C   UNL     1      54.526  26.980  49.704  1.00  0.00     0.000 C 
BRANCH   6   7
ATOM      7  C   UNL     1      53.876  25.621  50.008  1.00  0.00     0.006 C 
BRANCH   7   8
ATOM      8  C   UNL     1      52.943  25.673  51.224  1.00  0.00     0.053 C 
BRANCH   8   9
ATOM      9  C   UNL     1      53.738  25.761  52.489  1.00  0.00     0.041 C 
ATOM     10  O   UNL     1      54.571  24.863  52.778  1.00  0.00    -0.550 OA
ATOM     11  O   UNL     1      53.522  26.811  53.373  1.00  0.00    -0.550 OA
ENDBRANCH   8   9
ENDBRANCH   7   8
ENDBRANCH   6   7
ENDBRANCH   5   6
ENDBRANCH   4   5
ENDBRANCH   3   4
ENDBRANCH   2   3
ENDBRANCH   1   2
BRANCH   1  12
ATOM     12  C   UNL     1      56.952  27.547  52.838  1.00  0.00     0.000 C 
BRANCH  12  13
ATOM     13  C   UNL     1      58.350  26.990  53.160  1.00  0.00    -0.000 C 
BRANCH  13  14
ATOM     14  C   UNL     1      58.807  25.922  52.154  1.00  0.00    -0.000 C 
BRANCH  14  15
ATOM     15  C   UNL     1      57.734  25.613  51.093  1.00  0.00    -0.000 C 
BRANCH  15  16
ATOM     16  C   UNL     1      58.072  26.201  49.711  1.00  0.00    -0.000 C 
BRANCH  16  17
ATOM     17  C   UNL     1      59.522  26.691  49.548  1.00  0.00    -0.000 C 
BRANCH  17  18
ATOM     18  C   UNL     1      59.610  28.133  49.017  1.00  0.00    -0.000 C 
BRANCH  18  19
ATOM     19  C   UNL     1      58.804  29.124  49.870  1.00  0.00    -0.003 C 
ATOM     20  C   UNL     1      59.637  29.752  50.988  1.00  0.00     0.004 C 
ENDBRANCH  18  19
ENDBRANCH  17  18
ENDBRANCH  16  17
ENDBRANCH  15  16
ENDBRANCH  14  15
ENDBRANCH  13  14
ENDBRANCH  12  13
ENDBRANCH   1  12
TORSDOF 16
ENDMDL
MODEL 5
REMARK VINA RESULT:    -2.904     10.959     12.957
REMARK INTER + INTRA:          -8.604
REMARK INTER:                  -6.009
REMARK INTRA:                  -2.595
REMARK UNBOUND:                -2.984
REMARK SMILES CCCCCCCCCCCCCCCCCC(=O)[O-]
REMARK SMILES IDX 10 1 11 2 12 3 13 4 14 5 15 6 16 7 17 8 18 9 19 10 20 11
REMARK SMILES IDX 9 12 8 13 7 14 6 15 5 16 4 17 3 18 2 19 1 20
REMARK H PARENT
REMARK Flexibility Score: inf
ROOT
ATOM      1  C   UNL     1      57.059  28.865  51.453  1.00  0.00     0.000 C 
ENDROOT
BRANCH   1   2
ATOM      2  C   UNL     1      58.397  29.457  50.972  1.00  0.00     0.000 C 
BRANCH   2   3
ATOM      3  C   UNL     1      58.543  29.422  49.442  1.00  0.00     0.000 C 
BRANCH   3   4
ATOM      4  C   UNL     1      59.479  28.299  48.963  1.00  0.00     0.000 C 
BRANCH   4   5
ATOM      5  C   UNL     1      60.853  28.343  49.652  1.00  0.00     0.000 C 
BRANCH   5   6
ATOM      6  C   UNL     1      61.373  26.944  50.031  1.00  0.00     0.000 C 
BRANCH   6   7
ATOM      7  C   UNL     1      60.259  25.886  50.047  1.00  0.00     0.006 C 
BRANCH   7   8
ATOM      8  C   UNL     1      59.757  25.581  51.464  1.00  0.00     0.053 C 
BRANCH   8   9
ATOM      9  C   UNL     1      58.316  25.179  51.432  1.00  0.00     0.041 C 
ATOM     10  O   UNL     1      57.571  25.564  50.493  1.00  0.00    -0.550 OA
ATOM     11  O   UNL     1      57.783  24.420  52.467  1.00  0.00    -0.550 OA
ENDBRANCH   8   9
ENDBRANCH   7   8
ENDBRANCH   6   7
ENDBRANCH   5   6
ENDBRANCH   4   5
ENDBRANCH   3   4
ENDBRANCH   2   3
ENDBRANCH   1   2
BRANCH   1  12
ATOM     12  C   UNL     1      56.056  28.663  50.304  1.00  0.00     0.000 C 
BRANCH  12  13
ATOM     13  C   UNL     1      54.664  29.232  50.629  1.00  0.00    -0.000 C 
BRANCH  13  14
ATOM     14  C   UNL     1      53.526  28.295  50.194  1.00  0.00    -0.000 C 
BRANCH  14  15
ATOM     15  C   UNL     1      54.036  27.070  49.414  1.00  0.00    -0.000 C 
BRANCH  15  16
ATOM     16  C   UNL     1      53.730  25.738  50.123  1.00  0.00    -0.000 C 
BRANCH  16  17
ATOM     17  C   UNL     1      53.334  25.865  51.605  1.00  0.00    -0.000 C 
BRANCH  17  18
ATOM     18  C   UNL     1      54.427  25.358  52.562  1.00  0.00    -0.000 C 
BRANCH  18  19
ATOM     19  C   UNL     1      55.087  26.495  53.357  1.00  0.00    -0.003 C 
ATOM     20  C   UNL     1      54.071  27.495  53.910  1.00  0.00     0.004 C 
ENDBRANCH  18  19
ENDBRANCH  17  18
ENDBRANCH  16  17
ENDBRANCH  15  16
ENDBRANCH  14  15
ENDBRANCH  13  14
ENDBRANCH  12  13
ENDBRANCH   1  12
TORSDOF 16
ENDMDL
MODEL 6
REMARK VINA RESULT:    -2.897     10.180     12.304
REMARK INTER + INTRA:          -8.590
REMARK INTER:                  -5.727
REMARK INTRA:                  -2.864
REMARK UNBOUND:                -2.984
REMARK SMILES CCCCCCCCCCCCCCCCCC(=O)[O-]
REMARK SMILES IDX 10 1 11 2 12 3 13 4 14 5 15 6 16 7 17 8 18 9 19 10 20 11
REMARK SMILES IDX 9 12 8 13 7 14 6 15 5 16 4 17 3 18 2 19 1 20
REMARK H PARENT
REMARK Flexibility Score: inf
ROOT
ATOM      1  C   UNL     1      56.615  26.579  50.113  1.00  0.00     0.000 C 
ENDROOT
BRANCH   1   2
ATOM      2  C   UNL     1      57.077  27.838  50.869  1.00  0.00     0.000 C 
BRANCH   2   3
ATOM      3  C   UNL     1      57.345  29.026  49.931  1.00  0.00     0.000 C 
BRANCH   3   4
ATOM      4  C   UNL     1      58.805  29.508  49.991  1.00  0.00     0.000 C 
BRANCH   4   5
ATOM      5  C   UNL     1      59.752  28.449  50.580  1.00  0.00     0.000 C 
BRANCH   5   6
ATOM      6  C   UNL     1      60.508  27.660  49.496  1.00  0.00     0.000 C 
BRANCH   6   7
ATOM      7  C   UNL     1      60.326  26.141  49.637  1.00  0.00     0.006 C 
BRANCH   7   8
ATOM      8  C   UNL     1      60.112  25.706  51.092  1.00  0.00     0.053 C 
BRANCH   8   9
ATOM      9  C   UNL     1      59.442  24.369  51.145  1.00  0.00     0.041 C 
ATOM     10  O   UNL     1      58.477  24.174  51.929  1.00  0.00    -0.550 OA
ATOM     11  O   UNL     1      59.915  23.323  50.362  1.00  0.00    -0.550 OA
ENDBRANCH   8   9
ENDBRANCH   7   8
ENDBRANCH   6   7
ENDBRANCH   5   6
ENDBRANCH   4   5
ENDBRANCH   3   4
ENDBRANCH   2   3
ENDBRANCH   1   2
BRANCH   1  12
ATOM     12  C   UNL     1      55.166  26.186  50.448  1.00  0.00     0.000 C 
BRANCH  12  13
ATOM     13  C   UNL     1      54.139  26.883  49.539  1.00  0.00    -0.000 C 
BRANCH  13  14
ATOM     14  C   UNL     1      53.183  27.798  50.321  1.00  0.00    -0.000 C 
BRANCH  14  15
ATOM     15  C   UNL     1      53.417  29.290  50.024  1.00  0.00    -0.000 C 
BRANCH  15  16
ATOM     16  C   UNL     1      53.976  30.061  51.234  1.00  0.00    -0.000 C 
BRANCH  16  17
ATOM     17  C   UNL     1      53.995  29.274  52.556  1.00  0.00    -0.000 C 
BRANCH  17  18
ATOM     18  C   UNL     1      55.201  29.625  53.445  1.00  0.00    -0.000 C 
BRANCH  18  19
ATOM     19  C   UNL     1      55.983  30.840  52.921  1.00  0.00    -0.003 C 
ATOM     20  C   UNL     1      57.462  30.798  53.307  1.00  0.00     0.004 C 
ENDBRANCH  18  19
ENDBRANCH  17  18
ENDBRANCH  16  17
ENDBRANCH  15  16
ENDBRANCH  14  15
ENDBRANCH  13  14
ENDBRANCH  12  13
ENDBRANCH   1  12
TORSDOF 16
ENDMDL
MODEL 7
REMARK VINA RESULT:    -2.845     10.477     12.906
REMARK INTER + INTRA:          -8.490
REMARK INTER:                  -5.888
REMARK INTRA:                  -2.602
REMARK UNBOUND:                -2.984
REMARK SMILES CCCCCCCCCCCCCCCCCC(=O)[O-]
REMARK SMILES IDX 10 1 11 2 12 3 13 4 14 5 15 6 16 7 17 8 18 9 19 10 20 11
REMARK SMILES IDX 9 12 8 13 7 14 6 15 5 16 4 17 3 18 2 19 1 20
REMARK H PARENT
REMARK Flexibility Score: inf
ROOT
ATOM      1  C   UNL     1      58.535  28.133  52.938  1.00  0.00     0.000 C 
ENDROOT
BRANCH   1   2
ATOM      2  C   UNL     1      57.596  26.987  53.353  1.00  0.00     0.000 C 
BRANCH   2   3
ATOM      3  C   UNL     1      57.375  25.966  52.225  1.00  0.00     0.000 C 
BRANCH   3   4
ATOM      4  C   UNL     1      55.939  25.994  51.675  1.00  0.00     0.000 C 
BRANCH   4   5
ATOM      5  C   UNL     1      55.888  26.346  50.179  1.00  0.00     0.000 C 
BRANCH   5   6
ATOM      6  C   UNL     1      54.602  27.098  49.790  1.00  0.00     0.000 C 
BRANCH   6   7
ATOM      7  C   UNL     1      54.645  28.583  50.181  1.00  0.00     0.006 C 
BRANCH   7   8
ATOM      8  C   UNL     1      53.255  29.233  50.184  1.00  0.00     0.053 C 
BRANCH   8   9
ATOM      9  C   UNL     1      53.031  29.980  51.460  1.00  0.00     0.041 C 
ATOM     10  O   UNL     1      53.026  31.239  51.465  1.00  0.00    -0.550 OA
ATOM     11  O   UNL     1      52.878  29.286  52.654  1.00  0.00    -0.550 OA
ENDBRANCH   8   9
ENDBRANCH   7   8
ENDBRANCH   6   7
ENDBRANCH   5   6
ENDBRANCH   4   5
ENDBRANCH   3   4
ENDBRANCH   2   3
ENDBRANCH   1   2
BRANCH   1  12
ATOM     12  C   UNL     1      57.789  29.290  52.252  1.00  0.00     0.000 C 
BRANCH  12  13
ATOM     13  C   UNL     1      58.581  29.891  51.078  1.00  0.00    -0.000 C 
BRANCH  13  14
ATOM     14  C   UNL     1      58.196  29.270  49.726  1.00  0.00    -0.000 C 
BRANCH  14  15
ATOM     15  C   UNL     1      59.381  28.566  49.040  1.00  0.00    -0.000 C 
BRANCH  15  16
ATOM     16  C   UNL     1      59.411  27.049  49.305  1.00  0.00    -0.000 C 
BRANCH  16  17
ATOM     17  C   UNL     1      60.705  26.527  49.954  1.00  0.00    -0.000 C 
BRANCH  17  18
ATOM     18  C   UNL     1      61.493  27.627  50.687  1.00  0.00    -0.000 C 
BRANCH  18  19
ATOM     19  C   UNL     1      62.970  27.674  50.265  1.00  0.00    -0.003 C 
ATOM     20  C   UNL     1      63.146  27.761  48.749  1.00  0.00     0.004 C 
ENDBRANCH  18  19
ENDBRANCH  17  18
ENDBRANCH  16  17
ENDBRANCH  15  16
ENDBRANCH  14  15
ENDBRANCH  13  14
ENDBRANCH  12  13
ENDBRANCH   1  12
TORSDOF 16
ENDMDL
MODEL 8
REMARK VINA RESULT:    -2.824      3.704      6.733
REMARK INTER + INTRA:          -8.450
REMARK INTER:                  -5.845
REMARK INTRA:                  -2.605
REMARK UNBOUND:                -2.984
REMARK SMILES CCCCCCCCCCCCCCCCCC(=O)[O-]
REMARK SMILES IDX 10 1 11 2 12 3 13 4 14 5 15 6 16 7 17 8 18 9 19 10 20 11
REMARK SMILES IDX 9 12 8 13 7 14 6 15 5 16 4 17 3 18 2 19 1 20
REMARK H PARENT
REMARK Flexibility Score: inf
ROOT
ATOM      1  C   UNL     1      62.210  31.308  58.063  1.00  0.00     0.000 C 
ENDROOT
BRANCH   1   2
ATOM      2  C   UNL     1      62.700  32.628  58.684  1.00  0.00     0.000 C 
BRANCH   2   3
ATOM      3  C   UNL     1      64.102  32.505  59.303  1.00  0.00     0.000 C 
BRANCH   3   4
ATOM      4  C   UNL     1      64.223  33.245  60.646  1.00  0.00     0.000 C 
BRANCH   4   5
ATOM      5  C   UNL     1      62.974  34.080  60.973  1.00  0.00     0.000 C 
BRANCH   5   6
ATOM      6  C   UNL     1      63.303  35.559  61.248  1.00  0.00     0.000 C 
BRANCH   6   7
ATOM      7  C   UNL     1      62.071  36.469  61.129  1.00  0.00     0.006 C 
BRANCH   7   8
ATOM      8  C   UNL     1      60.907  35.792  60.395  1.00  0.00     0.053 C 
BRANCH   8   9
ATOM      9  C   UNL     1      60.484  36.612  59.217  1.00  0.00     0.041 C 
ATOM     10  O   UNL     1      61.319  36.916  58.325  1.00  0.00    -0.550 OA
ATOM     11  O   UNL     1      59.180  37.082  59.129  1.00  0.00    -0.550 OA
ENDBRANCH   8   9
ENDBRANCH   7   8
ENDBRANCH   6   7
ENDBRANCH   5   6
ENDBRANCH   4   5
ENDBRANCH   3   4
ENDBRANCH   2   3
ENDBRANCH   1   2
BRANCH   1  12
ATOM     12  C   UNL     1      60.911  30.797  58.710  1.00  0.00     0.000 C 
BRANCH  12  13
ATOM     13  C   UNL     1      60.495  31.628  59.936  1.00  0.00    -0.000 C 
BRANCH  13  14
ATOM     14  C   UNL     1      60.476  30.801  61.232  1.00  0.00    -0.000 C 
BRANCH  14  15
ATOM     15  C   UNL     1      61.886  30.560  61.800  1.00  0.00    -0.000 C 
BRANCH  15  16
ATOM     16  C   UNL     1      62.346  29.097  61.661  1.00  0.00    -0.000 C 
BRANCH  16  17
ATOM     17  C   UNL     1      63.459  28.860  60.624  1.00  0.00    -0.000 C 
BRANCH  17  18
ATOM     18  C   UNL     1      64.812  29.453  61.053  1.00  0.00    -0.000 C 
BRANCH  18  19
ATOM     19  C   UNL     1      65.997  28.813  60.313  1.00  0.00    -0.003 C 
ATOM     20  C   UNL     1      66.729  29.803  59.407  1.00  0.00     0.004 C 
ENDBRANCH  18  19
ENDBRANCH  17  18
ENDBRANCH  16  17
ENDBRANCH  15  16
ENDBRANCH  14  15
ENDBRANCH  13  14
ENDBRANCH  12  13
ENDBRANCH   1  12
TORSDOF 16
ENDMDL
