MODEL 1
REMARK VINA RESULT:    -3.412      0.000      0.000
REMARK INTER + INTRA:          -4.140
REMARK INTER:                  -3.711
REMARK INTRA:                  -0.429
REMARK UNBOUND:                -0.429
REMARK SMILES C=C(C)[C@@H]1CC[C@@]2(C)CC[C@@]3(C)[C@H](CC[C@@H]4[C@]5(C)CC[C@H](O)C(C)(C)[C@@H]5CC[C@@]43C)[C@H]12
REMARK SMILES IDX 4 1 5 2 6 3 7 4 31 5 13 6 14 7 15 8 16 9 17 10 19 11 20 12
REMARK SMILES IDX 21 13 23 14 26 15 27 16 28 17 29 18 11 19 10 20 9 21 12 22
REMARK SMILES IDX 30 23 24 24 25 25 18 26 8 27 2 28 3 29 1 30 22 31
REMARK H PARENT 22 32
REMARK Flexibility Score: inf
ROOT
ATOM      1  C   UNL     1     122.096  69.623  43.608  1.00  0.00     0.018 C 
ATOM      2  C   UNL     1     123.631  69.763  43.463  1.00  0.00     0.009 C 
ATOM      3  C   UNL     1     123.929  71.268  43.474  1.00  0.00     0.008 C 
ATOM      4  C   UNL     1     122.790  71.904  44.295  1.00  0.00    -0.029 C 
ATOM      5  C   UNL     1     121.594  71.080  43.784  1.00  0.00     0.006 C 
ATOM      6  C   UNL     1     120.169  71.510  44.250  1.00  0.00    -0.000 C 
ATOM      7  C   UNL     1     119.995  71.197  45.739  1.00  0.00     0.005 C 
ATOM      8  C   UNL     1     118.652  71.615  46.271  1.00  0.00     0.005 C 
ATOM      9  C   UNL     1     118.442  73.178  46.181  1.00  0.00     0.002 C 
ATOM     10  C   UNL     1     117.165  73.708  46.997  1.00  0.00    -0.026 C 
ATOM     11  C   UNL     1     116.924  72.782  48.235  1.00  0.00     0.010 C 
ATOM     12  C   UNL     1     115.740  73.120  49.125  1.00  0.00     0.033 C 
ATOM     13  C   UNL     1     114.442  72.902  48.308  1.00  0.00     0.120 C 
ATOM     14  C   UNL     1     114.395  73.686  46.896  1.00  0.00    -0.006 C 
ATOM     15  C   UNL     1     115.828  73.789  46.108  1.00  0.00     0.003 C 
ATOM     16  C   UNL     1     115.921  72.860  44.857  1.00  0.00     0.005 C 
ATOM     17  C   UNL     1     117.220  72.927  43.990  1.00  0.00     0.008 C 
ATOM     18  C   UNL     1     118.507  73.568  44.652  1.00  0.00    -0.024 C 
ATOM     19  C   UNL     1     119.899  73.051  43.952  1.00  0.00    -0.024 C 
ATOM     20  C   UNL     1     121.145  73.867  44.491  1.00  0.00     0.008 C 
ATOM     21  C   UNL     1     122.529  73.378  43.971  1.00  0.00     0.007 C 
ATOM     22  C   UNL     1     119.814  73.339  42.415  1.00  0.00     0.012 C 
ATOM     23  C   UNL     1     118.411  75.125  44.403  1.00  0.00     0.012 C 
ATOM     24  C   UNL     1     113.256  73.008  46.041  1.00  0.00     0.014 C 
ATOM     25  C   UNL     1     113.842  75.124  47.183  1.00  0.00     0.014 C 
ATOM     26  C   UNL     1     117.529  75.125  47.591  1.00  0.00     0.012 C 
ATOM     27  C   UNL     1     123.181  71.736  45.799  1.00  0.00     0.011 C 
ENDROOT
BRANCH   1  28
ATOM     28  C   UNL     1     121.558  68.549  44.558  1.00  0.00    -0.077 C 
ATOM     29  C   UNL     1     122.136  68.484  45.960  1.00  0.00     0.039 C 
ATOM     30  C   UNL     1     120.503  67.746  44.265  1.00  0.00     0.008 C 
ENDBRANCH   1  28
BRANCH  13  31
ATOM     31  O   UNL     1     114.066  71.566  48.256  1.00  0.00    -0.393 OA
ATOM     32  H   UNL     1     113.884  71.307  47.301  1.00  0.00     0.210 HD
ENDBRANCH  13  31
TORSDOF 2
ENDMDL
MODEL 2
REMARK VINA RESULT:    -2.836      2.141      7.233
REMARK INTER + INTRA:          -3.513
REMARK INTER:                  -3.239
REMARK INTRA:                  -0.274
REMARK UNBOUND:                -0.429
REMARK SMILES C=C(C)[C@@H]1CC[C@@]2(C)CC[C@@]3(C)[C@H](CC[C@@H]4[C@]5(C)CC[C@H](O)C(C)(C)[C@@H]5CC[C@@]43C)[C@H]12
REMARK SMILES IDX 4 1 5 2 6 3 7 4 31 5 13 6 14 7 15 8 16 9 17 10 19 11 20 12
REMARK SMILES IDX 21 13 23 14 26 15 27 16 28 17 29 18 11 19 10 20 9 21 12 22
REMARK SMILES IDX 30 23 24 24 25 25 18 26 8 27 2 28 3 29 1 30 22 31
REMARK H PARENT 22 32
REMARK Flexibility Score: inf
ROOT
ATOM      1  C   UNL     1     114.933  74.526  46.684  1.00  0.00     0.018 C 
ATOM      2  C   UNL     1     113.751  74.903  45.758  1.00  0.00     0.009 C 
ATOM      3  C   UNL     1     114.294  74.851  44.324  1.00  0.00     0.008 C 
ATOM      4  C   UNL     1     115.443  73.825  44.359  1.00  0.00    -0.029 C 
ATOM      5  C   UNL     1     116.091  74.188  45.708  1.00  0.00     0.006 C 
ATOM      6  C   UNL     1     117.429  73.478  46.081  1.00  0.00    -0.000 C 
ATOM      7  C   UNL     1     117.163  72.002  46.387  1.00  0.00     0.005 C 
ATOM      8  C   UNL     1     118.416  71.241  46.725  1.00  0.00     0.005 C 
ATOM      9  C   UNL     1     119.429  71.206  45.514  1.00  0.00     0.002 C 
ATOM     10  C   UNL     1     120.639  70.169  45.713  1.00  0.00    -0.026 C 
ATOM     11  C   UNL     1     120.148  68.965  46.582  1.00  0.00     0.010 C 
ATOM     12  C   UNL     1     121.166  67.881  46.891  1.00  0.00     0.033 C 
ATOM     13  C   UNL     1     122.269  68.494  47.791  1.00  0.00     0.120 C 
ATOM     14  C   UNL     1     122.954  69.833  47.200  1.00  0.00    -0.006 C 
ATOM     15  C   UNL     1     121.943  70.830  46.382  1.00  0.00     0.003 C 
ATOM     16  C   UNL     1     121.582  72.131  47.163  1.00  0.00     0.005 C 
ATOM     17  C   UNL     1     120.677  73.187  46.449  1.00  0.00     0.008 C 
ATOM     18  C   UNL     1     119.833  72.701  45.202  1.00  0.00    -0.024 C 
ATOM     19  C   UNL     1     118.515  73.640  44.928  1.00  0.00    -0.024 C 
ATOM     20  C   UNL     1     117.817  73.258  43.558  1.00  0.00     0.008 C 
ATOM     21  C   UNL     1     116.491  74.017  43.258  1.00  0.00     0.007 C 
ATOM     22  C   UNL     1     118.990  75.125  44.781  1.00  0.00     0.012 C 
ATOM     23  C   UNL     1     120.774  72.840  43.941  1.00  0.00     0.012 C 
ATOM     24  C   UNL     1     123.686  70.536  48.407  1.00  0.00     0.014 C 
ATOM     25  C   UNL     1     124.125  69.379  46.263  1.00  0.00     0.014 C 
ATOM     26  C   UNL     1     120.984  69.558  44.298  1.00  0.00     0.012 C 
ATOM     27  C   UNL     1     114.781  72.414  44.242  1.00  0.00     0.011 C 
ENDROOT
BRANCH   1  28
ATOM     28  C   UNL     1     114.659  73.567  47.846  1.00  0.00    -0.077 C 
ATOM     29  C   UNL     1     115.674  73.506  48.973  1.00  0.00     0.039 C 
ATOM     30  C   UNL     1     113.500  72.874  47.992  1.00  0.00     0.008 C 
ENDBRANCH   1  28
BRANCH  13  31
ATOM     31  O   UNL     1     121.887  68.564  49.125  1.00  0.00    -0.393 OA
ATOM     32  H   UNL     1     122.432  67.913  49.664  1.00  0.00     0.210 HD
ENDBRANCH  13  31
TORSDOF 2
ENDMDL
MODEL 3
REMARK VINA RESULT:    -2.511      3.133      6.670
REMARK INTER + INTRA:          -3.160
REMARK INTER:                  -2.540
REMARK INTRA:                  -0.620
REMARK UNBOUND:                -0.429
REMARK SMILES C=C(C)[C@@H]1CC[C@@]2(C)CC[C@@]3(C)[C@H](CC[C@@H]4[C@]5(C)CC[C@H](O)C(C)(C)[C@@H]5CC[C@@]43C)[C@H]12
REMARK SMILES IDX 4 1 5 2 6 3 7 4 31 5 13 6 14 7 15 8 16 9 17 10 19 11 20 12
REMARK SMILES IDX 21 13 23 14 26 15 27 16 28 17 29 18 11 19 10 20 9 21 12 22
REMARK SMILES IDX 30 23 24 24 25 25 18 26 8 27 2 28 3 29 1 30 22 31
REMARK H PARENT 22 32
REMARK Flexibility Score: inf
ROOT
ATOM      1  C   UNL     1     119.900  74.073  45.189  1.00  0.00     0.018 C 
ATOM      2  C   UNL     1     120.921  75.124  44.689  1.00  0.00     0.009 C 
ATOM      3  C   UNL     1     122.263  74.763  45.337  1.00  0.00     0.008 C 
ATOM      4  C   UNL     1     122.206  73.242  45.577  1.00  0.00    -0.029 C 
ATOM      5  C   UNL     1     120.747  73.096  46.047  1.00  0.00     0.006 C 
ATOM      6  C   UNL     1     120.290  71.697  46.564  1.00  0.00    -0.000 C 
ATOM      7  C   UNL     1     120.214  70.712  45.393  1.00  0.00     0.005 C 
ATOM      8  C   UNL     1     119.811  69.328  45.820  1.00  0.00     0.005 C 
ATOM      9  C   UNL     1     120.869  68.680  46.797  1.00  0.00     0.002 C 
ATOM     10  C   UNL     1     120.643  67.110  47.046  1.00  0.00    -0.026 C 
ATOM     11  C   UNL     1     120.009  66.471  45.767  1.00  0.00     0.010 C 
ATOM     12  C   UNL     1     119.707  64.984  45.821  1.00  0.00     0.033 C 
ATOM     13  C   UNL     1     118.596  64.752  46.875  1.00  0.00     0.120 C 
ATOM     14  C   UNL     1     118.913  65.370  48.335  1.00  0.00    -0.006 C 
ATOM     15  C   UNL     1     119.725  66.792  48.328  1.00  0.00     0.003 C 
ATOM     16  C   UNL     1     118.840  68.019  48.710  1.00  0.00     0.005 C 
ATOM     17  C   UNL     1     119.529  69.420  48.801  1.00  0.00     0.008 C 
ATOM     18  C   UNL     1     120.930  69.592  48.086  1.00  0.00    -0.024 C 
ATOM     19  C   UNL     1     121.256  71.155  47.708  1.00  0.00    -0.024 C 
ATOM     20  C   UNL     1     122.745  71.318  47.192  1.00  0.00     0.008 C 
ATOM     21  C   UNL     1     123.121  72.747  46.701  1.00  0.00     0.007 C 
ATOM     22  C   UNL     1     121.147  72.011  49.014  1.00  0.00     0.012 C 
ATOM     23  C   UNL     1     122.024  69.126  49.125  1.00  0.00     0.012 C 
ATOM     24  C   UNL     1     117.538  65.436  49.105  1.00  0.00     0.014 C 
ATOM     25  C   UNL     1     119.734  64.293  49.124  1.00  0.00     0.014 C 
ATOM     26  C   UNL     1     122.065  66.439  47.196  1.00  0.00     0.012 C 
ATOM     27  C   UNL     1     122.590  72.564  44.222  1.00  0.00     0.011 C 
ENDROOT
BRANCH   1  28
ATOM     28  C   UNL     1     118.917  73.483  44.172  1.00  0.00    -0.077 C 
ATOM     29  C   UNL     1     117.496  73.212  44.631  1.00  0.00     0.039 C 
ATOM     30  C   UNL     1     119.206  73.319  42.856  1.00  0.00     0.008 C 
ENDBRANCH   1  28
BRANCH  13  31
ATOM     31  O   UNL     1     117.328  65.027  46.379  1.00  0.00    -0.393 OA
ATOM     32  H   UNL     1     117.389  65.763  45.696  1.00  0.00     0.210 HD
ENDBRANCH  13  31
TORSDOF 2
ENDMDL
MODEL 4
REMARK VINA RESULT:    -1.518      2.807      5.087
REMARK INTER + INTRA:          -2.080
REMARK INTER:                  -1.689
REMARK INTRA:                  -0.391
REMARK UNBOUND:                -0.429
REMARK SMILES C=C(C)[C@@H]1CC[C@@]2(C)CC[C@@]3(C)[C@H](CC[C@@H]4[C@]5(C)CC[C@H](O)C(C)(C)[C@@H]5CC[C@@]43C)[C@H]12
REMARK SMILES IDX 4 1 5 2 6 3 7 4 31 5 13 6 14 7 15 8 16 9 17 10 19 11 20 12
REMARK SMILES IDX 21 13 23 14 26 15 27 16 28 17 29 18 11 19 10 20 9 21 12 22
REMARK SMILES IDX 30 23 24 24 25 25 18 26 8 27 2 28 3 29 1 30 22 31
REMARK H PARENT 22 32
REMARK Flexibility Score: inf
ROOT
ATOM      1  C   UNL     1     121.334  66.759  47.592  1.00  0.00     0.018 C 
ATOM      2  C   UNL     1     122.290  66.322  48.728  1.00  0.00     0.009 C 
ATOM      3  C   UNL     1     123.533  67.214  48.612  1.00  0.00     0.008 C 
ATOM      4  C   UNL     1     123.038  68.523  47.969  1.00  0.00    -0.029 C 
ATOM      5  C   UNL     1     122.057  67.959  46.924  1.00  0.00     0.006 C 
ATOM      6  C   UNL     1     121.426  68.962  45.909  1.00  0.00    -0.000 C 
ATOM      7  C   UNL     1     120.432  69.874  46.634  1.00  0.00     0.005 C 
ATOM      8  C   UNL     1     119.805  70.894  45.723  1.00  0.00     0.005 C 
ATOM      9  C   UNL     1     120.876  71.890  45.127  1.00  0.00     0.002 C 
ATOM     10  C   UNL     1     120.234  73.166  44.394  1.00  0.00    -0.026 C 
ATOM     11  C   UNL     1     118.874  73.525  45.078  1.00  0.00     0.010 C 
ATOM     12  C   UNL     1     118.108  74.705  44.507  1.00  0.00     0.033 C 
ATOM     13  C   UNL     1     117.654  74.339  43.071  1.00  0.00     0.120 C 
ATOM     14  C   UNL     1     118.842  73.844  42.094  1.00  0.00    -0.006 C 
ATOM     15  C   UNL     1     120.011  72.951  42.816  1.00  0.00     0.003 C 
ATOM     16  C   UNL     1     119.951  71.434  42.453  1.00  0.00     0.005 C 
ATOM     17  C   UNL     1     121.062  70.498  43.033  1.00  0.00     0.008 C 
ATOM     18  C   UNL     1     121.888  71.028  44.274  1.00  0.00    -0.024 C 
ATOM     19  C   UNL     1     122.544  69.812  45.159  1.00  0.00    -0.024 C 
ATOM     20  C   UNL     1     123.533  70.377  46.260  1.00  0.00     0.008 C 
ATOM     21  C   UNL     1     124.124  69.310  47.228  1.00  0.00     0.007 C 
ATOM     22  C   UNL     1     123.410  68.920  44.206  1.00  0.00     0.012 C 
ATOM     23  C   UNL     1     123.085  71.876  43.688  1.00  0.00     0.012 C 
ATOM     24  C   UNL     1     118.153  73.111  40.880  1.00  0.00     0.014 C 
ATOM     25  C   UNL     1     119.475  75.125  41.450  1.00  0.00     0.014 C 
ATOM     26  C   UNL     1     121.182  74.400  44.661  1.00  0.00     0.012 C 
ATOM     27  C   UNL     1     122.433  69.384  49.124  1.00  0.00     0.011 C 
ENDROOT
BRANCH   1  28
ATOM     28  C   UNL     1     119.844  66.899  47.918  1.00  0.00    -0.077 C 
ATOM     29  C   UNL     1     118.862  66.041  47.142  1.00  0.00     0.039 C 
ATOM     30  C   UNL     1     119.367  67.641  48.951  1.00  0.00     0.008 C 
ENDBRANCH   1  28
BRANCH  13  31
ATOM     31  O   UNL     1     116.512  73.548  43.061  1.00  0.00    -0.393 OA
ATOM     32  H   UNL     1     116.621  72.812  42.384  1.00  0.00     0.210 HD
ENDBRANCH  13  31
TORSDOF 2
ENDMDL
MODEL 5
REMARK VINA RESULT:    -1.063      3.363      6.008
REMARK INTER + INTRA:          -1.585
REMARK INTER:                  -2.287
REMARK INTRA:                   0.702
REMARK UNBOUND:                -0.429
REMARK SMILES C=C(C)[C@@H]1CC[C@@]2(C)CC[C@@]3(C)[C@H](CC[C@@H]4[C@]5(C)CC[C@H](O)C(C)(C)[C@@H]5CC[C@@]43C)[C@H]12
REMARK SMILES IDX 4 1 5 2 6 3 7 4 31 5 13 6 14 7 15 8 16 9 17 10 19 11 20 12
REMARK SMILES IDX 21 13 23 14 26 15 27 16 28 17 29 18 11 19 10 20 9 21 12 22
REMARK SMILES IDX 30 23 24 24 25 25 18 26 8 27 2 28 3 29 1 30 22 31
REMARK H PARENT 22 32
REMARK Flexibility Score: inf
ROOT
ATOM      1  C   UNL     1     120.994  65.719  46.903  1.00  0.00     0.018 C 
ATOM      2  C   UNL     1     121.159  65.107  48.315  1.00  0.00     0.009 C 
ATOM      3  C   UNL     1     121.992  66.110  49.125  1.00  0.00     0.008 C 
ATOM      4  C   UNL     1     121.698  67.486  48.498  1.00  0.00    -0.029 C 
ATOM      5  C   UNL     1     121.682  67.106  47.006  1.00  0.00     0.006 C 
ATOM      6  C   UNL     1     121.571  68.265  45.966  1.00  0.00    -0.000 C 
ATOM      7  C   UNL     1     120.169  68.878  46.023  1.00  0.00     0.005 C 
ATOM      8  C   UNL     1     119.995  70.028  45.069  1.00  0.00     0.005 C 
ATOM      9  C   UNL     1     120.955  71.233  45.416  1.00  0.00     0.002 C 
ATOM     10  C   UNL     1     120.608  72.585  44.624  1.00  0.00    -0.026 C 
ATOM     11  C   UNL     1     119.070  72.640  44.345  1.00  0.00     0.010 C 
ATOM     12  C   UNL     1     118.552  73.849  43.586  1.00  0.00     0.033 C 
ATOM     13  C   UNL     1     119.131  73.805  42.150  1.00  0.00     0.120 C 
ATOM     14  C   UNL     1     120.741  73.674  42.078  1.00  0.00    -0.006 C 
ATOM     15  C   UNL     1     121.417  72.742  43.243  1.00  0.00     0.003 C 
ATOM     16  C   UNL     1     121.924  71.361  42.722  1.00  0.00     0.005 C 
ATOM     17  C   UNL     1     122.650  70.417  43.736  1.00  0.00     0.008 C 
ATOM     18  C   UNL     1     122.436  70.701  45.278  1.00  0.00    -0.024 C 
ATOM     19  C   UNL     1     122.691  69.370  46.205  1.00  0.00    -0.024 C 
ATOM     20  C   UNL     1     122.680  69.737  47.746  1.00  0.00     0.008 C 
ATOM     21  C   UNL     1     122.802  68.525  48.715  1.00  0.00     0.007 C 
ATOM     22  C   UNL     1     124.125  68.821  45.894  1.00  0.00     0.012 C 
ATOM     23  C   UNL     1     123.521  71.772  45.692  1.00  0.00     0.012 C 
ATOM     24  C   UNL     1     121.089  73.199  40.614  1.00  0.00     0.014 C 
ATOM     25  C   UNL     1     121.327  75.125  42.151  1.00  0.00     0.014 C 
ATOM     26  C   UNL     1     120.909  73.798  45.589  1.00  0.00     0.012 C 
ATOM     27  C   UNL     1     120.353  67.980  49.122  1.00  0.00     0.011 C 
ENDROOT
BRANCH   1  28
ATOM     28  C   UNL     1     119.616  65.638  46.240  1.00  0.00    -0.077 C 
ATOM     29  C   UNL     1     118.549  64.796  46.915  1.00  0.00     0.039 C 
ATOM     30  C   UNL     1     119.256  66.382  45.163  1.00  0.00     0.008 C 
ENDBRANCH   1  28
BRANCH  13  31
ATOM     31  O   UNL     1     118.429  72.939  41.321  1.00  0.00    -0.393 OA
ATOM     32  H   UNL     1     117.559  73.366  41.052  1.00  0.00     0.210 HD
ENDBRANCH  13  31
TORSDOF 2
ENDMDL
MODEL 6
REMARK VINA RESULT:    -0.956      2.416      7.692
REMARK INTER + INTRA:          -1.468
REMARK INTER:                  -2.653
REMARK INTRA:                   1.185
REMARK UNBOUND:                -0.429
REMARK SMILES C=C(C)[C@@H]1CC[C@@]2(C)CC[C@@]3(C)[C@H](CC[C@@H]4[C@]5(C)CC[C@H](O)C(C)(C)[C@@H]5CC[C@@]43C)[C@H]12
REMARK SMILES IDX 4 1 5 2 6 3 7 4 31 5 13 6 14 7 15 8 16 9 17 10 19 11 20 12
REMARK SMILES IDX 21 13 23 14 26 15 27 16 28 17 29 18 11 19 10 20 9 21 12 22
REMARK SMILES IDX 30 23 24 24 25 25 18 26 8 27 2 28 3 29 1 30 22 31
REMARK H PARENT 22 32
REMARK Flexibility Score: inf
ROOT
ATOM      1  C   UNL     1     113.978  72.737  49.039  1.00  0.00     0.018 C 
ATOM      2  C   UNL     1     112.767  73.504  48.452  1.00  0.00     0.009 C 
ATOM      3  C   UNL     1     113.348  74.595  47.543  1.00  0.00     0.008 C 
ATOM      4  C   UNL     1     114.703  74.045  47.058  1.00  0.00    -0.029 C 
ATOM      5  C   UNL     1     115.209  73.388  48.355  1.00  0.00     0.006 C 
ATOM      6  C   UNL     1     116.665  72.827  48.360  1.00  0.00    -0.000 C 
ATOM      7  C   UNL     1     116.743  71.582  47.472  1.00  0.00     0.005 C 
ATOM      8  C   UNL     1     118.129  71.002  47.400  1.00  0.00     0.005 C 
ATOM      9  C   UNL     1     119.156  72.006  46.744  1.00  0.00     0.002 C 
ATOM     10  C   UNL     1     120.568  71.338  46.374  1.00  0.00    -0.026 C 
ATOM     11  C   UNL     1     120.347  69.830  46.019  1.00  0.00     0.010 C 
ATOM     12  C   UNL     1     121.581  69.023  45.655  1.00  0.00     0.033 C 
ATOM     13  C   UNL     1     122.484  68.924  46.910  1.00  0.00     0.120 C 
ATOM     14  C   UNL     1     122.854  70.344  47.587  1.00  0.00    -0.006 C 
ATOM     15  C   UNL     1     121.662  71.468  47.545  1.00  0.00     0.003 C 
ATOM     16  C   UNL     1     120.986  71.712  48.930  1.00  0.00     0.005 C 
ATOM     17  C   UNL     1     119.880  72.814  49.020  1.00  0.00     0.008 C 
ATOM     18  C   UNL     1     119.208  73.287  47.668  1.00  0.00    -0.024 C 
ATOM     19  C   UNL     1     117.716  73.931  47.897  1.00  0.00    -0.024 C 
ATOM     20  C   UNL     1     117.166  74.583  46.563  1.00  0.00     0.008 C 
ATOM     21  C   UNL     1     115.708  75.125  46.645  1.00  0.00     0.007 C 
ATOM     22  C   UNL     1     117.836  75.093  48.940  1.00  0.00     0.012 C 
ATOM     23  C   UNL     1     120.126  74.433  47.088  1.00  0.00     0.012 C 
ATOM     24  C   UNL     1     123.368  70.029  49.044  1.00  0.00     0.014 C 
ATOM     25  C   UNL     1     124.125  70.891  46.851  1.00  0.00     0.014 C 
ATOM     26  C   UNL     1     121.086  72.015  45.046  1.00  0.00     0.012 C 
ATOM     27  C   UNL     1     114.392  73.099  45.854  1.00  0.00     0.011 C 
ENDROOT
BRANCH   1  28
ATOM     28  C   UNL     1     113.902  71.209  49.097  1.00  0.00    -0.077 C 
ATOM     29  C   UNL     1     112.529  70.564  49.125  1.00  0.00     0.039 C 
ATOM     30  C   UNL     1     114.986  70.398  48.988  1.00  0.00     0.008 C 
ENDBRANCH   1  28
BRANCH  13  31
ATOM     31  O   UNL     1     122.058  67.940  47.793  1.00  0.00    -0.393 OA
ATOM     32  H   UNL     1     121.064  67.816  47.702  1.00  0.00     0.210 HD
ENDBRANCH  13  31
TORSDOF 2
ENDMDL
