MODEL 1
REMARK VINA RESULT:    -1.330      0.000      0.000
REMARK INTER + INTRA:          -1.330
REMARK INTER:                  -1.330
REMARK INTRA:                   0.000
REMARK UNBOUND:                 0.000
REMARK SMILES O=c1ccc2ccccc2o1
REMARK SMILES IDX 7 1 8 2 9 3 10 4 5 5 6 6 4 7 3 8 2 9 1 10 11 11
REMARK H PARENT
REMARK Flexibility Score: inf
ROOT
ATOM      1  C   UNL     1      -2.811   0.130   4.087  1.00  0.00     0.001 A 
ATOM      2  C   UNL     1      -1.997   0.469   3.001  1.00  0.00     0.004 A 
ATOM      3  C   UNL     1      -2.305   0.002   1.718  1.00  0.00     0.048 A 
ATOM      4  C   UNL     1      -3.428  -0.807   1.517  1.00  0.00     0.138 A 
ATOM      5  C   UNL     1      -4.250  -1.150   2.615  1.00  0.00     0.018 A 
ATOM      6  C   UNL     1      -3.937  -0.679   3.898  1.00  0.00     0.012 A 
ATOM      7  C   UNL     1      -5.367  -1.959   2.383  1.00  0.00     0.019 A 
ATOM      8  C   UNL     1      -5.634  -2.402   1.088  1.00  0.00     0.094 A 
ATOM      9  C   UNL     1      -4.776  -2.022   0.050  1.00  0.00     0.336 A 
ATOM     10  O   UNL     1      -5.001  -2.411  -1.125  1.00  0.00    -0.246 OA
ATOM     11  O   UNL     1      -3.720  -1.251   0.297  1.00  0.00    -0.423 OA
ENDROOT
TORSDOF 0
ENDMDL
MODEL 2
REMARK VINA RESULT:     1.159      1.778      3.857
REMARK INTER + INTRA:           1.159
REMARK INTER:                   1.159
REMARK INTRA:                   0.000
REMARK UNBOUND:                 0.000
REMARK SMILES O=c1ccc2ccccc2o1
REMARK SMILES IDX 7 1 8 2 9 3 10 4 5 5 6 6 4 7 3 8 2 9 1 10 11 11
REMARK H PARENT
REMARK Flexibility Score: inf
ROOT
ATOM      1  C   UNL     1      -5.783  -1.394   2.191  1.00  0.00     0.001 A 
ATOM      2  C   UNL     1      -5.179  -1.565   0.940  1.00  0.00     0.004 A 
ATOM      3  C   UNL     1      -3.843  -1.195   0.746  1.00  0.00     0.048 A 
ATOM      4  C   UNL     1      -3.107  -0.650   1.804  1.00  0.00     0.138 A 
ATOM      5  C   UNL     1      -3.717  -0.476   3.067  1.00  0.00     0.018 A 
ATOM      6  C   UNL     1      -5.056  -0.849   3.255  1.00  0.00     0.012 A 
ATOM      7  C   UNL     1      -2.956   0.070   4.105  1.00  0.00     0.019 A 
ATOM      8  C   UNL     1      -1.628   0.425   3.866  1.00  0.00     0.094 A 
ATOM      9  C   UNL     1      -1.091   0.224   2.590  1.00  0.00     0.336 A 
ATOM     10  O   UNL     1       0.104   0.538   2.355  1.00  0.00    -0.246 OA
ATOM     11  O   UNL     1      -1.837  -0.298   1.619  1.00  0.00    -0.423 OA
ENDROOT
TORSDOF 0
ENDMDL
MODEL 3
REMARK VINA RESULT:     1.650      1.841      4.373
REMARK INTER + INTRA:           1.650
REMARK INTER:                   1.650
REMARK INTRA:                   0.000
REMARK UNBOUND:                 0.000
REMARK SMILES O=c1ccc2ccccc2o1
REMARK SMILES IDX 7 1 8 2 9 3 10 4 5 5 6 6 4 7 3 8 2 9 1 10 11 11
REMARK H PARENT
REMARK Flexibility Score: inf
ROOT
ATOM      1  C   UNL     1      -4.999  -2.603  -1.057  1.00  0.00     0.001 A 
ATOM      2  C   UNL     1      -5.934  -3.125  -0.156  1.00  0.00     0.004 A 
ATOM      3  C   UNL     1      -5.929  -2.712   1.182  1.00  0.00     0.048 A 
ATOM      4  C   UNL     1      -4.987  -1.776   1.622  1.00  0.00     0.138 A 
ATOM      5  C   UNL     1      -4.042  -1.250   0.713  1.00  0.00     0.018 A 
ATOM      6  C   UNL     1      -4.052  -1.668  -0.627  1.00  0.00     0.012 A 
ATOM      7  C   UNL     1      -3.114  -0.316   1.182  1.00  0.00     0.019 A 
ATOM      8  C   UNL     1      -3.146   0.066   2.523  1.00  0.00     0.094 A 
ATOM      9  C   UNL     1      -4.110  -0.497   3.366  1.00  0.00     0.336 A 
ATOM     10  O   UNL     1      -4.155  -0.165   4.579  1.00  0.00    -0.246 OA
ATOM     11  O   UNL     1      -4.982  -1.384   2.894  1.00  0.00    -0.423 OA
ENDROOT
TORSDOF 0
ENDMDL
