MODEL 1
REMARK VINA RESULT:    -3.637      0.000      0.000
REMARK INTER + INTRA:          -7.800
REMARK INTER:                  -6.720
REMARK INTRA:                  -1.080
REMARK UNBOUND:                -1.080
REMARK SMILES CCCCCCCCCCCCCCCCO
REMARK SMILES IDX 9 1 8 2 7 3 6 4 5 5 4 6 3 7 2 8 1 9 10 10 11 11 12 12 13 13
REMARK SMILES IDX 14 14 15 15 16 16 17 17
REMARK H PARENT 17 18
REMARK Flexibility Score: inf
ROOT
ATOM      1  C   UNL     1     164.151 165.167 171.326  1.00  0.00     0.000 C 
ENDROOT
BRANCH   1   2
ATOM      2  C   UNL     1     165.208 164.983 170.226  1.00  0.00    -0.000 C 
BRANCH   2   3
ATOM      3  C   UNL     1     165.651 166.318 169.606  1.00  0.00    -0.000 C 
BRANCH   3   4
ATOM      4  C   UNL     1     166.382 166.136 168.264  1.00  0.00    -0.000 C 
BRANCH   4   5
ATOM      5  C   UNL     1     165.428 166.146 167.057  1.00  0.00    -0.000 C 
BRANCH   5   6
ATOM      6  C   UNL     1     164.993 164.756 166.558  1.00  0.00    -0.000 C 
BRANCH   6   7
ATOM      7  C   UNL     1     163.497 164.480 166.785  1.00  0.00    -0.000 C 
BRANCH   7   8
ATOM      8  C   UNL     1     162.768 164.085 165.490  1.00  0.00    -0.003 C 
ATOM      9  C   UNL     1     161.282 164.444 165.513  1.00  0.00     0.004 C 
ENDBRANCH   7   8
ENDBRANCH   6   7
ENDBRANCH   5   6
ENDBRANCH   4   5
ENDBRANCH   3   4
ENDBRANCH   2   3
ENDBRANCH   1   2
BRANCH   1  10
ATOM     10  C   UNL     1     162.736 164.773 170.866  1.00  0.00     0.000 C 
BRANCH  10  11
ATOM     11  C   UNL     1     162.146 163.572 171.634  1.00  0.00     0.000 C 
BRANCH  11  12
ATOM     12  C   UNL     1     161.084 162.823 170.809  1.00  0.00     0.000 C 
BRANCH  12  13
ATOM     13  C   UNL     1     160.156 163.770 170.031  1.00  0.00     0.000 C 
BRANCH  13  14
ATOM     14  C   UNL     1     159.664 163.160 168.707  1.00  0.00     0.002 C 
BRANCH  14  15
ATOM     15  C   UNL     1     158.130 163.120 168.601  1.00  0.00     0.028 C 
BRANCH  15  16
ATOM     16  C   UNL     1     157.567 164.019 167.493  1.00  0.00     0.156 C 
BRANCH  16  17
ATOM     17  O   UNL     1     157.075 165.212 168.037  1.00  0.00    -0.396 OA
ATOM     18  H   UNL     1     157.673 165.932 167.706  1.00  0.00     0.210 HD
ENDBRANCH  16  17
ENDBRANCH  15  16
ENDBRANCH  14  15
ENDBRANCH  13  14
ENDBRANCH  12  13
ENDBRANCH  11  12
ENDBRANCH  10  11
ENDBRANCH   1  10
TORSDOF 15
ENDMDL
MODEL 2
REMARK VINA RESULT:    -3.470      5.232      8.492
REMARK INTER + INTRA:          -7.492
REMARK INTER:                  -5.868
REMARK INTRA:                  -1.624
REMARK UNBOUND:                -1.080
REMARK SMILES CCCCCCCCCCCCCCCCO
REMARK SMILES IDX 9 1 8 2 7 3 6 4 5 5 4 6 3 7 2 8 1 9 10 10 11 11 12 12 13 13
REMARK SMILES IDX 14 14 15 15 16 16 17 17
REMARK H PARENT 17 18
REMARK Flexibility Score: inf
ROOT
ATOM      1  C   UNL     1     166.002 167.472 168.230  1.00  0.00     0.000 C 
ENDROOT
BRANCH   1   2
ATOM      2  C   UNL     1     167.050 166.631 167.484  1.00  0.00    -0.000 C 
BRANCH   2   3
ATOM      3  C   UNL     1     166.910 166.734 165.957  1.00  0.00    -0.000 C 
BRANCH   3   4
ATOM      4  C   UNL     1     165.552 166.218 165.449  1.00  0.00    -0.000 C 
BRANCH   4   5
ATOM      5  C   UNL     1     165.278 164.759 165.854  1.00  0.00    -0.000 C 
BRANCH   5   6
ATOM      6  C   UNL     1     163.938 164.523 166.574  1.00  0.00    -0.000 C 
BRANCH   6   7
ATOM      7  C   UNL     1     164.090 164.410 168.101  1.00  0.00    -0.000 C 
BRANCH   7   8
ATOM      8  C   UNL     1     165.341 163.615 168.509  1.00  0.00    -0.003 C 
ATOM      9  C   UNL     1     165.345 163.234 169.989  1.00  0.00     0.004 C 
ENDBRANCH   7   8
ENDBRANCH   6   7
ENDBRANCH   5   6
ENDBRANCH   4   5
ENDBRANCH   3   4
ENDBRANCH   2   3
ENDBRANCH   1   2
BRANCH   1  10
ATOM     10  C   UNL     1     166.026 167.243 169.752  1.00  0.00     0.000 C 
BRANCH  10  11
ATOM     11  C   UNL     1     167.237 166.418 170.235  1.00  0.00     0.000 C 
BRANCH  11  12
ATOM     12  C   UNL     1     168.329 167.305 170.861  1.00  0.00     0.000 C 
BRANCH  12  13
ATOM     13  C   UNL     1     169.675 167.201 170.126  1.00  0.00     0.000 C 
BRANCH  13  14
ATOM     14  C   UNL     1     170.828 167.848 170.912  1.00  0.00     0.002 C 
BRANCH  14  15
ATOM     15  C   UNL     1     172.188 167.700 170.207  1.00  0.00     0.028 C 
BRANCH  15  16
ATOM     16  C   UNL     1     172.159 168.099 168.726  1.00  0.00     0.156 C 
BRANCH  16  17
ATOM     17  O   UNL     1     173.309 168.828 168.396  1.00  0.00    -0.396 OA
ATOM     18  H   UNL     1     174.021 168.157 168.229  1.00  0.00     0.210 HD
ENDBRANCH  16  17
ENDBRANCH  15  16
ENDBRANCH  14  15
ENDBRANCH  13  14
ENDBRANCH  12  13
ENDBRANCH  11  12
ENDBRANCH  10  11
ENDBRANCH   1  10
TORSDOF 15
ENDMDL
MODEL 3
REMARK VINA RESULT:    -3.371      2.810      6.033
REMARK INTER + INTRA:          -7.309
REMARK INTER:                  -6.078
REMARK INTRA:                  -1.231
REMARK UNBOUND:                -1.080
REMARK SMILES CCCCCCCCCCCCCCCCO
REMARK SMILES IDX 9 1 8 2 7 3 6 4 5 5 4 6 3 7 2 8 1 9 10 10 11 11 12 12 13 13
REMARK SMILES IDX 14 14 15 15 16 16 17 17
REMARK H PARENT 17 18
REMARK Flexibility Score: inf
ROOT
ATOM      1  C   UNL     1     166.585 166.842 168.390  1.00  0.00     0.000 C 
ENDROOT
BRANCH   1   2
ATOM      2  C   UNL     1     165.789 167.198 169.655  1.00  0.00    -0.000 C 
BRANCH   2   3
ATOM      3  C   UNL     1     165.698 168.715 169.886  1.00  0.00    -0.000 C 
BRANCH   3   4
ATOM      4  C   UNL     1     166.025 169.116 171.336  1.00  0.00    -0.000 C 
BRANCH   4   5
ATOM      5  C   UNL     1     167.449 169.680 171.494  1.00  0.00    -0.000 C 
BRANCH   5   6
ATOM      6  C   UNL     1     168.479 168.696 172.076  1.00  0.00    -0.000 C 
BRANCH   6   7
ATOM      7  C   UNL     1     169.392 168.081 171.001  1.00  0.00    -0.000 C 
BRANCH   7   8
ATOM      8  C   UNL     1     169.225 166.557 170.889  1.00  0.00    -0.003 C 
ATOM      9  C   UNL     1     168.606 165.934 172.140  1.00  0.00     0.004 C 
ENDBRANCH   7   8
ENDBRANCH   6   7
ENDBRANCH   5   6
ENDBRANCH   4   5
ENDBRANCH   3   4
ENDBRANCH   2   3
ENDBRANCH   1   2
BRANCH   1  10
ATOM     10  C   UNL     1     165.851 165.834 167.487  1.00  0.00     0.000 C 
BRANCH  10  11
ATOM     11  C   UNL     1     165.976 166.147 165.981  1.00  0.00     0.000 C 
BRANCH  11  12
ATOM     12  C   UNL     1     165.193 165.143 165.116  1.00  0.00     0.000 C 
BRANCH  12  13
ATOM     13  C   UNL     1     164.149 164.350 165.919  1.00  0.00     0.000 C 
BRANCH  13  14
ATOM     14  C   UNL     1     162.991 163.842 165.042  1.00  0.00     0.002 C 
BRANCH  14  15
ATOM     15  C   UNL     1     161.650 164.523 165.368  1.00  0.00     0.028 C 
BRANCH  15  16
ATOM     16  C   UNL     1     161.042 164.073 166.702  1.00  0.00     0.156 C 
BRANCH  16  17
ATOM     17  O   UNL     1     159.694 164.447 166.772  1.00  0.00    -0.396 OA
ATOM     18  H   UNL     1     159.672 165.427 166.617  1.00  0.00     0.210 HD
ENDBRANCH  16  17
ENDBRANCH  15  16
ENDBRANCH  14  15
ENDBRANCH  13  14
ENDBRANCH  12  13
ENDBRANCH  11  12
ENDBRANCH  10  11
ENDBRANCH   1  10
TORSDOF 15
ENDMDL
MODEL 4
REMARK VINA RESULT:    -3.363      5.428      9.484
REMARK INTER + INTRA:          -7.293
REMARK INTER:                  -5.946
REMARK INTRA:                  -1.347
REMARK UNBOUND:                -1.080
REMARK SMILES CCCCCCCCCCCCCCCCO
REMARK SMILES IDX 9 1 8 2 7 3 6 4 5 5 4 6 3 7 2 8 1 9 10 10 11 11 12 12 13 13
REMARK SMILES IDX 14 14 15 15 16 16 17 17
REMARK H PARENT 17 18
REMARK Flexibility Score: inf
ROOT
ATOM      1  C   UNL     1     169.083 166.730 165.090  1.00  0.00     0.000 C 
ENDROOT
BRANCH   1   2
ATOM      2  C   UNL     1     167.690 167.333 165.328  1.00  0.00    -0.000 C 
BRANCH   2   3
ATOM      3  C   UNL     1     166.558 166.357 164.973  1.00  0.00    -0.000 C 
BRANCH   3   4
ATOM      4  C   UNL     1     165.681 165.997 166.186  1.00  0.00    -0.000 C 
BRANCH   4   5
ATOM      5  C   UNL     1     165.955 166.892 167.408  1.00  0.00    -0.000 C 
BRANCH   5   6
ATOM      6  C   UNL     1     165.852 166.184 168.771  1.00  0.00    -0.000 C 
BRANCH   6   7
ATOM      7  C   UNL     1     165.967 164.654 168.661  1.00  0.00    -0.000 C 
BRANCH   7   8
ATOM      8  C   UNL     1     164.811 163.925 169.365  1.00  0.00    -0.003 C 
ATOM      9  C   UNL     1     163.917 164.868 170.170  1.00  0.00     0.004 C 
ENDBRANCH   7   8
ENDBRANCH   6   7
ENDBRANCH   5   6
ENDBRANCH   4   5
ENDBRANCH   3   4
ENDBRANCH   2   3
ENDBRANCH   1   2
BRANCH   1  10
ATOM     10  C   UNL     1     170.088 167.091 166.198  1.00  0.00     0.000 C 
BRANCH  10  11
ATOM     11  C   UNL     1     169.602 166.728 167.617  1.00  0.00     0.000 C 
BRANCH  11  12
ATOM     12  C   UNL     1     170.441 167.416 168.709  1.00  0.00     0.000 C 
BRANCH  12  13
ATOM     13  C   UNL     1     171.826 167.858 168.208  1.00  0.00     0.000 C 
BRANCH  13  14
ATOM     14  C   UNL     1     172.540 168.796 169.196  1.00  0.00     0.002 C 
BRANCH  14  15
ATOM     15  C   UNL     1     171.686 169.124 170.433  1.00  0.00     0.028 C 
BRANCH  15  16
ATOM     16  C   UNL     1     171.202 170.578 170.477  1.00  0.00     0.156 C 
BRANCH  16  17
ATOM     17  O   UNL     1     171.428 171.204 169.245  1.00  0.00    -0.396 OA
ATOM     18  H   UNL     1     172.186 171.828 169.389  1.00  0.00     0.210 HD
ENDBRANCH  16  17
ENDBRANCH  15  16
ENDBRANCH  14  15
ENDBRANCH  13  14
ENDBRANCH  12  13
ENDBRANCH  11  12
ENDBRANCH  10  11
ENDBRANCH   1  10
TORSDOF 15
ENDMDL
MODEL 5
REMARK VINA RESULT:    -3.340      6.614     10.395
REMARK INTER + INTRA:          -7.251
REMARK INTER:                  -5.969
REMARK INTRA:                  -1.282
REMARK UNBOUND:                -1.080
REMARK SMILES CCCCCCCCCCCCCCCCO
REMARK SMILES IDX 9 1 8 2 7 3 6 4 5 5 4 6 3 7 2 8 1 9 10 10 11 11 12 12 13 13
REMARK SMILES IDX 14 14 15 15 16 16 17 17
REMARK H PARENT 17 18
REMARK Flexibility Score: inf
ROOT
ATOM      1  C   UNL     1     169.463 166.810 165.278  1.00  0.00     0.000 C 
ENDROOT
BRANCH   1   2
ATOM      2  C   UNL     1     167.983 167.109 164.991  1.00  0.00    -0.000 C 
BRANCH   2   3
ATOM      3  C   UNL     1     167.053 166.593 166.100  1.00  0.00    -0.000 C 
BRANCH   3   4
ATOM      4  C   UNL     1     165.993 167.629 166.516  1.00  0.00    -0.000 C 
BRANCH   4   5
ATOM      5  C   UNL     1     165.850 167.757 168.043  1.00  0.00    -0.000 C 
BRANCH   5   6
ATOM      6  C   UNL     1     166.491 166.618 168.856  1.00  0.00    -0.000 C 
BRANCH   6   7
ATOM      7  C   UNL     1     167.434 167.128 169.959  1.00  0.00    -0.000 C 
BRANCH   7   8
ATOM      8  C   UNL     1     167.904 166.004 170.897  1.00  0.00    -0.003 C 
ATOM      9  C   UNL     1     169.393 166.094 171.232  1.00  0.00     0.004 C 
ENDBRANCH   7   8
ENDBRANCH   6   7
ENDBRANCH   5   6
ENDBRANCH   4   5
ENDBRANCH   3   4
ENDBRANCH   2   3
ENDBRANCH   1   2
BRANCH   1  10
ATOM     10  C   UNL     1     169.803 166.864 166.778  1.00  0.00     0.000 C 
BRANCH  10  11
ATOM     11  C   UNL     1     171.276 167.223 167.067  1.00  0.00     0.000 C 
BRANCH  11  12
ATOM     12  C   UNL     1     171.439 167.962 168.407  1.00  0.00     0.000 C 
BRANCH  12  13
ATOM     13  C   UNL     1     172.908 168.093 168.841  1.00  0.00     0.000 C 
BRANCH  13  14
ATOM     14  C   UNL     1     173.070 168.898 170.142  1.00  0.00     0.002 C 
BRANCH  14  15
ATOM     15  C   UNL     1     172.493 168.172 171.370  1.00  0.00     0.028 C 
BRANCH  15  16
ATOM     16  C   UNL     1     173.355 166.999 171.852  1.00  0.00     0.156 C 
BRANCH  16  17
ATOM     17  O   UNL     1     172.854 165.789 171.354  1.00  0.00    -0.396 OA
ATOM     18  H   UNL     1     172.597 165.251 172.147  1.00  0.00     0.210 HD
ENDBRANCH  16  17
ENDBRANCH  15  16
ENDBRANCH  14  15
ENDBRANCH  13  14
ENDBRANCH  12  13
ENDBRANCH  11  12
ENDBRANCH  10  11
ENDBRANCH   1  10
TORSDOF 15
ENDMDL
MODEL 6
REMARK VINA RESULT:    -3.312      5.388      9.086
REMARK INTER + INTRA:          -7.200
REMARK INTER:                  -6.007
REMARK INTRA:                  -1.193
REMARK UNBOUND:                -1.080
REMARK SMILES CCCCCCCCCCCCCCCCO
REMARK SMILES IDX 9 1 8 2 7 3 6 4 5 5 4 6 3 7 2 8 1 9 10 10 11 11 12 12 13 13
REMARK SMILES IDX 14 14 15 15 16 16 17 17
REMARK H PARENT 17 18
REMARK Flexibility Score: inf
ROOT
ATOM      1  C   UNL     1     167.766 166.751 169.688  1.00  0.00     0.000 C 
ENDROOT
BRANCH   1   2
ATOM      2  C   UNL     1     166.297 167.199 169.625  1.00  0.00    -0.000 C 
BRANCH   2   3
ATOM      3  C   UNL     1     165.830 167.484 168.189  1.00  0.00    -0.000 C 
BRANCH   3   4
ATOM      4  C   UNL     1     166.695 166.775 167.131  1.00  0.00    -0.000 C 
BRANCH   4   5
ATOM      5  C   UNL     1     165.894 165.785 166.268  1.00  0.00    -0.000 C 
BRANCH   5   6
ATOM      6  C   UNL     1     164.797 165.006 167.016  1.00  0.00    -0.000 C 
BRANCH   6   7
ATOM      7  C   UNL     1     165.299 163.672 167.594  1.00  0.00    -0.000 C 
BRANCH   7   8
ATOM      8  C   UNL     1     165.292 163.658 169.132  1.00  0.00    -0.003 C 
ATOM      9  C   UNL     1     165.751 162.321 169.714  1.00  0.00     0.004 C 
ENDBRANCH   7   8
ENDBRANCH   6   7
ENDBRANCH   5   6
ENDBRANCH   4   5
ENDBRANCH   3   4
ENDBRANCH   2   3
ENDBRANCH   1   2
BRANCH   1  10
ATOM     10  C   UNL     1     168.337 166.777 171.117  1.00  0.00     0.000 C 
BRANCH  10  11
ATOM     11  C   UNL     1     169.049 168.098 171.476  1.00  0.00     0.000 C 
BRANCH  11  12
ATOM     12  C   UNL     1     170.485 168.150 170.921  1.00  0.00     0.000 C 
BRANCH  12  13
ATOM     13  C   UNL     1     171.002 169.587 170.742  1.00  0.00     0.000 C 
BRANCH  13  14
ATOM     14  C   UNL     1     172.254 169.657 169.851  1.00  0.00     0.002 C 
BRANCH  14  15
ATOM     15  C   UNL     1     172.925 168.287 169.652  1.00  0.00     0.028 C 
BRANCH  15  16
ATOM     16  C   UNL     1     173.117 167.904 168.180  1.00  0.00     0.156 C 
BRANCH  16  17
ATOM     17  O   UNL     1     172.026 167.153 167.725  1.00  0.00    -0.396 OA
ATOM     18  H   UNL     1     172.308 166.754 166.861  1.00  0.00     0.210 HD
ENDBRANCH  16  17
ENDBRANCH  15  16
ENDBRANCH  14  15
ENDBRANCH  13  14
ENDBRANCH  12  13
ENDBRANCH  11  12
ENDBRANCH  10  11
ENDBRANCH   1  10
TORSDOF 15
ENDMDL
MODEL 7
REMARK VINA RESULT:    -3.296      1.914      3.758
REMARK INTER + INTRA:          -7.169
REMARK INTER:                  -5.422
REMARK INTRA:                  -1.747
REMARK UNBOUND:                -1.080
REMARK SMILES CCCCCCCCCCCCCCCCO
REMARK SMILES IDX 9 1 8 2 7 3 6 4 5 5 4 6 3 7 2 8 1 9 10 10 11 11 12 12 13 13
REMARK SMILES IDX 14 14 15 15 16 16 17 17
REMARK H PARENT 17 18
REMARK Flexibility Score: inf
ROOT
ATOM      1  C   UNL     1     165.005 163.953 168.554  1.00  0.00     0.000 C 
ENDROOT
BRANCH   1   2
ATOM      2  C   UNL     1     165.246 163.919 167.037  1.00  0.00    -0.000 C 
BRANCH   2   3
ATOM      3  C   UNL     1     165.262 165.323 166.412  1.00  0.00    -0.000 C 
BRANCH   3   4
ATOM      4  C   UNL     1     166.390 166.209 166.971  1.00  0.00    -0.000 C 
BRANCH   4   5
ATOM      5  C   UNL     1     165.867 167.498 167.631  1.00  0.00    -0.000 C 
BRANCH   5   6
ATOM      6  C   UNL     1     166.046 167.568 169.158  1.00  0.00    -0.000 C 
BRANCH   6   7
ATOM      7  C   UNL     1     167.189 166.674 169.668  1.00  0.00    -0.000 C 
BRANCH   7   8
ATOM      8  C   UNL     1     166.857 166.004 171.011  1.00  0.00    -0.003 C 
ATOM      9  C   UNL     1     165.937 166.855 171.887  1.00  0.00     0.004 C 
ENDBRANCH   7   8
ENDBRANCH   6   7
ENDBRANCH   5   6
ENDBRANCH   4   5
ENDBRANCH   3   4
ENDBRANCH   2   3
ENDBRANCH   1   2
BRANCH   1  10
ATOM     10  C   UNL     1     163.668 164.616 168.932  1.00  0.00     0.000 C 
BRANCH  10  11
ATOM     11  C   UNL     1     163.400 164.648 170.451  1.00  0.00     0.000 C 
BRANCH  11  12
ATOM     12  C   UNL     1     161.895 164.702 170.771  1.00  0.00     0.000 C 
BRANCH  12  13
ATOM     13  C   UNL     1     161.417 163.495 171.595  1.00  0.00     0.000 C 
BRANCH  13  14
ATOM     14  C   UNL     1     160.618 162.485 170.753  1.00  0.00     0.002 C 
BRANCH  14  15
ATOM     15  C   UNL     1     159.589 163.159 169.828  1.00  0.00     0.028 C 
BRANCH  15  16
ATOM     16  C   UNL     1     158.233 163.412 170.497  1.00  0.00     0.156 C 
BRANCH  16  17
ATOM     17  O   UNL     1     157.831 164.739 170.296  1.00  0.00    -0.396 OA
ATOM     18  H   UNL     1     158.369 165.287 170.924  1.00  0.00     0.210 HD
ENDBRANCH  16  17
ENDBRANCH  15  16
ENDBRANCH  14  15
ENDBRANCH  13  14
ENDBRANCH  12  13
ENDBRANCH  11  12
ENDBRANCH  10  11
ENDBRANCH   1  10
TORSDOF 15
ENDMDL
MODEL 8
REMARK VINA RESULT:    -3.258      6.191      9.285
REMARK INTER + INTRA:          -7.101
REMARK INTER:                  -5.945
REMARK INTRA:                  -1.155
REMARK UNBOUND:                -1.080
REMARK SMILES CCCCCCCCCCCCCCCCO
REMARK SMILES IDX 9 1 8 2 7 3 6 4 5 5 4 6 3 7 2 8 1 9 10 10 11 11 12 12 13 13
REMARK SMILES IDX 14 14 15 15 16 16 17 17
REMARK H PARENT 17 18
REMARK Flexibility Score: inf
ROOT
ATOM      1  C   UNL     1     165.670 167.314 170.136  1.00  0.00     0.000 C 
ENDROOT
BRANCH   1   2
ATOM      2  C   UNL     1     165.955 167.435 168.631  1.00  0.00    -0.000 C 
BRANCH   2   3
ATOM      3  C   UNL     1     165.624 166.146 167.864  1.00  0.00    -0.000 C 
BRANCH   3   4
ATOM      4  C   UNL     1     165.954 166.246 166.364  1.00  0.00    -0.000 C 
BRANCH   4   5
ATOM      5  C   UNL     1     167.086 167.246 166.066  1.00  0.00    -0.000 C 
BRANCH   5   6
ATOM      6  C   UNL     1     168.039 166.834 164.930  1.00  0.00    -0.000 C 
BRANCH   6   7
ATOM      7  C   UNL     1     169.507 166.750 165.381  1.00  0.00    -0.000 C 
BRANCH   7   8
ATOM      8  C   UNL     1     169.653 166.750 166.912  1.00  0.00    -0.003 C 
ATOM      9  C   UNL     1     170.900 167.494 167.389  1.00  0.00     0.004 C 
ENDBRANCH   7   8
ENDBRANCH   6   7
ENDBRANCH   5   6
ENDBRANCH   4   5
ENDBRANCH   3   4
ENDBRANCH   2   3
ENDBRANCH   1   2
BRANCH   1  10
ATOM     10  C   UNL     1     166.811 166.626 170.906  1.00  0.00     0.000 C 
BRANCH  10  11
ATOM     11  C   UNL     1     168.181 166.726 170.203  1.00  0.00     0.000 C 
BRANCH  11  12
ATOM     12  C   UNL     1     169.279 167.249 171.148  1.00  0.00     0.000 C 
BRANCH  12  13
ATOM     13  C   UNL     1     170.514 166.334 171.190  1.00  0.00     0.000 C 
BRANCH  13  14
ATOM     14  C   UNL     1     171.563 166.804 172.213  1.00  0.00     0.002 C 
BRANCH  14  15
ATOM     15  C   UNL     1     172.397 167.995 171.709  1.00  0.00     0.028 C 
BRANCH  15  16
ATOM     16  C   UNL     1     173.112 167.726 170.380  1.00  0.00     0.156 C 
BRANCH  16  17
ATOM     17  O   UNL     1     173.510 166.385 170.304  1.00  0.00    -0.396 OA
ATOM     18  H   UNL     1     174.263 166.358 169.658  1.00  0.00     0.210 HD
ENDBRANCH  16  17
ENDBRANCH  15  16
ENDBRANCH  14  15
ENDBRANCH  13  14
ENDBRANCH  12  13
ENDBRANCH  11  12
ENDBRANCH  10  11
ENDBRANCH   1  10
TORSDOF 15
ENDMDL
