MODEL 1
REMARK VINA RESULT:    35.422      0.000      0.000
REMARK INTER + INTRA:          38.528
REMARK INTER:                  38.528
REMARK INTRA:                   0.000
REMARK UNBOUND:                 0.000
REMARK SMILES Cc1cc(O)c2c(c1)C(=O)c1cc(O)cc(O)c1C2=O
REMARK SMILES IDX 1 1 2 2 8 3 7 4 6 5 4 6 3 7 19 8 20 9 18 10 11 11 9 12 10 13
REMARK SMILES IDX 12 14 13 15 15 16 16 17 5 18 17 20 14 22
REMARK H PARENT 5 19 17 21 14 23
REMARK Flexibility Score: inf
ROOT
ATOM      1  C   UNL     1      11.907   3.752  22.591  1.00  0.00     0.044 C 
ATOM      2  C   UNL     1      11.841   3.333  21.152  1.00  0.00    -0.047 A 
ATOM      3  C   UNL     1      11.193   2.146  20.794  1.00  0.00     0.016 A 
ATOM      4  C   UNL     1      11.102   1.759  19.446  1.00  0.00     0.038 A 
ATOM      5  C   UNL     1      11.666   2.575  18.440  1.00  0.00     0.076 A 
ATOM      6  C   UNL     1      12.246   3.818  18.802  1.00  0.00     0.127 A 
ATOM      7  C   UNL     1      12.344   4.171  20.151  1.00  0.00     0.050 A 
ATOM      8  C   UNL     1      11.679   2.062  17.045  1.00  0.00     0.201 C 
ATOM      9  O   UNL     1      12.602   2.407  16.260  1.00  0.00    -0.288 OA
ATOM     10  C   UNL     1      10.718   1.004  16.638  1.00  0.00     0.076 A 
ATOM     11  C   UNL     1      10.153   0.192  17.648  1.00  0.00     0.041 A 
ATOM     12  C   UNL     1      10.406   0.503  19.074  1.00  0.00     0.194 C 
ATOM     13  O   UNL     1      10.010  -0.289  19.973  1.00  0.00    -0.289 OA
ATOM     14  C   UNL     1       9.348  -0.904  17.293  1.00  0.00     0.059 A 
ATOM     15  C   UNL     1       9.090  -1.190  15.950  1.00  0.00     0.120 A 
ATOM     16  C   UNL     1       9.613  -0.366  14.953  1.00  0.00     0.093 A 
ATOM     17  C   UNL     1      10.400   0.743  15.280  1.00  0.00     0.131 A 
ENDROOT
BRANCH   6  18
ATOM     18  O   UNL     1      12.701   4.742  17.859  1.00  0.00    -0.507 OA
ATOM     19  H   UNL     1      12.319   4.822  16.927  1.00  0.00     0.293 HD
ENDBRANCH   6  18
BRANCH  17  20
ATOM     20  O   UNL     1      10.811   1.572  14.234  1.00  0.00    -0.507 OA
ATOM     21  H   UNL     1      11.621   2.175  14.284  1.00  0.00     0.293 HD
ENDBRANCH  17  20
BRANCH  15  22
ATOM     22  O   UNL     1       8.303  -2.283  15.594  1.00  0.00    -0.508 OA
ATOM     23  H   UNL     1       8.694  -3.215  15.520  1.00  0.00     0.293 HD
ENDBRANCH  15  22
TORSDOF 3
ENDMDL
MODEL 2
REMARK VINA RESULT:    36.293      1.532      6.184
REMARK INTER + INTRA:          39.475
REMARK INTER:                  39.475
REMARK INTRA:                   0.000
REMARK UNBOUND:                 0.000
REMARK SMILES Cc1cc(O)c2c(c1)C(=O)c1cc(O)cc(O)c1C2=O
REMARK SMILES IDX 1 1 2 2 8 3 7 4 6 5 4 6 3 7 19 8 20 9 18 10 11 11 9 12 10 13
REMARK SMILES IDX 12 14 13 15 15 16 16 17 5 18 17 20 14 22
REMARK H PARENT 5 19 17 21 14 23
REMARK Flexibility Score: inf
ROOT
ATOM      1  C   UNL     1      10.952   1.124  11.867  1.00  0.00     0.044 C 
ATOM      2  C   UNL     1      10.776   0.871  13.335  1.00  0.00    -0.047 A 
ATOM      3  C   UNL     1      11.323   1.754  14.272  1.00  0.00     0.016 A 
ATOM      4  C   UNL     1      11.140   1.541  15.649  1.00  0.00     0.038 A 
ATOM      5  C   UNL     1      10.395   0.426  16.095  1.00  0.00     0.076 A 
ATOM      6  C   UNL     1       9.771  -0.416  15.139  1.00  0.00     0.127 A 
ATOM      7  C   UNL     1       9.986  -0.196  13.775  1.00  0.00     0.050 A 
ATOM      8  C   UNL     1      10.347   0.152  17.555  1.00  0.00     0.201 C 
ATOM      9  O   UNL     1      10.229  -1.033  17.965  1.00  0.00    -0.288 OA
ATOM     10  C   UNL     1      10.627   1.246  18.521  1.00  0.00     0.076 A 
ATOM     11  C   UNL     1      11.370   2.360  18.071  1.00  0.00     0.041 A 
ATOM     12  C   UNL     1      11.718   2.486  16.636  1.00  0.00     0.194 C 
ATOM     13  O   UNL     1      12.485   3.410  16.250  1.00  0.00    -0.289 OA
ATOM     14  C   UNL     1      11.771   3.348  18.985  1.00  0.00     0.059 A 
ATOM     15  C   UNL     1      11.429   3.245  20.336  1.00  0.00     0.120 A 
ATOM     16  C   UNL     1      10.661   2.168  20.777  1.00  0.00     0.093 A 
ATOM     17  C   UNL     1      10.232   1.181  19.883  1.00  0.00     0.131 A 
ENDROOT
BRANCH   6  18
ATOM     18  O   UNL     1       8.908  -1.455  15.497  1.00  0.00    -0.507 OA
ATOM     19  H   UNL     1       9.076  -2.424  15.267  1.00  0.00     0.293 HD
ENDBRANCH   6  18
BRANCH  17  20
ATOM     20  O   UNL     1       9.391   0.183  20.380  1.00  0.00    -0.507 OA
ATOM     21  H   UNL     1       9.437  -0.783  20.088  1.00  0.00     0.293 HD
ENDBRANCH  17  20
BRANCH  15  22
ATOM     22  O   UNL     1      11.835   4.216  21.249  1.00  0.00    -0.508 OA
ATOM     23  H   UNL     1      12.576   4.873  21.030  1.00  0.00     0.293 HD
ENDBRANCH  15  22
TORSDOF 3
ENDMDL
MODEL 3
REMARK VINA RESULT:    36.392      1.204      3.427
REMARK INTER + INTRA:          39.583
REMARK INTER:                  39.583
REMARK INTRA:                   0.000
REMARK UNBOUND:                 0.000
REMARK SMILES Cc1cc(O)c2c(c1)C(=O)c1cc(O)cc(O)c1C2=O
REMARK SMILES IDX 1 1 2 2 8 3 7 4 6 5 4 6 3 7 19 8 20 9 18 10 11 11 9 12 10 13
REMARK SMILES IDX 12 14 13 15 15 16 16 17 5 18 17 20 14 22
REMARK H PARENT 5 19 17 21 14 23
REMARK Flexibility Score: inf
ROOT
ATOM      1  C   UNL     1      12.394   3.748  21.665  1.00  0.00     0.044 C 
ATOM      2  C   UNL     1      11.766   2.851  20.640  1.00  0.00    -0.047 A 
ATOM      3  C   UNL     1      11.796   3.201  19.286  1.00  0.00     0.016 A 
ATOM      4  C   UNL     1      11.235   2.354  18.315  1.00  0.00     0.038 A 
ATOM      5  C   UNL     1      10.634   1.136  18.706  1.00  0.00     0.076 A 
ATOM      6  C   UNL     1      10.683   0.748  20.070  1.00  0.00     0.127 A 
ATOM      7  C   UNL     1      11.228   1.617  21.020  1.00  0.00     0.050 A 
ATOM      8  C   UNL     1       9.923   0.339  17.673  1.00  0.00     0.201 C 
ATOM      9  O   UNL     1       8.941  -0.378  18.002  1.00  0.00    -0.288 OA
ATOM     10  C   UNL     1      10.248   0.535  16.236  1.00  0.00     0.076 A 
ATOM     11  C   UNL     1      10.851   1.753  15.849  1.00  0.00     0.041 A 
ATOM     12  C   UNL     1      11.278   2.728  16.881  1.00  0.00     0.194 C 
ATOM     13  O   UNL     1      11.700   3.866  16.538  1.00  0.00    -0.289 OA
ATOM     14  C   UNL     1      11.049   2.033  14.486  1.00  0.00     0.059 A 
ATOM     15  C   UNL     1      10.667   1.109  13.510  1.00  0.00     0.120 A 
ATOM     16  C   UNL     1      10.109  -0.111  13.891  1.00  0.00     0.093 A 
ATOM     17  C   UNL     1       9.920  -0.422  15.242  1.00  0.00     0.131 A 
ENDROOT
BRANCH   6  18
ATOM     18  O   UNL     1      10.236  -0.498  20.517  1.00  0.00    -0.507 OA
ATOM     19  H   UNL     1      10.682  -1.371  20.272  1.00  0.00     0.293 HD
ENDBRANCH   6  18
BRANCH  17  20
ATOM     20  O   UNL     1       9.441  -1.698  15.548  1.00  0.00    -0.507 OA
ATOM     21  H   UNL     1       8.859  -1.899  16.350  1.00  0.00     0.293 HD
ENDBRANCH  17  20
BRANCH  15  22
ATOM     22  O   UNL     1      10.849   1.387  12.157  1.00  0.00    -0.508 OA
ATOM     23  H   UNL     1      11.570   2.025  11.840  1.00  0.00     0.293 HD
ENDBRANCH  15  22
TORSDOF 3
ENDMDL
MODEL 4
REMARK VINA RESULT:    36.838      1.373      5.503
REMARK INTER + INTRA:          40.068
REMARK INTER:                  40.068
REMARK INTRA:                   0.000
REMARK UNBOUND:                 0.000
REMARK SMILES Cc1cc(O)c2c(c1)C(=O)c1cc(O)cc(O)c1C2=O
REMARK SMILES IDX 1 1 2 2 8 3 7 4 6 5 4 6 3 7 19 8 20 9 18 10 11 11 9 12 10 13
REMARK SMILES IDX 12 14 13 15 15 16 16 17 5 18 17 20 14 22
REMARK H PARENT 5 19 17 21 14 23
REMARK Flexibility Score: inf
ROOT
ATOM      1  C   UNL     1       8.823  -2.256  15.614  1.00  0.00     0.044 C 
ATOM      2  C   UNL     1       9.462  -0.974  16.058  1.00  0.00    -0.047 A 
ATOM      3  C   UNL     1       9.478  -0.628  17.413  1.00  0.00     0.016 A 
ATOM      4  C   UNL     1      10.098   0.558  17.842  1.00  0.00     0.038 A 
ATOM      5  C   UNL     1      10.714   1.411  16.899  1.00  0.00     0.076 A 
ATOM      6  C   UNL     1      10.768   1.012  15.538  1.00  0.00     0.127 A 
ATOM      7  C   UNL     1      10.126  -0.161  15.133  1.00  0.00     0.050 A 
ATOM      8  C   UNL     1      11.229   2.723  17.368  1.00  0.00     0.201 C 
ATOM      9  O   UNL     1      11.247   3.707  16.582  1.00  0.00    -0.288 OA
ATOM     10  C   UNL     1      11.542   2.921  18.808  1.00  0.00     0.076 A 
ATOM     11  C   UNL     1      10.927   2.065  19.749  1.00  0.00     0.041 A 
ATOM     12  C   UNL     1      10.118   0.914  19.282  1.00  0.00     0.194 C 
ATOM     13  O   UNL     1       9.466   0.222  20.111  1.00  0.00    -0.289 OA
ATOM     14  C   UNL     1      11.090   2.305  21.123  1.00  0.00     0.059 A 
ATOM     15  C   UNL     1      11.868   3.377  21.569  1.00  0.00     0.120 A 
ATOM     16  C   UNL     1      12.510   4.199  20.644  1.00  0.00     0.093 A 
ATOM     17  C   UNL     1      12.380   3.969  19.270  1.00  0.00     0.131 A 
ENDROOT
BRANCH   6  18
ATOM     18  O   UNL     1      11.475   1.728  14.569  1.00  0.00    -0.507 OA
ATOM     19  H   UNL     1      11.034   2.207  13.796  1.00  0.00     0.293 HD
ENDBRANCH   6  18
BRANCH  17  20
ATOM     20  O   UNL     1      13.125   4.778  18.409  1.00  0.00    -0.507 OA
ATOM     21  H   UNL     1      13.038   4.751  17.402  1.00  0.00     0.293 HD
ENDBRANCH  17  20
BRANCH  15  22
ATOM     22  O   UNL     1      12.021   3.626  22.931  1.00  0.00    -0.508 OA
ATOM     23  H   UNL     1      11.254   3.502  23.582  1.00  0.00     0.293 HD
ENDBRANCH  15  22
TORSDOF 3
ENDMDL
