MODEL 1
REMARK VINA RESULT:    -5.130      0.000      0.000
REMARK INTER + INTRA:          -7.562
REMARK INTER:                  -7.379
REMARK INTRA:                  -0.183
REMARK UNBOUND:                -0.183
REMARK SMILES O=c1cc(-c2ccc(O)c(O)c2)oc2cc(O[C@@H]3O[C@@H](CO)[C@@H](O)[C@@H](O)[C@H]3O)cc(O)c12
REMARK SMILES IDX 17 1 16 2 4 3 3 4 13 5 2 6 14 7 1 8 32 9 15 10 30 11 29 12
REMARK SMILES IDX 5 13 6 14 7 15 8 16 12 17 10 18 9 19 11 21 31 23 18 25 27 26
REMARK SMILES IDX 19 27 25 28 20 29 23 30 28 31 26 33 21 35 22 36 24 38
REMARK H PARENT 9 20 11 22 31 24 28 32 26 34 22 37 24 39
REMARK Flexibility Score: inf
ROOT
ATOM      1  O   UNL     1      87.125  -0.367   4.409  1.00  0.00    -0.462 OA
ENDROOT
BRANCH   1   2
ATOM      2  C   UNL     1      86.540   0.338   5.457  1.00  0.00     0.130 A 
ATOM      3  C   UNL     1      84.712   4.152   7.657  1.00  0.00     0.138 A 
ATOM      4  C   UNL     1      83.624   3.419   8.105  1.00  0.00     0.100 A 
ATOM      5  O   UNL     1      85.496   3.661   6.623  1.00  0.00    -0.456 OA
ATOM      6  C   UNL     1      83.661   2.056   7.922  1.00  0.00     0.197 A 
ATOM      7  C   UNL     1      85.459   2.365   6.316  1.00  0.00     0.146 A 
ATOM      8  O   UNL     1      82.937   1.280   8.633  1.00  0.00    -0.289 OA
ATOM      9  C   UNL     1      84.664   1.494   7.081  1.00  0.00     0.107 A 
ATOM     10  C   UNL     1      86.513   1.834   5.487  1.00  0.00     0.094 A 
ATOM     11  C   UNL     1      85.398   0.482   7.542  1.00  0.00     0.134 A 
ATOM     12  C   UNL     1      85.927  -0.332   6.533  1.00  0.00     0.093 A 
BRANCH   3  13
ATOM     13  C   UNL     1      85.064   5.419   8.338  1.00  0.00     0.021 A 
ATOM     14  C   UNL     1      85.760   6.297   7.490  1.00  0.00     0.016 A 
ATOM     15  C   UNL     1      84.924   6.929   6.450  1.00  0.00     0.051 A 
ATOM     16  C   UNL     1      83.500   6.963   6.615  1.00  0.00     0.157 A 
ATOM     17  C   UNL     1      83.842   5.922   8.769  1.00  0.00     0.062 A 
ATOM     18  C   UNL     1      82.952   6.440   7.807  1.00  0.00     0.158 A 
BRANCH  16  19
ATOM     19  O   UNL     1      82.683   7.526   5.628  1.00  0.00    -0.504 OA
ATOM     20  H   UNL     1      82.361   6.977   4.831  1.00  0.00     0.293 HD
ENDBRANCH  16  19
BRANCH  18  21
ATOM     21  O   UNL     1      81.584   6.507   8.200  1.00  0.00    -0.504 OA
ATOM     22  H   UNL     1      80.972   7.118   7.622  1.00  0.00     0.293 HD
ENDBRANCH  18  21
ENDBRANCH   3  13
BRANCH  11  23
ATOM     23  O   UNL     1      86.191   0.768   8.715  1.00  0.00    -0.507 OA
ATOM     24  H   UNL     1      86.900   0.035   8.961  1.00  0.00     0.293 HD
ENDBRANCH  11  23
ENDBRANCH   1   2
BRANCH   1  25
ATOM     25  C   UNL     1      87.055   0.116   3.118  1.00  0.00     0.339 C 
ATOM     26  C   UNL     1      86.511  -1.229   2.415  1.00  0.00     0.214 C 
ATOM     27  O   UNL     1      86.257   1.427   2.871  1.00  0.00    -0.332 OA
ATOM     28  C   UNL     1      85.143  -0.800   2.209  1.00  0.00     0.180 C 
ATOM     29  C   UNL     1      84.880   1.443   2.057  1.00  0.00     0.179 C 
ATOM     30  C   UNL     1      85.300   0.417   1.225  1.00  0.00     0.177 C 
BRANCH  26  31
ATOM     31  O   UNL     1      87.125  -1.420   1.136  1.00  0.00    -0.384 OA
ATOM     32  H   UNL     1      87.013  -2.421   0.932  1.00  0.00     0.211 HD
ENDBRANCH  26  31
BRANCH  28  33
ATOM     33  O   UNL     1      84.146  -1.708   1.686  1.00  0.00    -0.387 OA
ATOM     34  H   UNL     1      83.810  -1.118   0.915  1.00  0.00     0.211 HD
ENDBRANCH  28  33
BRANCH  29  35
ATOM     35  C   UNL     1      83.658   1.708   1.048  1.00  0.00     0.191 C 
BRANCH  35  36
ATOM     36  O   UNL     1      82.602   0.874   1.468  1.00  0.00    -0.394 OA
ATOM     37  H   UNL     1      82.821  -0.072   1.375  1.00  0.00     0.210 HD
ENDBRANCH  35  36
ENDBRANCH  29  35
BRANCH  30  38
ATOM     38  O   UNL     1      86.307   1.022   0.336  1.00  0.00    -0.387 OA
ATOM     39  H   UNL     1      86.099   1.957  -0.111  1.00  0.00     0.211 HD
ENDBRANCH  30  38
ENDBRANCH   1  25
TORSDOF 11
ENDMDL
MODEL 2
REMARK VINA RESULT:    -3.286     10.062     13.664
REMARK INTER + INTRA:          -4.910
REMARK INTER:                  -4.569
REMARK INTRA:                  -0.341
REMARK UNBOUND:                -0.183
REMARK SMILES O=c1cc(-c2ccc(O)c(O)c2)oc2cc(O[C@@H]3O[C@@H](CO)[C@@H](O)[C@@H](O)[C@H]3O)cc(O)c12
REMARK SMILES IDX 17 1 16 2 4 3 3 4 13 5 2 6 14 7 1 8 32 9 15 10 30 11 29 12
REMARK SMILES IDX 5 13 6 14 7 15 8 16 12 17 10 18 9 19 11 21 31 23 18 25 27 26
REMARK SMILES IDX 19 27 25 28 20 29 23 30 28 31 26 33 21 35 22 36 24 38
REMARK H PARENT 9 20 11 22 31 24 28 32 26 34 22 37 24 39
REMARK Flexibility Score: inf
ROOT
ATOM      1  O   UNL     1      82.858  -1.777  -7.880  1.00  0.00    -0.462 OA
ENDROOT
BRANCH   1   2
ATOM      2  C   UNL     1      83.397  -2.898  -7.255  1.00  0.00     0.130 A 
ATOM      3  C   UNL     1      85.212  -5.418  -3.638  1.00  0.00     0.138 A 
ATOM      4  C   UNL     1      84.397  -6.500  -3.933  1.00  0.00     0.100 A 
ATOM      5  O   UNL     1      84.915  -4.168  -4.161  1.00  0.00    -0.456 OA
ATOM      6  C   UNL     1      83.682  -6.451  -5.107  1.00  0.00     0.197 A 
ATOM      7  C   UNL     1      84.110  -4.061  -5.216  1.00  0.00     0.146 A 
ATOM      8  O   UNL     1      83.244  -7.520  -5.652  1.00  0.00    -0.289 OA
ATOM      9  C   UNL     1      83.611  -5.224  -5.828  1.00  0.00     0.107 A 
ATOM     10  C   UNL     1      84.093  -2.809  -5.933  1.00  0.00     0.094 A 
ATOM     11  C   UNL     1      83.897  -5.224  -7.129  1.00  0.00     0.134 A 
ATOM     12  C   UNL     1      83.292  -4.177  -7.836  1.00  0.00     0.093 A 
BRANCH   3  13
ATOM     13  C   UNL     1      86.430  -5.628  -2.823  1.00  0.00     0.021 A 
ATOM     14  C   UNL     1      86.677  -4.551  -1.956  1.00  0.00     0.016 A 
ATOM     15  C   UNL     1      85.755  -4.474  -0.805  1.00  0.00     0.051 A 
ATOM     16  C   UNL     1      85.012  -5.639  -0.418  1.00  0.00     0.157 A 
ATOM     17  C   UNL     1      86.192  -6.827  -2.161  1.00  0.00     0.062 A 
ATOM     18  C   UNL     1      85.240  -6.842  -1.122  1.00  0.00     0.158 A 
BRANCH  16  19
ATOM     19  O   UNL     1      84.107  -5.583   0.647  1.00  0.00    -0.504 OA
ATOM     20  H   UNL     1      84.092  -4.790   1.288  1.00  0.00     0.293 HD
ENDBRANCH  16  19
BRANCH  18  21
ATOM     21  O   UNL     1      84.697  -8.119  -0.797  1.00  0.00    -0.504 OA
ATOM     22  H   UNL     1      83.661  -8.198  -0.839  1.00  0.00     0.293 HD
ENDBRANCH  18  21
ENDBRANCH   3  13
BRANCH  11  23
ATOM     23  O   UNL     1      85.239  -5.633  -7.473  1.00  0.00    -0.507 OA
ATOM     24  H   UNL     1      85.315  -6.220  -8.340  1.00  0.00     0.293 HD
ENDBRANCH  11  23
ENDBRANCH   1   2
BRANCH   1  25
ATOM     25  C   UNL     1      83.660  -0.946  -8.635  1.00  0.00     0.339 C 
ATOM     26  C   UNL     1      82.629   0.287  -8.765  1.00  0.00     0.214 C 
ATOM     27  O   UNL     1      85.089  -0.633  -8.111  1.00  0.00    -0.332 OA
ATOM     28  C   UNL     1      83.283   1.185  -7.836  1.00  0.00     0.180 C 
ATOM     29  C   UNL     1      85.505   0.824  -7.596  1.00  0.00     0.179 C 
ATOM     30  C   UNL     1      84.677   1.443  -8.519  1.00  0.00     0.177 C 
BRANCH  26  31
ATOM     31  O   UNL     1      82.686   0.865 -10.073  1.00  0.00    -0.384 OA
ATOM     32  H   UNL     1      82.352   0.128 -10.706  1.00  0.00     0.211 HD
ENDBRANCH  26  31
BRANCH  28  33
ATOM     33  O   UNL     1      82.688   2.454  -7.478  1.00  0.00    -0.387 OA
ATOM     34  H   UNL     1      82.559   2.268  -6.475  1.00  0.00     0.211 HD
ENDBRANCH  28  33
BRANCH  29  35
ATOM     35  C   UNL     1      86.188   2.250  -7.310  1.00  0.00     0.191 C 
BRANCH  35  36
ATOM     36  O   UNL     1      85.397   2.884  -6.331  1.00  0.00    -0.394 OA
ATOM     37  H   UNL     1      85.569   2.537  -5.436  1.00  0.00     0.210 HD
ENDBRANCH  35  36
ENDBRANCH  29  35
BRANCH  30  38
ATOM     38  O   UNL     1      85.341   1.264  -9.822  1.00  0.00    -0.387 OA
ATOM     39  H   UNL     1      86.390   1.141  -9.848  1.00  0.00     0.211 HD
ENDBRANCH  30  38
ENDBRANCH   1  25
TORSDOF 11
ENDMDL
MODEL 3
REMARK VINA RESULT:    -2.187      9.490     13.276
REMARK INTER + INTRA:          -3.329
REMARK INTER:                  -3.750
REMARK INTRA:                   0.421
REMARK UNBOUND:                -0.183
REMARK SMILES O=c1cc(-c2ccc(O)c(O)c2)oc2cc(O[C@@H]3O[C@@H](CO)[C@@H](O)[C@@H](O)[C@H]3O)cc(O)c12
REMARK SMILES IDX 17 1 16 2 4 3 3 4 13 5 2 6 14 7 1 8 32 9 15 10 30 11 29 12
REMARK SMILES IDX 5 13 6 14 7 15 8 16 12 17 10 18 9 19 11 21 31 23 18 25 27 26
REMARK SMILES IDX 19 27 25 28 20 29 23 30 28 31 26 33 21 35 22 36 24 38
REMARK H PARENT 9 20 11 22 31 24 28 32 26 34 22 37 24 39
REMARK Flexibility Score: inf
ROOT
ATOM      1  O   UNL     1      83.052  -3.236  -7.605  1.00  0.00    -0.462 OA
ENDROOT
BRANCH   1   2
ATOM      2  C   UNL     1      83.725  -4.077  -6.723  1.00  0.00     0.130 A 
ATOM      3  C   UNL     1      85.784  -5.321  -2.607  1.00  0.00     0.138 A 
ATOM      4  C   UNL     1      85.131  -6.545  -2.607  1.00  0.00     0.100 A 
ATOM      5  O   UNL     1      85.331  -4.299  -3.427  1.00  0.00    -0.456 OA
ATOM      6  C   UNL     1      84.442  -6.894  -3.746  1.00  0.00     0.197 A 
ATOM      7  C   UNL     1      84.543  -4.575  -4.465  1.00  0.00     0.146 A 
ATOM      8  O   UNL     1      84.167  -8.116  -3.995  1.00  0.00    -0.289 OA
ATOM      9  C   UNL     1      84.221  -5.912  -4.754  1.00  0.00     0.107 A 
ATOM     10  C   UNL     1      84.372  -3.560  -5.476  1.00  0.00     0.094 A 
ATOM     11  C   UNL     1      84.534  -6.203  -6.016  1.00  0.00     0.134 A 
ATOM     12  C   UNL     1      83.808  -5.463  -6.958  1.00  0.00     0.093 A 
BRANCH   3  13
ATOM     13  C   UNL     1      87.001  -5.148  -1.782  1.00  0.00     0.021 A 
ATOM     14  C   UNL     1      86.907  -4.033  -0.933  1.00  0.00     0.016 A 
ATOM     15  C   UNL     1      85.991  -4.216   0.212  1.00  0.00     0.051 A 
ATOM     16  C   UNL     1      85.623  -5.542   0.615  1.00  0.00     0.157 A 
ATOM     17  C   UNL     1      87.121  -6.353  -1.099  1.00  0.00     0.062 A 
ATOM     18  C   UNL     1      86.205  -6.634  -0.066  1.00  0.00     0.158 A 
BRANCH  16  19
ATOM     19  O   UNL     1      84.730  -5.742   1.673  1.00  0.00    -0.504 OA
ATOM     20  H   UNL     1      84.309  -6.655   1.847  1.00  0.00     0.293 HD
ENDBRANCH  16  19
BRANCH  18  21
ATOM     21  O   UNL     1      86.061  -8.009   0.278  1.00  0.00    -0.504 OA
ATOM     22  H   UNL     1      86.479  -8.693  -0.385  1.00  0.00     0.293 HD
ENDBRANCH  18  21
ENDBRANCH   3  13
BRANCH  11  23
ATOM     23  O   UNL     1      85.927  -6.497  -6.262  1.00  0.00    -0.507 OA
ATOM     24  H   UNL     1      86.112  -7.436  -6.691  1.00  0.00     0.293 HD
ENDBRANCH  11  23
ENDBRANCH   1   2
BRANCH   1  25
ATOM     25  C   UNL     1      82.867  -1.904  -7.296  1.00  0.00     0.339 C 
ATOM     26  C   UNL     1      84.323  -1.375  -7.747  1.00  0.00     0.214 C 
ATOM     27  O   UNL     1      81.627  -1.181  -7.890  1.00  0.00    -0.332 OA
ATOM     28  C   UNL     1      83.919  -0.719  -8.973  1.00  0.00     0.180 C 
ATOM     29  C   UNL     1      81.761  -0.037  -9.001  1.00  0.00     0.179 C 
ATOM     30  C   UNL     1      82.957   0.416  -8.465  1.00  0.00     0.177 C 
BRANCH  26  31
ATOM     31  O   UNL     1      84.809  -0.382  -6.838  1.00  0.00    -0.384 OA
ATOM     32  H   UNL     1      85.270  -0.909  -6.087  1.00  0.00     0.211 HD
ENDBRANCH  26  31
BRANCH  28  33
ATOM     33  O   UNL     1      84.898  -0.146  -9.871  1.00  0.00    -0.387 OA
ATOM     34  H   UNL     1      84.356   0.678 -10.160  1.00  0.00     0.211 HD
ENDBRANCH  28  33
BRANCH  29  35
ATOM     35  C   UNL     1      81.700   1.299  -9.892  1.00  0.00     0.191 C 
BRANCH  35  36
ATOM     36  O   UNL     1      82.907   1.989  -9.664  1.00  0.00    -0.394 OA
ATOM     37  H   UNL     1      82.768   2.829  -9.186  1.00  0.00     0.210 HD
ENDBRANCH  35  36
ENDBRANCH  29  35
BRANCH  30  38
ATOM     38  O   UNL     1      82.588   1.102  -7.214  1.00  0.00    -0.387 OA
ATOM     39  H   UNL     1      82.359   2.133  -7.245  1.00  0.00     0.211 HD
ENDBRANCH  30  38
ENDBRANCH   1  25
TORSDOF 11
ENDMDL
