MODEL 1
REMARK VINA RESULT:    -5.194      0.000      0.000
REMARK INTER + INTRA:          -7.682
REMARK INTER:                  -7.016
REMARK INTRA:                  -0.666
REMARK UNBOUND:                -0.666
REMARK SMILES CCCCCCC=CC(=O)[O-]
REMARK SMILES IDX 5 1 6 2 7 3 8 4 9 5 10 6 11 7 4 8 3 9 2 10 1 11
REMARK H PARENT
REMARK Flexibility Score: inf
ROOT
ATOM      1  C   UNL     1       8.409 -55.805 -28.996  1.00  0.00     0.004 C 
ENDROOT
BRANCH   1   2
ATOM      2  C   UNL     1       9.705 -55.318 -29.671  1.00  0.00     0.027 C 
BRANCH   2   3
ATOM      3  C   UNL     1       9.461 -54.219 -30.672  1.00  0.00    -0.025 C 
ATOM      4  C   UNL     1       9.646 -54.304 -32.000  1.00  0.00     0.020 C 
BRANCH   4   5
ATOM      5  C   UNL     1      10.185 -55.461 -32.742  1.00  0.00     0.064 C 
ATOM      6  O   UNL     1      11.318 -55.362 -33.284  1.00  0.00    -0.545 OA
ATOM      7  O   UNL     1       9.505 -56.668 -32.830  1.00  0.00    -0.545 OA
ENDBRANCH   4   5
ENDBRANCH   2   3
ENDBRANCH   1   2
BRANCH   1   8
ATOM      8  C   UNL     1       7.355 -56.348 -29.977  1.00  0.00     0.000 C 
BRANCH   8   9
ATOM      9  C   UNL     1       5.924 -55.907 -29.620  1.00  0.00    -0.000 C 
BRANCH   9  10
ATOM     10  C   UNL     1       5.105 -55.509 -30.858  1.00  0.00    -0.003 C 
ATOM     11  C   UNL     1       5.979 -55.011 -32.008  1.00  0.00     0.004 C 
ENDBRANCH   9  10
ENDBRANCH   8   9
ENDBRANCH   1   8
TORSDOF 6
ENDMDL
MODEL 2
REMARK VINA RESULT:    -4.990      0.422      1.057
REMARK INTER + INTRA:          -7.407
REMARK INTER:                  -6.771
REMARK INTRA:                  -0.636
REMARK UNBOUND:                -0.666
REMARK SMILES CCCCCCC=CC(=O)[O-]
REMARK SMILES IDX 5 1 6 2 7 3 8 4 9 5 10 6 11 7 4 8 3 9 2 10 1 11
REMARK H PARENT
REMARK Flexibility Score: inf
ROOT
ATOM      1  C   UNL     1       8.508 -56.123 -29.250  1.00  0.00     0.004 C 
ENDROOT
BRANCH   1   2
ATOM      2  C   UNL     1       9.753 -55.342 -29.711  1.00  0.00     0.027 C 
BRANCH   2   3
ATOM      3  C   UNL     1       9.421 -54.251 -30.696  1.00  0.00    -0.025 C 
ATOM      4  C   UNL     1       9.579 -54.313 -32.028  1.00  0.00     0.020 C 
BRANCH   4   5
ATOM      5  C   UNL     1      10.167 -55.430 -32.793  1.00  0.00     0.064 C 
ATOM      6  O   UNL     1       9.485 -56.475 -32.966  1.00  0.00    -0.545 OA
ATOM      7  O   UNL     1      11.431 -55.356 -33.363  1.00  0.00    -0.545 OA
ENDBRANCH   4   5
ENDBRANCH   2   3
ENDBRANCH   1   2
BRANCH   1   8
ATOM      8  C   UNL     1       7.181 -55.372 -29.458  1.00  0.00     0.000 C 
BRANCH   8   9
ATOM      9  C   UNL     1       6.079 -56.261 -30.062  1.00  0.00    -0.000 C 
BRANCH   9  10
ATOM     10  C   UNL     1       5.145 -55.485 -31.002  1.00  0.00    -0.003 C 
ATOM     11  C   UNL     1       5.864 -54.956 -32.243  1.00  0.00     0.004 C 
ENDBRANCH   9  10
ENDBRANCH   8   9
ENDBRANCH   1   8
TORSDOF 6
ENDMDL
MODEL 3
REMARK VINA RESULT:    -4.981      1.659      2.386
REMARK INTER + INTRA:          -7.394
REMARK INTER:                  -6.958
REMARK INTRA:                  -0.436
REMARK UNBOUND:                -0.666
REMARK SMILES CCCCCCC=CC(=O)[O-]
REMARK SMILES IDX 5 1 6 2 7 3 8 4 9 5 10 6 11 7 4 8 3 9 2 10 1 11
REMARK H PARENT
REMARK Flexibility Score: inf
ROOT
ATOM      1  C   UNL     1       6.947 -55.753 -29.031  1.00  0.00     0.004 C 
ENDROOT
BRANCH   1   2
ATOM      2  C   UNL     1       8.463 -56.021 -28.998  1.00  0.00     0.027 C 
BRANCH   2   3
ATOM      3  C   UNL     1       9.274 -54.756 -28.887  1.00  0.00    -0.025 C 
ATOM      4  C   UNL     1       9.677 -53.982 -29.908  1.00  0.00     0.020 C 
BRANCH   4   5
ATOM      5  C   UNL     1       9.467 -54.243 -31.347  1.00  0.00     0.064 C 
ATOM      6  O   UNL     1       8.392 -53.864 -31.883  1.00  0.00    -0.545 OA
ATOM      7  O   UNL     1      10.428 -54.856 -32.138  1.00  0.00    -0.545 OA
ENDBRANCH   4   5
ENDBRANCH   2   3
ENDBRANCH   1   2
BRANCH   1   8
ATOM      8  C   UNL     1       6.266 -56.154 -30.352  1.00  0.00     0.000 C 
BRANCH   8   9
ATOM      9  C   UNL     1       4.797 -55.699 -30.429  1.00  0.00    -0.000 C 
BRANCH   9  10
ATOM     10  C   UNL     1       3.866 -56.572 -29.574  1.00  0.00    -0.003 C 
ATOM     11  C   UNL     1       3.195 -55.790 -28.446  1.00  0.00     0.004 C 
ENDBRANCH   9  10
ENDBRANCH   8   9
ENDBRANCH   1   8
TORSDOF 6
ENDMDL
MODEL 4
REMARK VINA RESULT:    -4.977      1.961      2.620
REMARK INTER + INTRA:          -7.389
REMARK INTER:                  -6.871
REMARK INTRA:                  -0.518
REMARK UNBOUND:                -0.666
REMARK SMILES CCCCCCC=CC(=O)[O-]
REMARK SMILES IDX 5 1 6 2 7 3 8 4 9 5 10 6 11 7 4 8 3 9 2 10 1 11
REMARK H PARENT
REMARK Flexibility Score: inf
ROOT
ATOM      1  C   UNL     1       7.159 -55.820 -28.865  1.00  0.00     0.004 C 
ENDROOT
BRANCH   1   2
ATOM      2  C   UNL     1       7.200 -56.222 -30.352  1.00  0.00     0.027 C 
BRANCH   2   3
ATOM      3  C   UNL     1       7.061 -55.041 -31.277  1.00  0.00    -0.025 C 
ATOM      4  C   UNL     1       8.059 -54.252 -31.707  1.00  0.00     0.020 C 
BRANCH   4   5
ATOM      5  C   UNL     1       9.480 -54.336 -31.315  1.00  0.00     0.064 C 
ATOM      6  O   UNL     1       9.833 -53.864 -30.202  1.00  0.00    -0.545 OA
ATOM      7  O   UNL     1      10.434 -54.952 -32.113  1.00  0.00    -0.545 OA
ENDBRANCH   4   5
ENDBRANCH   2   3
ENDBRANCH   1   2
BRANCH   1   8
ATOM      8  C   UNL     1       5.857 -56.211 -28.144  1.00  0.00     0.000 C 
BRANCH   8   9
ATOM      9  C   UNL     1       4.884 -56.988 -29.048  1.00  0.00    -0.000 C 
BRANCH   9  10
ATOM     10  C   UNL     1       3.552 -56.250 -29.250  1.00  0.00    -0.003 C 
ATOM     11  C   UNL     1       3.344 -55.122 -28.240  1.00  0.00     0.004 C 
ENDBRANCH   9  10
ENDBRANCH   8   9
ENDBRANCH   1   8
TORSDOF 6
ENDMDL
MODEL 5
REMARK VINA RESULT:    -4.875      3.310      4.976
REMARK INTER + INTRA:          -7.250
REMARK INTER:                  -6.616
REMARK INTRA:                  -0.634
REMARK UNBOUND:                -0.666
REMARK SMILES CCCCCCC=CC(=O)[O-]
REMARK SMILES IDX 5 1 6 2 7 3 8 4 9 5 10 6 11 7 4 8 3 9 2 10 1 11
REMARK H PARENT
REMARK Flexibility Score: inf
ROOT
ATOM      1  C   UNL     1       8.182 -55.366 -29.236  1.00  0.00     0.004 C 
ENDROOT
BRANCH   1   2
ATOM      2  C   UNL     1       7.260 -56.294 -30.048  1.00  0.00     0.027 C 
BRANCH   2   3
ATOM      3  C   UNL     1       6.408 -55.544 -31.039  1.00  0.00    -0.025 C 
ATOM      4  C   UNL     1       5.093 -55.298 -30.926  1.00  0.00     0.020 C 
BRANCH   4   5
ATOM      5  C   UNL     1       4.200 -55.764 -29.846  1.00  0.00     0.064 C 
ATOM      6  O   UNL     1       3.689 -54.915 -29.070  1.00  0.00    -0.545 OA
ATOM      7  O   UNL     1       3.874 -57.103 -29.679  1.00  0.00    -0.545 OA
ENDBRANCH   4   5
ENDBRANCH   2   3
ENDBRANCH   1   2
BRANCH   1   8
ATOM      8  C   UNL     1       8.972 -54.359 -30.091  1.00  0.00     0.000 C 
BRANCH   8   9
ATOM      9  C   UNL     1      10.110 -55.018 -30.891  1.00  0.00    -0.000 C 
BRANCH   9  10
ATOM     10  C   UNL     1       9.881 -54.944 -32.408  1.00  0.00    -0.003 C 
ATOM     11  C   UNL     1       9.701 -56.321 -33.045  1.00  0.00     0.004 C 
ENDBRANCH   9  10
ENDBRANCH   8   9
ENDBRANCH   1   8
TORSDOF 6
ENDMDL
MODEL 6
REMARK VINA RESULT:    -4.846      3.498      5.278
REMARK INTER + INTRA:          -7.212
REMARK INTER:                  -6.643
REMARK INTRA:                  -0.569
REMARK UNBOUND:                -0.666
REMARK SMILES CCCCCCC=CC(=O)[O-]
REMARK SMILES IDX 5 1 6 2 7 3 8 4 9 5 10 6 11 7 4 8 3 9 2 10 1 11
REMARK H PARENT
REMARK Flexibility Score: inf
ROOT
ATOM      1  C   UNL     1       7.064 -54.953 -31.044  1.00  0.00     0.004 C 
ENDROOT
BRANCH   1   2
ATOM      2  C   UNL     1       7.242 -56.275 -30.274  1.00  0.00     0.027 C 
BRANCH   2   3
ATOM      3  C   UNL     1       6.913 -56.143 -28.809  1.00  0.00    -0.025 C 
ATOM      4  C   UNL     1       5.682 -56.085 -28.277  1.00  0.00     0.020 C 
BRANCH   4   5
ATOM      5  C   UNL     1       4.403 -56.073 -29.016  1.00  0.00     0.064 C 
ATOM      6  O   UNL     1       3.818 -54.973 -29.202  1.00  0.00    -0.545 OA
ATOM      7  O   UNL     1       3.842 -57.226 -29.547  1.00  0.00    -0.545 OA
ENDBRANCH   4   5
ENDBRANCH   2   3
ENDBRANCH   1   2
BRANCH   1   8
ATOM      8  C   UNL     1       8.358 -54.421 -31.686  1.00  0.00     0.000 C 
BRANCH   8   9
ATOM      9  C   UNL     1       9.618 -54.786 -30.881  1.00  0.00    -0.000 C 
BRANCH   9  10
ATOM     10  C   UNL     1       9.898 -53.793 -29.743  1.00  0.00    -0.003 C 
ATOM     11  C   UNL     1      10.172 -54.487 -28.409  1.00  0.00     0.004 C 
ENDBRANCH   9  10
ENDBRANCH   8   9
ENDBRANCH   1   8
TORSDOF 6
ENDMDL
MODEL 7
REMARK VINA RESULT:    -4.836      1.947      3.297
REMARK INTER + INTRA:          -7.198
REMARK INTER:                  -6.576
REMARK INTRA:                  -0.622
REMARK UNBOUND:                -0.666
REMARK SMILES CCCCCCC=CC(=O)[O-]
REMARK SMILES IDX 5 1 6 2 7 3 8 4 9 5 10 6 11 7 4 8 3 9 2 10 1 11
REMARK H PARENT
REMARK Flexibility Score: inf
ROOT
ATOM      1  C   UNL     1       5.167 -55.387 -31.415  1.00  0.00     0.004 C 
ENDROOT
BRANCH   1   2
ATOM      2  C   UNL     1       6.664 -55.026 -31.379  1.00  0.00     0.027 C 
BRANCH   2   3
ATOM      3  C   UNL     1       7.443 -55.878 -30.411  1.00  0.00    -0.025 C 
ATOM      4  C   UNL     1       8.701 -55.656 -29.998  1.00  0.00     0.020 C 
BRANCH   4   5
ATOM      5  C   UNL     1       9.600 -54.576 -30.452  1.00  0.00     0.064 C 
ATOM      6  O   UNL     1       9.773 -53.575 -29.707  1.00  0.00    -0.545 OA
ATOM      7  O   UNL     1      10.291 -54.641 -31.654  1.00  0.00    -0.545 OA
ENDBRANCH   4   5
ENDBRANCH   2   3
ENDBRANCH   1   2
BRANCH   1   8
ATOM      8  C   UNL     1       4.484 -55.375 -30.036  1.00  0.00     0.000 C 
BRANCH   8   9
ATOM      9  C   UNL     1       3.903 -56.747 -29.645  1.00  0.00    -0.000 C 
BRANCH   9  10
ATOM     10  C   UNL     1       4.539 -57.312 -28.366  1.00  0.00    -0.003 C 
ATOM     11  C   UNL     1       5.167 -56.228 -27.491  1.00  0.00     0.004 C 
ENDBRANCH   9  10
ENDBRANCH   8   9
ENDBRANCH   1   8
TORSDOF 6
ENDMDL
MODEL 8
REMARK VINA RESULT:    -4.825      2.380      3.211
REMARK INTER + INTRA:          -7.183
REMARK INTER:                  -6.758
REMARK INTRA:                  -0.425
REMARK UNBOUND:                -0.666
REMARK SMILES CCCCCCC=CC(=O)[O-]
REMARK SMILES IDX 5 1 6 2 7 3 8 4 9 5 10 6 11 7 4 8 3 9 2 10 1 11
REMARK H PARENT
REMARK Flexibility Score: inf
ROOT
ATOM      1  C   UNL     1       8.503 -55.196 -32.326  1.00  0.00     0.004 C 
ENDROOT
BRANCH   1   2
ATOM      2  C   UNL     1       9.792 -55.221 -31.485  1.00  0.00     0.027 C 
BRANCH   2   3
ATOM      3  C   UNL     1       9.786 -54.195 -30.382  1.00  0.00    -0.025 C 
ATOM      4  C   UNL     1       9.729 -54.450 -29.064  1.00  0.00     0.020 C 
BRANCH   4   5
ATOM      5  C   UNL     1       9.594 -55.776 -28.429  1.00  0.00     0.064 C 
ATOM      6  O   UNL     1      10.568 -56.241 -27.780  1.00  0.00    -0.545 OA
ATOM      7  O   UNL     1       8.419 -56.512 -28.489  1.00  0.00    -0.545 OA
ENDBRANCH   4   5
ENDBRANCH   2   3
ENDBRANCH   1   2
BRANCH   1   8
ATOM      8  C   UNL     1       7.283 -54.613 -31.590  1.00  0.00     0.000 C 
BRANCH   8   9
ATOM      9  C   UNL     1       5.950 -54.952 -32.282  1.00  0.00    -0.000 C 
BRANCH   9  10
ATOM     10  C   UNL     1       4.891 -55.470 -31.297  1.00  0.00    -0.003 C 
ATOM     11  C   UNL     1       5.455 -55.709 -29.897  1.00  0.00     0.004 C 
ENDBRANCH   9  10
ENDBRANCH   8   9
ENDBRANCH   1   8
TORSDOF 6
ENDMDL
MODEL 9
REMARK VINA RESULT:    -4.766      2.401      3.764
REMARK INTER + INTRA:          -7.104
REMARK INTER:                  -6.556
REMARK INTRA:                  -0.548
REMARK UNBOUND:                -0.666
REMARK SMILES CCCCCCC=CC(=O)[O-]
REMARK SMILES IDX 5 1 6 2 7 3 8 4 9 5 10 6 11 7 4 8 3 9 2 10 1 11
REMARK H PARENT
REMARK Flexibility Score: inf
ROOT
ATOM      1  C   UNL     1       4.942 -55.732 -30.897  1.00  0.00     0.004 C 
ENDROOT
BRANCH   1   2
ATOM      2  C   UNL     1       6.440 -55.409 -30.740  1.00  0.00     0.027 C 
BRANCH   2   3
ATOM      3  C   UNL     1       7.037 -56.013 -29.496  1.00  0.00    -0.025 C 
ATOM      4  C   UNL     1       8.270 -55.780 -29.016  1.00  0.00     0.020 C 
BRANCH   4   5
ATOM      5  C   UNL     1       9.312 -54.939 -29.639  1.00  0.00     0.064 C 
ATOM      6  O   UNL     1      10.075 -55.453 -30.499  1.00  0.00    -0.545 OA
ATOM      7  O   UNL     1       9.456 -53.592 -29.338  1.00  0.00    -0.545 OA
ENDBRANCH   4   5
ENDBRANCH   2   3
ENDBRANCH   1   2
BRANCH   1   8
ATOM      8  C   UNL     1       4.291 -56.321 -29.633  1.00  0.00     0.000 C 
BRANCH   8   9
ATOM      9  C   UNL     1       3.492 -55.277 -28.831  1.00  0.00    -0.000 C 
BRANCH   9  10
ATOM     10  C   UNL     1       3.296 -55.686 -27.364  1.00  0.00    -0.003 C 
ATOM     11  C   UNL     1       4.577 -56.223 -26.726  1.00  0.00     0.004 C 
ENDBRANCH   9  10
ENDBRANCH   8   9
ENDBRANCH   1   8
TORSDOF 6
ENDMDL
