MODEL 1
REMARK VINA RESULT:    -4.014      0.000      0.000
REMARK INTER + INTRA:          -4.755
REMARK INTER:                  -4.484
REMARK INTRA:                  -0.271
REMARK UNBOUND:                -0.271
REMARK SMILES CC=C(C)C=CC=C(C)C
REMARK SMILES IDX 5 1 6 2 3 3 1 4 2 5 4 6 7 7 8 8 9 9 10 10
REMARK H PARENT
REMARK Flexibility Score: inf
ROOT
ATOM      1  C   UNL     1     138.417 139.565 134.631  1.00  0.00     0.003 C 
ATOM      2  C   UNL     1     137.705 140.696 134.693  1.00  0.00     0.000 C 
ENDROOT
BRANCH   1   3
ATOM      3  C   UNL     1     138.733 138.865 133.358  1.00  0.00    -0.055 C 
ATOM      4  C   UNL     1     138.042 138.340 130.998  1.00  0.00     0.036 C 
ATOM      5  C   UNL     1     137.887 139.026 132.322  1.00  0.00    -0.027 C 
ATOM      6  C   UNL     1     139.936 137.951 133.264  1.00  0.00     0.044 C 
ENDBRANCH   1   3
BRANCH   2   7
ATOM      7  C   UNL     1     137.434 141.346 135.995  1.00  0.00    -0.001 C 
ATOM      8  C   UNL     1     137.991 142.508 136.382  1.00  0.00    -0.076 C 
ATOM      9  C   UNL     1     137.629 143.063 137.734  1.00  0.00     0.039 C 
ATOM     10  C   UNL     1     138.957 143.263 135.505  1.00  0.00     0.039 C 
ENDBRANCH   2   7
TORSDOF 2
ENDMDL
MODEL 2
REMARK VINA RESULT:    -3.995      5.864      7.296
REMARK INTER + INTRA:          -4.733
REMARK INTER:                  -4.500
REMARK INTRA:                  -0.233
REMARK UNBOUND:                -0.271
REMARK SMILES CC=C(C)C=CC=C(C)C
REMARK SMILES IDX 5 1 6 2 3 3 1 4 2 5 4 6 7 7 8 8 9 9 10 10
REMARK H PARENT
REMARK Flexibility Score: inf
ROOT
ATOM      1  C   UNL     1     144.464 140.923 134.036  1.00  0.00     0.003 C 
ATOM      2  C   UNL     1     144.231 142.228 133.849  1.00  0.00     0.000 C 
ENDROOT
BRANCH   1   3
ATOM      3  C   UNL     1     144.329 140.249 135.354  1.00  0.00    -0.055 C 
ATOM      4  C   UNL     1     145.054 140.125 137.758  1.00  0.00     0.036 C 
ATOM      5  C   UNL     1     145.043 140.733 136.387  1.00  0.00    -0.027 C 
ATOM      6  C   UNL     1     143.462 139.017 135.498  1.00  0.00     0.044 C 
ENDBRANCH   1   3
BRANCH   2   7
ATOM      7  C   UNL     1     144.376 142.835 132.506  1.00  0.00    -0.001 C 
ATOM      8  C   UNL     1     143.507 143.720 131.986  1.00  0.00    -0.076 C 
ATOM      9  C   UNL     1     143.773 144.263 130.607  1.00  0.00     0.039 C 
ATOM     10  C   UNL     1     142.287 144.181 132.742  1.00  0.00     0.039 C 
ENDBRANCH   2   7
TORSDOF 2
ENDMDL
MODEL 3
REMARK VINA RESULT:    -3.994      3.641      6.499
REMARK INTER + INTRA:          -4.732
REMARK INTER:                  -4.508
REMARK INTRA:                  -0.225
REMARK UNBOUND:                -0.271
REMARK SMILES CC=C(C)C=CC=C(C)C
REMARK SMILES IDX 5 1 6 2 3 3 1 4 2 5 4 6 7 7 8 8 9 9 10 10
REMARK H PARENT
REMARK Flexibility Score: inf
ROOT
ATOM      1  C   UNL     1     141.239 144.519 134.035  1.00  0.00     0.003 C 
ATOM      2  C   UNL     1     139.959 144.188 133.824  1.00  0.00     0.000 C 
ENDROOT
BRANCH   1   3
ATOM      3  C   UNL     1     141.911 144.387 135.354  1.00  0.00    -0.055 C 
ATOM      4  C   UNL     1     142.047 145.134 137.751  1.00  0.00     0.036 C 
ATOM      5  C   UNL     1     141.439 145.119 136.380  1.00  0.00    -0.027 C 
ATOM      6  C   UNL     1     143.130 143.502 135.507  1.00  0.00     0.044 C 
ENDBRANCH   1   3
BRANCH   2   7
ATOM      7  C   UNL     1     139.353 144.337 132.482  1.00  0.00    -0.001 C 
ATOM      8  C   UNL     1     138.450 143.483 131.968  1.00  0.00    -0.076 C 
ATOM      9  C   UNL     1     137.910 143.751 130.589  1.00  0.00     0.039 C 
ATOM     10  C   UNL     1     137.966 142.277 132.732  1.00  0.00     0.039 C 
ENDBRANCH   2   7
TORSDOF 2
ENDMDL
MODEL 4
REMARK VINA RESULT:    -3.994      0.872      5.509
REMARK INTER + INTRA:          -4.732
REMARK INTER:                  -4.500
REMARK INTRA:                  -0.232
REMARK UNBOUND:                -0.271
REMARK SMILES CC=C(C)C=CC=C(C)C
REMARK SMILES IDX 5 1 6 2 3 3 1 4 2 5 4 6 7 7 8 8 9 9 10 10
REMARK H PARENT
REMARK Flexibility Score: inf
ROOT
ATOM      1  C   UNL     1     137.747 141.288 133.980  1.00  0.00     0.003 C 
ATOM      2  C   UNL     1     137.994 139.984 133.799  1.00  0.00     0.000 C 
ENDROOT
BRANCH   1   3
ATOM      3  C   UNL     1     137.879 141.970 135.294  1.00  0.00    -0.055 C 
ATOM      4  C   UNL     1     137.165 142.095 137.701  1.00  0.00     0.036 C 
ATOM      5  C   UNL     1     137.178 141.481 136.333  1.00  0.00    -0.027 C 
ATOM      6  C   UNL     1     138.729 143.216 135.427  1.00  0.00     0.044 C 
ENDBRANCH   1   3
BRANCH   2   7
ATOM      7  C   UNL     1     137.851 139.369 132.460  1.00  0.00    -0.001 C 
ATOM      8  C   UNL     1     138.710 138.465 131.955  1.00  0.00    -0.076 C 
ATOM      9  C   UNL     1     138.447 137.916 130.578  1.00  0.00     0.039 C 
ATOM     10  C   UNL     1     139.916 137.992 132.726  1.00  0.00     0.039 C 
ENDBRANCH   2   7
TORSDOF 2
ENDMDL
MODEL 5
REMARK VINA RESULT:    -3.992      3.228      4.868
REMARK INTER + INTRA:          -4.729
REMARK INTER:                  -4.454
REMARK INTRA:                  -0.275
REMARK UNBOUND:                -0.271
REMARK SMILES CC=C(C)C=CC=C(C)C
REMARK SMILES IDX 5 1 6 2 3 3 1 4 2 5 4 6 7 7 8 8 9 9 10 10
REMARK H PARENT
REMARK Flexibility Score: inf
ROOT
ATOM      1  C   UNL     1     142.536 138.533 134.569  1.00  0.00     0.003 C 
ATOM      2  C   UNL     1     141.416 137.802 134.620  1.00  0.00     0.000 C 
ENDROOT
BRANCH   1   3
ATOM      3  C   UNL     1     143.323 138.740 133.325  1.00  0.00    -0.055 C 
ATOM      4  C   UNL     1     143.911 137.913 131.025  1.00  0.00     0.036 C 
ATOM      5  C   UNL     1     143.148 137.867 132.315  1.00  0.00    -0.027 C 
ATOM      6  C   UNL     1     144.333 139.863 133.236  1.00  0.00     0.044 C 
ENDBRANCH   1   3
BRANCH   2   7
ATOM      7  C   UNL     1     140.676 137.644 135.892  1.00  0.00    -0.001 C 
ATOM      8  C   UNL     1     139.500 138.242 136.154  1.00  0.00    -0.076 C 
ATOM      9  C   UNL     1     138.850 137.996 137.489  1.00  0.00     0.039 C 
ATOM     10  C   UNL     1     138.821 139.143 135.153  1.00  0.00     0.039 C 
ENDBRANCH   2   7
TORSDOF 2
ENDMDL
MODEL 6
REMARK VINA RESULT:    -3.989      3.417      6.458
REMARK INTER + INTRA:          -4.726
REMARK INTER:                  -4.506
REMARK INTRA:                  -0.220
REMARK UNBOUND:                -0.271
REMARK SMILES CC=C(C)C=CC=C(C)C
REMARK SMILES IDX 5 1 6 2 3 3 1 4 2 5 4 6 7 7 8 8 9 9 10 10
REMARK H PARENT
REMARK Flexibility Score: inf
ROOT
ATOM      1  C   UNL     1     140.922 137.679 134.020  1.00  0.00     0.003 C 
ATOM      2  C   UNL     1     142.186 138.053 133.787  1.00  0.00     0.000 C 
ENDROOT
BRANCH   1   3
ATOM      3  C   UNL     1     140.245 137.857 135.332  1.00  0.00    -0.055 C 
ATOM      4  C   UNL     1     140.101 137.193 137.752  1.00  0.00     0.036 C 
ATOM      5  C   UNL     1     140.715 137.161 136.385  1.00  0.00    -0.027 C 
ATOM      6  C   UNL     1     139.024 138.745 135.449  1.00  0.00     0.044 C 
ENDBRANCH   1   3
BRANCH   2   7
ATOM      7  C   UNL     1     142.797 137.855 132.454  1.00  0.00    -0.001 C 
ATOM      8  C   UNL     1     143.733 138.668 131.930  1.00  0.00    -0.076 C 
ATOM      9  C   UNL     1     144.274 138.352 130.562  1.00  0.00     0.039 C 
ATOM     10  C   UNL     1     144.251 139.873 132.673  1.00  0.00     0.039 C 
ENDBRANCH   2   7
TORSDOF 2
ENDMDL
MODEL 7
REMARK VINA RESULT:    -3.979      5.557      7.022
REMARK INTER + INTRA:          -4.715
REMARK INTER:                  -4.446
REMARK INTRA:                  -0.270
REMARK UNBOUND:                -0.271
REMARK SMILES CC=C(C)C=CC=C(C)C
REMARK SMILES IDX 5 1 6 2 3 3 1 4 2 5 4 6 7 7 8 8 9 9 10 10
REMARK H PARENT
REMARK Flexibility Score: inf
ROOT
ATOM      1  C   UNL     1     143.662 142.561 134.545  1.00  0.00     0.003 C 
ATOM      2  C   UNL     1     144.372 141.429 134.621  1.00  0.00     0.000 C 
ENDROOT
BRANCH   1   3
ATOM      3  C   UNL     1     143.459 143.316 133.281  1.00  0.00    -0.055 C 
ATOM      4  C   UNL     1     144.326 143.895 130.993  1.00  0.00     0.036 C 
ATOM      5  C   UNL     1     144.367 143.159 132.299  1.00  0.00    -0.027 C 
ATOM      6  C   UNL     1     142.297 144.277 133.140  1.00  0.00     0.044 C 
ENDBRANCH   1   3
BRANCH   2   7
ATOM      7  C   UNL     1     144.527 140.723 135.913  1.00  0.00    -0.001 C 
ATOM      8  C   UNL     1     143.987 139.519 136.179  1.00  0.00    -0.076 C 
ATOM      9  C   UNL     1     144.224 138.910 137.535  1.00  0.00     0.039 C 
ATOM     10  C   UNL     1     143.162 138.772 135.163  1.00  0.00     0.039 C 
ENDBRANCH   2   7
TORSDOF 2
ENDMDL
MODEL 8
REMARK VINA RESULT:    -3.971      3.354      4.882
REMARK INTER + INTRA:          -4.707
REMARK INTER:                  -4.433
REMARK INTRA:                  -0.274
REMARK UNBOUND:                -0.271
REMARK SMILES CC=C(C)C=CC=C(C)C
REMARK SMILES IDX 5 1 6 2 3 3 1 4 2 5 4 6 7 7 8 8 9 9 10 10
REMARK H PARENT
REMARK Flexibility Score: inf
ROOT
ATOM      1  C   UNL     1     139.500 143.609 134.415  1.00  0.00     0.003 C 
ATOM      2  C   UNL     1     140.617 144.346 134.451  1.00  0.00     0.000 C 
ENDROOT
BRANCH   1   3
ATOM      3  C   UNL     1     138.757 143.310 133.162  1.00  0.00    -0.055 C 
ATOM      4  C   UNL     1     138.167 144.022 130.824  1.00  0.00     0.036 C 
ATOM      5  C   UNL     1     138.896 144.160 132.127  1.00  0.00    -0.027 C 
ATOM      6  C   UNL     1     137.826 142.119 133.089  1.00  0.00     0.044 C 
ENDBRANCH   1   3
BRANCH   2   7
ATOM      7  C   UNL     1     141.312 144.598 135.733  1.00  0.00    -0.001 C 
ATOM      8  C   UNL     1     142.471 144.012 136.085  1.00  0.00    -0.076 C 
ATOM      9  C   UNL     1     143.075 144.357 137.419  1.00  0.00     0.039 C 
ATOM     10  C   UNL     1     143.175 143.029 135.183  1.00  0.00     0.039 C 
ENDBRANCH   2   7
TORSDOF 2
ENDMDL
MODEL 9
REMARK VINA RESULT:    -3.832      2.023      5.607
REMARK INTER + INTRA:          -4.551
REMARK INTER:                  -4.310
REMARK INTRA:                  -0.242
REMARK UNBOUND:                -0.271
REMARK SMILES CC=C(C)C=CC=C(C)C
REMARK SMILES IDX 5 1 6 2 3 3 1 4 2 5 4 6 7 7 8 8 9 9 10 10
REMARK H PARENT
REMARK Flexibility Score: inf
ROOT
ATOM      1  C   UNL     1     139.500 139.000 134.217  1.00  0.00     0.003 C 
ATOM      2  C   UNL     1     140.354 137.974 134.323  1.00  0.00     0.000 C 
ENDROOT
BRANCH   1   3
ATOM      3  C   UNL     1     138.701 139.520 135.357  1.00  0.00    -0.055 C 
ATOM      4  C   UNL     1     137.282 141.378 136.281  1.00  0.00     0.036 C 
ATOM      5  C   UNL     1     138.074 140.702 135.203  1.00  0.00    -0.027 C 
ATOM      6  C   UNL     1     138.658 138.765 136.669  1.00  0.00     0.044 C 
ENDBRANCH   1   3
BRANCH   2   7
ATOM      7  C   UNL     1     141.126 137.512 133.147  1.00  0.00    -0.001 C 
ATOM      8  C   UNL     1     142.415 137.828 132.925  1.00  0.00    -0.076 C 
ATOM      9  C   UNL     1     143.084 137.290 131.689  1.00  0.00     0.039 C 
ATOM     10  C   UNL     1     143.199 138.697 133.875  1.00  0.00     0.039 C 
ENDBRANCH   2   7
TORSDOF 2
ENDMDL
