MODEL 1
REMARK VINA RESULT:    -3.015      0.000      0.000
REMARK INTER + INTRA:          -3.624
REMARK INTER:                  -3.544
REMARK INTRA:                  -0.079
REMARK UNBOUND:                -0.079
REMARK SMILES CCCCC(=O)[O-]
REMARK SMILES IDX 4 1 5 2 6 3 7 4 3 5 2 6 1 7
REMARK H PARENT
REMARK Flexibility Score: inf
ROOT
ATOM      1  C   UNL     1      26.233  56.760  24.534  1.00  0.00     0.053 C 
ENDROOT
BRANCH   1   2
ATOM      2  C   UNL     1      26.869  57.737  25.476  1.00  0.00     0.041 C 
ATOM      3  O   UNL     1      28.039  57.541  25.895  1.00  0.00    -0.550 OA
ATOM      4  O   UNL     1      26.182  58.880  25.862  1.00  0.00    -0.550 OA
ENDBRANCH   1   2
BRANCH   1   5
ATOM      5  C   UNL     1      24.704  56.872  24.543  1.00  0.00     0.006 C 
BRANCH   5   6
ATOM      6  C   UNL     1      24.056  55.908  25.548  1.00  0.00    -0.003 C 
ATOM      7  C   UNL     1      22.879  56.566  26.261  1.00  0.00     0.004 C 
ENDBRANCH   5   6
ENDBRANCH   1   5
TORSDOF 3
ENDMDL
MODEL 2
REMARK VINA RESULT:    -2.964     20.974     22.589
REMARK INTER + INTRA:          -3.563
REMARK INTER:                  -3.526
REMARK INTRA:                  -0.037
REMARK UNBOUND:                -0.079
REMARK SMILES CCCCC(=O)[O-]
REMARK SMILES IDX 4 1 5 2 6 3 7 4 3 5 2 6 1 7
REMARK H PARENT
REMARK Flexibility Score: inf
ROOT
ATOM      1  C   UNL     1       9.719  56.241  42.220  1.00  0.00     0.053 C 
ENDROOT
BRANCH   1   2
ATOM      2  C   UNL     1       9.101  57.589  42.002  1.00  0.00     0.041 C 
ATOM      3  O   UNL     1       7.875  57.686  41.734  1.00  0.00    -0.550 OA
ATOM      4  O   UNL     1       9.871  58.737  42.129  1.00  0.00    -0.550 OA
ENDBRANCH   1   2
BRANCH   1   5
ATOM      5  C   UNL     1      11.239  56.334  42.407  1.00  0.00     0.006 C 
BRANCH   5   6
ATOM      6  C   UNL     1      12.005  55.544  41.335  1.00  0.00    -0.003 C 
ATOM      7  C   UNL     1      13.457  56.003  41.247  1.00  0.00     0.004 C 
ENDBRANCH   5   6
ENDBRANCH   1   5
TORSDOF 3
ENDMDL
MODEL 3
REMARK VINA RESULT:    -2.940      2.405      3.839
REMARK INTER + INTRA:          -3.535
REMARK INTER:                  -3.519
REMARK INTRA:                  -0.016
REMARK UNBOUND:                -0.079
REMARK SMILES CCCCC(=O)[O-]
REMARK SMILES IDX 4 1 5 2 6 3 7 4 3 5 2 6 1 7
REMARK H PARENT
REMARK Flexibility Score: inf
ROOT
ATOM      1  C   UNL     1      27.208  57.788  25.627  1.00  0.00     0.053 C 
ENDROOT
BRANCH   1   2
ATOM      2  C   UNL     1      26.402  56.626  25.131  1.00  0.00     0.041 C 
ATOM      3  O   UNL     1      25.989  56.604  23.942  1.00  0.00    -0.550 OA
ATOM      4  O   UNL     1      26.136  55.553  25.971  1.00  0.00    -0.550 OA
ENDBRANCH   1   2
BRANCH   1   5
ATOM      5  C   UNL     1      26.424  59.103  25.544  1.00  0.00     0.006 C 
BRANCH   5   6
ATOM      6  C   UNL     1      26.910  60.135  26.573  1.00  0.00    -0.003 C 
ATOM      7  C   UNL     1      27.113  61.501  25.928  1.00  0.00     0.004 C 
ENDBRANCH   5   6
ENDBRANCH   1   5
TORSDOF 3
ENDMDL
MODEL 4
REMARK VINA RESULT:    -2.938     21.441     22.732
REMARK INTER + INTRA:          -3.533
REMARK INTER:                  -3.433
REMARK INTRA:                  -0.100
REMARK UNBOUND:                -0.079
REMARK SMILES CCCCC(=O)[O-]
REMARK SMILES IDX 4 1 5 2 6 3 7 4 3 5 2 6 1 7
REMARK H PARENT
REMARK Flexibility Score: inf
ROOT
ATOM      1  C   UNL     1       8.942  57.968  41.975  1.00  0.00     0.053 C 
ENDROOT
BRANCH   1   2
ATOM      2  C   UNL     1       9.614  59.264  41.636  1.00  0.00     0.041 C 
ATOM      3  O   UNL     1       8.960  60.340  41.659  1.00  0.00    -0.550 OA
ATOM      4  O   UNL     1      10.968  59.288  41.330  1.00  0.00    -0.550 OA
ENDBRANCH   1   2
BRANCH   1   5
ATOM      5  C   UNL     1       9.900  56.994  42.673  1.00  0.00     0.006 C 
BRANCH   5   6
ATOM      6  C   UNL     1      10.260  55.795  41.784  1.00  0.00    -0.003 C 
ATOM      7  C   UNL     1      11.765  55.713  41.555  1.00  0.00     0.004 C 
ENDBRANCH   5   6
ENDBRANCH   1   5
TORSDOF 3
ENDMDL
MODEL 5
REMARK VINA RESULT:    -2.900      3.149      4.257
REMARK INTER + INTRA:          -3.488
REMARK INTER:                  -3.449
REMARK INTRA:                  -0.039
REMARK UNBOUND:                -0.079
REMARK SMILES CCCCC(=O)[O-]
REMARK SMILES IDX 4 1 5 2 6 3 7 4 3 5 2 6 1 7
REMARK H PARENT
REMARK Flexibility Score: inf
ROOT
ATOM      1  C   UNL     1      23.971  56.154  25.610  1.00  0.00     0.053 C 
ENDROOT
BRANCH   1   2
ATOM      2  C   UNL     1      22.721  55.559  25.037  1.00  0.00     0.041 C 
ATOM      3  O   UNL     1      22.529  55.569  23.793  1.00  0.00    -0.550 OA
ATOM      4  O   UNL     1      21.786  54.964  25.873  1.00  0.00    -0.550 OA
ENDBRANCH   1   2
BRANCH   1   5
ATOM      5  C   UNL     1      24.756  56.952  24.561  1.00  0.00     0.006 C 
BRANCH   5   6
ATOM      6  C   UNL     1      26.237  56.549  24.512  1.00  0.00    -0.003 C 
ATOM      7  C   UNL     1      27.052  57.324  25.542  1.00  0.00     0.004 C 
ENDBRANCH   5   6
ENDBRANCH   1   5
TORSDOF 3
ENDMDL
MODEL 6
REMARK VINA RESULT:    -2.879      1.523      2.117
REMARK INTER + INTRA:          -3.464
REMARK INTER:                  -3.446
REMARK INTRA:                  -0.018
REMARK UNBOUND:                -0.079
REMARK SMILES CCCCC(=O)[O-]
REMARK SMILES IDX 4 1 5 2 6 3 7 4 3 5 2 6 1 7
REMARK H PARENT
REMARK Flexibility Score: inf
ROOT
ATOM      1  C   UNL     1      24.405  57.444  25.290  1.00  0.00     0.053 C 
ENDROOT
BRANCH   1   2
ATOM      2  C   UNL     1      25.739  57.504  24.609  1.00  0.00     0.041 C 
ATOM      3  O   UNL     1      26.362  58.595  24.534  1.00  0.00    -0.550 OA
ATOM      4  O   UNL     1      26.308  56.349  24.090  1.00  0.00    -0.550 OA
ENDBRANCH   1   2
BRANCH   1   5
ATOM      5  C   UNL     1      24.052  56.017  25.728  1.00  0.00     0.006 C 
BRANCH   5   6
ATOM      6  C   UNL     1      22.639  55.925  26.325  1.00  0.00    -0.003 C 
ATOM      7  C   UNL     1      21.779  54.931  25.552  1.00  0.00     0.004 C 
ENDBRANCH   5   6
ENDBRANCH   1   5
TORSDOF 3
ENDMDL
MODEL 7
REMARK VINA RESULT:    -2.851      1.734      2.611
REMARK INTER + INTRA:          -3.431
REMARK INTER:                  -3.358
REMARK INTRA:                  -0.073
REMARK UNBOUND:                -0.079
REMARK SMILES CCCCC(=O)[O-]
REMARK SMILES IDX 4 1 5 2 6 3 7 4 3 5 2 6 1 7
REMARK H PARENT
REMARK Flexibility Score: inf
ROOT
ATOM      1  C   UNL     1      26.326  58.776  25.023  1.00  0.00     0.053 C 
ENDROOT
BRANCH   1   2
ATOM      2  C   UNL     1      26.141  59.789  26.112  1.00  0.00     0.041 C 
ATOM      3  O   UNL     1      25.003  59.971  26.619  1.00  0.00    -0.550 OA
ATOM      4  O   UNL     1      27.230  60.505  26.590  1.00  0.00    -0.550 OA
ENDBRANCH   1   2
BRANCH   1   5
ATOM      5  C   UNL     1      27.112  57.553  25.508  1.00  0.00     0.006 C 
BRANCH   5   6
ATOM      6  C   UNL     1      26.445  56.232  25.097  1.00  0.00    -0.003 C 
ATOM      7  C   UNL     1      24.950  56.253  25.401  1.00  0.00     0.004 C 
ENDBRANCH   5   6
ENDBRANCH   1   5
TORSDOF 3
ENDMDL
MODEL 8
REMARK VINA RESULT:    -2.848     20.147     21.499
REMARK INTER + INTRA:          -3.427
REMARK INTER:                  -3.410
REMARK INTRA:                  -0.017
REMARK UNBOUND:                -0.079
REMARK SMILES CCCCC(=O)[O-]
REMARK SMILES IDX 4 1 5 2 6 3 7 4 3 5 2 6 1 7
REMARK H PARENT
REMARK Flexibility Score: inf
ROOT
ATOM      1  C   UNL     1      11.611  55.497  41.332  1.00  0.00     0.053 C 
ENDROOT
BRANCH   1   2
ATOM      2  C   UNL     1      13.092  55.712  41.270  1.00  0.00     0.041 C 
ATOM      3  O   UNL     1      13.875  54.726  41.263  1.00  0.00    -0.550 OA
ATOM      4  O   UNL     1      13.606  56.999  41.185  1.00  0.00    -0.550 OA
ENDBRANCH   1   2
BRANCH   1   5
ATOM      5  C   UNL     1      10.967  56.289  42.477  1.00  0.00     0.006 C 
BRANCH   5   6
ATOM      6  C   UNL     1       9.433  56.281  42.398  1.00  0.00    -0.003 C 
ATOM      7  C   UNL     1       8.895  57.653  42.006  1.00  0.00     0.004 C 
ENDBRANCH   5   6
ENDBRANCH   1   5
TORSDOF 3
ENDMDL
MODEL 9
REMARK VINA RESULT:    -2.837     12.446     13.421
REMARK INTER + INTRA:          -3.414
REMARK INTER:                  -3.376
REMARK INTRA:                  -0.038
REMARK UNBOUND:                -0.079
REMARK SMILES CCCCC(=O)[O-]
REMARK SMILES IDX 4 1 5 2 6 3 7 4 3 5 2 6 1 7
REMARK H PARENT
REMARK Flexibility Score: inf
ROOT
ATOM      1  C   UNL     1      12.723  53.675  28.323  1.00  0.00     0.053 C 
ENDROOT
BRANCH   1   2
ATOM      2  C   UNL     1      12.553  52.784  27.130  1.00  0.00     0.041 C 
ATOM      3  O   UNL     1      12.045  53.236  26.070  1.00  0.00    -0.550 OA
ATOM      4  O   UNL     1      12.986  51.466  27.178  1.00  0.00    -0.550 OA
ENDBRANCH   1   2
BRANCH   1   5
ATOM      5  C   UNL     1      13.922  53.256  29.182  1.00  0.00     0.006 C 
BRANCH   5   6
ATOM      6  C   UNL     1      15.111  54.217  29.029  1.00  0.00    -0.003 C 
ATOM      7  C   UNL     1      15.814  54.438  30.363  1.00  0.00     0.004 C 
ENDBRANCH   5   6
ENDBRANCH   1   5
TORSDOF 3
ENDMDL
