MODEL 1
REMARK VINA RESULT:    -5.581      0.000      0.000
REMARK INTER + INTRA:         -10.038
REMARK INTER:                  -8.518
REMARK INTRA:                  -1.520
REMARK UNBOUND:                -1.520
REMARK SMILES CC(=O)CCC=C(C)CCC=C(C)CCC=C(C)C
REMARK SMILES IDX 10 1 11 2 12 3 13 4 14 5 15 6 16 7 18 8 17 9 19 10 9 11 7 12
REMARK SMILES IDX 6 13 8 14 5 15 4 16 2 17 3 18 1 19
REMARK H PARENT
REMARK Flexibility Score: inf
ROOT
ATOM      1  C   UNL     1       5.034 -24.882  23.074  1.00  0.00     0.032 C 
ENDROOT
BRANCH   1   2
ATOM      2  C   UNL     1       5.320 -24.946  24.556  1.00  0.00    -0.028 C 
ATOM      3  C   UNL     1       6.373 -24.352  25.161  1.00  0.00    -0.077 C 
ATOM      4  C   UNL     1       7.413 -23.589  24.375  1.00  0.00     0.039 C 
BRANCH   3   5
ATOM      5  C   UNL     1       6.501 -24.437  26.667  1.00  0.00     0.034 C 
BRANCH   5   6
ATOM      6  C   UNL     1       5.206 -23.983  27.356  1.00  0.00     0.032 C 
BRANCH   6   7
ATOM      7  C   UNL     1       4.902 -22.546  27.012  1.00  0.00    -0.028 C 
ATOM      8  C   UNL     1       3.757 -20.376  27.166  1.00  0.00     0.039 C 
ATOM      9  C   UNL     1       3.902 -21.822  27.563  1.00  0.00    -0.080 C 
ATOM     10  C   UNL     1       2.932 -22.425  28.557  1.00  0.00     0.039 C 
ENDBRANCH   6   7
ENDBRANCH   5   6
ENDBRANCH   3   5
ENDBRANCH   1   2
BRANCH   1  11
ATOM     11  C   UNL     1       4.183 -26.079  22.646  1.00  0.00     0.034 C 
BRANCH  11  12
ATOM     12  C   UNL     1       2.721 -25.858  22.974  1.00  0.00    -0.077 C 
ATOM     13  C   UNL     1       2.107 -24.743  22.512  1.00  0.00    -0.028 C 
ATOM     14  C   UNL     1       1.988 -26.885  23.806  1.00  0.00     0.039 C 
BRANCH  13  15
ATOM     15  C   UNL     1       0.650 -24.414  22.731  1.00  0.00     0.035 C 
BRANCH  15  16
ATOM     16  C   UNL     1       0.430 -22.918  23.003  1.00  0.00     0.079 C 
BRANCH  16  17
ATOM     17  C   UNL     1       1.074 -22.485  24.297  1.00  0.00     0.130 C 
ATOM     18  O   UNL     1       1.764 -21.474  24.321  1.00  0.00    -0.300 OA
ATOM     19  C   UNL     1       0.886 -23.266  25.564  1.00  0.00     0.087 C 
ENDBRANCH  16  17
ENDBRANCH  15  16
ENDBRANCH  13  15
ENDBRANCH  11  12
ENDBRANCH   1  11
TORSDOF 9
ENDMDL
MODEL 2
REMARK VINA RESULT:    -5.538      3.367      5.293
REMARK INTER + INTRA:          -9.972
REMARK INTER:                  -9.133
REMARK INTRA:                  -0.838
REMARK UNBOUND:                -1.520
REMARK SMILES CC(=O)CCC=C(C)CCC=C(C)CCC=C(C)C
REMARK SMILES IDX 10 1 11 2 12 3 13 4 14 5 15 6 16 7 18 8 17 9 19 10 9 11 7 12
REMARK SMILES IDX 6 13 8 14 5 15 4 16 2 17 3 18 1 19
REMARK H PARENT
REMARK Flexibility Score: inf
ROOT
ATOM      1  C   UNL     1       6.782 -23.904  25.127  1.00  0.00     0.032 C 
ENDROOT
BRANCH   1   2
ATOM      2  C   UNL     1       7.680 -23.599  23.951  1.00  0.00    -0.028 C 
ATOM      3  C   UNL     1       8.463 -22.502  23.849  1.00  0.00    -0.077 C 
ATOM      4  C   UNL     1       8.471 -21.430  24.913  1.00  0.00     0.039 C 
BRANCH   3   5
ATOM      5  C   UNL     1       9.370 -22.354  22.645  1.00  0.00     0.034 C 
BRANCH   5   6
ATOM      6  C   UNL     1       9.236 -20.957  22.024  1.00  0.00     0.032 C 
BRANCH   6   7
ATOM      7  C   UNL     1      10.581 -20.275  21.966  1.00  0.00    -0.028 C 
ATOM      8  C   UNL     1      12.205 -18.451  22.240  1.00  0.00     0.039 C 
ATOM      9  C   UNL     1      10.795 -18.979  22.286  1.00  0.00    -0.080 C 
ATOM     10  C   UNL     1       9.664 -18.055  22.682  1.00  0.00     0.039 C 
ENDBRANCH   6   7
ENDBRANCH   5   6
ENDBRANCH   3   5
ENDBRANCH   1   2
BRANCH   1  11
ATOM     11  C   UNL     1       6.188 -25.309  24.991  1.00  0.00     0.034 C 
BRANCH  11  12
ATOM     12  C   UNL     1       4.828 -25.266  24.327  1.00  0.00    -0.077 C 
ATOM     13  C   UNL     1       3.724 -25.145  25.101  1.00  0.00    -0.028 C 
ATOM     14  C   UNL     1       4.739 -25.360  22.820  1.00  0.00     0.039 C 
BRANCH  13  15
ATOM     15  C   UNL     1       2.313 -25.051  24.572  1.00  0.00     0.035 C 
BRANCH  15  16
ATOM     16  C   UNL     1       1.985 -23.645  24.048  1.00  0.00     0.079 C 
BRANCH  16  17
ATOM     17  C   UNL     1       1.038 -23.692  22.874  1.00  0.00     0.130 C 
ATOM     18  O   UNL     1       1.370 -24.280  21.853  1.00  0.00    -0.300 OA
ATOM     19  C   UNL     1      -0.308 -23.034  22.929  1.00  0.00     0.087 C 
ENDBRANCH  16  17
ENDBRANCH  15  16
ENDBRANCH  13  15
ENDBRANCH  11  12
ENDBRANCH   1  11
TORSDOF 9
ENDMDL
MODEL 3
REMARK VINA RESULT:    -5.510      1.559      3.986
REMARK INTER + INTRA:          -9.929
REMARK INTER:                  -7.653
REMARK INTRA:                  -2.275
REMARK UNBOUND:                -1.520
REMARK SMILES CC(=O)CCC=C(C)CCC=C(C)CCC=C(C)C
REMARK SMILES IDX 10 1 11 2 12 3 13 4 14 5 15 6 16 7 18 8 17 9 19 10 9 11 7 12
REMARK SMILES IDX 6 13 8 14 5 15 4 16 2 17 3 18 1 19
REMARK H PARENT
REMARK Flexibility Score: inf
ROOT
ATOM      1  C   UNL     1       3.349 -24.633  28.100  1.00  0.00     0.032 C 
ENDROOT
BRANCH   1   2
ATOM      2  C   UNL     1       4.702 -24.335  27.498  1.00  0.00    -0.028 C 
ATOM      3  C   UNL     1       5.112 -23.107  27.105  1.00  0.00    -0.077 C 
ATOM      4  C   UNL     1       4.207 -21.902  27.192  1.00  0.00     0.039 C 
BRANCH   3   5
ATOM      5  C   UNL     1       6.523 -22.935  26.582  1.00  0.00     0.034 C 
BRANCH   5   6
ATOM      6  C   UNL     1       6.931 -24.123  25.699  1.00  0.00     0.032 C 
BRANCH   6   7
ATOM      7  C   UNL     1       6.226 -24.055  24.367  1.00  0.00    -0.028 C 
ATOM      8  C   UNL     1       4.735 -24.790  22.556  1.00  0.00     0.039 C 
ATOM      9  C   UNL     1       5.421 -25.025  23.877  1.00  0.00    -0.080 C 
ATOM     10  C   UNL     1       5.198 -26.327  24.613  1.00  0.00     0.039 C 
ENDBRANCH   6   7
ENDBRANCH   5   6
ENDBRANCH   3   5
ENDBRANCH   1   2
BRANCH   1  11
ATOM     11  C   UNL     1       2.440 -25.292  27.059  1.00  0.00     0.034 C 
BRANCH  11  12
ATOM     12  C   UNL     1       1.611 -24.260  26.324  1.00  0.00    -0.077 C 
ATOM     13  C   UNL     1       2.017 -23.844  25.101  1.00  0.00    -0.028 C 
ATOM     14  C   UNL     1       0.355 -23.724  26.972  1.00  0.00     0.039 C 
BRANCH  13  15
ATOM     15  C   UNL     1       1.269 -22.852  24.242  1.00  0.00     0.035 C 
BRANCH  15  16
ATOM     16  C   UNL     1       0.114 -23.511  23.474  1.00  0.00     0.079 C 
BRANCH  16  17
ATOM     17  C   UNL     1       0.604 -24.609  22.561  1.00  0.00     0.130 C 
ATOM     18  O   UNL     1       1.397 -24.345  21.669  1.00  0.00    -0.300 OA
ATOM     19  C   UNL     1       0.140 -26.026  22.726  1.00  0.00     0.087 C 
ENDBRANCH  16  17
ENDBRANCH  15  16
ENDBRANCH  13  15
ENDBRANCH  11  12
ENDBRANCH   1  11
TORSDOF 9
ENDMDL
MODEL 4
REMARK VINA RESULT:    -5.488      8.596     11.324
REMARK INTER + INTRA:          -9.896
REMARK INTER:                  -7.085
REMARK INTRA:                  -2.810
REMARK UNBOUND:                -1.520
REMARK SMILES CC(=O)CCC=C(C)CCC=C(C)CCC=C(C)C
REMARK SMILES IDX 10 1 11 2 12 3 13 4 14 5 15 6 16 7 18 8 17 9 19 10 9 11 7 12
REMARK SMILES IDX 6 13 8 14 5 15 4 16 2 17 3 18 1 19
REMARK H PARENT
REMARK Flexibility Score: inf
ROOT
ATOM      1  C   UNL     1      11.496 -17.622  22.957  1.00  0.00     0.032 C 
ENDROOT
BRANCH   1   2
ATOM      2  C   UNL     1      12.516 -18.315  22.085  1.00  0.00    -0.028 C 
ATOM      3  C   UNL     1      12.240 -19.341  21.249  1.00  0.00    -0.077 C 
ATOM      4  C   UNL     1      10.854 -19.933  21.150  1.00  0.00     0.039 C 
BRANCH   3   5
ATOM      5  C   UNL     1      13.345 -19.898  20.376  1.00  0.00     0.034 C 
BRANCH   5   6
ATOM      6  C   UNL     1      14.168 -18.767  19.743  1.00  0.00     0.032 C 
BRANCH   6   7
ATOM      7  C   UNL     1      13.389 -18.109  18.630  1.00  0.00    -0.028 C 
ATOM      8  C   UNL     1      12.424 -16.258  17.333  1.00  0.00     0.039 C 
ATOM      9  C   UNL     1      13.169 -16.778  18.535  1.00  0.00    -0.080 C 
ATOM     10  C   UNL     1      13.644 -15.810  19.596  1.00  0.00     0.039 C 
ENDBRANCH   6   7
ENDBRANCH   5   6
ENDBRANCH   3   5
ENDBRANCH   1   2
BRANCH   1  11
ATOM     11  C   UNL     1      11.064 -16.299  22.319  1.00  0.00     0.034 C 
BRANCH  11  12
ATOM     12  C   UNL     1       9.834 -16.484  21.455  1.00  0.00    -0.077 C 
ATOM     13  C   UNL     1       9.967 -16.448  20.108  1.00  0.00    -0.028 C 
ATOM     14  C   UNL     1       8.493 -16.702  22.118  1.00  0.00     0.039 C 
BRANCH  13  15
ATOM     15  C   UNL     1       8.836 -16.654  19.129  1.00  0.00     0.035 C 
BRANCH  15  16
ATOM     16  C   UNL     1       8.907 -18.028  18.448  1.00  0.00     0.079 C 
BRANCH  16  17
ATOM     17  C   UNL     1       7.817 -18.952  18.936  1.00  0.00     0.130 C 
ATOM     18  O   UNL     1       7.973 -20.163  18.862  1.00  0.00    -0.300 OA
ATOM     19  C   UNL     1       6.542 -18.417  19.516  1.00  0.00     0.087 C 
ENDBRANCH  16  17
ENDBRANCH  15  16
ENDBRANCH  13  15
ENDBRANCH  11  12
ENDBRANCH   1  11
TORSDOF 9
ENDMDL
MODEL 5
REMARK VINA RESULT:    -5.473      8.456     11.361
REMARK INTER + INTRA:          -9.872
REMARK INTER:                  -7.850
REMARK INTRA:                  -2.022
REMARK UNBOUND:                -1.520
REMARK SMILES CC(=O)CCC=C(C)CCC=C(C)CCC=C(C)C
REMARK SMILES IDX 10 1 11 2 12 3 13 4 14 5 15 6 16 7 18 8 17 9 19 10 9 11 7 12
REMARK SMILES IDX 6 13 8 14 5 15 4 16 2 17 3 18 1 19
REMARK H PARENT
REMARK Flexibility Score: inf
ROOT
ATOM      1  C   UNL     1      11.051 -16.618  23.442  1.00  0.00     0.032 C 
ENDROOT
BRANCH   1   2
ATOM      2  C   UNL     1      11.666 -17.783  22.703  1.00  0.00    -0.028 C 
ATOM      3  C   UNL     1      11.000 -18.907  22.353  1.00  0.00    -0.077 C 
ATOM      4  C   UNL     1       9.552 -19.120  22.727  1.00  0.00     0.039 C 
BRANCH   3   5
ATOM      5  C   UNL     1      11.720 -19.969  21.550  1.00  0.00     0.034 C 
BRANCH   5   6
ATOM      6  C   UNL     1      12.073 -19.454  20.149  1.00  0.00     0.032 C 
BRANCH   6   7
ATOM      7  C   UNL     1      13.542 -19.659  19.866  1.00  0.00    -0.028 C 
ATOM      8  C   UNL     1      15.793 -19.086  19.065  1.00  0.00     0.039 C 
ATOM      9  C   UNL     1      14.328 -18.769  19.220  1.00  0.00    -0.080 C 
ATOM     10  C   UNL     1      13.778 -17.480  18.652  1.00  0.00     0.039 C 
ENDBRANCH   6   7
ENDBRANCH   5   6
ENDBRANCH   3   5
ENDBRANCH   1   2
BRANCH   1  11
ATOM     11  C   UNL     1      10.929 -15.407  22.513  1.00  0.00     0.034 C 
BRANCH  11  12
ATOM     12  C   UNL     1       9.810 -15.596  21.510  1.00  0.00    -0.077 C 
ATOM     13  C   UNL     1      10.125 -15.816  20.212  1.00  0.00    -0.028 C 
ATOM     14  C   UNL     1       8.376 -15.535  21.983  1.00  0.00     0.039 C 
BRANCH  13  15
ATOM     15  C   UNL     1       9.116 -16.059  19.115  1.00  0.00     0.035 C 
BRANCH  15  16
ATOM     16  C   UNL     1       9.176 -17.499  18.585  1.00  0.00     0.079 C 
BRANCH  16  17
ATOM     17  C   UNL     1       7.804 -18.126  18.514  1.00  0.00     0.130 C 
ATOM     18  O   UNL     1       7.322 -18.403  17.424  1.00  0.00    -0.300 OA
ATOM     19  C   UNL     1       7.015 -18.423  19.754  1.00  0.00     0.087 C 
ENDBRANCH  16  17
ENDBRANCH  15  16
ENDBRANCH  13  15
ENDBRANCH  11  12
ENDBRANCH   1  11
TORSDOF 9
ENDMDL
MODEL 6
REMARK VINA RESULT:    -5.419      2.090      6.258
REMARK INTER + INTRA:          -9.790
REMARK INTER:                  -7.595
REMARK INTRA:                  -2.195
REMARK UNBOUND:                -1.520
REMARK SMILES CC(=O)CCC=C(C)CCC=C(C)CCC=C(C)C
REMARK SMILES IDX 10 1 11 2 12 3 13 4 14 5 15 6 16 7 18 8 17 9 19 10 9 11 7 12
REMARK SMILES IDX 6 13 8 14 5 15 4 16 2 17 3 18 1 19
REMARK H PARENT
REMARK Flexibility Score: inf
ROOT
ATOM      1  C   UNL     1       0.265 -23.980  27.310  1.00  0.00     0.032 C 
ENDROOT
BRANCH   1   2
ATOM      2  C   UNL     1       0.101 -23.669  25.841  1.00  0.00    -0.028 C 
ATOM      3  C   UNL     1      -0.509 -24.482  24.949  1.00  0.00    -0.077 C 
ATOM      4  C   UNL     1      -1.051 -25.834  25.348  1.00  0.00     0.039 C 
BRANCH   3   5
ATOM      5  C   UNL     1      -0.669 -24.015  23.517  1.00  0.00     0.034 C 
BRANCH   5   6
ATOM      6  C   UNL     1       0.072 -24.947  22.550  1.00  0.00     0.032 C 
BRANCH   6   7
ATOM      7  C   UNL     1       1.525 -24.551  22.445  1.00  0.00    -0.028 C 
ATOM      8  C   UNL     1       3.958 -24.792  22.693  1.00  0.00     0.039 C 
ATOM      9  C   UNL     1       2.554 -25.286  22.925  1.00  0.00    -0.080 C 
ATOM     10  C   UNL     1       2.332 -26.575  23.684  1.00  0.00     0.039 C 
ENDBRANCH   6   7
ENDBRANCH   5   6
ENDBRANCH   3   5
ENDBRANCH   1   2
BRANCH   1  11
ATOM     11  C   UNL     1       1.670 -23.592  27.780  1.00  0.00     0.034 C 
BRANCH  11  12
ATOM     12  C   UNL     1       2.717 -24.518  27.198  1.00  0.00    -0.077 C 
ATOM     13  C   UNL     1       3.767 -23.983  26.531  1.00  0.00    -0.028 C 
ATOM     14  C   UNL     1       2.563 -26.011  27.376  1.00  0.00     0.039 C 
BRANCH  13  15
ATOM     15  C   UNL     1       4.901 -24.783  25.935  1.00  0.00     0.035 C 
BRANCH  15  16
ATOM     16  C   UNL     1       6.259 -24.399  26.541  1.00  0.00     0.079 C 
BRANCH  16  17
ATOM     17  C   UNL     1       6.916 -23.277  25.774  1.00  0.00     0.130 C 
ATOM     18  O   UNL     1       6.931 -22.149  26.246  1.00  0.00    -0.300 OA
ATOM     19  C   UNL     1       7.559 -23.515  24.439  1.00  0.00     0.087 C 
ENDBRANCH  16  17
ENDBRANCH  15  16
ENDBRANCH  13  15
ENDBRANCH  11  12
ENDBRANCH   1  11
TORSDOF 9
ENDMDL
MODEL 7
REMARK VINA RESULT:    -5.397      1.667      2.643
REMARK INTER + INTRA:          -9.756
REMARK INTER:                  -7.126
REMARK INTRA:                  -2.630
REMARK UNBOUND:                -1.520
REMARK SMILES CC(=O)CCC=C(C)CCC=C(C)CCC=C(C)C
REMARK SMILES IDX 10 1 11 2 12 3 13 4 14 5 15 6 16 7 18 8 17 9 19 10 9 11 7 12
REMARK SMILES IDX 6 13 8 14 5 15 4 16 2 17 3 18 1 19
REMARK H PARENT
REMARK Flexibility Score: inf
ROOT
ATOM      1  C   UNL     1       3.547 -26.943  25.632  1.00  0.00     0.032 C 
ENDROOT
BRANCH   1   2
ATOM      2  C   UNL     1       4.858 -26.191  25.642  1.00  0.00    -0.028 C 
ATOM      3  C   UNL     1       5.230 -25.288  24.707  1.00  0.00    -0.077 C 
ATOM      4  C   UNL     1       4.363 -24.982  23.510  1.00  0.00     0.039 C 
BRANCH   3   5
ATOM      5  C   UNL     1       6.543 -24.553  24.876  1.00  0.00     0.034 C 
BRANCH   5   6
ATOM      6  C   UNL     1       6.661 -23.957  26.286  1.00  0.00     0.032 C 
BRANCH   6   7
ATOM      7  C   UNL     1       5.682 -22.821  26.461  1.00  0.00    -0.028 C 
ATOM      8  C   UNL     1       3.921 -21.503  27.557  1.00  0.00     0.039 C 
ATOM      9  C   UNL     1       4.796 -22.727  27.478  1.00  0.00    -0.080 C 
ATOM     10  C   UNL     1       4.660 -23.811  28.525  1.00  0.00     0.039 C 
ENDBRANCH   6   7
ENDBRANCH   5   6
ENDBRANCH   3   5
ENDBRANCH   1   2
BRANCH   1  11
ATOM     11  C   UNL     1       2.630 -26.424  26.743  1.00  0.00     0.034 C 
BRANCH  11  12
ATOM     12  C   UNL     1       1.586 -25.475  26.192  1.00  0.00    -0.077 C 
ATOM     13  C   UNL     1       1.901 -24.166  26.048  1.00  0.00    -0.028 C 
ATOM     14  C   UNL     1       0.224 -26.013  25.818  1.00  0.00     0.039 C 
BRANCH  13  15
ATOM     15  C   UNL     1       0.973 -23.119  25.478  1.00  0.00     0.035 C 
BRANCH  15  16
ATOM     16  C   UNL     1       1.370 -22.713  24.051  1.00  0.00     0.079 C 
BRANCH  16  17
ATOM     17  C   UNL     1       0.613 -23.506  23.013  1.00  0.00     0.130 C 
ATOM     18  O   UNL     1       1.209 -23.958  22.045  1.00  0.00    -0.300 OA
ATOM     19  C   UNL     1      -0.860 -23.757  23.143  1.00  0.00     0.087 C 
ENDBRANCH  16  17
ENDBRANCH  15  16
ENDBRANCH  13  15
ENDBRANCH  11  12
ENDBRANCH   1  11
TORSDOF 9
ENDMDL
MODEL 8
REMARK VINA RESULT:    -5.389      1.865      5.282
REMARK INTER + INTRA:          -9.744
REMARK INTER:                  -7.262
REMARK INTRA:                  -2.482
REMARK UNBOUND:                -1.520
REMARK SMILES CC(=O)CCC=C(C)CCC=C(C)CCC=C(C)C
REMARK SMILES IDX 10 1 11 2 12 3 13 4 14 5 15 6 16 7 18 8 17 9 19 10 9 11 7 12
REMARK SMILES IDX 6 13 8 14 5 15 4 16 2 17 3 18 1 19
REMARK H PARENT
REMARK Flexibility Score: inf
ROOT
ATOM      1  C   UNL     1       3.395 -24.731  23.359  1.00  0.00     0.032 C 
ENDROOT
BRANCH   1   2
ATOM      2  C   UNL     1       2.003 -24.309  22.950  1.00  0.00    -0.028 C 
ATOM      3  C   UNL     1       1.339 -23.253  23.471  1.00  0.00    -0.077 C 
ATOM      4  C   UNL     1       1.930 -22.409  24.575  1.00  0.00     0.039 C 
BRANCH   3   5
ATOM      5  C   UNL     1      -0.026 -22.897  22.919  1.00  0.00     0.034 C 
BRANCH   5   6
ATOM      6  C   UNL     1      -1.072 -23.945  23.323  1.00  0.00     0.032 C 
BRANCH   6   7
ATOM      7  C   UNL     1      -1.152 -24.058  24.826  1.00  0.00    -0.028 C 
ATOM      8  C   UNL     1      -0.895 -25.111  27.032  1.00  0.00     0.039 C 
ATOM      9  C   UNL     1      -0.824 -25.166  25.528  1.00  0.00    -0.080 C 
ATOM     10  C   UNL     1      -0.395 -26.447  24.847  1.00  0.00     0.039 C 
ENDBRANCH   6   7
ENDBRANCH   5   6
ENDBRANCH   3   5
ENDBRANCH   1   2
BRANCH   1  11
ATOM     11  C   UNL     1       3.324 -25.844  24.408  1.00  0.00     0.034 C 
BRANCH  11  12
ATOM     12  C   UNL     1       3.660 -25.317  25.788  1.00  0.00    -0.077 C 
ATOM     13  C   UNL     1       4.733 -24.506  25.937  1.00  0.00    -0.028 C 
ATOM     14  C   UNL     1       2.789 -25.711  26.959  1.00  0.00     0.039 C 
BRANCH  13  15
ATOM     15  C   UNL     1       5.159 -23.880  27.244  1.00  0.00     0.035 C 
BRANCH  15  16
ATOM     16  C   UNL     1       5.288 -22.353  27.137  1.00  0.00     0.079 C 
BRANCH  16  17
ATOM     17  C   UNL     1       4.004 -21.655  27.514  1.00  0.00     0.130 C 
ATOM     18  O   UNL     1       3.747 -20.560  27.032  1.00  0.00    -0.300 OA
ATOM     19  C   UNL     1       3.027 -22.278  28.467  1.00  0.00     0.087 C 
ENDBRANCH  16  17
ENDBRANCH  15  16
ENDBRANCH  13  15
ENDBRANCH  11  12
ENDBRANCH   1  11
TORSDOF 9
ENDMDL
MODEL 9
REMARK VINA RESULT:    -5.332      8.209     10.020
REMARK INTER + INTRA:          -9.658
REMARK INTER:                  -7.403
REMARK INTRA:                  -2.255
REMARK UNBOUND:                -1.520
REMARK SMILES CC(=O)CCC=C(C)CCC=C(C)CCC=C(C)C
REMARK SMILES IDX 10 1 11 2 12 3 13 4 14 5 15 6 16 7 18 8 17 9 19 10 9 11 7 12
REMARK SMILES IDX 6 13 8 14 5 15 4 16 2 17 3 18 1 19
REMARK H PARENT
REMARK Flexibility Score: inf
ROOT
ATOM      1  C   UNL     1      11.135 -16.587  22.723  1.00  0.00     0.032 C 
ENDROOT
BRANCH   1   2
ATOM      2  C   UNL     1       9.697 -16.668  23.180  1.00  0.00    -0.028 C 
ATOM      3  C   UNL     1       8.650 -16.134  22.512  1.00  0.00    -0.077 C 
ATOM      4  C   UNL     1       8.839 -15.344  21.239  1.00  0.00     0.039 C 
BRANCH   3   5
ATOM      5  C   UNL     1       7.249 -16.350  23.045  1.00  0.00     0.034 C 
BRANCH   5   6
ATOM      6  C   UNL     1       7.069 -15.668  24.409  1.00  0.00     0.032 C 
BRANCH   6   7
ATOM      7  C   UNL     1       6.887 -14.180  24.234  1.00  0.00    -0.028 C 
ATOM      8  C   UNL     1       7.496 -11.801  24.320  1.00  0.00     0.039 C 
ATOM      9  C   UNL     1       7.789 -13.249  24.616  1.00  0.00    -0.080 C 
ATOM     10  C   UNL     1       9.071 -13.621  25.329  1.00  0.00     0.039 C 
ENDBRANCH   6   7
ENDBRANCH   5   6
ENDBRANCH   3   5
ENDBRANCH   1   2
BRANCH   1  11
ATOM     11  C   UNL     1      11.735 -17.991  22.610  1.00  0.00     0.034 C 
BRANCH  11  12
ATOM     12  C   UNL     1      11.034 -18.802  21.541  1.00  0.00    -0.077 C 
ATOM     13  C   UNL     1      11.087 -18.379  20.257  1.00  0.00    -0.028 C 
ATOM     14  C   UNL     1      10.295 -20.060  21.936  1.00  0.00     0.039 C 
BRANCH  13  15
ATOM     15  C   UNL     1      10.468 -19.108  19.088  1.00  0.00     0.035 C 
BRANCH  15  16
ATOM     16  C   UNL     1       9.215 -18.392  18.561  1.00  0.00     0.079 C 
BRANCH  16  17
ATOM     17  C   UNL     1       7.947 -19.039  19.066  1.00  0.00     0.130 C 
ATOM     18  O   UNL     1       7.720 -20.212  18.800  1.00  0.00    -0.300 OA
ATOM     19  C   UNL     1       6.957 -18.276  19.893  1.00  0.00     0.087 C 
ENDBRANCH  16  17
ENDBRANCH  15  16
ENDBRANCH  13  15
ENDBRANCH  11  12
ENDBRANCH   1  11
TORSDOF 9
ENDMDL
