MODEL 1
REMARK VINA RESULT:     6.277      0.000      0.000
REMARK INTER + INTRA:          15.169
REMARK INTER:                  15.817
REMARK INTRA:                  -0.648
REMARK UNBOUND:                -0.648
REMARK SMILES CCCCCCCCCCCCCCCCCCCCCCCCCCCC(=O)[O-]
REMARK SMILES IDX 15 1 16 2 17 3 18 4 19 5 20 6 21 7 22 8 23 9 24 10 25 11
REMARK SMILES IDX 26 12 27 13 28 14 29 15 30 16 14 17 13 18 12 19 11 20 10 21
REMARK SMILES IDX 9 22 8 23 7 24 6 25 5 26 4 27 3 28 2 29 1 30
REMARK H PARENT
REMARK Flexibility Score: inf
ROOT
ATOM      1  C   UNL     1      26.662  49.335  25.623  1.00  0.00     0.000 C 
ENDROOT
BRANCH   1   2
ATOM      2  C   UNL     1      28.120  49.250  25.143  1.00  0.00     0.000 C 
BRANCH   2   3
ATOM      3  C   UNL     1      29.068  48.731  26.238  1.00  0.00     0.000 C 
BRANCH   3   4
ATOM      4  C   UNL     1      30.328  48.055  25.666  1.00  0.00     0.000 C 
BRANCH   4   5
ATOM      5  C   UNL     1      31.424  47.749  26.703  1.00  0.00     0.000 C 
BRANCH   5   6
ATOM      6  C   UNL     1      32.829  47.653  26.081  1.00  0.00     0.000 C 
BRANCH   6   7
ATOM      7  C   UNL     1      33.421  46.240  26.171  1.00  0.00     0.000 C 
BRANCH   7   8
ATOM      8  C   UNL     1      33.295  45.460  24.851  1.00  0.00     0.000 C 
BRANCH   8   9
ATOM      9  C   UNL     1      33.189  46.379  23.622  1.00  0.00     0.000 C 
BRANCH   9  10
ATOM     10  C   UNL     1      34.556  46.856  23.087  1.00  0.00     0.000 C 
BRANCH  10  11
ATOM     11  C   UNL     1      35.684  46.656  24.115  1.00  0.00     0.000 C 
BRANCH  11  12
ATOM     12  C   UNL     1      36.949  46.020  23.508  1.00  0.00     0.006 C 
BRANCH  12  13
ATOM     13  C   UNL     1      37.908  45.420  24.551  1.00  0.00     0.053 C 
BRANCH  13  14
ATOM     14  C   UNL     1      39.229  45.024  23.962  1.00  0.00     0.041 C 
ATOM     15  O   UNL     1      39.593  45.499  22.855  1.00  0.00    -0.550 OA
ATOM     16  O   UNL     1      40.072  44.163  24.650  1.00  0.00    -0.550 OA
ENDBRANCH  13  14
ENDBRANCH  12  13
ENDBRANCH  11  12
ENDBRANCH  10  11
ENDBRANCH   9  10
ENDBRANCH   8   9
ENDBRANCH   7   8
ENDBRANCH   6   7
ENDBRANCH   5   6
ENDBRANCH   4   5
ENDBRANCH   3   4
ENDBRANCH   2   3
ENDBRANCH   1   2
BRANCH   1  17
ATOM     17  C   UNL     1      25.914  50.530  25.009  1.00  0.00     0.000 C 
BRANCH  17  18
ATOM     18  C   UNL     1      24.739  51.011  25.881  1.00  0.00     0.000 C 
BRANCH  18  19
ATOM     19  C   UNL     1      24.049  52.293  25.382  1.00  0.00     0.000 C 
BRANCH  19  20
ATOM     20  C   UNL     1      23.116  52.919  26.434  1.00  0.00     0.000 C 
BRANCH  20  21
ATOM     21  C   UNL     1      22.857  51.985  27.635  1.00  0.00     0.000 C 
BRANCH  21  22
ATOM     22  C   UNL     1      21.496  52.205  28.321  1.00  0.00    -0.000 C 
BRANCH  22  23
ATOM     23  C   UNL     1      21.357  53.525  29.104  1.00  0.00    -0.000 C 
BRANCH  23  24
ATOM     24  C   UNL     1      21.585  53.415  30.623  1.00  0.00    -0.000 C 
BRANCH  24  25
ATOM     25  C   UNL     1      21.863  54.772  31.293  1.00  0.00    -0.000 C 
BRANCH  25  26
ATOM     26  C   UNL     1      22.841  54.648  32.482  1.00  0.00    -0.000 C 
BRANCH  26  27
ATOM     27  C   UNL     1      22.155  54.336  33.825  1.00  0.00    -0.000 C 
BRANCH  27  28
ATOM     28  C   UNL     1      20.663  53.996  33.671  1.00  0.00    -0.000 C 
BRANCH  28  29
ATOM     29  C   UNL     1      20.112  53.205  34.868  1.00  0.00    -0.003 C 
ATOM     30  C   UNL     1      20.971  53.353  36.125  1.00  0.00     0.004 C 
ENDBRANCH  28  29
ENDBRANCH  27  28
ENDBRANCH  26  27
ENDBRANCH  25  26
ENDBRANCH  24  25
ENDBRANCH  23  24
ENDBRANCH  22  23
ENDBRANCH  21  22
ENDBRANCH  20  21
ENDBRANCH  19  20
ENDBRANCH  18  19
ENDBRANCH  17  18
ENDBRANCH   1  17
TORSDOF 26
ENDMDL
MODEL 2
REMARK VINA RESULT:     6.479      9.075     18.242
REMARK INTER + INTRA:          15.679
REMARK INTER:                  13.724
REMARK INTRA:                   1.955
REMARK UNBOUND:                -0.648
REMARK SMILES CCCCCCCCCCCCCCCCCCCCCCCCCCCC(=O)[O-]
REMARK SMILES IDX 15 1 16 2 17 3 18 4 19 5 20 6 21 7 22 8 23 9 24 10 25 11
REMARK SMILES IDX 26 12 27 13 28 14 29 15 30 16 14 17 13 18 12 19 11 20 10 21
REMARK SMILES IDX 9 22 8 23 7 24 6 25 5 26 4 27 3 28 2 29 1 30
REMARK H PARENT
REMARK Flexibility Score: inf
ROOT
ATOM      1  C   UNL     1      40.123  43.576  19.965  1.00  0.00     0.000 C 
ENDROOT
BRANCH   1   2
ATOM      2  C   UNL     1      40.113  43.740  21.493  1.00  0.00     0.000 C 
BRANCH   2   3
ATOM      3  C   UNL     1      40.112  45.217  21.924  1.00  0.00     0.000 C 
BRANCH   3   4
ATOM      4  C   UNL     1      40.012  45.394  23.451  1.00  0.00     0.000 C 
BRANCH   4   5
ATOM      5  C   UNL     1      38.580  45.578  23.987  1.00  0.00     0.000 C 
BRANCH   5   6
ATOM      6  C   UNL     1      37.524  45.648  22.869  1.00  0.00     0.000 C 
BRANCH   6   7
ATOM      7  C   UNL     1      36.088  45.668  23.412  1.00  0.00     0.000 C 
BRANCH   7   8
ATOM      8  C   UNL     1      35.735  46.997  24.102  1.00  0.00     0.000 C 
BRANCH   8   9
ATOM      9  C   UNL     1      34.403  47.591  23.611  1.00  0.00     0.000 C 
BRANCH   9  10
ATOM     10  C   UNL     1      33.487  46.561  22.917  1.00  0.00     0.000 C 
BRANCH  10  11
ATOM     11  C   UNL     1      33.043  45.439  23.873  1.00  0.00     0.000 C 
BRANCH  11  12
ATOM     12  C   UNL     1      32.310  45.963  25.122  1.00  0.00     0.006 C 
BRANCH  12  13
ATOM     13  C   UNL     1      33.238  46.602  26.169  1.00  0.00     0.053 C 
BRANCH  13  14
ATOM     14  C   UNL     1      32.499  47.469  27.144  1.00  0.00     0.041 C 
ATOM     15  O   UNL     1      31.683  48.332  26.728  1.00  0.00    -0.550 OA
ATOM     16  O   UNL     1      32.682  47.299  28.510  1.00  0.00    -0.550 OA
ENDBRANCH  13  14
ENDBRANCH  12  13
ENDBRANCH  11  12
ENDBRANCH  10  11
ENDBRANCH   9  10
ENDBRANCH   8   9
ENDBRANCH   7   8
ENDBRANCH   6   7
ENDBRANCH   5   6
ENDBRANCH   4   5
ENDBRANCH   3   4
ENDBRANCH   2   3
ENDBRANCH   1   2
BRANCH   1  17
ATOM     17  C   UNL     1      40.033  42.101  19.535  1.00  0.00     0.000 C 
BRANCH  17  18
ATOM     18  C   UNL     1      39.263  41.910  18.216  1.00  0.00     0.000 C 
BRANCH  18  19
ATOM     19  C   UNL     1      40.057  41.201  17.104  1.00  0.00     0.000 C 
BRANCH  19  20
ATOM     20  C   UNL     1      40.070  39.670  17.260  1.00  0.00     0.000 C 
BRANCH  20  21
ATOM     21  C   UNL     1      38.751  39.116  17.840  1.00  0.00     0.000 C 
BRANCH  21  22
ATOM     22  C   UNL     1      38.142  39.986  18.957  1.00  0.00    -0.000 C 
BRANCH  22  23
ATOM     23  C   UNL     1      36.709  39.607  19.381  1.00  0.00    -0.000 C 
BRANCH  23  24
ATOM     24  C   UNL     1      36.612  38.637  20.573  1.00  0.00    -0.000 C 
BRANCH  24  25
ATOM     25  C   UNL     1      36.602  37.158  20.148  1.00  0.00    -0.000 C 
BRANCH  25  26
ATOM     26  C   UNL     1      37.919  36.437  20.512  1.00  0.00    -0.000 C 
BRANCH  26  27
ATOM     27  C   UNL     1      38.915  36.326  19.343  1.00  0.00    -0.000 C 
BRANCH  27  28
ATOM     28  C   UNL     1      38.981  34.911  18.744  1.00  0.00    -0.000 C 
BRANCH  28  29
ATOM     29  C   UNL     1      39.637  34.889  17.355  1.00  0.00    -0.003 C 
ATOM     30  C   UNL     1      39.532  36.229  16.626  1.00  0.00     0.004 C 
ENDBRANCH  28  29
ENDBRANCH  27  28
ENDBRANCH  26  27
ENDBRANCH  25  26
ENDBRANCH  24  25
ENDBRANCH  23  24
ENDBRANCH  22  23
ENDBRANCH  21  22
ENDBRANCH  20  21
ENDBRANCH  19  20
ENDBRANCH  18  19
ENDBRANCH  17  18
ENDBRANCH   1  17
TORSDOF 26
ENDMDL
MODEL 3
REMARK VINA RESULT:     7.089     10.540     18.335
REMARK INTER + INTRA:          17.216
REMARK INTER:                  15.414
REMARK INTRA:                   1.802
REMARK UNBOUND:                -0.648
REMARK SMILES CCCCCCCCCCCCCCCCCCCCCCCCCCCC(=O)[O-]
REMARK SMILES IDX 15 1 16 2 17 3 18 4 19 5 20 6 21 7 22 8 23 9 24 10 25 11
REMARK SMILES IDX 26 12 27 13 28 14 29 15 30 16 14 17 13 18 12 19 11 20 10 21
REMARK SMILES IDX 9 22 8 23 7 24 6 25 5 26 4 27 3 28 2 29 1 30
REMARK H PARENT
REMARK Flexibility Score: inf
ROOT
ATOM      1  C   UNL     1      40.105  41.637  19.921  1.00  0.00     0.000 C 
ENDROOT
BRANCH   1   2
ATOM      2  C   UNL     1      40.123  42.720  18.831  1.00  0.00     0.000 C 
BRANCH   2   3
ATOM      3  C   UNL     1      39.653  44.087  19.356  1.00  0.00     0.000 C 
BRANCH   3   4
ATOM      4  C   UNL     1      40.124  44.371  20.794  1.00  0.00     0.000 C 
BRANCH   4   5
ATOM      5  C   UNL     1      39.733  45.756  21.341  1.00  0.00     0.000 C 
BRANCH   5   6
ATOM      6  C   UNL     1      39.780  45.829  22.878  1.00  0.00     0.000 C 
BRANCH   6   7
ATOM      7  C   UNL     1      39.858  44.444  23.535  1.00  0.00     0.000 C 
BRANCH   7   8
ATOM      8  C   UNL     1      39.631  44.497  25.055  1.00  0.00     0.000 C 
BRANCH   8   9
ATOM      9  C   UNL     1      38.158  44.731  25.433  1.00  0.00     0.000 C 
BRANCH   9  10
ATOM     10  C   UNL     1      37.534  45.964  24.747  1.00  0.00     0.000 C 
BRANCH  10  11
ATOM     11  C   UNL     1      35.995  45.933  24.780  1.00  0.00     0.000 C 
BRANCH  11  12
ATOM     12  C   UNL     1      35.348  46.926  23.795  1.00  0.00     0.006 C 
BRANCH  12  13
ATOM     13  C   UNL     1      33.811  46.938  23.841  1.00  0.00     0.053 C 
BRANCH  13  14
ATOM     14  C   UNL     1      33.238  45.656  24.369  1.00  0.00     0.041 C 
ATOM     15  O   UNL     1      33.870  44.991  25.231  1.00  0.00    -0.550 OA
ATOM     16  O   UNL     1      31.994  45.217  23.939  1.00  0.00    -0.550 OA
ENDBRANCH  13  14
ENDBRANCH  12  13
ENDBRANCH  11  12
ENDBRANCH  10  11
ENDBRANCH   9  10
ENDBRANCH   8   9
ENDBRANCH   7   8
ENDBRANCH   6   7
ENDBRANCH   5   6
ENDBRANCH   4   5
ENDBRANCH   3   4
ENDBRANCH   2   3
ENDBRANCH   1   2
BRANCH   1  17
ATOM     17  C   UNL     1      39.809  40.239  19.351  1.00  0.00     0.000 C 
BRANCH  17  18
ATOM     18  C   UNL     1      40.069  40.144  17.836  1.00  0.00     0.000 C 
BRANCH  18  19
ATOM     19  C   UNL     1      39.353  38.979  17.130  1.00  0.00     0.000 C 
BRANCH  19  20
ATOM     20  C   UNL     1      39.782  37.601  17.665  1.00  0.00     0.000 C 
BRANCH  20  21
ATOM     21  C   UNL     1      39.640  36.481  16.612  1.00  0.00     0.000 C 
BRANCH  21  22
ATOM     22  C   UNL     1      39.116  35.148  17.180  1.00  0.00    -0.000 C 
BRANCH  22  23
ATOM     23  C   UNL     1      37.784  35.236  17.950  1.00  0.00    -0.000 C 
BRANCH  23  24
ATOM     24  C   UNL     1      37.891  35.029  19.473  1.00  0.00    -0.000 C 
BRANCH  24  25
ATOM     25  C   UNL     1      39.008  35.868  20.119  1.00  0.00    -0.000 C 
BRANCH  25  26
ATOM     26  C   UNL     1      38.695  37.380  20.089  1.00  0.00    -0.000 C 
BRANCH  26  27
ATOM     27  C   UNL     1      37.271  37.715  19.609  1.00  0.00    -0.000 C 
BRANCH  27  28
ATOM     28  C   UNL     1      36.313  38.052  20.764  1.00  0.00    -0.000 C 
BRANCH  28  29
ATOM     29  C   UNL     1      35.957  39.546  20.819  1.00  0.00    -0.003 C 
ATOM     30  C   UNL     1      35.942  40.205  19.438  1.00  0.00     0.004 C 
ENDBRANCH  28  29
ENDBRANCH  27  28
ENDBRANCH  26  27
ENDBRANCH  25  26
ENDBRANCH  24  25
ENDBRANCH  23  24
ENDBRANCH  22  23
ENDBRANCH  21  22
ENDBRANCH  20  21
ENDBRANCH  19  20
ENDBRANCH  18  19
ENDBRANCH  17  18
ENDBRANCH   1  17
TORSDOF 26
ENDMDL
MODEL 4
REMARK VINA RESULT:     7.387      2.303      5.301
REMARK INTER + INTRA:          17.966
REMARK INTER:                  19.544
REMARK INTRA:                  -1.578
REMARK UNBOUND:                -0.648
REMARK SMILES CCCCCCCCCCCCCCCCCCCCCCCCCCCC(=O)[O-]
REMARK SMILES IDX 15 1 16 2 17 3 18 4 19 5 20 6 21 7 22 8 23 9 24 10 25 11
REMARK SMILES IDX 26 12 27 13 28 14 29 15 30 16 14 17 13 18 12 19 11 20 10 21
REMARK SMILES IDX 9 22 8 23 7 24 6 25 5 26 4 27 3 28 2 29 1 30
REMARK H PARENT
REMARK Flexibility Score: inf
ROOT
ATOM      1  C   UNL     1      23.500  51.735  27.147  1.00  0.00     0.000 C 
ENDROOT
BRANCH   1   2
ATOM      2  C   UNL     1      23.196  52.904  26.198  1.00  0.00     0.000 C 
BRANCH   2   3
ATOM      3  C   UNL     1      24.007  52.827  24.893  1.00  0.00     0.000 C 
BRANCH   3   4
ATOM      4  C   UNL     1      24.608  51.431  24.644  1.00  0.00     0.000 C 
BRANCH   4   5
ATOM      5  C   UNL     1      26.048  51.246  25.156  1.00  0.00     0.000 C 
BRANCH   5   6
ATOM      6  C   UNL     1      26.415  49.771  25.399  1.00  0.00     0.000 C 
BRANCH   6   7
ATOM      7  C   UNL     1      27.645  49.608  26.303  1.00  0.00     0.000 C 
BRANCH   7   8
ATOM      8  C   UNL     1      28.491  48.378  25.935  1.00  0.00     0.000 C 
BRANCH   8   9
ATOM      9  C   UNL     1      29.818  48.310  26.710  1.00  0.00     0.000 C 
BRANCH   9  10
ATOM     10  C   UNL     1      30.924  47.526  25.973  1.00  0.00     0.000 C 
BRANCH  10  11
ATOM     11  C   UNL     1      32.319  48.137  26.197  1.00  0.00     0.000 C 
BRANCH  11  12
ATOM     12  C   UNL     1      33.456  47.284  25.602  1.00  0.00     0.006 C 
BRANCH  12  13
ATOM     13  C   UNL     1      32.989  46.277  24.537  1.00  0.00     0.053 C 
BRANCH  13  14
ATOM     14  C   UNL     1      33.757  46.395  23.255  1.00  0.00     0.041 C 
ATOM     15  O   UNL     1      34.688  47.236  23.152  1.00  0.00    -0.550 OA
ATOM     16  O   UNL     1      33.472  45.553  22.189  1.00  0.00    -0.550 OA
ENDBRANCH  13  14
ENDBRANCH  12  13
ENDBRANCH  11  12
ENDBRANCH  10  11
ENDBRANCH   9  10
ENDBRANCH   8   9
ENDBRANCH   7   8
ENDBRANCH   6   7
ENDBRANCH   5   6
ENDBRANCH   4   5
ENDBRANCH   3   4
ENDBRANCH   2   3
ENDBRANCH   1   2
BRANCH   1  17
ATOM     17  C   UNL     1      23.025  52.011  28.584  1.00  0.00     0.000 C 
BRANCH  17  18
ATOM     18  C   UNL     1      21.588  52.559  28.643  1.00  0.00     0.000 C 
BRANCH  18  19
ATOM     19  C   UNL     1      21.081  52.889  30.058  1.00  0.00     0.000 C 
BRANCH  19  20
ATOM     20  C   UNL     1      21.224  54.380  30.413  1.00  0.00     0.000 C 
BRANCH  20  21
ATOM     21  C   UNL     1      21.288  54.630  31.935  1.00  0.00     0.000 C 
BRANCH  21  22
ATOM     22  C   UNL     1      19.958  54.377  32.670  1.00  0.00    -0.000 C 
BRANCH  22  23
ATOM     23  C   UNL     1      20.044  53.433  33.885  1.00  0.00    -0.000 C 
BRANCH  23  24
ATOM     24  C   UNL     1      20.608  54.067  35.170  1.00  0.00    -0.000 C 
BRANCH  24  25
ATOM     25  C   UNL     1      22.021  53.569  35.519  1.00  0.00    -0.000 C 
BRANCH  25  26
ATOM     26  C   UNL     1      22.982  54.729  35.860  1.00  0.00    -0.000 C 
BRANCH  26  27
ATOM     27  C   UNL     1      24.353  54.631  35.167  1.00  0.00    -0.000 C 
BRANCH  27  28
ATOM     28  C   UNL     1      24.323  55.123  33.709  1.00  0.00    -0.000 C 
BRANCH  28  29
ATOM     29  C   UNL     1      24.381  53.969  32.696  1.00  0.00    -0.003 C 
ATOM     30  C   UNL     1      24.808  54.424  31.300  1.00  0.00     0.004 C 
ENDBRANCH  28  29
ENDBRANCH  27  28
ENDBRANCH  26  27
ENDBRANCH  25  26
ENDBRANCH  24  25
ENDBRANCH  23  24
ENDBRANCH  22  23
ENDBRANCH  21  22
ENDBRANCH  20  21
ENDBRANCH  19  20
ENDBRANCH  18  19
ENDBRANCH  17  18
ENDBRANCH   1  17
TORSDOF 26
ENDMDL
MODEL 5
REMARK VINA RESULT:     7.578      5.579     15.895
REMARK INTER + INTRA:          18.447
REMARK INTER:                  18.730
REMARK INTRA:                  -0.283
REMARK UNBOUND:                -0.648
REMARK SMILES CCCCCCCCCCCCCCCCCCCCCCCCCCCC(=O)[O-]
REMARK SMILES IDX 15 1 16 2 17 3 18 4 19 5 20 6 21 7 22 8 23 9 24 10 25 11
REMARK SMILES IDX 26 12 27 13 28 14 29 15 30 16 14 17 13 18 12 19 11 20 10 21
REMARK SMILES IDX 9 22 8 23 7 24 6 25 5 26 4 27 3 28 2 29 1 30
REMARK H PARENT
REMARK Flexibility Score: inf
ROOT
ATOM      1  C   UNL     1      26.410  49.495  25.617  1.00  0.00     0.000 C 
ENDROOT
BRANCH   1   2
ATOM      2  C   UNL     1      25.444  50.687  25.554  1.00  0.00     0.000 C 
BRANCH   2   3
ATOM      3  C   UNL     1      24.378  50.638  26.662  1.00  0.00     0.000 C 
BRANCH   3   4
ATOM      4  C   UNL     1      23.507  51.907  26.712  1.00  0.00     0.000 C 
BRANCH   4   5
ATOM      5  C   UNL     1      22.309  51.832  27.676  1.00  0.00     0.000 C 
BRANCH   5   6
ATOM      6  C   UNL     1      22.577  52.529  29.022  1.00  0.00     0.000 C 
BRANCH   6   7
ATOM      7  C   UNL     1      21.334  53.237  29.580  1.00  0.00     0.000 C 
BRANCH   7   8
ATOM      8  C   UNL     1      21.614  53.970  30.902  1.00  0.00     0.000 C 
BRANCH   8   9
ATOM      9  C   UNL     1      20.484  54.933  31.304  1.00  0.00     0.000 C 
BRANCH   9  10
ATOM     10  C   UNL     1      20.171  54.922  32.815  1.00  0.00     0.000 C 
BRANCH  10  11
ATOM     11  C   UNL     1      21.446  54.832  33.673  1.00  0.00     0.000 C 
BRANCH  11  12
ATOM     12  C   UNL     1      21.352  53.772  34.786  1.00  0.00     0.006 C 
BRANCH  12  13
ATOM     13  C   UNL     1      22.649  53.601  35.596  1.00  0.00     0.053 C 
BRANCH  13  14
ATOM     14  C   UNL     1      23.827  54.266  34.948  1.00  0.00     0.041 C 
ATOM     15  O   UNL     1      24.712  54.811  35.657  1.00  0.00    -0.550 OA
ATOM     16  O   UNL     1      23.966  54.251  33.567  1.00  0.00    -0.550 OA
ENDBRANCH  13  14
ENDBRANCH  12  13
ENDBRANCH  11  12
ENDBRANCH  10  11
ENDBRANCH   9  10
ENDBRANCH   8   9
ENDBRANCH   7   8
ENDBRANCH   6   7
ENDBRANCH   5   6
ENDBRANCH   4   5
ENDBRANCH   3   4
ENDBRANCH   2   3
ENDBRANCH   1   2
BRANCH   1  17
ATOM     17  C   UNL     1      27.867  49.935  25.842  1.00  0.00     0.000 C 
BRANCH  17  18
ATOM     18  C   UNL     1      28.876  48.789  25.640  1.00  0.00     0.000 C 
BRANCH  18  19
ATOM     19  C   UNL     1      30.046  48.777  26.639  1.00  0.00     0.000 C 
BRANCH  19  20
ATOM     20  C   UNL     1      30.887  47.491  26.560  1.00  0.00     0.000 C 
BRANCH  20  21
ATOM     21  C   UNL     1      32.330  47.747  26.077  1.00  0.00     0.000 C 
BRANCH  21  22
ATOM     22  C   UNL     1      33.210  46.484  26.024  1.00  0.00    -0.000 C 
BRANCH  22  23
ATOM     23  C   UNL     1      33.713  46.088  24.622  1.00  0.00    -0.000 C 
BRANCH  23  24
ATOM     24  C   UNL     1      34.124  47.263  23.716  1.00  0.00    -0.000 C 
BRANCH  24  25
ATOM     25  C   UNL     1      34.995  46.831  22.524  1.00  0.00    -0.000 C 
BRANCH  25  26
ATOM     26  C   UNL     1      36.504  46.997  22.811  1.00  0.00    -0.000 C 
BRANCH  26  27
ATOM     27  C   UNL     1      37.240  45.672  23.077  1.00  0.00    -0.000 C 
BRANCH  27  28
ATOM     28  C   UNL     1      37.725  45.537  24.530  1.00  0.00    -0.000 C 
BRANCH  28  29
ATOM     29  C   UNL     1      39.251  45.389  24.632  1.00  0.00    -0.003 C 
ATOM     30  C   UNL     1      39.915  45.125  23.280  1.00  0.00     0.004 C 
ENDBRANCH  28  29
ENDBRANCH  27  28
ENDBRANCH  26  27
ENDBRANCH  25  26
ENDBRANCH  24  25
ENDBRANCH  23  24
ENDBRANCH  22  23
ENDBRANCH  21  22
ENDBRANCH  20  21
ENDBRANCH  19  20
ENDBRANCH  18  19
ENDBRANCH  17  18
ENDBRANCH   1  17
TORSDOF 26
ENDMDL
MODEL 6
REMARK VINA RESULT:     7.854      1.137      2.171
REMARK INTER + INTRA:          19.145
REMARK INTER:                  20.049
REMARK INTRA:                  -0.904
REMARK UNBOUND:                -0.648
REMARK SMILES CCCCCCCCCCCCCCCCCCCCCCCCCCCC(=O)[O-]
REMARK SMILES IDX 15 1 16 2 17 3 18 4 19 5 20 6 21 7 22 8 23 9 24 10 25 11
REMARK SMILES IDX 26 12 27 13 28 14 29 15 30 16 14 17 13 18 12 19 11 20 10 21
REMARK SMILES IDX 9 22 8 23 7 24 6 25 5 26 4 27 3 28 2 29 1 30
REMARK H PARENT
REMARK Flexibility Score: inf
ROOT
ATOM      1  C   UNL     1      25.510  50.734  25.757  1.00  0.00     0.000 C 
ENDROOT
BRANCH   1   2
ATOM      2  C   UNL     1      26.393  49.481  25.858  1.00  0.00     0.000 C 
BRANCH   2   3
ATOM      3  C   UNL     1      27.877  49.824  26.067  1.00  0.00     0.000 C 
BRANCH   3   4
ATOM      4  C   UNL     1      28.749  48.579  26.320  1.00  0.00     0.000 C 
BRANCH   4   5
ATOM      5  C   UNL     1      30.173  48.660  25.740  1.00  0.00     0.000 C 
BRANCH   5   6
ATOM      6  C   UNL     1      31.233  48.031  26.663  1.00  0.00     0.000 C 
BRANCH   6   7
ATOM      7  C   UNL     1      32.590  47.847  25.968  1.00  0.00     0.000 C 
BRANCH   7   8
ATOM      8  C   UNL     1      33.088  46.393  26.018  1.00  0.00     0.000 C 
BRANCH   8   9
ATOM      9  C   UNL     1      33.738  45.937  24.700  1.00  0.00     0.000 C 
BRANCH   9  10
ATOM     10  C   UNL     1      34.842  46.889  24.195  1.00  0.00     0.000 C 
BRANCH  10  11
ATOM     11  C   UNL     1      35.425  46.440  22.843  1.00  0.00     0.000 C 
BRANCH  11  12
ATOM     12  C   UNL     1      36.965  46.421  22.824  1.00  0.00     0.006 C 
BRANCH  12  13
ATOM     13  C   UNL     1      37.590  45.484  23.871  1.00  0.00     0.053 C 
BRANCH  13  14
ATOM     14  C   UNL     1      39.055  45.257  23.643  1.00  0.00     0.041 C 
ATOM     15  O   UNL     1      39.640  45.829  22.686  1.00  0.00    -0.550 OA
ATOM     16  O   UNL     1      39.781  44.448  24.506  1.00  0.00    -0.550 OA
ENDBRANCH  13  14
ENDBRANCH  12  13
ENDBRANCH  11  12
ENDBRANCH  10  11
ENDBRANCH   9  10
ENDBRANCH   8   9
ENDBRANCH   7   8
ENDBRANCH   6   7
ENDBRANCH   5   6
ENDBRANCH   4   5
ENDBRANCH   3   4
ENDBRANCH   2   3
ENDBRANCH   1   2
BRANCH   1  17
ATOM     17  C   UNL     1      24.435  50.782  26.857  1.00  0.00     0.000 C 
BRANCH  17  18
ATOM     18  C   UNL     1      23.306  51.781  26.545  1.00  0.00     0.000 C 
BRANCH  18  19
ATOM     19  C   UNL     1      22.063  51.650  27.443  1.00  0.00     0.000 C 
BRANCH  19  20
ATOM     20  C   UNL     1      22.013  52.711  28.556  1.00  0.00     0.000 C 
BRANCH  20  21
ATOM     21  C   UNL     1      20.606  53.319  28.740  1.00  0.00     0.000 C 
BRANCH  21  22
ATOM     22  C   UNL     1      20.527  54.400  29.835  1.00  0.00    -0.000 C 
BRANCH  22  23
ATOM     23  C   UNL     1      21.605  54.309  30.932  1.00  0.00    -0.000 C 
BRANCH  23  24
ATOM     24  C   UNL     1      21.163  54.786  32.328  1.00  0.00    -0.000 C 
BRANCH  24  25
ATOM     25  C   UNL     1      20.689  53.637  33.236  1.00  0.00    -0.000 C 
BRANCH  25  26
ATOM     26  C   UNL     1      19.935  54.151  34.482  1.00  0.00    -0.000 C 
BRANCH  26  27
ATOM     27  C   UNL     1      20.857  54.651  35.609  1.00  0.00    -0.000 C 
BRANCH  27  28
ATOM     28  C   UNL     1      22.296  54.124  35.484  1.00  0.00    -0.000 C 
BRANCH  28  29
ATOM     29  C   UNL     1      23.332  55.090  36.079  1.00  0.00    -0.003 C 
ATOM     30  C   UNL     1      24.761  54.781  35.628  1.00  0.00     0.004 C 
ENDBRANCH  28  29
ENDBRANCH  27  28
ENDBRANCH  26  27
ENDBRANCH  25  26
ENDBRANCH  24  25
ENDBRANCH  23  24
ENDBRANCH  22  23
ENDBRANCH  21  22
ENDBRANCH  20  21
ENDBRANCH  19  20
ENDBRANCH  18  19
ENDBRANCH  17  18
ENDBRANCH   1  17
TORSDOF 26
ENDMDL
MODEL 7
REMARK VINA RESULT:     8.042      5.811     15.693
REMARK INTER + INTRA:          19.617
REMARK INTER:                  19.943
REMARK INTRA:                  -0.326
REMARK UNBOUND:                -0.648
REMARK SMILES CCCCCCCCCCCCCCCCCCCCCCCCCCCC(=O)[O-]
REMARK SMILES IDX 15 1 16 2 17 3 18 4 19 5 20 6 21 7 22 8 23 9 24 10 25 11
REMARK SMILES IDX 26 12 27 13 28 14 29 15 30 16 14 17 13 18 12 19 11 20 10 21
REMARK SMILES IDX 9 22 8 23 7 24 6 25 5 26 4 27 3 28 2 29 1 30
REMARK H PARENT
REMARK Flexibility Score: inf
ROOT
ATOM      1  C   UNL     1      28.425  48.884  26.384  1.00  0.00     0.000 C 
ENDROOT
BRANCH   1   2
ATOM      2  C   UNL     1      27.147  49.093  25.556  1.00  0.00     0.000 C 
BRANCH   2   3
ATOM      3  C   UNL     1      26.587  50.519  25.693  1.00  0.00     0.000 C 
BRANCH   3   4
ATOM      4  C   UNL     1      25.071  50.594  25.430  1.00  0.00     0.000 C 
BRANCH   4   5
ATOM      5  C   UNL     1      24.211  50.869  26.677  1.00  0.00     0.000 C 
BRANCH   5   6
ATOM      6  C   UNL     1      23.164  51.974  26.452  1.00  0.00     0.000 C 
BRANCH   6   7
ATOM      7  C   UNL     1      22.437  52.372  27.745  1.00  0.00     0.000 C 
BRANCH   7   8
ATOM      8  C   UNL     1      23.226  51.992  29.008  1.00  0.00     0.000 C 
BRANCH   8   9
ATOM      9  C   UNL     1      23.095  53.034  30.133  1.00  0.00     0.000 C 
BRANCH   9  10
ATOM     10  C   UNL     1      21.641  53.482  30.392  1.00  0.00     0.000 C 
BRANCH  10  11
ATOM     11  C   UNL     1      21.552  54.580  31.466  1.00  0.00     0.000 C 
BRANCH  11  12
ATOM     12  C   UNL     1      20.448  54.320  32.508  1.00  0.00     0.006 C 
BRANCH  12  13
ATOM     13  C   UNL     1      20.900  53.451  33.693  1.00  0.00     0.053 C 
BRANCH  13  14
ATOM     14  C   UNL     1      22.197  53.914  34.287  1.00  0.00     0.041 C 
ATOM     15  O   UNL     1      23.015  54.564  33.586  1.00  0.00    -0.550 OA
ATOM     16  O   UNL     1      22.487  53.659  35.621  1.00  0.00    -0.550 OA
ENDBRANCH  13  14
ENDBRANCH  12  13
ENDBRANCH  11  12
ENDBRANCH  10  11
ENDBRANCH   9  10
ENDBRANCH   8   9
ENDBRANCH   7   8
ENDBRANCH   6   7
ENDBRANCH   5   6
ENDBRANCH   4   5
ENDBRANCH   3   4
ENDBRANCH   2   3
ENDBRANCH   1   2
BRANCH   1  17
ATOM     17  C   UNL     1      29.674  48.729  25.500  1.00  0.00     0.000 C 
BRANCH  17  18
ATOM     18  C   UNL     1      30.670  47.691  26.050  1.00  0.00     0.000 C 
BRANCH  18  19
ATOM     19  C   UNL     1      32.143  48.139  26.034  1.00  0.00     0.000 C 
BRANCH  19  20
ATOM     20  C   UNL     1      33.105  47.048  26.536  1.00  0.00     0.000 C 
BRANCH  20  21
ATOM     21  C   UNL     1      32.958  45.719  25.765  1.00  0.00     0.000 C 
BRANCH  21  22
ATOM     22  C   UNL     1      32.399  45.878  24.338  1.00  0.00    -0.000 C 
BRANCH  22  23
ATOM     23  C   UNL     1      33.438  45.763  23.206  1.00  0.00    -0.000 C 
BRANCH  23  24
ATOM     24  C   UNL     1      33.972  47.103  22.667  1.00  0.00    -0.000 C 
BRANCH  24  25
ATOM     25  C   UNL     1      35.419  47.395  23.103  1.00  0.00    -0.000 C 
BRANCH  25  26
ATOM     26  C   UNL     1      36.010  46.258  23.965  1.00  0.00    -0.000 C 
BRANCH  26  27
ATOM     27  C   UNL     1      37.496  45.968  23.685  1.00  0.00    -0.000 C 
BRANCH  27  28
ATOM     28  C   UNL     1      38.229  45.370  24.898  1.00  0.00    -0.000 C 
BRANCH  28  29
ATOM     29  C   UNL     1      39.643  44.880  24.550  1.00  0.00    -0.003 C 
ATOM     30  C   UNL     1      39.944  44.946  23.052  1.00  0.00     0.004 C 
ENDBRANCH  28  29
ENDBRANCH  27  28
ENDBRANCH  26  27
ENDBRANCH  25  26
ENDBRANCH  24  25
ENDBRANCH  23  24
ENDBRANCH  22  23
ENDBRANCH  21  22
ENDBRANCH  20  21
ENDBRANCH  19  20
ENDBRANCH  18  19
ENDBRANCH  17  18
ENDBRANCH   1  17
TORSDOF 26
ENDMDL
MODEL 8
REMARK VINA RESULT:     8.326      2.008      4.259
REMARK INTER + INTRA:          20.333
REMARK INTER:                  20.776
REMARK INTRA:                  -0.443
REMARK UNBOUND:                -0.648
REMARK SMILES CCCCCCCCCCCCCCCCCCCCCCCCCCCC(=O)[O-]
REMARK SMILES IDX 15 1 16 2 17 3 18 4 19 5 20 6 21 7 22 8 23 9 24 10 25 11
REMARK SMILES IDX 26 12 27 13 28 14 29 15 30 16 14 17 13 18 12 19 11 20 10 21
REMARK SMILES IDX 9 22 8 23 7 24 6 25 5 26 4 27 3 28 2 29 1 30
REMARK H PARENT
REMARK Flexibility Score: inf
ROOT
ATOM      1  C   UNL     1      24.029  51.245  27.026  1.00  0.00     0.000 C 
ENDROOT
BRANCH   1   2
ATOM      2  C   UNL     1      24.254  51.844  25.629  1.00  0.00     0.000 C 
BRANCH   2   3
ATOM      3  C   UNL     1      25.323  51.080  24.829  1.00  0.00     0.000 C 
BRANCH   3   4
ATOM      4  C   UNL     1      26.282  50.276  25.727  1.00  0.00     0.000 C 
BRANCH   4   5
ATOM      5  C   UNL     1      27.474  49.638  24.990  1.00  0.00     0.000 C 
BRANCH   5   6
ATOM      6  C   UNL     1      27.931  48.312  25.625  1.00  0.00     0.000 C 
BRANCH   6   7
ATOM      7  C   UNL     1      29.206  48.467  26.466  1.00  0.00     0.000 C 
BRANCH   7   8
ATOM      8  C   UNL     1      30.487  48.394  25.618  1.00  0.00     0.000 C 
BRANCH   8   9
ATOM      9  C   UNL     1      31.770  48.443  26.466  1.00  0.00     0.000 C 
BRANCH   9  10
ATOM     10  C   UNL     1      32.992  47.804  25.773  1.00  0.00     0.000 C 
BRANCH  10  11
ATOM     11  C   UNL     1      33.234  46.357  26.236  1.00  0.00     0.000 C 
BRANCH  11  12
ATOM     12  C   UNL     1      33.348  45.358  25.069  1.00  0.00     0.006 C 
BRANCH  12  13
ATOM     13  C   UNL     1      33.268  46.012  23.679  1.00  0.00     0.053 C 
BRANCH  13  14
ATOM     14  C   UNL     1      34.378  46.990  23.435  1.00  0.00     0.041 C 
ATOM     15  O   UNL     1      35.574  46.599  23.435  1.00  0.00    -0.550 OA
ATOM     16  O   UNL     1      34.092  48.323  23.172  1.00  0.00    -0.550 OA
ENDBRANCH  13  14
ENDBRANCH  12  13
ENDBRANCH  11  12
ENDBRANCH  10  11
ENDBRANCH   9  10
ENDBRANCH   8   9
ENDBRANCH   7   8
ENDBRANCH   6   7
ENDBRANCH   5   6
ENDBRANCH   4   5
ENDBRANCH   3   4
ENDBRANCH   2   3
ENDBRANCH   1   2
BRANCH   1  17
ATOM     17  C   UNL     1      22.661  51.631  27.614  1.00  0.00     0.000 C 
BRANCH  17  18
ATOM     18  C   UNL     1      22.357  53.135  27.480  1.00  0.00     0.000 C 
BRANCH  18  19
ATOM     19  C   UNL     1      20.861  53.482  27.369  1.00  0.00     0.000 C 
BRANCH  19  20
ATOM     20  C   UNL     1      20.116  53.353  28.709  1.00  0.00     0.000 C 
BRANCH  20  21
ATOM     21  C   UNL     1      19.975  54.701  29.448  1.00  0.00     0.000 C 
BRANCH  21  22
ATOM     22  C   UNL     1      20.701  54.753  30.806  1.00  0.00    -0.000 C 
BRANCH  22  23
ATOM     23  C   UNL     1      19.875  54.269  32.014  1.00  0.00    -0.000 C 
BRANCH  23  24
ATOM     24  C   UNL     1      20.374  54.756  33.387  1.00  0.00    -0.000 C 
BRANCH  24  25
ATOM     25  C   UNL     1      20.279  53.677  34.481  1.00  0.00    -0.000 C 
BRANCH  25  26
ATOM     26  C   UNL     1      21.489  53.710  35.440  1.00  0.00    -0.000 C 
BRANCH  26  27
ATOM     27  C   UNL     1      22.466  54.870  35.176  1.00  0.00    -0.000 C 
BRANCH  27  28
ATOM     28  C   UNL     1      23.893  54.391  34.860  1.00  0.00    -0.000 C 
BRANCH  28  29
ATOM     29  C   UNL     1      24.097  54.092  33.367  1.00  0.00    -0.003 C 
ATOM     30  C   UNL     1      25.077  55.056  32.696  1.00  0.00     0.004 C 
ENDBRANCH  28  29
ENDBRANCH  27  28
ENDBRANCH  26  27
ENDBRANCH  25  26
ENDBRANCH  24  25
ENDBRANCH  23  24
ENDBRANCH  22  23
ENDBRANCH  21  22
ENDBRANCH  20  21
ENDBRANCH  19  20
ENDBRANCH  18  19
ENDBRANCH  17  18
ENDBRANCH   1  17
TORSDOF 26
ENDMDL
MODEL 9
REMARK VINA RESULT:     8.540      1.431      2.129
REMARK INTER + INTRA:          20.872
REMARK INTER:                  21.923
REMARK INTRA:                  -1.050
REMARK UNBOUND:                -0.648
REMARK SMILES CCCCCCCCCCCCCCCCCCCCCCCCCCCC(=O)[O-]
REMARK SMILES IDX 15 1 16 2 17 3 18 4 19 5 20 6 21 7 22 8 23 9 24 10 25 11
REMARK SMILES IDX 26 12 27 13 28 14 29 15 30 16 14 17 13 18 12 19 11 20 10 21
REMARK SMILES IDX 9 22 8 23 7 24 6 25 5 26 4 27 3 28 2 29 1 30
REMARK H PARENT
REMARK Flexibility Score: inf
ROOT
ATOM      1  C   UNL     1      28.350  48.510  26.024  1.00  0.00     0.000 C 
ENDROOT
BRANCH   1   2
ATOM      2  C   UNL     1      29.810  48.348  25.572  1.00  0.00     0.000 C 
BRANCH   2   3
ATOM      3  C   UNL     1      30.797  48.397  26.750  1.00  0.00     0.000 C 
BRANCH   3   4
ATOM      4  C   UNL     1      32.245  48.081  26.330  1.00  0.00     0.000 C 
BRANCH   4   5
ATOM      5  C   UNL     1      32.865  46.853  27.023  1.00  0.00     0.000 C 
BRANCH   5   6
ATOM      6  C   UNL     1      33.401  45.809  26.027  1.00  0.00     0.000 C 
BRANCH   6   7
ATOM      7  C   UNL     1      32.359  45.407  24.973  1.00  0.00     0.000 C 
BRANCH   7   8
ATOM      8  C   UNL     1      32.813  45.730  23.540  1.00  0.00     0.000 C 
BRANCH   8   9
ATOM      9  C   UNL     1      34.074  46.611  23.495  1.00  0.00     0.000 C 
BRANCH   9  10
ATOM     10  C   UNL     1      34.595  46.872  22.066  1.00  0.00     0.000 C 
BRANCH  10  11
ATOM     11  C   UNL     1      35.949  47.603  22.064  1.00  0.00     0.000 C 
BRANCH  11  12
ATOM     12  C   UNL     1      37.123  46.703  22.493  1.00  0.00     0.006 C 
BRANCH  12  13
ATOM     13  C   UNL     1      36.967  46.102  23.900  1.00  0.00     0.053 C 
BRANCH  13  14
ATOM     14  C   UNL     1      38.251  45.542  24.436  1.00  0.00     0.041 C 
ATOM     15  O   UNL     1      38.453  45.504  25.677  1.00  0.00    -0.550 OA
ATOM     16  O   UNL     1      39.206  45.030  23.568  1.00  0.00    -0.550 OA
ENDBRANCH  13  14
ENDBRANCH  12  13
ENDBRANCH  11  12
ENDBRANCH  10  11
ENDBRANCH   9  10
ENDBRANCH   8   9
ENDBRANCH   7   8
ENDBRANCH   6   7
ENDBRANCH   5   6
ENDBRANCH   4   5
ENDBRANCH   3   4
ENDBRANCH   2   3
ENDBRANCH   1   2
BRANCH   1  17
ATOM     17  C   UNL     1      27.616  49.615  25.244  1.00  0.00     0.000 C 
BRANCH  17  18
ATOM     18  C   UNL     1      26.445  50.227  26.036  1.00  0.00     0.000 C 
BRANCH  18  19
ATOM     19  C   UNL     1      25.189  50.527  25.199  1.00  0.00     0.000 C 
BRANCH  19  20
ATOM     20  C   UNL     1      24.318  51.641  25.806  1.00  0.00     0.000 C 
BRANCH  20  21
ATOM     21  C   UNL     1      23.610  51.206  27.106  1.00  0.00     0.000 C 
BRANCH  21  22
ATOM     22  C   UNL     1      22.509  52.175  27.577  1.00  0.00    -0.000 C 
BRANCH  22  23
ATOM     23  C   UNL     1      22.526  52.515  29.080  1.00  0.00    -0.000 C 
BRANCH  23  24
ATOM     24  C   UNL     1      23.925  52.593  29.719  1.00  0.00    -0.000 C 
BRANCH  24  25
ATOM     25  C   UNL     1      24.027  53.664  30.820  1.00  0.00    -0.000 C 
BRANCH  25  26
ATOM     26  C   UNL     1      22.645  54.229  31.215  1.00  0.00    -0.000 C 
BRANCH  26  27
ATOM     27  C   UNL     1      22.654  55.055  32.514  1.00  0.00    -0.000 C 
BRANCH  27  28
ATOM     28  C   UNL     1      24.021  55.045  33.220  1.00  0.00    -0.000 C 
BRANCH  28  29
ATOM     29  C   UNL     1      23.985  54.306  34.566  1.00  0.00    -0.003 C 
ATOM     30  C   UNL     1      24.904  54.934  35.615  1.00  0.00     0.004 C 
ENDBRANCH  28  29
ENDBRANCH  27  28
ENDBRANCH  26  27
ENDBRANCH  25  26
ENDBRANCH  24  25
ENDBRANCH  23  24
ENDBRANCH  22  23
ENDBRANCH  21  22
ENDBRANCH  20  21
ENDBRANCH  19  20
ENDBRANCH  18  19
ENDBRANCH  17  18
ENDBRANCH   1  17
TORSDOF 26
ENDMDL
