MODEL 1
REMARK VINA RESULT:    -3.827      0.000      0.000
REMARK INTER + INTRA:          -5.630
REMARK INTER:                  -5.841
REMARK INTRA:                   0.211
REMARK UNBOUND:                 0.211
REMARK SMILES CC1=CCC[C@@H](C)C(=O)C[C@H](C(C)C)C(=O)C1
REMARK SMILES IDX 8 1 9 2 6 3 7 4 5 5 4 6 3 7 2 8 1 9 10 11 11 12 15 13 16 14
REMARK SMILES IDX 17 15 12 17 13 18 14 19
REMARK H PARENT
REMARK Flexibility Score: 70.00
ROOT
ATOM      1  C   UNL     1      -0.018  30.182  52.048  1.00  0.00     0.136 C 
ATOM      2  O   UNL     1       0.102  31.219  52.685  1.00  0.00    -0.299 OA
ENDROOT
BRANCH   1   3
ATOM      3  C   UNL     1      -1.097  30.074  50.992  1.00  0.00     0.053 C 
ATOM      4  C   UNL     1      -0.620  30.644  49.651  1.00  0.00     0.016 C 
BRANCH   3   5
ATOM      5  C   UNL     1      -2.369  30.796  51.497  1.00  0.00     0.015 C 
BRANCH   5   6
ATOM      6  C   UNL     1      -3.347  29.940  52.326  1.00  0.00     0.028 C 
BRANCH   6   7
ATOM      7  C   UNL     1      -3.071  29.822  53.811  1.00  0.00    -0.028 C 
ATOM      8  C   UNL     1      -2.541  28.757  54.459  1.00  0.00    -0.070 CG0
ATOM      9  C   UNL     1      -2.248  28.909  55.931  1.00  0.00     0.039 C 
ATOM     10  G   UNL     1      -2.302  27.400  53.819  1.00  0.00     0.000 G0
ENDBRANCH   6   7
ENDBRANCH   5   6
ENDBRANCH   3   5
ENDBRANCH   1   3
BRANCH   1  11
ATOM     11  C   UNL     1       0.868  29.004  52.381  1.00  0.00     0.087 C 
BRANCH  11  12
ATOM     12  C   UNL     1       0.255  28.090  53.485  1.00  0.00     0.066 C 
BRANCH  12  13
ATOM     13  C   UNL     1      -1.024  27.424  52.997  1.00  0.00     0.140 C 
ATOM     14  O   UNL     1      -1.029  26.866  51.908  1.00  0.00    -0.299 OA
BRANCH  13  15
ATOM     15  C   UNL     1      -2.288  27.398  53.833  1.00  0.00     0.106 CG0
ATOM     16  G   UNL     1      -2.551  28.757  54.459  1.00  0.00     0.000 G0
ENDBRANCH  13  15
ENDBRANCH  12  13
BRANCH  12  17
ATOM     17  C   UNL     1       1.253  27.021  54.032  1.00  0.00    -0.006 C 
ATOM     18  C   UNL     1       2.681  27.144  53.468  1.00  0.00     0.008 C 
ATOM     19  C   UNL     1       1.297  27.020  55.570  1.00  0.00     0.008 C 
ENDBRANCH  12  17
ENDBRANCH  11  12
ENDBRANCH   1  11
TORSDOF 1
ENDMDL
MODEL 2
REMARK VINA RESULT:    -2.944      9.823     11.335
REMARK INTER + INTRA:          -4.281
REMARK INTER:                  -4.275
REMARK INTRA:                  -0.006
REMARK UNBOUND:                 0.211
REMARK SMILES CC1=CCC[C@@H](C)C(=O)C[C@H](C(C)C)C(=O)C1
REMARK SMILES IDX 8 1 9 2 6 3 7 4 5 5 4 6 3 7 2 8 1 9 10 11 11 12 15 13 16 14
REMARK SMILES IDX 17 15 12 17 13 18 14 19
REMARK H PARENT
REMARK Flexibility Score: 70.00
ROOT
ATOM      1  C   UNL     1      -1.294  36.395  58.856  1.00  0.00     0.136 C 
ATOM      2  O   UNL     1      -0.143  36.042  59.073  1.00  0.00    -0.299 OA
ENDROOT
BRANCH   1   3
ATOM      3  C   UNL     1      -1.563  37.478  57.834  1.00  0.00     0.053 C 
ATOM      4  C   UNL     1      -0.394  37.615  56.851  1.00  0.00     0.016 C 
BRANCH   3   5
ATOM      5  C   UNL     1      -1.844  38.808  58.573  1.00  0.00     0.015 C 
BRANCH   5   6
ATOM      6  C   UNL     1      -3.258  38.965  59.166  1.00  0.00     0.028 C 
BRANCH   6   7
ATOM      7  C   UNL     1      -3.354  39.414  60.609  1.00  0.00    -0.028 C 
ATOM      8  C   UNL     1      -3.638  38.641  61.685  1.00  0.00    -0.070 CG0
ATOM      9  C   UNL     1      -3.565  39.286  63.048  1.00  0.00     0.039 C 
ATOM     10  G   UNL     1      -4.105  37.198  61.602  1.00  0.00     0.000 G0
ENDBRANCH   6   7
ENDBRANCH   5   6
ENDBRANCH   3   5
ENDBRANCH   1   3
BRANCH   1  11
ATOM     11  C   UNL     1      -2.418  35.795  59.669  1.00  0.00     0.087 C 
BRANCH  11  12
ATOM     12  C   UNL     1      -2.028  35.585  61.163  1.00  0.00     0.066 C 
BRANCH  12  13
ATOM     13  C   UNL     1      -3.046  36.233  62.091  1.00  0.00     0.140 C 
ATOM     14  O   UNL     1      -2.999  35.994  63.289  1.00  0.00    -0.299 OA
BRANCH  13  15
ATOM     15  C   UNL     1      -4.099  37.198  61.583  1.00  0.00     0.106 CG0
ATOM     16  G   UNL     1      -3.622  38.635  61.710  1.00  0.00     0.000 G0
ENDBRANCH  13  15
ENDBRANCH  12  13
BRANCH  12  17
ATOM     17  C   UNL     1      -1.817  34.085  61.546  1.00  0.00    -0.006 C 
ATOM     18  C   UNL     1      -2.430  33.087  60.546  1.00  0.00     0.008 C 
ATOM     19  C   UNL     1      -0.330  33.760  61.766  1.00  0.00     0.008 C 
ENDBRANCH  12  17
ENDBRANCH  11  12
ENDBRANCH   1  11
TORSDOF 1
ENDMDL
MODEL 3
REMARK VINA RESULT:    -2.895      9.036     11.446
REMARK INTER + INTRA:          -4.207
REMARK INTER:                  -4.803
REMARK INTRA:                   0.596
REMARK UNBOUND:                 0.211
REMARK SMILES CC1=CCC[C@@H](C)C(=O)C[C@H](C(C)C)C(=O)C1
REMARK SMILES IDX 8 1 9 2 6 3 7 4 5 5 4 6 3 7 2 8 1 9 10 11 11 12 15 13 16 14
REMARK SMILES IDX 17 15 12 17 13 18 14 19
REMARK H PARENT
REMARK Flexibility Score: 70.00
ROOT
ATOM      1  C   UNL     1      -0.124  34.131  61.281  1.00  0.00     0.136 C 
ATOM      2  O   UNL     1       0.753  34.969  61.439  1.00  0.00    -0.299 OA
ENDROOT
BRANCH   1   3
ATOM      3  C   UNL     1      -0.037  32.810  62.014  1.00  0.00     0.053 C 
ATOM      4  C   UNL     1      -1.164  31.863  61.586  1.00  0.00     0.016 C 
BRANCH   3   5
ATOM      5  C   UNL     1      -0.067  33.078  63.537  1.00  0.00     0.015 C 
BRANCH   5   6
ATOM      6  C   UNL     1      -1.464  33.126  64.187  1.00  0.00     0.028 C 
BRANCH   6   7
ATOM      7  C   UNL     1      -1.894  34.442  64.801  1.00  0.00    -0.028 C 
ATOM      8  C   UNL     1      -2.957  35.202  64.439  1.00  0.00    -0.070 CG0
ATOM      9  C   UNL     1      -3.260  36.422  65.273  1.00  0.00     0.039 C 
ATOM     10  G   UNL     1      -3.806  34.950  63.205  1.00  0.00     0.000 G0
ENDBRANCH   6   7
ENDBRANCH   5   6
ENDBRANCH   3   5
ENDBRANCH   1   3
BRANCH   1  11
ATOM     11  C   UNL     1      -1.238  34.405  60.296  1.00  0.00     0.087 C 
BRANCH  11  12
ATOM     12  C   UNL     1      -2.650  34.176  60.914  1.00  0.00     0.066 C 
BRANCH  12  13
ATOM     13  C   UNL     1      -2.976  35.247  61.946  1.00  0.00     0.140 C 
ATOM     14  O   UNL     1      -2.594  36.393  61.757  1.00  0.00    -0.299 OA
BRANCH  13  15
ATOM     15  C   UNL     1      -3.793  34.949  63.188  1.00  0.00     0.106 CG0
ATOM     16  G   UNL     1      -2.981  35.210  64.444  1.00  0.00     0.000 G0
ENDBRANCH  13  15
ENDBRANCH  12  13
BRANCH  12  17
ATOM     17  C   UNL     1      -3.787  34.079  59.849  1.00  0.00    -0.006 C 
ATOM     18  C   UNL     1      -3.790  35.229  58.824  1.00  0.00     0.008 C 
ATOM     19  C   UNL     1      -3.765  32.726  59.117  1.00  0.00     0.008 C 
ENDBRANCH  12  17
ENDBRANCH  11  12
ENDBRANCH   1  11
TORSDOF 1
ENDMDL
MODEL 4
REMARK VINA RESULT:    -2.780      8.437     10.715
REMARK INTER + INTRA:          -4.031
REMARK INTER:                  -4.088
REMARK INTRA:                   0.058
REMARK UNBOUND:                 0.211
REMARK SMILES CC1=CCC[C@@H](C)C(=O)C[C@H](C(C)C)C(=O)C1
REMARK SMILES IDX 8 1 9 2 6 3 7 4 5 5 4 6 3 7 2 8 1 9 10 11 11 12 15 13 16 14
REMARK SMILES IDX 17 15 12 17 13 18 14 19
REMARK H PARENT
REMARK Flexibility Score: 70.00
ROOT
ATOM      1  C   UNL     1      -0.949  33.482  63.360  1.00  0.00     0.136 C 
ATOM      2  O   UNL     1       0.012  34.208  63.148  1.00  0.00    -0.299 OA
ENDROOT
BRANCH   1   3
ATOM      3  C   UNL     1      -1.883  33.794  64.510  1.00  0.00     0.053 C 
ATOM      4  C   UNL     1      -2.913  32.676  64.707  1.00  0.00     0.016 C 
BRANCH   3   5
ATOM      5  C   UNL     1      -2.566  35.157  64.247  1.00  0.00     0.015 C 
BRANCH   5   6
ATOM      6  C   UNL     1      -3.392  35.259  62.950  1.00  0.00     0.028 C 
BRANCH   6   7
ATOM      7  C   UNL     1      -2.810  36.091  61.826  1.00  0.00    -0.028 C 
ATOM      8  C   UNL     1      -2.749  35.758  60.513  1.00  0.00    -0.070 CG0
ATOM      9  C   UNL     1      -2.227  36.798  59.552  1.00  0.00     0.039 C 
ATOM     10  G   UNL     1      -3.090  34.384  59.964  1.00  0.00     0.000 G0
ENDBRANCH   6   7
ENDBRANCH   5   6
ENDBRANCH   3   5
ENDBRANCH   1   3
BRANCH   1  11
ATOM     11  C   UNL     1      -1.142  32.245  62.514  1.00  0.00     0.087 C 
BRANCH  11  12
ATOM     12  C   UNL     1      -2.354  32.369  61.542  1.00  0.00     0.066 C 
BRANCH  12  13
ATOM     13  C   UNL     1      -2.058  33.357  60.422  1.00  0.00     0.140 C 
ATOM     14  O   UNL     1      -0.976  33.309  59.853  1.00  0.00    -0.299 OA
BRANCH  13  15
ATOM     15  C   UNL     1      -3.077  34.380  59.960  1.00  0.00     0.106 CG0
ATOM     16  G   UNL     1      -2.729  35.763  60.484  1.00  0.00     0.000 G0
ENDBRANCH  13  15
ENDBRANCH  12  13
BRANCH  12  17
ATOM     17  C   UNL     1      -2.822  31.000  60.954  1.00  0.00    -0.006 C 
ATOM     18  C   UNL     1      -1.709  29.940  60.860  1.00  0.00     0.008 C 
ATOM     19  C   UNL     1      -4.023  30.431  61.729  1.00  0.00     0.008 C 
ENDBRANCH  12  17
ENDBRANCH  11  12
ENDBRANCH   1  11
TORSDOF 1
ENDMDL
MODEL 5
REMARK VINA RESULT:    -2.760      1.570      3.706
REMARK INTER + INTRA:          -4.001
REMARK INTER:                  -5.105
REMARK INTRA:                   1.104
REMARK UNBOUND:                 0.211
REMARK SMILES CC1=CCC[C@@H](C)C(=O)C[C@H](C(C)C)C(=O)C1
REMARK SMILES IDX 8 1 9 2 6 3 7 4 5 5 4 6 3 7 2 8 1 9 10 11 11 12 15 13 16 14
REMARK SMILES IDX 17 15 12 17 13 18 14 19
REMARK H PARENT
REMARK Flexibility Score: 70.00
ROOT
ATOM      1  C   UNL     1      -2.319  29.972  51.776  1.00  0.00     0.136 C 
ATOM      2  O   UNL     1      -3.158  29.247  51.257  1.00  0.00    -0.299 OA
ENDROOT
BRANCH   1   3
ATOM      3  C   UNL     1      -1.367  30.757  50.901  1.00  0.00     0.053 C 
ATOM      4  C   UNL     1      -1.875  30.833  49.457  1.00  0.00     0.016 C 
BRANCH   3   5
ATOM      5  C   UNL     1       0.036  30.109  50.977  1.00  0.00     0.015 C 
BRANCH   5   6
ATOM      6  C   UNL     1       0.662  30.017  52.383  1.00  0.00     0.028 C 
BRANCH   6   7
ATOM      7  C   UNL     1       1.358  28.722  52.744  1.00  0.00    -0.028 C 
ATOM      8  C   UNL     1       0.959  27.812  53.665  1.00  0.00    -0.070 CG0
ATOM      9  C   UNL     1       1.752  26.533  53.773  1.00  0.00     0.039 C 
ATOM     10  G   UNL     1      -0.178  28.033  54.648  1.00  0.00     0.000 G0
ENDBRANCH   6   7
ENDBRANCH   5   6
ENDBRANCH   3   5
ENDBRANCH   1   3
BRANCH   1  11
ATOM     11  C   UNL     1      -2.205  30.008  53.282  1.00  0.00     0.087 C 
BRANCH  11  12
ATOM     12  C   UNL     1      -2.668  28.679  53.949  1.00  0.00     0.066 C 
BRANCH  12  13
ATOM     13  C   UNL     1      -1.525  27.676  54.023  1.00  0.00     0.140 C 
ATOM     14  O   UNL     1      -1.674  26.563  53.539  1.00  0.00    -0.299 OA
BRANCH  13  15
ATOM     15  C   UNL     1      -0.188  28.023  54.649  1.00  0.00     0.106 CG0
ATOM     16  G   UNL     1       0.942  27.827  53.653  1.00  0.00     0.000 G0
ENDBRANCH  13  15
ENDBRANCH  12  13
BRANCH  12  17
ATOM     17  C   UNL     1      -3.311  28.880  55.358  1.00  0.00    -0.006 C 
ATOM     18  C   UNL     1      -2.304  28.827  56.523  1.00  0.00     0.008 C 
ATOM     19  C   UNL     1      -4.125  30.183  55.429  1.00  0.00     0.008 C 
ENDBRANCH  12  17
ENDBRANCH  11  12
ENDBRANCH   1  11
TORSDOF 1
ENDMDL
MODEL 6
REMARK VINA RESULT:    -2.654      1.819      4.002
REMARK INTER + INTRA:          -3.839
REMARK INTER:                  -4.518
REMARK INTRA:                   0.680
REMARK UNBOUND:                 0.211
REMARK SMILES CC1=CCC[C@@H](C)C(=O)C[C@H](C(C)C)C(=O)C1
REMARK SMILES IDX 8 1 9 2 6 3 7 4 5 5 4 6 3 7 2 8 1 9 10 11 11 12 15 13 16 14
REMARK SMILES IDX 17 15 12 17 13 18 14 19
REMARK H PARENT
REMARK Flexibility Score: 70.00
ROOT
ATOM      1  C   UNL     1       0.094  27.285  53.680  1.00  0.00     0.136 C 
ATOM      2  O   UNL     1      -0.211  26.155  53.325  1.00  0.00    -0.299 OA
ENDROOT
BRANCH   1   3
ATOM      3  C   UNL     1       1.256  27.989  53.015  1.00  0.00     0.053 C 
ATOM      4  C   UNL     1       2.549  27.806  53.818  1.00  0.00     0.016 C 
BRANCH   3   5
ATOM      5  C   UNL     1       0.904  29.485  52.837  1.00  0.00     0.015 C 
BRANCH   5   6
ATOM      6  C   UNL     1       0.357  29.890  51.454  1.00  0.00     0.028 C 
BRANCH   6   7
ATOM      7  C   UNL     1      -1.032  30.492  51.411  1.00  0.00    -0.028 C 
ATOM      8  C   UNL     1      -2.205  29.849  51.627  1.00  0.00    -0.070 CG0
ATOM      9  C   UNL     1      -3.464  30.681  51.646  1.00  0.00     0.039 C 
ATOM     10  G   UNL     1      -2.341  28.343  51.765  1.00  0.00     0.000 G0
ENDBRANCH   6   7
ENDBRANCH   5   6
ENDBRANCH   3   5
ENDBRANCH   1   3
BRANCH   1  11
ATOM     11  C   UNL     1      -0.651  27.925  54.828  1.00  0.00     0.087 C 
BRANCH  11  12
ATOM     12  C   UNL     1      -1.958  28.639  54.368  1.00  0.00     0.066 C 
BRANCH  12  13
ATOM     13  C   UNL     1      -2.591  27.914  53.189  1.00  0.00     0.140 C 
ATOM     14  O   UNL     1      -3.347  26.976  53.400  1.00  0.00    -0.299 OA
BRANCH  13  15
ATOM     15  C   UNL     1      -2.344  28.338  51.754  1.00  0.00     0.106 CG0
ATOM     16  G   UNL     1      -2.204  29.848  51.654  1.00  0.00     0.000 G0
ENDBRANCH  13  15
ENDBRANCH  12  13
BRANCH  12  17
ATOM     17  C   UNL     1      -3.000  28.830  55.516  1.00  0.00    -0.006 C 
ATOM     18  C   UNL     1      -2.375  28.997  56.913  1.00  0.00     0.008 C 
ATOM     19  C   UNL     1      -3.954  30.000  55.225  1.00  0.00     0.008 C 
ENDBRANCH  12  17
ENDBRANCH  11  12
ENDBRANCH   1  11
TORSDOF 1
ENDMDL
MODEL 7
REMARK VINA RESULT:    -2.643      8.418     10.333
REMARK INTER + INTRA:          -3.822
REMARK INTER:                  -4.112
REMARK INTRA:                   0.290
REMARK UNBOUND:                 0.211
REMARK SMILES CC1=CCC[C@@H](C)C(=O)C[C@H](C(C)C)C(=O)C1
REMARK SMILES IDX 8 1 9 2 6 3 7 4 5 5 4 6 3 7 2 8 1 9 10 11 11 12 15 13 16 14
REMARK SMILES IDX 17 15 12 17 13 18 14 19
REMARK H PARENT
REMARK Flexibility Score: 70.00
ROOT
ATOM      1  C   UNL     1      -1.926  34.913  59.898  1.00  0.00     0.136 C 
ATOM      2  O   UNL     1      -0.714  35.024  59.781  1.00  0.00    -0.299 OA
ENDROOT
BRANCH   1   3
ATOM      3  C   UNL     1      -2.788  36.155  59.959  1.00  0.00     0.053 C 
ATOM      4  C   UNL     1      -2.209  37.275  59.086  1.00  0.00     0.016 C 
BRANCH   3   5
ATOM      5  C   UNL     1      -2.928  36.599  61.434  1.00  0.00     0.015 C 
BRANCH   5   6
ATOM      6  C   UNL     1      -3.748  35.664  62.346  1.00  0.00     0.028 C 
BRANCH   6   7
ATOM      7  C   UNL     1      -3.156  35.327  63.698  1.00  0.00    -0.028 C 
ATOM      8  C   UNL     1      -2.558  34.166  64.059  1.00  0.00    -0.070 CG0
ATOM      9  C   UNL     1      -1.936  34.097  65.433  1.00  0.00     0.039 C 
ATOM     10  G   UNL     1      -2.549  32.909  63.207  1.00  0.00     0.000 G0
ENDBRANCH   6   7
ENDBRANCH   5   6
ENDBRANCH   3   5
ENDBRANCH   1   3
BRANCH   1  11
ATOM     11  C   UNL     1      -2.531  33.537  60.055  1.00  0.00     0.087 C 
BRANCH  11  12
ATOM     12  C   UNL     1      -1.569  32.540  60.770  1.00  0.00     0.066 C 
BRANCH  12  13
ATOM     13  C   UNL     1      -1.395  32.905  62.238  1.00  0.00     0.140 C 
ATOM     14  O   UNL     1      -0.290  33.233  62.645  1.00  0.00    -0.299 OA
BRANCH  13  15
ATOM     15  C   UNL     1      -2.559  32.911  63.210  1.00  0.00     0.106 CG0
ATOM     16  G   UNL     1      -2.545  34.168  64.062  1.00  0.00     0.000 G0
ENDBRANCH  13  15
ENDBRANCH  12  13
BRANCH  12  17
ATOM     17  C   UNL     1      -2.002  31.046  60.626  1.00  0.00    -0.006 C 
ATOM     18  C   UNL     1      -2.927  30.771  59.426  1.00  0.00     0.008 C 
ATOM     19  C   UNL     1      -0.785  30.107  60.576  1.00  0.00     0.008 C 
ENDBRANCH  12  17
ENDBRANCH  11  12
ENDBRANCH   1  11
TORSDOF 1
ENDMDL
MODEL 8
REMARK VINA RESULT:    -2.585      8.244     10.224
REMARK INTER + INTRA:          -3.733
REMARK INTER:                  -3.908
REMARK INTRA:                   0.174
REMARK UNBOUND:                 0.211
REMARK SMILES CC1=CCC[C@@H](C)C(=O)C[C@H](C(C)C)C(=O)C1
REMARK SMILES IDX 8 1 9 2 6 3 7 4 5 5 4 6 3 7 2 8 1 9 10 11 11 12 15 13 16 14
REMARK SMILES IDX 17 15 12 17 13 18 14 19
REMARK H PARENT
REMARK Flexibility Score: 70.00
ROOT
ATOM      1  C   UNL     1      -1.555  34.734  62.536  1.00  0.00     0.136 C 
ATOM      2  O   UNL     1      -2.378  34.233  63.289  1.00  0.00    -0.299 OA
ENDROOT
BRANCH   1   3
ATOM      3  C   UNL     1      -0.091  34.385  62.691  1.00  0.00     0.053 C 
ATOM      4  C   UNL     1       0.750  35.007  61.570  1.00  0.00     0.016 C 
BRANCH   3   5
ATOM      5  C   UNL     1       0.058  32.845  62.727  1.00  0.00     0.015 C 
BRANCH   5   6
ATOM      6  C   UNL     1      -0.244  32.107  61.408  1.00  0.00     0.028 C 
BRANCH   6   7
ATOM      7  C   UNL     1      -1.540  31.327  61.336  1.00  0.00    -0.028 C 
ATOM      8  C   UNL     1      -2.533  31.477  60.425  1.00  0.00    -0.070 CG0
ATOM      9  C   UNL     1      -3.685  30.505  60.480  1.00  0.00     0.039 C 
ATOM     10  G   UNL     1      -2.599  32.608  59.413  1.00  0.00     0.000 G0
ENDBRANCH   6   7
ENDBRANCH   5   6
ENDBRANCH   3   5
ENDBRANCH   1   3
BRANCH   1  11
ATOM     11  C   UNL     1      -2.010  35.750  61.514  1.00  0.00     0.087 C 
BRANCH  11  12
ATOM     12  C   UNL     1      -2.130  35.145  60.083  1.00  0.00     0.066 C 
BRANCH  12  13
ATOM     13  C   UNL     1      -3.024  33.912  60.084  1.00  0.00     0.140 C 
ATOM     14  O   UNL     1      -4.123  33.972  60.616  1.00  0.00    -0.299 OA
BRANCH  13  15
ATOM     15  C   UNL     1      -2.610  32.617  59.413  1.00  0.00     0.106 CG0
ATOM     16  G   UNL     1      -2.525  31.488  60.426  1.00  0.00     0.000 G0
ENDBRANCH  13  15
ENDBRANCH  12  13
BRANCH  12  17
ATOM     17  C   UNL     1      -2.617  36.172  59.012  1.00  0.00    -0.006 C 
ATOM     18  C   UNL     1      -3.679  37.162  59.525  1.00  0.00     0.008 C 
ATOM     19  C   UNL     1      -1.440  36.943  58.390  1.00  0.00     0.008 C 
ENDBRANCH  12  17
ENDBRANCH  11  12
ENDBRANCH   1  11
TORSDOF 1
ENDMDL
MODEL 9
REMARK VINA RESULT:    -2.576     10.218     12.419
REMARK INTER + INTRA:          -3.719
REMARK INTER:                  -3.618
REMARK INTRA:                  -0.101
REMARK UNBOUND:                 0.211
REMARK SMILES CC1=CCC[C@@H](C)C(=O)C[C@H](C(C)C)C(=O)C1
REMARK SMILES IDX 8 1 9 2 6 3 7 4 5 5 4 6 3 7 2 8 1 9 10 11 11 12 15 13 16 14
REMARK SMILES IDX 17 15 12 17 13 18 14 19
REMARK H PARENT
REMARK Flexibility Score: 70.00
ROOT
ATOM      1  C   UNL     1      -1.139  33.124  62.997  1.00  0.00     0.136 C 
ATOM      2  O   UNL     1      -0.042  33.053  63.533  1.00  0.00    -0.299 OA
ENDROOT
BRANCH   1   3
ATOM      3  C   UNL     1      -1.232  33.188  61.488  1.00  0.00     0.053 C 
ATOM      4  C   UNL     1      -0.216  32.247  60.830  1.00  0.00     0.016 C 
BRANCH   3   5
ATOM      5  C   UNL     1      -1.028  34.653  61.034  1.00  0.00     0.015 C 
BRANCH   5   6
ATOM      6  C   UNL     1      -2.248  35.333  60.382  1.00  0.00     0.028 C 
BRANCH   6   7
ATOM      7  C   UNL     1      -2.758  36.603  61.031  1.00  0.00    -0.028 C 
ATOM      8  C   UNL     1      -3.483  36.701  62.171  1.00  0.00    -0.070 CG0
ATOM      9  C   UNL     1      -3.782  38.085  62.693  1.00  0.00     0.039 C 
ATOM     10  G   UNL     1      -4.083  35.514  62.907  1.00  0.00     0.000 G0
ENDBRANCH   6   7
ENDBRANCH   5   6
ENDBRANCH   3   5
ENDBRANCH   1   3
BRANCH   1  11
ATOM     11  C   UNL     1      -2.377  33.222  63.859  1.00  0.00     0.087 C 
BRANCH  11  12
ATOM     12  C   UNL     1      -2.407  34.523  64.715  1.00  0.00     0.066 C 
BRANCH  12  13
ATOM     13  C   UNL     1      -3.584  35.407  64.326  1.00  0.00     0.140 C 
ATOM     14  O   UNL     1      -4.124  36.094  65.182  1.00  0.00    -0.299 OA
BRANCH  13  15
ATOM     15  C   UNL     1      -4.091  35.493  62.900  1.00  0.00     0.106 CG0
ATOM     16  G   UNL     1      -3.506  36.702  62.190  1.00  0.00     0.000 G0
ENDBRANCH  13  15
ENDBRANCH  12  13
BRANCH  12  17
ATOM     17  C   UNL     1      -2.410  34.256  66.254  1.00  0.00    -0.006 C 
ATOM     18  C   UNL     1      -2.490  32.765  66.635  1.00  0.00     0.008 C 
ATOM     19  C   UNL     1      -1.201  34.908  66.945  1.00  0.00     0.008 C 
ENDBRANCH  12  17
ENDBRANCH  11  12
ENDBRANCH   1  11
TORSDOF 1
ENDMDL
