MODEL 1
REMARK VINA RESULT:    -5.390      0.000      0.000
REMARK INTER + INTRA:          -7.623
REMARK INTER:                  -7.280
REMARK INTRA:                  -0.343
REMARK UNBOUND:                -0.343
REMARK SMILES CCCCCCCC(=O)[O-]
REMARK SMILES IDX 5 1 6 2 7 3 8 4 9 5 10 6 4 7 3 8 2 9 1 10
REMARK H PARENT
REMARK Flexibility Score: inf
ROOT
ATOM      1  C   UNL     1      15.301   8.681 -21.978  1.00  0.00     0.000 C 
ENDROOT
BRANCH   1   2
ATOM      2  C   UNL     1      16.497   9.597 -21.674  1.00  0.00     0.006 C 
BRANCH   2   3
ATOM      3  C   UNL     1      17.457   8.979 -20.649  1.00  0.00     0.053 C 
BRANCH   3   4
ATOM      4  C   UNL     1      17.609   9.848 -19.438  1.00  0.00     0.041 C 
ATOM      5  O   UNL     1      17.560   9.344 -18.285  1.00  0.00    -0.550 OA
ATOM      6  O   UNL     1      17.769  11.221 -19.583  1.00  0.00    -0.550 OA
ENDBRANCH   3   4
ENDBRANCH   2   3
ENDBRANCH   1   2
BRANCH   1   7
ATOM      7  C   UNL     1      15.659   7.209 -21.722  1.00  0.00     0.000 C 
BRANCH   7   8
ATOM      8  C   UNL     1      14.743   6.550 -20.679  1.00  0.00    -0.000 C 
BRANCH   8   9
ATOM      9  C   UNL     1      13.477   7.373 -20.399  1.00  0.00    -0.003 C 
ATOM     10  C   UNL     1      13.131   7.359 -18.912  1.00  0.00     0.004 C 
ENDBRANCH   8   9
ENDBRANCH   7   8
ENDBRANCH   1   7
TORSDOF 6
ENDMDL
MODEL 2
REMARK VINA RESULT:    -5.096      1.049      1.432
REMARK INTER + INTRA:          -7.227
REMARK INTER:                  -6.894
REMARK INTRA:                  -0.332
REMARK UNBOUND:                -0.343
REMARK SMILES CCCCCCCC(=O)[O-]
REMARK SMILES IDX 5 1 6 2 7 3 8 4 9 5 10 6 4 7 3 8 2 9 1 10
REMARK H PARENT
REMARK Flexibility Score: inf
ROOT
ATOM      1  C   UNL     1      16.289   8.755 -21.391  1.00  0.00     0.000 C 
ENDROOT
BRANCH   1   2
ATOM      2  C   UNL     1      17.087   8.577 -20.089  1.00  0.00     0.006 C 
BRANCH   2   3
ATOM      3  C   UNL     1      18.417   9.340 -20.113  1.00  0.00     0.053 C 
BRANCH   3   4
ATOM      4  C   UNL     1      18.217  10.793 -20.418  1.00  0.00     0.041 C 
ATOM      5  O   UNL     1      17.676  11.552 -19.570  1.00  0.00    -0.550 OA
ATOM      6  O   UNL     1      18.597  11.303 -21.654  1.00  0.00    -0.550 OA
ENDBRANCH   3   4
ENDBRANCH   2   3
ENDBRANCH   1   2
BRANCH   1   7
ATOM      7  C   UNL     1      15.590   7.446 -21.789  1.00  0.00     0.000 C 
BRANCH   7   8
ATOM      8  C   UNL     1      14.946   6.730 -20.591  1.00  0.00    -0.000 C 
BRANCH   8   9
ATOM      9  C   UNL     1      13.501   7.184 -20.338  1.00  0.00    -0.003 C 
ATOM     10  C   UNL     1      13.239   7.375 -18.847  1.00  0.00     0.004 C 
ENDBRANCH   8   9
ENDBRANCH   7   8
ENDBRANCH   1   7
TORSDOF 6
ENDMDL
MODEL 3
REMARK VINA RESULT:    -4.904      1.799      2.568
REMARK INTER + INTRA:          -6.968
REMARK INTER:                  -6.744
REMARK INTRA:                  -0.224
REMARK UNBOUND:                -0.343
REMARK SMILES CCCCCCCC(=O)[O-]
REMARK SMILES IDX 5 1 6 2 7 3 8 4 9 5 10 6 4 7 3 8 2 9 1 10
REMARK H PARENT
REMARK Flexibility Score: inf
ROOT
ATOM      1  C   UNL     1      17.466   8.871 -20.384  1.00  0.00     0.000 C 
ENDROOT
BRANCH   1   2
ATOM      2  C   UNL     1      18.207  10.206 -20.209  1.00  0.00     0.006 C 
BRANCH   2   3
ATOM      3  C   UNL     1      17.448  11.379 -20.843  1.00  0.00     0.053 C 
BRANCH   3   4
ATOM      4  C   UNL     1      17.728  12.669 -20.133  1.00  0.00     0.041 C 
ATOM      5  O   UNL     1      18.905  12.964 -19.794  1.00  0.00    -0.550 OA
ATOM      6  O   UNL     1      16.685  13.529 -19.817  1.00  0.00    -0.550 OA
ENDBRANCH   3   4
ENDBRANCH   2   3
ENDBRANCH   1   2
BRANCH   1   7
ATOM      7  C   UNL     1      16.443   8.956 -21.526  1.00  0.00     0.000 C 
BRANCH   7   8
ATOM      8  C   UNL     1      15.725   7.621 -21.779  1.00  0.00    -0.000 C 
BRANCH   8   9
ATOM      9  C   UNL     1      14.645   7.323 -20.729  1.00  0.00    -0.003 C 
ATOM     10  C   UNL     1      14.512   5.822 -20.489  1.00  0.00     0.004 C 
ENDBRANCH   8   9
ENDBRANCH   7   8
ENDBRANCH   1   7
TORSDOF 6
ENDMDL
MODEL 4
REMARK VINA RESULT:    -4.434      2.562      4.698
REMARK INTER + INTRA:          -6.332
REMARK INTER:                  -6.119
REMARK INTRA:                  -0.212
REMARK UNBOUND:                -0.343
REMARK SMILES CCCCCCCC(=O)[O-]
REMARK SMILES IDX 5 1 6 2 7 3 8 4 9 5 10 6 4 7 3 8 2 9 1 10
REMARK H PARENT
REMARK Flexibility Score: inf
ROOT
ATOM      1  C   UNL     1      16.390   8.433 -21.346  1.00  0.00     0.000 C 
ENDROOT
BRANCH   1   2
ATOM      2  C   UNL     1      15.316   7.382 -21.663  1.00  0.00     0.006 C 
BRANCH   2   3
ATOM      3  C   UNL     1      14.808   6.671 -20.402  1.00  0.00     0.053 C 
BRANCH   3   4
ATOM      4  C   UNL     1      13.566   7.315 -19.865  1.00  0.00     0.041 C 
ATOM      5  O   UNL     1      12.781   7.924 -20.639  1.00  0.00    -0.550 OA
ATOM      6  O   UNL     1      13.292   7.270 -18.504  1.00  0.00    -0.550 OA
ENDBRANCH   3   4
ENDBRANCH   2   3
ENDBRANCH   1   2
BRANCH   1   7
ATOM      7  C   UNL     1      16.836   8.337 -19.879  1.00  0.00     0.000 C 
BRANCH   7   8
ATOM      8  C   UNL     1      17.730   9.513 -19.453  1.00  0.00    -0.000 C 
BRANCH   8   9
ATOM      9  C   UNL     1      18.000  10.496 -20.601  1.00  0.00    -0.003 C 
ATOM     10  C   UNL     1      19.489  10.556 -20.933  1.00  0.00     0.004 C 
ENDBRANCH   8   9
ENDBRANCH   7   8
ENDBRANCH   1   7
TORSDOF 6
ENDMDL
MODEL 5
REMARK VINA RESULT:    -4.369      1.971      2.965
REMARK INTER + INTRA:          -6.244
REMARK INTER:                  -6.013
REMARK INTRA:                  -0.231
REMARK UNBOUND:                -0.343
REMARK SMILES CCCCCCCC(=O)[O-]
REMARK SMILES IDX 5 1 6 2 7 3 8 4 9 5 10 6 4 7 3 8 2 9 1 10
REMARK H PARENT
REMARK Flexibility Score: inf
ROOT
ATOM      1  C   UNL     1      17.755   9.957 -19.892  1.00  0.00     0.000 C 
ENDROOT
BRANCH   1   2
ATOM      2  C   UNL     1      18.690  10.785 -20.788  1.00  0.00     0.006 C 
BRANCH   2   3
ATOM      3  C   UNL     1      18.035  12.086 -21.268  1.00  0.00     0.053 C 
BRANCH   3   4
ATOM      4  C   UNL     1      17.860  13.065 -20.147  1.00  0.00     0.041 C 
ATOM      5  O   UNL     1      16.710  13.468 -19.829  1.00  0.00    -0.550 OA
ATOM      6  O   UNL     1      18.972  13.558 -19.475  1.00  0.00    -0.550 OA
ENDBRANCH   3   4
ENDBRANCH   2   3
ENDBRANCH   1   2
BRANCH   1   7
ATOM      7  C   UNL     1      17.461   8.588 -20.523  1.00  0.00     0.000 C 
BRANCH   7   8
ATOM      8  C   UNL     1      16.086   8.534 -21.208  1.00  0.00    -0.000 C 
BRANCH   8   9
ATOM      9  C   UNL     1      15.444   7.142 -21.135  1.00  0.00    -0.003 C 
ATOM     10  C   UNL     1      14.035   7.217 -20.552  1.00  0.00     0.004 C 
ENDBRANCH   8   9
ENDBRANCH   7   8
ENDBRANCH   1   7
TORSDOF 6
ENDMDL
MODEL 6
REMARK VINA RESULT:    -4.280      2.564      4.301
REMARK INTER + INTRA:          -6.125
REMARK INTER:                  -5.807
REMARK INTRA:                  -0.318
REMARK UNBOUND:                -0.343
REMARK SMILES CCCCCCCC(=O)[O-]
REMARK SMILES IDX 5 1 6 2 7 3 8 4 9 5 10 6 4 7 3 8 2 9 1 10
REMARK H PARENT
REMARK Flexibility Score: inf
ROOT
ATOM      1  C   UNL     1      16.330   9.827 -21.994  1.00  0.00     0.000 C 
ENDROOT
BRANCH   1   2
ATOM      2  C   UNL     1      15.219   8.804 -22.280  1.00  0.00     0.006 C 
BRANCH   2   3
ATOM      3  C   UNL     1      15.558   7.410 -21.738  1.00  0.00     0.053 C 
BRANCH   3   4
ATOM      4  C   UNL     1      14.504   6.909 -20.798  1.00  0.00     0.041 C 
ATOM      5  O   UNL     1      13.457   7.582 -20.601  1.00  0.00    -0.550 OA
ATOM      6  O   UNL     1      14.693   5.715 -20.113  1.00  0.00    -0.550 OA
ENDBRANCH   3   4
ENDBRANCH   2   3
ENDBRANCH   1   2
BRANCH   1   7
ATOM      7  C   UNL     1      17.443   9.203 -21.138  1.00  0.00     0.000 C 
BRANCH   7   8
ATOM      8  C   UNL     1      17.721  10.001 -19.855  1.00  0.00    -0.000 C 
BRANCH   8   9
ATOM      9  C   UNL     1      17.613   9.141 -18.588  1.00  0.00    -0.003 C 
ATOM     10  C   UNL     1      18.911   8.382 -18.326  1.00  0.00     0.004 C 
ENDBRANCH   8   9
ENDBRANCH   7   8
ENDBRANCH   1   7
TORSDOF 6
ENDMDL
MODEL 7
REMARK VINA RESULT:    -4.156      2.404      3.252
REMARK INTER + INTRA:          -5.957
REMARK INTER:                  -5.691
REMARK INTRA:                  -0.267
REMARK UNBOUND:                -0.343
REMARK SMILES CCCCCCCC(=O)[O-]
REMARK SMILES IDX 5 1 6 2 7 3 8 4 9 5 10 6 4 7 3 8 2 9 1 10
REMARK H PARENT
REMARK Flexibility Score: inf
ROOT
ATOM      1  C   UNL     1      17.577   9.468 -19.396  1.00  0.00     0.000 C 
ENDROOT
BRANCH   1   2
ATOM      2  C   UNL     1      18.529   9.876 -20.532  1.00  0.00     0.006 C 
BRANCH   2   3
ATOM      3  C   UNL     1      18.256  11.298 -21.037  1.00  0.00     0.053 C 
BRANCH   3   4
ATOM      4  C   UNL     1      18.453  11.407 -22.519  1.00  0.00     0.041 C 
ATOM      5  O   UNL     1      19.466  11.993 -22.984  1.00  0.00    -0.550 OA
ATOM      6  O   UNL     1      17.499  10.889 -23.386  1.00  0.00    -0.550 OA
ENDBRANCH   3   4
ENDBRANCH   2   3
ENDBRANCH   1   2
BRANCH   1   7
ATOM      7  C   UNL     1      16.726   8.255 -19.803  1.00  0.00     0.000 C 
BRANCH   7   8
ATOM      8  C   UNL     1      16.318   8.288 -21.285  1.00  0.00    -0.000 C 
BRANCH   8   9
ATOM      9  C   UNL     1      14.965   7.608 -21.541  1.00  0.00    -0.003 C 
ATOM     10  C   UNL     1      14.747   6.442 -20.581  1.00  0.00     0.004 C 
ENDBRANCH   8   9
ENDBRANCH   7   8
ENDBRANCH   1   7
TORSDOF 6
ENDMDL
MODEL 8
REMARK VINA RESULT:    -4.153      2.750      5.040
REMARK INTER + INTRA:          -5.952
REMARK INTER:                  -5.638
REMARK INTRA:                  -0.314
REMARK UNBOUND:                -0.343
REMARK SMILES CCCCCCCC(=O)[O-]
REMARK SMILES IDX 5 1 6 2 7 3 8 4 9 5 10 6 4 7 3 8 2 9 1 10
REMARK H PARENT
REMARK Flexibility Score: inf
ROOT
ATOM      1  C   UNL     1      17.378   8.660 -20.607  1.00  0.00     0.000 C 
ENDROOT
BRANCH   1   2
ATOM      2  C   UNL     1      16.137   8.793 -21.504  1.00  0.00     0.006 C 
BRANCH   2   3
ATOM      3  C   UNL     1      15.529   7.431 -21.861  1.00  0.00     0.053 C 
BRANCH   3   4
ATOM      4  C   UNL     1      14.600   6.941 -20.793  1.00  0.00     0.041 C 
ATOM      5  O   UNL     1      14.896   5.926 -20.109  1.00  0.00    -0.550 OA
ATOM      6  O   UNL     1      13.389   7.588 -20.575  1.00  0.00    -0.550 OA
ENDBRANCH   3   4
ENDBRANCH   2   3
ENDBRANCH   1   2
BRANCH   1   7
ATOM      7  C   UNL     1      18.008  10.035 -20.335  1.00  0.00     0.000 C 
BRANCH   7   8
ATOM      8  C   UNL     1      17.601  11.089 -21.376  1.00  0.00    -0.000 C 
BRANCH   8   9
ATOM      9  C   UNL     1      18.804  11.663 -22.138  1.00  0.00    -0.003 C 
ATOM     10  C   UNL     1      18.572  11.616 -23.645  1.00  0.00     0.004 C 
ENDBRANCH   8   9
ENDBRANCH   7   8
ENDBRANCH   1   7
TORSDOF 6
ENDMDL
MODEL 9
REMARK VINA RESULT:    -4.093     15.780     16.996
REMARK INTER + INTRA:          -5.872
REMARK INTER:                  -5.661
REMARK INTRA:                  -0.211
REMARK UNBOUND:                -0.343
REMARK SMILES CCCCCCCC(=O)[O-]
REMARK SMILES IDX 5 1 6 2 7 3 8 4 9 5 10 6 4 7 3 8 2 9 1 10
REMARK H PARENT
REMARK Flexibility Score: inf
ROOT
ATOM      1  C   UNL     1       6.249  -2.064 -28.084  1.00  0.00     0.000 C 
ENDROOT
BRANCH   1   2
ATOM      2  C   UNL     1       5.767  -0.716 -28.644  1.00  0.00     0.006 C 
BRANCH   2   3
ATOM      3  C   UNL     1       4.269  -0.489 -28.405  1.00  0.00     0.053 C 
BRANCH   3   4
ATOM      4  C   UNL     1       3.435  -1.113 -29.482  1.00  0.00     0.041 C 
ATOM      5  O   UNL     1       2.208  -1.326 -29.293  1.00  0.00    -0.550 OA
ATOM      6  O   UNL     1       4.021  -1.490 -30.684  1.00  0.00    -0.550 OA
ENDBRANCH   3   4
ENDBRANCH   2   3
ENDBRANCH   1   2
BRANCH   1   7
ATOM      7  C   UNL     1       7.783  -2.139 -28.078  1.00  0.00     0.000 C 
BRANCH   7   8
ATOM      8  C   UNL     1       8.318  -3.243 -27.152  1.00  0.00    -0.000 C 
BRANCH   8   9
ATOM      9  C   UNL     1       8.742  -2.708 -25.777  1.00  0.00    -0.003 C 
ATOM     10  C   UNL     1       7.727  -3.088 -24.703  1.00  0.00     0.004 C 
ENDBRANCH   8   9
ENDBRANCH   7   8
ENDBRANCH   1   7
TORSDOF 6
ENDMDL
