MODEL 1
REMARK VINA RESULT:    -5.243      0.000      0.000
REMARK INTER + INTRA:          -5.644
REMARK INTER:                  -5.549
REMARK INTRA:                  -0.095
REMARK UNBOUND:                -0.095
REMARK SMILES C=C(C)[C@@H]1CC=C(C)C(=O)C1
REMARK SMILES IDX 8 1 7 2 6 3 5 4 4 5 11 6 9 7 10 8 2 9 1 10 3 11
REMARK H PARENT
REMARK Flexibility Score: inf
ROOT
ATOM      1  C   UNL     1     -16.468   6.505  27.943  1.00  0.00     0.048 C 
ATOM      2  C   UNL     1     -15.156   6.308  27.236  1.00  0.00    -0.012 C 
ATOM      3  C   UNL     1     -14.427   5.201  27.462  1.00  0.00    -0.019 C 
ATOM      4  C   UNL     1     -13.147   4.921  26.720  1.00  0.00     0.036 C 
ATOM      5  C   UNL     1     -12.430   6.229  26.332  1.00  0.00     0.025 C 
ATOM      6  C   UNL     1     -13.380   7.142  25.535  1.00  0.00     0.089 C 
ATOM      7  C   UNL     1     -14.680   7.329  26.270  1.00  0.00     0.158 C 
ATOM      8  O   UNL     1     -15.386   8.342  26.022  1.00  0.00    -0.295 OA
ENDROOT
BRANCH   5   9
ATOM      9  C   UNL     1     -11.140   5.959  25.570  1.00  0.00    -0.077 C 
ATOM     10  C   UNL     1     -10.321   4.950  25.915  1.00  0.00     0.008 C 
ATOM     11  C   UNL     1     -10.757   6.831  24.401  1.00  0.00     0.039 C 
ENDBRANCH   5   9
TORSDOF 1
ENDMDL
MODEL 2
REMARK VINA RESULT:    -5.077      1.932      4.353
REMARK INTER + INTRA:          -5.469
REMARK INTER:                  -5.377
REMARK INTRA:                  -0.092
REMARK UNBOUND:                -0.095
REMARK SMILES C=C(C)[C@@H]1CC=C(C)C(=O)C1
REMARK SMILES IDX 8 1 7 2 6 3 5 4 4 5 11 6 9 7 10 8 2 9 1 10 3 11
REMARK H PARENT
REMARK Flexibility Score: inf
ROOT
ATOM      1  C   UNL     1      -9.699   4.589  25.294  1.00  0.00     0.048 C 
ATOM      2  C   UNL     1     -10.913   5.413  25.621  1.00  0.00    -0.012 C 
ATOM      3  C   UNL     1     -11.703   5.071  26.653  1.00  0.00    -0.019 C 
ATOM      4  C   UNL     1     -12.883   5.909  27.070  1.00  0.00     0.036 C 
ATOM      5  C   UNL     1     -13.496   6.645  25.863  1.00  0.00     0.025 C 
ATOM      6  C   UNL     1     -12.418   7.473  25.138  1.00  0.00     0.089 C 
ATOM      7  C   UNL     1     -11.221   6.621  24.816  1.00  0.00     0.158 C 
ATOM      8  O   UNL     1     -10.454   6.968  23.879  1.00  0.00    -0.295 OA
ENDROOT
BRANCH   5   9
ATOM      9  C   UNL     1     -14.683   7.506  26.274  1.00  0.00    -0.077 C 
ATOM     10  C   UNL     1     -15.838   6.956  26.687  1.00  0.00     0.008 C 
ATOM     11  C   UNL     1     -14.579   9.009  26.222  1.00  0.00     0.039 C 
ENDBRANCH   5   9
TORSDOF 1
ENDMDL
MODEL 3
REMARK VINA RESULT:    -5.024      1.933      4.438
REMARK INTER + INTRA:          -5.412
REMARK INTER:                  -5.315
REMARK INTRA:                  -0.097
REMARK UNBOUND:                -0.095
REMARK SMILES C=C(C)[C@@H]1CC=C(C)C(=O)C1
REMARK SMILES IDX 8 1 7 2 6 3 5 4 4 5 11 6 9 7 10 8 2 9 1 10 3 11
REMARK H PARENT
REMARK Flexibility Score: inf
ROOT
ATOM      1  C   UNL     1     -10.314   4.567  25.972  1.00  0.00     0.048 C 
ATOM      2  C   UNL     1     -11.535   5.444  25.950  1.00  0.00    -0.012 C 
ATOM      3  C   UNL     1     -11.487   6.654  25.365  1.00  0.00    -0.019 C 
ATOM      4  C   UNL     1     -12.703   7.534  25.247  1.00  0.00     0.036 C 
ATOM      5  C   UNL     1     -13.674   7.303  26.421  1.00  0.00     0.025 C 
ATOM      6  C   UNL     1     -14.041   5.810  26.524  1.00  0.00     0.089 C 
ATOM      7  C   UNL     1     -12.801   4.959  26.554  1.00  0.00     0.158 C 
ATOM      8  O   UNL     1     -12.859   3.806  27.059  1.00  0.00    -0.295 OA
ENDROOT
BRANCH   5   9
ATOM      9  C   UNL     1     -14.915   8.179  26.306  1.00  0.00    -0.077 C 
ATOM     10  C   UNL     1     -16.149   7.665  26.441  1.00  0.00     0.008 C 
ATOM     11  C   UNL     1     -14.773   9.655  26.035  1.00  0.00     0.039 C 
ENDBRANCH   5   9
TORSDOF 1
ENDMDL
MODEL 4
REMARK VINA RESULT:    -4.955      1.880      4.649
REMARK INTER + INTRA:          -5.339
REMARK INTER:                  -5.244
REMARK INTRA:                  -0.095
REMARK UNBOUND:                -0.095
REMARK SMILES C=C(C)[C@@H]1CC=C(C)C(=O)C1
REMARK SMILES IDX 8 1 7 2 6 3 5 4 4 5 11 6 9 7 10 8 2 9 1 10 3 11
REMARK H PARENT
REMARK Flexibility Score: inf
ROOT
ATOM      1  C   UNL     1     -10.491   4.918  26.007  1.00  0.00     0.048 C 
ATOM      2  C   UNL     1     -11.856   5.548  26.033  1.00  0.00    -0.012 C 
ATOM      3  C   UNL     1     -12.042   6.779  25.525  1.00  0.00    -0.019 C 
ATOM      4  C   UNL     1     -13.403   7.419  25.456  1.00  0.00     0.036 C 
ATOM      5  C   UNL     1     -14.305   6.935  26.609  1.00  0.00     0.025 C 
ATOM      6  C   UNL     1     -14.382   5.397  26.617  1.00  0.00     0.089 C 
ATOM      7  C   UNL     1     -13.003   4.796  26.600  1.00  0.00     0.158 C 
ATOM      8  O   UNL     1     -12.838   3.624  27.032  1.00  0.00    -0.295 OA
ENDROOT
BRANCH   5   9
ATOM      9  C   UNL     1     -15.689   7.566  26.543  1.00  0.00    -0.077 C 
ATOM     10  C   UNL     1     -15.879   8.784  26.006  1.00  0.00     0.008 C 
ATOM     11  C   UNL     1     -16.884   6.824  27.086  1.00  0.00     0.039 C 
ENDBRANCH   5   9
TORSDOF 1
ENDMDL
MODEL 5
REMARK VINA RESULT:    -4.867      1.425      2.318
REMARK INTER + INTRA:          -5.246
REMARK INTER:                  -5.151
REMARK INTRA:                  -0.095
REMARK UNBOUND:                -0.095
REMARK SMILES C=C(C)[C@@H]1CC=C(C)C(=O)C1
REMARK SMILES IDX 8 1 7 2 6 3 5 4 4 5 11 6 9 7 10 8 2 9 1 10 3 11
REMARK H PARENT
REMARK Flexibility Score: inf
ROOT
ATOM      1  C   UNL     1     -16.757   6.501  27.599  1.00  0.00     0.048 C 
ATOM      2  C   UNL     1     -15.328   6.451  27.135  1.00  0.00    -0.012 C 
ATOM      3  C   UNL     1     -14.830   7.443  26.376  1.00  0.00    -0.019 C 
ATOM      4  C   UNL     1     -13.384   7.478  25.953  1.00  0.00     0.036 C 
ATOM      5  C   UNL     1     -12.813   6.055  25.803  1.00  0.00     0.025 C 
ATOM      6  C   UNL     1     -13.023   5.256  27.103  1.00  0.00     0.089 C 
ATOM      7  C   UNL     1     -14.462   5.316  27.537  1.00  0.00     0.158 C 
ATOM      8  O   UNL     1     -14.916   4.411  28.288  1.00  0.00    -0.295 OA
ENDROOT
BRANCH   5   9
ATOM      9  C   UNL     1     -11.348   6.078  25.388  1.00  0.00    -0.077 C 
ATOM     10  C   UNL     1     -10.885   6.977  24.503  1.00  0.00     0.008 C 
ATOM     11  C   UNL     1     -10.383   5.078  25.972  1.00  0.00     0.039 C 
ENDBRANCH   5   9
TORSDOF 1
ENDMDL
MODEL 6
REMARK VINA RESULT:    -4.816      2.065      4.691
REMARK INTER + INTRA:          -5.192
REMARK INTER:                  -5.097
REMARK INTRA:                  -0.095
REMARK UNBOUND:                -0.095
REMARK SMILES C=C(C)[C@@H]1CC=C(C)C(=O)C1
REMARK SMILES IDX 8 1 7 2 6 3 5 4 4 5 11 6 9 7 10 8 2 9 1 10 3 11
REMARK H PARENT
REMARK Flexibility Score: inf
ROOT
ATOM      1  C   UNL     1     -10.460   7.081  24.062  1.00  0.00     0.048 C 
ATOM      2  C   UNL     1     -11.571   6.593  24.951  1.00  0.00    -0.012 C 
ATOM      3  C   UNL     1     -12.782   7.175  24.898  1.00  0.00    -0.019 C 
ATOM      4  C   UNL     1     -13.947   6.671  25.709  1.00  0.00     0.036 C 
ATOM      5  C   UNL     1     -13.473   6.037  27.030  1.00  0.00     0.025 C 
ATOM      6  C   UNL     1     -12.435   4.934  26.751  1.00  0.00     0.089 C 
ATOM      7  C   UNL     1     -11.332   5.452  25.868  1.00  0.00     0.158 C 
ATOM      8  O   UNL     1     -10.211   4.877  25.883  1.00  0.00    -0.295 OA
ENDROOT
BRANCH   5   9
ATOM      9  C   UNL     1     -14.642   5.512  27.854  1.00  0.00    -0.077 C 
ATOM     10  C   UNL     1     -15.825   6.149  27.874  1.00  0.00     0.008 C 
ATOM     11  C   UNL     1     -14.486   4.254  28.669  1.00  0.00     0.039 C 
ENDBRANCH   5   9
TORSDOF 1
ENDMDL
MODEL 7
REMARK VINA RESULT:    -4.778      1.602      4.372
REMARK INTER + INTRA:          -5.152
REMARK INTER:                  -5.055
REMARK INTRA:                  -0.097
REMARK UNBOUND:                -0.095
REMARK SMILES C=C(C)[C@@H]1CC=C(C)C(=O)C1
REMARK SMILES IDX 8 1 7 2 6 3 5 4 4 5 11 6 9 7 10 8 2 9 1 10 3 11
REMARK H PARENT
REMARK Flexibility Score: inf
ROOT
ATOM      1  C   UNL     1     -10.513   5.066  25.774  1.00  0.00     0.048 C 
ATOM      2  C   UNL     1     -11.857   5.678  26.056  1.00  0.00    -0.012 C 
ATOM      3  C   UNL     1     -12.619   5.204  27.057  1.00  0.00    -0.019 C 
ATOM      4  C   UNL     1     -13.935   5.834  27.429  1.00  0.00     0.036 C 
ATOM      5  C   UNL     1     -14.615   6.469  26.200  1.00  0.00     0.025 C 
ATOM      6  C   UNL     1     -13.661   7.467  25.518  1.00  0.00     0.089 C 
ATOM      7  C   UNL     1     -12.329   6.825  25.241  1.00  0.00     0.158 C 
ATOM      8  O   UNL     1     -11.595   7.300  24.334  1.00  0.00    -0.295 OA
ENDROOT
BRANCH   5   9
ATOM      9  C   UNL     1     -15.942   7.121  26.566  1.00  0.00    -0.077 C 
ATOM     10  C   UNL     1     -16.245   8.366  26.161  1.00  0.00     0.008 C 
ATOM     11  C   UNL     1     -16.948   6.369  27.399  1.00  0.00     0.039 C 
ENDBRANCH   5   9
TORSDOF 1
ENDMDL
MODEL 8
REMARK VINA RESULT:    -4.394      2.040      2.858
REMARK INTER + INTRA:          -4.745
REMARK INTER:                  -4.650
REMARK INTRA:                  -0.096
REMARK UNBOUND:                -0.095
REMARK SMILES C=C(C)[C@@H]1CC=C(C)C(=O)C1
REMARK SMILES IDX 8 1 7 2 6 3 5 4 4 5 11 6 9 7 10 8 2 9 1 10 3 11
REMARK H PARENT
REMARK Flexibility Score: inf
ROOT
ATOM      1  C   UNL     1     -16.046   2.926  29.766  1.00  0.00     0.048 C 
ATOM      2  C   UNL     1     -15.254   3.714  28.760  1.00  0.00    -0.012 C 
ATOM      3  C   UNL     1     -14.304   3.109  28.026  1.00  0.00    -0.019 C 
ATOM      4  C   UNL     1     -13.540   3.836  26.951  1.00  0.00     0.036 C 
ATOM      5  C   UNL     1     -13.394   5.333  27.287  1.00  0.00     0.025 C 
ATOM      6  C   UNL     1     -14.777   5.959  27.547  1.00  0.00     0.089 C 
ATOM      7  C   UNL     1     -15.542   5.156  28.563  1.00  0.00     0.158 C 
ATOM      8  O   UNL     1     -16.465   5.711  29.216  1.00  0.00    -0.295 OA
ENDROOT
BRANCH   5   9
ATOM      9  C   UNL     1     -12.633   6.082  26.201  1.00  0.00    -0.077 C 
ATOM     10  C   UNL     1     -13.247   6.976  25.407  1.00  0.00     0.008 C 
ATOM     11  C   UNL     1     -11.162   5.827  25.998  1.00  0.00     0.039 C 
ENDBRANCH   5   9
TORSDOF 1
ENDMDL
MODEL 9
REMARK VINA RESULT:    -4.340      1.847      4.346
REMARK INTER + INTRA:          -4.688
REMARK INTER:                  -4.594
REMARK INTRA:                  -0.094
REMARK UNBOUND:                -0.095
REMARK SMILES C=C(C)[C@@H]1CC=C(C)C(=O)C1
REMARK SMILES IDX 8 1 7 2 6 3 5 4 4 5 11 6 9 7 10 8 2 9 1 10 3 11
REMARK H PARENT
REMARK Flexibility Score: inf
ROOT
ATOM      1  C   UNL     1     -11.098   6.349  25.846  1.00  0.00     0.048 C 
ATOM      2  C   UNL     1     -12.420   5.714  26.179  1.00  0.00    -0.012 C 
ATOM      3  C   UNL     1     -12.464   4.459  26.659  1.00  0.00    -0.019 C 
ATOM      4  C   UNL     1     -13.755   3.809  27.082  1.00  0.00     0.036 C 
ATOM      5  C   UNL     1     -14.943   4.344  26.259  1.00  0.00     0.025 C 
ATOM      6  C   UNL     1     -15.005   5.880  26.347  1.00  0.00     0.089 C 
ATOM      7  C   UNL     1     -13.673   6.487  26.000  1.00  0.00     0.158 C 
ATOM      8  O   UNL     1     -13.628   7.680  25.597  1.00  0.00    -0.295 OA
ENDROOT
BRANCH   5   9
ATOM      9  C   UNL     1     -16.257   3.703  26.686  1.00  0.00    -0.077 C 
ATOM     10  C   UNL     1     -17.021   4.249  27.648  1.00  0.00     0.008 C 
ATOM     11  C   UNL     1     -16.726   2.432  26.027  1.00  0.00     0.039 C 
ENDBRANCH   5   9
TORSDOF 1
ENDMDL
