MODEL 1
REMARK VINA RESULT:    -4.672      0.000      0.000
REMARK INTER + INTRA:         -13.140
REMARK INTER:                 -10.135
REMARK INTRA:                  -3.005
REMARK UNBOUND:                -3.005
REMARK SMILES CCCCCCCCCCCCCCCCCCCCCC(=O)[O-]
REMARK SMILES IDX 12 1 11 2 10 3 9 4 8 5 7 6 6 7 5 8 4 9 3 10 2 11 1 12 13 13
REMARK SMILES IDX 14 14 15 15 16 16 17 17 18 18 19 19 20 20 21 21 22 22 23 23
REMARK SMILES IDX 24 24
REMARK H PARENT
REMARK Flexibility Score: inf
ROOT
ATOM      1  C   UNL     1       3.494  21.501  52.511  1.00  0.00     0.000 C 
ENDROOT
BRANCH   1   2
ATOM      2  C   UNL     1       2.000  21.848  52.372  1.00  0.00     0.000 C 
BRANCH   2   3
ATOM      3  C   UNL     1       1.662  22.443  50.995  1.00  0.00     0.000 C 
BRANCH   3   4
ATOM      4  C   UNL     1       0.813  23.724  51.096  1.00  0.00    -0.000 C 
BRANCH   4   5
ATOM      5  C   UNL     1       1.183  24.757  50.011  1.00  0.00    -0.000 C 
BRANCH   5   6
ATOM      6  C   UNL     1       2.060  24.184  48.885  1.00  0.00    -0.000 C 
BRANCH   6   7
ATOM      7  C   UNL     1       1.902  24.939  47.559  1.00  0.00    -0.000 C 
BRANCH   7   8
ATOM      8  C   UNL     1       1.372  24.012  46.453  1.00  0.00    -0.000 C 
BRANCH   8   9
ATOM      9  C   UNL     1       2.400  22.934  46.051  1.00  0.00    -0.000 C 
BRANCH   9  10
ATOM     10  C   UNL     1       2.356  22.550  44.558  1.00  0.00    -0.000 C 
BRANCH  10  11
ATOM     11  C   UNL     1       3.589  23.002  43.749  1.00  0.00    -0.003 C 
ATOM     12  C   UNL     1       3.483  24.450  43.270  1.00  0.00     0.004 C 
ENDBRANCH  10  11
ENDBRANCH   9  10
ENDBRANCH   8   9
ENDBRANCH   7   8
ENDBRANCH   6   7
ENDBRANCH   5   6
ENDBRANCH   4   5
ENDBRANCH   3   4
ENDBRANCH   2   3
ENDBRANCH   1   2
BRANCH   1  13
ATOM     13  C   UNL     1       4.390  22.340  51.586  1.00  0.00     0.000 C 
BRANCH  13  14
ATOM     14  C   UNL     1       5.114  23.479  52.330  1.00  0.00     0.000 C 
BRANCH  14  15
ATOM     15  C   UNL     1       4.569  24.865  51.948  1.00  0.00     0.000 C 
BRANCH  15  16
ATOM     16  C   UNL     1       3.516  25.376  52.943  1.00  0.00     0.000 C 
BRANCH  16  17
ATOM     17  C   UNL     1       3.822  24.889  54.365  1.00  0.00     0.000 C 
BRANCH  17  18
ATOM     18  C   UNL     1       2.565  24.308  55.033  1.00  0.00     0.000 C 
BRANCH  18  19
ATOM     19  C   UNL     1       1.287  25.099  54.673  1.00  0.00     0.000 C 
BRANCH  19  20
ATOM     20  C   UNL     1       0.015  24.230  54.620  1.00  0.00     0.006 C 
BRANCH  20  21
ATOM     21  C   UNL     1      -1.292  25.015  54.820  1.00  0.00     0.053 C 
BRANCH  21  22
ATOM     22  C   UNL     1      -1.902  24.767  56.166  1.00  0.00     0.041 C 
ATOM     23  O   UNL     1      -2.507  25.694  56.771  1.00  0.00    -0.550 OA
ATOM     24  O   UNL     1      -1.799  23.515  56.758  1.00  0.00    -0.550 OA
ENDBRANCH  21  22
ENDBRANCH  20  21
ENDBRANCH  19  20
ENDBRANCH  18  19
ENDBRANCH  17  18
ENDBRANCH  16  17
ENDBRANCH  15  16
ENDBRANCH  14  15
ENDBRANCH  13  14
ENDBRANCH   1  13
TORSDOF 20
ENDMDL
MODEL 2
REMARK VINA RESULT:    -4.600      4.313      6.496
REMARK INTER + INTRA:         -12.984
REMARK INTER:                  -9.904
REMARK INTRA:                  -3.080
REMARK UNBOUND:                -3.005
REMARK SMILES CCCCCCCCCCCCCCCCCCCCCC(=O)[O-]
REMARK SMILES IDX 12 1 11 2 10 3 9 4 8 5 7 6 6 7 5 8 4 9 3 10 2 11 1 12 13 13
REMARK SMILES IDX 14 14 15 15 16 16 17 17 18 18 19 19 20 20 21 21 22 22 23 23
REMARK SMILES IDX 24 24
REMARK H PARENT
REMARK Flexibility Score: inf
ROOT
ATOM      1  C   UNL     1      -1.239  25.776  55.270  1.00  0.00     0.000 C 
ENDROOT
BRANCH   1   2
ATOM      2  C   UNL     1      -0.329  25.862  54.032  1.00  0.00     0.000 C 
BRANCH   2   3
ATOM      3  C   UNL     1      -0.176  24.508  53.321  1.00  0.00     0.000 C 
BRANCH   3   4
ATOM      4  C   UNL     1       1.151  24.392  52.547  1.00  0.00    -0.000 C 
BRANCH   4   5
ATOM      5  C   UNL     1       1.004  23.557  51.257  1.00  0.00    -0.000 C 
BRANCH   5   6
ATOM      6  C   UNL     1       1.712  22.194  51.320  1.00  0.00    -0.000 C 
BRANCH   6   7
ATOM      7  C   UNL     1       2.265  21.869  52.714  1.00  0.00    -0.000 C 
BRANCH   7   8
ATOM      8  C   UNL     1       3.764  21.535  52.650  1.00  0.00    -0.000 C 
BRANCH   8   9
ATOM      9  C   UNL     1       4.635  22.789  52.424  1.00  0.00    -0.000 C 
BRANCH   9  10
ATOM     10  C   UNL     1       5.147  22.945  50.978  1.00  0.00    -0.000 C 
BRANCH  10  11
ATOM     11  C   UNL     1       6.483  23.706  50.854  1.00  0.00    -0.003 C 
ATOM     12  C   UNL     1       6.303  25.224  50.879  1.00  0.00     0.004 C 
ENDBRANCH  10  11
ENDBRANCH   9  10
ENDBRANCH   8   9
ENDBRANCH   7   8
ENDBRANCH   6   7
ENDBRANCH   5   6
ENDBRANCH   4   5
ENDBRANCH   3   4
ENDBRANCH   2   3
ENDBRANCH   1   2
BRANCH   1  13
ATOM     13  C   UNL     1      -2.092  24.497  55.295  1.00  0.00     0.000 C 
BRANCH  13  14
ATOM     14  C   UNL     1      -2.037  23.770  56.653  1.00  0.00     0.000 C 
BRANCH  14  15
ATOM     15  C   UNL     1      -0.720  24.031  57.401  1.00  0.00     0.000 C 
BRANCH  15  16
ATOM     16  C   UNL     1       0.176  22.785  57.467  1.00  0.00     0.000 C 
BRANCH  16  17
ATOM     17  C   UNL     1       1.132  22.732  56.269  1.00  0.00     0.000 C 
BRANCH  17  18
ATOM     18  C   UNL     1       1.985  24.009  56.185  1.00  0.00     0.000 C 
BRANCH  18  19
ATOM     19  C   UNL     1       3.438  23.719  55.750  1.00  0.00     0.000 C 
BRANCH  19  20
ATOM     20  C   UNL     1       4.238  22.891  56.776  1.00  0.00     0.006 C 
BRANCH  20  21
ATOM     21  C   UNL     1       5.069  21.754  56.158  1.00  0.00     0.053 C 
BRANCH  21  22
ATOM     22  C   UNL     1       6.404  21.603  56.821  1.00  0.00     0.041 C 
ATOM     23  O   UNL     1       7.039  20.517  56.732  1.00  0.00    -0.550 OA
ATOM     24  O   UNL     1       6.947  22.658  57.544  1.00  0.00    -0.550 OA
ENDBRANCH  21  22
ENDBRANCH  20  21
ENDBRANCH  19  20
ENDBRANCH  18  19
ENDBRANCH  17  18
ENDBRANCH  16  17
ENDBRANCH  15  16
ENDBRANCH  14  15
ENDBRANCH  13  14
ENDBRANCH   1  13
TORSDOF 20
ENDMDL
MODEL 3
REMARK VINA RESULT:    -4.597      1.394      2.183
REMARK INTER + INTRA:         -12.977
REMARK INTER:                 -10.283
REMARK INTRA:                  -2.695
REMARK UNBOUND:                -3.005
REMARK SMILES CCCCCCCCCCCCCCCCCCCCCC(=O)[O-]
REMARK SMILES IDX 12 1 11 2 10 3 9 4 8 5 7 6 6 7 5 8 4 9 3 10 2 11 1 12 13 13
REMARK SMILES IDX 14 14 15 15 16 16 17 17 18 18 19 19 20 20 21 21 22 22 23 23
REMARK SMILES IDX 24 24
REMARK H PARENT
REMARK Flexibility Score: inf
ROOT
ATOM      1  C   UNL     1       3.159  21.543  51.695  1.00  0.00     0.000 C 
ENDROOT
BRANCH   1   2
ATOM      2  C   UNL     1       1.961  22.158  52.442  1.00  0.00     0.000 C 
BRANCH   2   3
ATOM      3  C   UNL     1       0.915  22.752  51.483  1.00  0.00     0.000 C 
BRANCH   3   4
ATOM      4  C   UNL     1       1.353  24.106  50.894  1.00  0.00    -0.000 C 
BRANCH   4   5
ATOM      5  C   UNL     1       1.720  24.001  49.399  1.00  0.00    -0.000 C 
BRANCH   5   6
ATOM      6  C   UNL     1       2.073  25.351  48.753  1.00  0.00    -0.000 C 
BRANCH   6   7
ATOM      7  C   UNL     1       1.563  25.477  47.311  1.00  0.00    -0.000 C 
BRANCH   7   8
ATOM      8  C   UNL     1       1.189  24.102  46.734  1.00  0.00    -0.000 C 
BRANCH   8   9
ATOM      9  C   UNL     1       1.704  23.913  45.292  1.00  0.00    -0.000 C 
BRANCH   9  10
ATOM     10  C   UNL     1       2.495  22.607  45.074  1.00  0.00    -0.000 C 
BRANCH  10  11
ATOM     11  C   UNL     1       2.677  22.213  43.594  1.00  0.00    -0.003 C 
ATOM     12  C   UNL     1       1.522  21.363  43.063  1.00  0.00     0.004 C 
ENDBRANCH  10  11
ENDBRANCH   9  10
ENDBRANCH   8   9
ENDBRANCH   7   8
ENDBRANCH   6   7
ENDBRANCH   5   6
ENDBRANCH   4   5
ENDBRANCH   3   4
ENDBRANCH   2   3
ENDBRANCH   1   2
BRANCH   1  13
ATOM     13  C   UNL     1       4.487  22.247  52.019  1.00  0.00     0.000 C 
BRANCH  13  14
ATOM     14  C   UNL     1       5.065  23.012  50.812  1.00  0.00     0.000 C 
BRANCH  14  15
ATOM     15  C   UNL     1       6.334  23.801  51.176  1.00  0.00     0.000 C 
BRANCH  15  16
ATOM     16  C   UNL     1       6.090  25.317  51.215  1.00  0.00     0.000 C 
BRANCH  16  17
ATOM     17  C   UNL     1       4.605  25.630  51.436  1.00  0.00     0.000 C 
BRANCH  17  18
ATOM     18  C   UNL     1       4.372  26.259  52.820  1.00  0.00     0.000 C 
BRANCH  18  19
ATOM     19  C   UNL     1       3.424  25.415  53.699  1.00  0.00     0.000 C 
BRANCH  19  20
ATOM     20  C   UNL     1       2.025  26.037  53.876  1.00  0.00     0.006 C 
BRANCH  20  21
ATOM     21  C   UNL     1       0.977  25.075  54.461  1.00  0.00     0.053 C 
BRANCH  21  22
ATOM     22  C   UNL     1      -0.421  25.587  54.286  1.00  0.00     0.041 C 
ATOM     23  O   UNL     1      -1.395  24.952  54.773  1.00  0.00    -0.550 OA
ATOM     24  O   UNL     1      -0.650  26.761  53.582  1.00  0.00    -0.550 OA
ENDBRANCH  21  22
ENDBRANCH  20  21
ENDBRANCH  19  20
ENDBRANCH  18  19
ENDBRANCH  17  18
ENDBRANCH  16  17
ENDBRANCH  15  16
ENDBRANCH  14  15
ENDBRANCH  13  14
ENDBRANCH   1  13
TORSDOF 20
ENDMDL
MODEL 4
REMARK VINA RESULT:    -4.547      1.116      1.953
REMARK INTER + INTRA:         -12.868
REMARK INTER:                 -10.307
REMARK INTRA:                  -2.561
REMARK UNBOUND:                -3.005
REMARK SMILES CCCCCCCCCCCCCCCCCCCCCC(=O)[O-]
REMARK SMILES IDX 12 1 11 2 10 3 9 4 8 5 7 6 6 7 5 8 4 9 3 10 2 11 1 12 13 13
REMARK SMILES IDX 14 14 15 15 16 16 17 17 18 18 19 19 20 20 21 21 22 22 23 23
REMARK SMILES IDX 24 24
REMARK H PARENT
REMARK Flexibility Score: inf
ROOT
ATOM      1  C   UNL     1       4.758  22.898  51.275  1.00  0.00     0.000 C 
ENDROOT
BRANCH   1   2
ATOM      2  C   UNL     1       3.782  21.786  51.697  1.00  0.00     0.000 C 
BRANCH   2   3
ATOM      3  C   UNL     1       2.450  21.852  50.931  1.00  0.00     0.000 C 
BRANCH   3   4
ATOM      4  C   UNL     1       1.284  22.338  51.812  1.00  0.00    -0.000 C 
BRANCH   4   5
ATOM      5  C   UNL     1       0.611  23.605  51.245  1.00  0.00    -0.000 C 
BRANCH   5   6
ATOM      6  C   UNL     1       1.609  24.681  50.784  1.00  0.00    -0.000 C 
BRANCH   6   7
ATOM      7  C   UNL     1       1.278  25.252  49.398  1.00  0.00    -0.000 C 
BRANCH   7   8
ATOM      8  C   UNL     1       1.605  24.238  48.290  1.00  0.00    -0.000 C 
BRANCH   8   9
ATOM      9  C   UNL     1       1.663  24.895  46.895  1.00  0.00    -0.000 C 
BRANCH   9  10
ATOM     10  C   UNL     1       1.332  23.934  45.735  1.00  0.00    -0.000 C 
BRANCH  10  11
ATOM     11  C   UNL     1       2.409  22.864  45.467  1.00  0.00    -0.003 C 
ATOM     12  C   UNL     1       2.234  22.175  44.113  1.00  0.00     0.004 C 
ENDBRANCH  10  11
ENDBRANCH   9  10
ENDBRANCH   8   9
ENDBRANCH   7   8
ENDBRANCH   6   7
ENDBRANCH   5   6
ENDBRANCH   4   5
ENDBRANCH   3   4
ENDBRANCH   2   3
ENDBRANCH   1   2
BRANCH   1  13
ATOM     13  C   UNL     1       5.431  23.588  52.473  1.00  0.00     0.000 C 
BRANCH  13  14
ATOM     14  C   UNL     1       4.421  24.034  53.548  1.00  0.00     0.000 C 
BRANCH  14  15
ATOM     15  C   UNL     1       4.897  23.695  54.971  1.00  0.00     0.000 C 
BRANCH  15  16
ATOM     16  C   UNL     1       3.759  23.175  55.861  1.00  0.00     0.000 C 
BRANCH  16  17
ATOM     17  C   UNL     1       2.571  22.702  55.015  1.00  0.00     0.000 C 
BRANCH  17  18
ATOM     18  C   UNL     1       1.237  23.151  55.633  1.00  0.00     0.000 C 
BRANCH  18  19
ATOM     19  C   UNL     1       0.938  24.644  55.369  1.00  0.00     0.000 C 
BRANCH  19  20
ATOM     20  C   UNL     1      -0.261  24.878  54.428  1.00  0.00     0.006 C 
BRANCH  20  21
ATOM     21  C   UNL     1      -1.440  25.617  55.082  1.00  0.00     0.053 C 
BRANCH  21  22
ATOM     22  C   UNL     1      -1.921  24.929  56.324  1.00  0.00     0.041 C 
ATOM     23  O   UNL     1      -1.855  25.513  57.440  1.00  0.00    -0.550 OA
ATOM     24  O   UNL     1      -2.436  23.641  56.253  1.00  0.00    -0.550 OA
ENDBRANCH  21  22
ENDBRANCH  20  21
ENDBRANCH  19  20
ENDBRANCH  18  19
ENDBRANCH  17  18
ENDBRANCH  16  17
ENDBRANCH  15  16
ENDBRANCH  14  15
ENDBRANCH  13  14
ENDBRANCH   1  13
TORSDOF 20
ENDMDL
MODEL 5
REMARK VINA RESULT:    -4.526      3.394      7.861
REMARK INTER + INTRA:         -12.823
REMARK INTER:                  -9.231
REMARK INTRA:                  -3.592
REMARK UNBOUND:                -3.005
REMARK SMILES CCCCCCCCCCCCCCCCCCCCCC(=O)[O-]
REMARK SMILES IDX 12 1 11 2 10 3 9 4 8 5 7 6 6 7 5 8 4 9 3 10 2 11 1 12 13 13
REMARK SMILES IDX 14 14 15 15 16 16 17 17 18 18 19 19 20 20 21 21 22 22 23 23
REMARK SMILES IDX 24 24
REMARK H PARENT
REMARK Flexibility Score: inf
ROOT
ATOM      1  C   UNL     1       0.533  24.083  53.486  1.00  0.00     0.000 C 
ENDROOT
BRANCH   1   2
ATOM      2  C   UNL     1       0.221  25.583  53.634  1.00  0.00     0.000 C 
BRANCH   2   3
ATOM      3  C   UNL     1      -0.956  25.845  54.589  1.00  0.00     0.000 C 
BRANCH   3   4
ATOM      4  C   UNL     1      -1.805  24.586  54.843  1.00  0.00    -0.000 C 
BRANCH   4   5
ATOM      5  C   UNL     1      -2.472  24.602  56.235  1.00  0.00    -0.000 C 
BRANCH   5   6
ATOM      6  C   UNL     1      -1.470  24.676  57.399  1.00  0.00    -0.000 C 
BRANCH   6   7
ATOM      7  C   UNL     1      -0.641  23.395  57.558  1.00  0.00    -0.000 C 
BRANCH   7   8
ATOM      8  C   UNL     1       0.852  23.668  57.313  1.00  0.00    -0.000 C 
BRANCH   8   9
ATOM      9  C   UNL     1       1.546  22.506  56.572  1.00  0.00    -0.000 C 
BRANCH   9  10
ATOM     10  C   UNL     1       2.993  22.814  56.136  1.00  0.00    -0.000 C 
BRANCH  10  11
ATOM     11  C   UNL     1       3.367  24.310  56.183  1.00  0.00    -0.003 C 
ATOM     12  C   UNL     1       3.863  24.836  54.836  1.00  0.00     0.004 C 
ENDBRANCH  10  11
ENDBRANCH   9  10
ENDBRANCH   8   9
ENDBRANCH   7   8
ENDBRANCH   6   7
ENDBRANCH   5   6
ENDBRANCH   4   5
ENDBRANCH   3   4
ENDBRANCH   2   3
ENDBRANCH   1   2
BRANCH   1  13
ATOM     13  C   UNL     1       0.140  23.525  52.108  1.00  0.00     0.000 C 
BRANCH  13  14
ATOM     14  C   UNL     1       0.901  22.234  51.748  1.00  0.00     0.000 C 
BRANCH  14  15
ATOM     15  C   UNL     1       1.990  21.892  52.779  1.00  0.00     0.000 C 
BRANCH  15  16
ATOM     16  C   UNL     1       3.287  21.400  52.120  1.00  0.00     0.000 C 
BRANCH  16  17
ATOM     17  C   UNL     1       4.327  22.525  52.048  1.00  0.00     0.000 C 
BRANCH  17  18
ATOM     18  C   UNL     1       4.183  23.330  50.746  1.00  0.00     0.000 C 
BRANCH  18  19
ATOM     19  C   UNL     1       3.546  24.718  50.979  1.00  0.00     0.000 C 
BRANCH  19  20
ATOM     20  C   UNL     1       2.590  25.157  49.853  1.00  0.00     0.006 C 
BRANCH  20  21
ATOM     21  C   UNL     1       2.090  24.005  48.965  1.00  0.00     0.053 C 
BRANCH  21  22
ATOM     22  C   UNL     1       1.460  24.498  47.698  1.00  0.00     0.041 C 
ATOM     23  O   UNL     1       0.840  25.596  47.682  1.00  0.00    -0.550 OA
ATOM     24  O   UNL     1       1.552  23.745  46.535  1.00  0.00    -0.550 OA
ENDBRANCH  21  22
ENDBRANCH  20  21
ENDBRANCH  19  20
ENDBRANCH  18  19
ENDBRANCH  17  18
ENDBRANCH  16  17
ENDBRANCH  15  16
ENDBRANCH  14  15
ENDBRANCH  13  14
ENDBRANCH   1  13
TORSDOF 20
ENDMDL
MODEL 6
REMARK VINA RESULT:    -4.470      3.871      7.397
REMARK INTER + INTRA:         -12.702
REMARK INTER:                  -8.833
REMARK INTRA:                  -3.869
REMARK UNBOUND:                -3.005
REMARK SMILES CCCCCCCCCCCCCCCCCCCCCC(=O)[O-]
REMARK SMILES IDX 12 1 11 2 10 3 9 4 8 5 7 6 6 7 5 8 4 9 3 10 2 11 1 12 13 13
REMARK SMILES IDX 14 14 15 15 16 16 17 17 18 18 19 19 20 20 21 21 22 22 23 23
REMARK SMILES IDX 24 24
REMARK H PARENT
REMARK Flexibility Score: inf
ROOT
ATOM      1  C   UNL     1       1.663  22.249  51.633  1.00  0.00     0.000 C 
ENDROOT
BRANCH   1   2
ATOM      2  C   UNL     1       0.958  23.614  51.723  1.00  0.00     0.000 C 
BRANCH   2   3
ATOM      3  C   UNL     1       0.379  23.884  53.122  1.00  0.00     0.000 C 
BRANCH   3   4
ATOM      4  C   UNL     1       1.088  25.046  53.842  1.00  0.00    -0.000 C 
BRANCH   4   5
ATOM      5  C   UNL     1       0.108  25.909  54.663  1.00  0.00    -0.000 C 
BRANCH   5   6
ATOM      6  C   UNL     1      -1.330  25.364  54.682  1.00  0.00    -0.000 C 
BRANCH   6   7
ATOM      7  C   UNL     1      -1.927  25.298  56.095  1.00  0.00    -0.000 C 
BRANCH   7   8
ATOM      8  C   UNL     1      -2.047  23.843  56.577  1.00  0.00    -0.000 C 
BRANCH   8   9
ATOM      9  C   UNL     1      -0.872  23.430  57.488  1.00  0.00    -0.000 C 
BRANCH   9  10
ATOM     10  C   UNL     1       0.302  22.768  56.738  1.00  0.00    -0.000 C 
BRANCH  10  11
ATOM     11  C   UNL     1       1.672  22.934  57.426  1.00  0.00    -0.003 C 
ATOM     12  C   UNL     1       2.193  24.370  57.366  1.00  0.00     0.004 C 
ENDBRANCH  10  11
ENDBRANCH   9  10
ENDBRANCH   8   9
ENDBRANCH   7   8
ENDBRANCH   6   7
ENDBRANCH   5   6
ENDBRANCH   4   5
ENDBRANCH   3   4
ENDBRANCH   2   3
ENDBRANCH   1   2
BRANCH   1  13
ATOM     13  C   UNL     1       2.794  22.229  50.591  1.00  0.00     0.000 C 
BRANCH  13  14
ATOM     14  C   UNL     1       3.707  23.468  50.679  1.00  0.00     0.000 C 
BRANCH  14  15
ATOM     15  C   UNL     1       5.184  23.091  50.877  1.00  0.00     0.000 C 
BRANCH  15  16
ATOM     16  C   UNL     1       5.688  23.417  52.291  1.00  0.00     0.000 C 
BRANCH  16  17
ATOM     17  C   UNL     1       4.732  24.379  53.007  1.00  0.00     0.000 C 
BRANCH  17  18
ATOM     18  C   UNL     1       4.488  23.937  54.459  1.00  0.00     0.000 C 
BRANCH  18  19
ATOM     19  C   UNL     1       4.074  22.452  54.562  1.00  0.00     0.000 C 
BRANCH  19  20
ATOM     20  C   UNL     1       4.833  21.671  55.652  1.00  0.00     0.006 C 
BRANCH  20  21
ATOM     21  C   UNL     1       5.487  22.559  56.724  1.00  0.00     0.053 C 
BRANCH  21  22
ATOM     22  C   UNL     1       5.203  22.073  58.113  1.00  0.00     0.041 C 
ATOM     23  O   UNL     1       4.884  20.869  58.312  1.00  0.00    -0.550 OA
ATOM     24  O   UNL     1       5.285  22.948  59.188  1.00  0.00    -0.550 OA
ENDBRANCH  21  22
ENDBRANCH  20  21
ENDBRANCH  19  20
ENDBRANCH  18  19
ENDBRANCH  17  18
ENDBRANCH  16  17
ENDBRANCH  15  16
ENDBRANCH  14  15
ENDBRANCH  13  14
ENDBRANCH   1  13
TORSDOF 20
ENDMDL
MODEL 7
REMARK VINA RESULT:    -4.447      2.779      5.178
REMARK INTER + INTRA:         -12.653
REMARK INTER:                  -9.158
REMARK INTRA:                  -3.495
REMARK UNBOUND:                -3.005
REMARK SMILES CCCCCCCCCCCCCCCCCCCCCC(=O)[O-]
REMARK SMILES IDX 12 1 11 2 10 3 9 4 8 5 7 6 6 7 5 8 4 9 3 10 2 11 1 12 13 13
REMARK SMILES IDX 14 14 15 15 16 16 17 17 18 18 19 19 20 20 21 21 22 22 23 23
REMARK SMILES IDX 24 24
REMARK H PARENT
REMARK Flexibility Score: inf
ROOT
ATOM      1  C   UNL     1       4.977  23.741  53.464  1.00  0.00     0.000 C 
ENDROOT
BRANCH   1   2
ATOM      2  C   UNL     1       5.695  23.599  52.110  1.00  0.00     0.000 C 
BRANCH   2   3
ATOM      3  C   UNL     1       4.949  22.663  51.144  1.00  0.00     0.000 C 
BRANCH   3   4
ATOM      4  C   UNL     1       3.752  21.959  51.810  1.00  0.00    -0.000 C 
BRANCH   4   5
ATOM      5  C   UNL     1       2.527  21.879  50.875  1.00  0.00    -0.000 C 
BRANCH   5   6
ATOM      6  C   UNL     1       2.380  23.095  49.944  1.00  0.00    -0.000 C 
BRANCH   6   7
ATOM      7  C   UNL     1       1.352  24.116  50.449  1.00  0.00    -0.000 C 
BRANCH   7   8
ATOM      8  C   UNL     1       2.031  25.441  50.831  1.00  0.00    -0.000 C 
BRANCH   8   9
ATOM      9  C   UNL     1       2.092  25.648  52.359  1.00  0.00    -0.000 C 
BRANCH   9  10
ATOM     10  C   UNL     1       0.993  24.898  53.139  1.00  0.00    -0.000 C 
BRANCH  10  11
ATOM     11  C   UNL     1       1.479  24.238  54.446  1.00  0.00    -0.003 C 
ATOM     12  C   UNL     1       1.473  22.710  54.373  1.00  0.00     0.004 C 
ENDBRANCH  10  11
ENDBRANCH   9  10
ENDBRANCH   8   9
ENDBRANCH   7   8
ENDBRANCH   6   7
ENDBRANCH   5   6
ENDBRANCH   4   5
ENDBRANCH   3   4
ENDBRANCH   2   3
ENDBRANCH   1   2
BRANCH   1  13
ATOM     13  C   UNL     1       5.698  23.000  54.602  1.00  0.00     0.000 C 
BRANCH  13  14
ATOM     14  C   UNL     1       4.896  23.005  55.918  1.00  0.00     0.000 C 
BRANCH  14  15
ATOM     15  C   UNL     1       4.874  21.623  56.593  1.00  0.00     0.000 C 
BRANCH  15  16
ATOM     16  C   UNL     1       4.055  21.618  57.892  1.00  0.00     0.000 C 
BRANCH  16  17
ATOM     17  C   UNL     1       2.898  22.621  57.816  1.00  0.00     0.000 C 
BRANCH  17  18
ATOM     18  C   UNL     1       1.539  21.901  57.835  1.00  0.00     0.000 C 
BRANCH  18  19
ATOM     19  C   UNL     1       0.458  22.702  58.594  1.00  0.00     0.000 C 
BRANCH  19  20
ATOM     20  C   UNL     1      -0.195  23.815  57.751  1.00  0.00     0.006 C 
BRANCH  20  21
ATOM     21  C   UNL     1      -1.520  23.407  57.086  1.00  0.00     0.053 C 
BRANCH  21  22
ATOM     22  C   UNL     1      -2.077  24.494  56.218  1.00  0.00     0.041 C 
ATOM     23  O   UNL     1      -2.477  25.575  56.731  1.00  0.00    -0.550 OA
ATOM     24  O   UNL     1      -2.162  24.314  54.844  1.00  0.00    -0.550 OA
ENDBRANCH  21  22
ENDBRANCH  20  21
ENDBRANCH  19  20
ENDBRANCH  18  19
ENDBRANCH  17  18
ENDBRANCH  16  17
ENDBRANCH  15  16
ENDBRANCH  14  15
ENDBRANCH  13  14
ENDBRANCH   1  13
TORSDOF 20
ENDMDL
MODEL 8
REMARK VINA RESULT:    -4.443      4.064      7.946
REMARK INTER + INTRA:         -12.644
REMARK INTER:                  -8.598
REMARK INTRA:                  -4.046
REMARK UNBOUND:                -3.005
REMARK SMILES CCCCCCCCCCCCCCCCCCCCCC(=O)[O-]
REMARK SMILES IDX 12 1 11 2 10 3 9 4 8 5 7 6 6 7 5 8 4 9 3 10 2 11 1 12 13 13
REMARK SMILES IDX 14 14 15 15 16 16 17 17 18 18 19 19 20 20 21 21 22 22 23 23
REMARK SMILES IDX 24 24
REMARK H PARENT
REMARK Flexibility Score: inf
ROOT
ATOM      1  C   UNL     1       1.138  26.172  54.465  1.00  0.00     0.000 C 
ENDROOT
BRANCH   1   2
ATOM      2  C   UNL     1      -0.291  25.894  53.966  1.00  0.00     0.000 C 
BRANCH   2   3
ATOM      3  C   UNL     1      -0.794  24.499  54.375  1.00  0.00     0.000 C 
BRANCH   3   4
ATOM      4  C   UNL     1      -2.138  24.551  55.126  1.00  0.00    -0.000 C 
BRANCH   4   5
ATOM      5  C   UNL     1      -1.992  24.162  56.612  1.00  0.00    -0.000 C 
BRANCH   5   6
ATOM      6  C   UNL     1      -1.086  25.111  57.413  1.00  0.00    -0.000 C 
BRANCH   6   7
ATOM      7  C   UNL     1       0.225  24.451  57.863  1.00  0.00    -0.000 C 
BRANCH   7   8
ATOM      8  C   UNL     1       0.082  22.922  57.922  1.00  0.00    -0.000 C 
BRANCH   8   9
ATOM      9  C   UNL     1       0.897  22.214  56.819  1.00  0.00    -0.000 C 
BRANCH   9  10
ATOM     10  C   UNL     1       2.039  23.070  56.235  1.00  0.00    -0.000 C 
BRANCH  10  11
ATOM     11  C   UNL     1       3.420  22.806  56.868  1.00  0.00    -0.003 C 
ATOM     12  C   UNL     1       4.471  23.831  56.441  1.00  0.00     0.004 C 
ENDBRANCH  10  11
ENDBRANCH   9  10
ENDBRANCH   8   9
ENDBRANCH   7   8
ENDBRANCH   6   7
ENDBRANCH   5   6
ENDBRANCH   4   5
ENDBRANCH   3   4
ENDBRANCH   2   3
ENDBRANCH   1   2
BRANCH   1  13
ATOM     13  C   UNL     1       2.215  25.518  53.584  1.00  0.00     0.000 C 
BRANCH  13  14
ATOM     14  C   UNL     1       2.560  26.360  52.340  1.00  0.00     0.000 C 
BRANCH  14  15
ATOM     15  C   UNL     1       2.599  25.514  51.056  1.00  0.00     0.000 C 
BRANCH  15  16
ATOM     16  C   UNL     1       1.287  24.752  50.816  1.00  0.00     0.000 C 
BRANCH  16  17
ATOM     17  C   UNL     1       1.549  23.252  50.632  1.00  0.00     0.000 C 
BRANCH  17  18
ATOM     18  C   UNL     1       0.902  22.435  51.763  1.00  0.00     0.000 C 
BRANCH  18  19
ATOM     19  C   UNL     1       1.946  21.867  52.750  1.00  0.00     0.000 C 
BRANCH  19  20
ATOM     20  C   UNL     1       3.357  21.724  52.145  1.00  0.00     0.006 C 
BRANCH  20  21
ATOM     21  C   UNL     1       4.439  22.539  52.872  1.00  0.00     0.053 C 
BRANCH  21  22
ATOM     22  C   UNL     1       5.312  23.298  51.919  1.00  0.00     0.041 C 
ATOM     23  O   UNL     1       5.508  22.862  50.752  1.00  0.00    -0.550 OA
ATOM     24  O   UNL     1       5.915  24.483  52.319  1.00  0.00    -0.550 OA
ENDBRANCH  21  22
ENDBRANCH  20  21
ENDBRANCH  19  20
ENDBRANCH  18  19
ENDBRANCH  17  18
ENDBRANCH  16  17
ENDBRANCH  15  16
ENDBRANCH  14  15
ENDBRANCH  13  14
ENDBRANCH   1  13
TORSDOF 20
ENDMDL
MODEL 9
REMARK VINA RESULT:    -4.422      3.578      4.647
REMARK INTER + INTRA:         -12.597
REMARK INTER:                  -9.904
REMARK INTRA:                  -2.693
REMARK UNBOUND:                -3.005
REMARK SMILES CCCCCCCCCCCCCCCCCCCCCC(=O)[O-]
REMARK SMILES IDX 12 1 11 2 10 3 9 4 8 5 7 6 6 7 5 8 4 9 3 10 2 11 1 12 13 13
REMARK SMILES IDX 14 14 15 15 16 16 17 17 18 18 19 19 20 20 21 21 22 22 23 23
REMARK SMILES IDX 24 24
REMARK H PARENT
REMARK Flexibility Score: inf
ROOT
ATOM      1  C   UNL     1       4.244  22.147  51.530  1.00  0.00     0.000 C 
ENDROOT
BRANCH   1   2
ATOM      2  C   UNL     1       3.366  21.397  52.548  1.00  0.00     0.000 C 
BRANCH   2   3
ATOM      3  C   UNL     1       1.899  21.859  52.509  1.00  0.00     0.000 C 
BRANCH   3   4
ATOM      4  C   UNL     1       1.491  22.423  51.135  1.00  0.00    -0.000 C 
BRANCH   4   5
ATOM      5  C   UNL     1       0.854  23.824  51.245  1.00  0.00    -0.000 C 
BRANCH   5   6
ATOM      6  C   UNL     1       1.308  24.797  50.144  1.00  0.00    -0.000 C 
BRANCH   6   7
ATOM      7  C   UNL     1       1.823  24.082  48.887  1.00  0.00    -0.000 C 
BRANCH   7   8
ATOM      8  C   UNL     1       1.579  24.930  47.629  1.00  0.00    -0.000 C 
BRANCH   8   9
ATOM      9  C   UNL     1       1.298  24.062  46.384  1.00  0.00    -0.000 C 
BRANCH   9  10
ATOM     10  C   UNL     1       2.402  23.030  46.076  1.00  0.00    -0.000 C 
BRANCH  10  11
ATOM     11  C   UNL     1       2.365  22.468  44.640  1.00  0.00    -0.003 C 
ATOM     12  C   UNL     1       3.552  22.930  43.794  1.00  0.00     0.004 C 
ENDBRANCH  10  11
ENDBRANCH   9  10
ENDBRANCH   8   9
ENDBRANCH   7   8
ENDBRANCH   6   7
ENDBRANCH   5   6
ENDBRANCH   4   5
ENDBRANCH   3   4
ENDBRANCH   2   3
ENDBRANCH   1   2
BRANCH   1  13
ATOM     13  C   UNL     1       5.111  23.237  52.181  1.00  0.00     0.000 C 
BRANCH  13  14
ATOM     14  C   UNL     1       4.375  24.584  52.314  1.00  0.00     0.000 C 
BRANCH  14  15
ATOM     15  C   UNL     1       4.227  25.026  53.780  1.00  0.00     0.000 C 
BRANCH  15  16
ATOM     16  C   UNL     1       2.841  24.701  54.354  1.00  0.00     0.000 C 
BRANCH  16  17
ATOM     17  C   UNL     1       2.951  23.740  55.544  1.00  0.00     0.000 C 
BRANCH  17  18
ATOM     18  C   UNL     1       4.420  23.497  55.925  1.00  0.00     0.000 C 
BRANCH  18  19
ATOM     19  C   UNL     1       4.791  21.998  55.918  1.00  0.00     0.000 C 
BRANCH  19  20
ATOM     20  C   UNL     1       4.824  21.361  57.322  1.00  0.00     0.006 C 
BRANCH  20  21
ATOM     21  C   UNL     1       5.340  19.912  57.345  1.00  0.00     0.053 C 
BRANCH  21  22
ATOM     22  C   UNL     1       6.537  19.751  58.231  1.00  0.00     0.041 C 
ATOM     23  O   UNL     1       7.645  19.398  57.745  1.00  0.00    -0.550 OA
ATOM     24  O   UNL     1       6.430  19.985  59.596  1.00  0.00    -0.550 OA
ENDBRANCH  21  22
ENDBRANCH  20  21
ENDBRANCH  19  20
ENDBRANCH  18  19
ENDBRANCH  17  18
ENDBRANCH  16  17
ENDBRANCH  15  16
ENDBRANCH  14  15
ENDBRANCH  13  14
ENDBRANCH   1  13
TORSDOF 20
ENDMDL
