MODEL 1
REMARK VINA RESULT:    -3.556      0.000      0.000
REMARK INTER + INTRA:         -15.492
REMARK INTER:                  -9.377
REMARK INTRA:                  -6.114
REMARK UNBOUND:                -6.114
REMARK SMILES CCCCCCCCCCCCCCCCCCCCCCCCCCCCCC(=O)[O-]
REMARK SMILES IDX 16 1 17 2 18 3 19 4 20 5 21 6 22 7 23 8 24 9 25 10 26 11
REMARK SMILES IDX 27 12 28 13 29 14 30 15 31 16 32 17 15 18 14 19 13 20 12 21
REMARK SMILES IDX 11 22 10 23 9 24 8 25 7 26 6 27 5 28 4 29 3 30 2 31 1 32
REMARK H PARENT
REMARK Flexibility Score: inf
ROOT
ATOM      1  C   UNL     1      19.141  -6.548  26.530  1.00  0.00     0.000 C 
ENDROOT
BRANCH   1   2
ATOM      2  C   UNL     1      19.625  -7.174  27.853  1.00  0.00     0.000 C 
BRANCH   2   3
ATOM      3  C   UNL     1      21.022  -6.695  28.303  1.00  0.00     0.000 C 
BRANCH   3   4
ATOM      4  C   UNL     1      21.048  -6.230  29.771  1.00  0.00     0.000 C 
BRANCH   4   5
ATOM      5  C   UNL     1      20.096  -5.050  30.042  1.00  0.00     0.000 C 
BRANCH   5   6
ATOM      6  C   UNL     1      19.137  -5.250  31.228  1.00  0.00     0.000 C 
BRANCH   6   7
ATOM      7  C   UNL     1      19.624  -6.311  32.225  1.00  0.00     0.000 C 
BRANCH   7   8
ATOM      8  C   UNL     1      18.438  -7.027  32.880  1.00  0.00     0.000 C 
BRANCH   8   9
ATOM      9  C   UNL     1      18.480  -8.538  32.605  1.00  0.00     0.000 C 
BRANCH   9  10
ATOM     10  C   UNL     1      19.698  -8.952  31.763  1.00  0.00     0.000 C 
BRANCH  10  11
ATOM     11  C   UNL     1      19.308  -9.791  30.534  1.00  0.00     0.000 C 
BRANCH  11  12
ATOM     12  C   UNL     1      20.451 -10.696  30.040  1.00  0.00     0.000 C 
BRANCH  12  13
ATOM     13  C   UNL     1      20.969 -11.718  31.072  1.00  0.00     0.006 C 
BRANCH  13  14
ATOM     14  C   UNL     1      19.914 -12.722  31.564  1.00  0.00     0.053 C 
BRANCH  14  15
ATOM     15  C   UNL     1      19.730 -12.667  33.049  1.00  0.00     0.041 C 
ATOM     16  O   UNL     1      20.497 -13.316  33.809  1.00  0.00    -0.550 OA
ATOM     17  O   UNL     1      18.725 -11.880  33.597  1.00  0.00    -0.550 OA
ENDBRANCH  14  15
ENDBRANCH  13  14
ENDBRANCH  12  13
ENDBRANCH  11  12
ENDBRANCH  10  11
ENDBRANCH   9  10
ENDBRANCH   8   9
ENDBRANCH   7   8
ENDBRANCH   6   7
ENDBRANCH   5   6
ENDBRANCH   4   5
ENDBRANCH   3   4
ENDBRANCH   2   3
ENDBRANCH   1   2
BRANCH   1  18
ATOM     18  C   UNL     1      19.603  -5.103  26.276  1.00  0.00     0.000 C 
BRANCH  18  19
ATOM     19  C   UNL     1      18.496  -4.068  26.545  1.00  0.00     0.000 C 
BRANCH  19  20
ATOM     20  C   UNL     1      17.170  -4.711  26.991  1.00  0.00     0.000 C 
BRANCH  20  21
ATOM     21  C   UNL     1      16.503  -4.053  28.213  1.00  0.00     0.000 C 
BRANCH  21  22
ATOM     22  C   UNL     1      16.072  -5.072  29.283  1.00  0.00     0.000 C 
BRANCH  22  23
ATOM     23  C   UNL     1      16.142  -6.521  28.775  1.00  0.00     0.000 C 
BRANCH  23  24
ATOM     24  C   UNL     1      16.258  -7.538  29.924  1.00  0.00    -0.000 C 
BRANCH  24  25
ATOM     25  C   UNL     1      15.895  -8.971  29.497  1.00  0.00    -0.000 C 
BRANCH  25  26
ATOM     26  C   UNL     1      15.044  -9.076  28.218  1.00  0.00    -0.000 C 
BRANCH  26  27
ATOM     27  C   UNL     1      15.642 -10.031  27.173  1.00  0.00    -0.000 C 
BRANCH  27  28
ATOM     28  C   UNL     1      17.025  -9.543  26.715  1.00  0.00    -0.000 C 
BRANCH  28  29
ATOM     29  C   UNL     1      18.144 -10.542  27.051  1.00  0.00    -0.000 C 
BRANCH  29  30
ATOM     30  C   UNL     1      19.287 -10.515  26.022  1.00  0.00    -0.000 C 
BRANCH  30  31
ATOM     31  C   UNL     1      18.895  -9.792  24.724  1.00  0.00    -0.003 C 
ATOM     32  C   UNL     1      19.647 -10.321  23.504  1.00  0.00     0.004 C 
ENDBRANCH  30  31
ENDBRANCH  29  30
ENDBRANCH  28  29
ENDBRANCH  27  28
ENDBRANCH  26  27
ENDBRANCH  25  26
ENDBRANCH  24  25
ENDBRANCH  23  24
ENDBRANCH  22  23
ENDBRANCH  21  22
ENDBRANCH  20  21
ENDBRANCH  19  20
ENDBRANCH  18  19
ENDBRANCH   1  18
TORSDOF 28
ENDMDL
MODEL 2
REMARK VINA RESULT:    -3.441      2.422      4.919
REMARK INTER + INTRA:         -15.188
REMARK INTER:                  -9.161
REMARK INTRA:                  -6.027
REMARK UNBOUND:                -6.114
REMARK SMILES CCCCCCCCCCCCCCCCCCCCCCCCCCCCCC(=O)[O-]
REMARK SMILES IDX 16 1 17 2 18 3 19 4 20 5 21 6 22 7 23 8 24 9 25 10 26 11
REMARK SMILES IDX 27 12 28 13 29 14 30 15 31 16 32 17 15 18 14 19 13 20 12 21
REMARK SMILES IDX 11 22 10 23 9 24 8 25 7 26 6 27 5 28 4 29 3 30 2 31 1 32
REMARK H PARENT
REMARK Flexibility Score: inf
ROOT
ATOM      1  C   UNL     1      16.445  -5.366  29.237  1.00  0.00     0.000 C 
ENDROOT
BRANCH   1   2
ATOM      2  C   UNL     1      17.040  -5.479  27.821  1.00  0.00     0.000 C 
BRANCH   2   3
ATOM      3  C   UNL     1      18.119  -4.422  27.504  1.00  0.00     0.000 C 
BRANCH   3   4
ATOM      4  C   UNL     1      19.313  -5.005  26.724  1.00  0.00     0.000 C 
BRANCH   4   5
ATOM      5  C   UNL     1      19.928  -6.240  27.406  1.00  0.00     0.000 C 
BRANCH   5   6
ATOM      6  C   UNL     1      21.113  -5.943  28.341  1.00  0.00     0.000 C 
BRANCH   6   7
ATOM      7  C   UNL     1      20.763  -6.105  29.828  1.00  0.00     0.000 C 
BRANCH   7   8
ATOM      8  C   UNL     1      20.366  -4.758  30.442  1.00  0.00     0.000 C 
BRANCH   8   9
ATOM      9  C   UNL     1      19.300  -4.938  31.534  1.00  0.00     0.000 C 
BRANCH   9  10
ATOM     10  C   UNL     1      19.608  -6.118  32.471  1.00  0.00     0.000 C 
BRANCH  10  11
ATOM     11  C   UNL     1      18.337  -6.725  33.092  1.00  0.00     0.000 C 
BRANCH  11  12
ATOM     12  C   UNL     1      18.632  -7.595  34.327  1.00  0.00     0.000 C 
BRANCH  12  13
ATOM     13  C   UNL     1      20.112  -7.643  34.756  1.00  0.00     0.006 C 
BRANCH  13  14
ATOM     14  C   UNL     1      20.335  -7.822  36.267  1.00  0.00     0.053 C 
BRANCH  14  15
ATOM     15  C   UNL     1      21.339  -6.852  36.809  1.00  0.00     0.041 C 
ATOM     16  O   UNL     1      21.270  -5.631  36.505  1.00  0.00    -0.550 OA
ATOM     17  O   UNL     1      22.337  -7.291  37.669  1.00  0.00    -0.550 OA
ENDBRANCH  14  15
ENDBRANCH  13  14
ENDBRANCH  12  13
ENDBRANCH  11  12
ENDBRANCH  10  11
ENDBRANCH   9  10
ENDBRANCH   8   9
ENDBRANCH   7   8
ENDBRANCH   6   7
ENDBRANCH   5   6
ENDBRANCH   4   5
ENDBRANCH   3   4
ENDBRANCH   2   3
ENDBRANCH   1   2
BRANCH   1  18
ATOM     18  C   UNL     1      16.372  -6.682  30.030  1.00  0.00     0.000 C 
BRANCH  18  19
ATOM     19  C   UNL     1      17.475  -7.679  29.635  1.00  0.00     0.000 C 
BRANCH  19  20
ATOM     20  C   UNL     1      17.173  -9.119  30.086  1.00  0.00     0.000 C 
BRANCH  20  21
ATOM     21  C   UNL     1      18.252  -9.767  30.973  1.00  0.00     0.000 C 
BRANCH  21  22
ATOM     22  C   UNL     1      19.682  -9.386  30.553  1.00  0.00     0.000 C 
BRANCH  22  23
ATOM     23  C   UNL     1      20.341 -10.459  29.670  1.00  0.00     0.000 C 
BRANCH  23  24
ATOM     24  C   UNL     1      20.819  -9.893  28.322  1.00  0.00    -0.000 C 
BRANCH  24  25
ATOM     25  C   UNL     1      19.697  -9.816  27.271  1.00  0.00    -0.000 C 
BRANCH  25  26
ATOM     26  C   UNL     1      18.780 -11.051  27.202  1.00  0.00    -0.000 C 
BRANCH  26  27
ATOM     27  C   UNL     1      17.554 -10.843  26.300  1.00  0.00    -0.000 C 
BRANCH  27  28
ATOM     28  C   UNL     1      17.262  -9.347  26.111  1.00  0.00    -0.000 C 
BRANCH  28  29
ATOM     29  C   UNL     1      15.860  -8.951  26.602  1.00  0.00    -0.000 C 
BRANCH  29  30
ATOM     30  C   UNL     1      15.085 -10.140  27.195  1.00  0.00    -0.000 C 
BRANCH  30  31
ATOM     31  C   UNL     1      13.938 -10.608  26.286  1.00  0.00    -0.003 C 
ATOM     32  C   UNL     1      13.937 -12.120  26.069  1.00  0.00     0.004 C 
ENDBRANCH  30  31
ENDBRANCH  29  30
ENDBRANCH  28  29
ENDBRANCH  27  28
ENDBRANCH  26  27
ENDBRANCH  25  26
ENDBRANCH  24  25
ENDBRANCH  23  24
ENDBRANCH  22  23
ENDBRANCH  21  22
ENDBRANCH  20  21
ENDBRANCH  19  20
ENDBRANCH  18  19
ENDBRANCH   1  18
TORSDOF 28
ENDMDL
MODEL 3
REMARK VINA RESULT:    -3.390      2.983      7.095
REMARK INTER + INTRA:         -15.054
REMARK INTER:                  -9.178
REMARK INTRA:                  -5.875
REMARK UNBOUND:                -6.114
REMARK SMILES CCCCCCCCCCCCCCCCCCCCCCCCCCCCCC(=O)[O-]
REMARK SMILES IDX 16 1 17 2 18 3 19 4 20 5 21 6 22 7 23 8 24 9 25 10 26 11
REMARK SMILES IDX 27 12 28 13 29 14 30 15 31 16 32 17 15 18 14 19 13 20 12 21
REMARK SMILES IDX 11 22 10 23 9 24 8 25 7 26 6 27 5 28 4 29 3 30 2 31 1 32
REMARK H PARENT
REMARK Flexibility Score: inf
ROOT
ATOM      1  C   UNL     1      20.740  -8.966  28.661  1.00  0.00     0.000 C 
ENDROOT
BRANCH   1   2
ATOM      2  C   UNL     1      20.723  -7.445  28.415  1.00  0.00     0.000 C 
BRANCH   2   3
ATOM      3  C   UNL     1      21.046  -6.601  29.667  1.00  0.00     0.000 C 
BRANCH   3   4
ATOM      4  C   UNL     1      20.082  -5.414  29.851  1.00  0.00     0.000 C 
BRANCH   4   5
ATOM      5  C   UNL     1      19.065  -5.286  28.702  1.00  0.00     0.000 C 
BRANCH   5   6
ATOM      6  C   UNL     1      17.590  -5.393  29.126  1.00  0.00     0.000 C 
BRANCH   6   7
ATOM      7  C   UNL     1      17.408  -5.529  30.645  1.00  0.00     0.000 C 
BRANCH   7   8
ATOM      8  C   UNL     1      16.673  -6.829  30.991  1.00  0.00     0.000 C 
BRANCH   8   9
ATOM      9  C   UNL     1      17.415  -8.052  30.432  1.00  0.00     0.000 C 
BRANCH   9  10
ATOM     10  C   UNL     1      16.460  -9.176  29.998  1.00  0.00     0.000 C 
BRANCH  10  11
ATOM     11  C   UNL     1      15.997  -9.026  28.538  1.00  0.00     0.000 C 
BRANCH  11  12
ATOM     12  C   UNL     1      17.171  -8.933  27.545  1.00  0.00     0.000 C 
BRANCH  12  13
ATOM     13  C   UNL     1      17.783 -10.285  27.128  1.00  0.00     0.006 C 
BRANCH  13  14
ATOM     14  C   UNL     1      17.021 -11.015  26.010  1.00  0.00     0.053 C 
BRANCH  14  15
ATOM     15  C   UNL     1      17.776 -11.013  24.716  1.00  0.00     0.041 C 
ATOM     16  O   UNL     1      17.236 -11.451  23.666  1.00  0.00    -0.550 OA
ATOM     17  O   UNL     1      19.068 -10.505  24.665  1.00  0.00    -0.550 OA
ENDBRANCH  14  15
ENDBRANCH  13  14
ENDBRANCH  12  13
ENDBRANCH  11  12
ENDBRANCH  10  11
ENDBRANCH   9  10
ENDBRANCH   8   9
ENDBRANCH   7   8
ENDBRANCH   6   7
ENDBRANCH   5   6
ENDBRANCH   4   5
ENDBRANCH   3   4
ENDBRANCH   2   3
ENDBRANCH   1   2
BRANCH   1  18
ATOM     18  C   UNL     1      20.716  -9.397  30.138  1.00  0.00     0.000 C 
BRANCH  18  19
ATOM     19  C   UNL     1      20.241 -10.847  30.327  1.00  0.00     0.000 C 
BRANCH  19  20
ATOM     20  C   UNL     1      21.109 -11.637  31.324  1.00  0.00     0.000 C 
BRANCH  20  21
ATOM     21  C   UNL     1      20.548 -13.012  31.734  1.00  0.00     0.000 C 
BRANCH  21  22
ATOM     22  C   UNL     1      19.022 -13.004  31.925  1.00  0.00     0.000 C 
BRANCH  22  23
ATOM     23  C   UNL     1      18.606 -12.508  33.320  1.00  0.00     0.000 C 
BRANCH  23  24
ATOM     24  C   UNL     1      17.555 -11.386  33.251  1.00  0.00    -0.000 C 
BRANCH  24  25
ATOM     25  C   UNL     1      18.172  -9.979  33.330  1.00  0.00    -0.000 C 
BRANCH  25  26
ATOM     26  C   UNL     1      19.310  -9.821  34.356  1.00  0.00    -0.000 C 
BRANCH  26  27
ATOM     27  C   UNL     1      20.428  -8.883  33.877  1.00  0.00    -0.000 C 
BRANCH  27  28
ATOM     28  C   UNL     1      19.855  -7.735  33.033  1.00  0.00    -0.000 C 
BRANCH  28  29
ATOM     29  C   UNL     1      19.865  -6.391  33.779  1.00  0.00    -0.000 C 
BRANCH  29  30
ATOM     30  C   UNL     1      20.864  -6.372  34.949  1.00  0.00    -0.000 C 
BRANCH  30  31
ATOM     31  C   UNL     1      20.202  -5.990  36.282  1.00  0.00    -0.003 C 
ATOM     32  C   UNL     1      20.030  -7.186  37.218  1.00  0.00     0.004 C 
ENDBRANCH  30  31
ENDBRANCH  29  30
ENDBRANCH  28  29
ENDBRANCH  27  28
ENDBRANCH  26  27
ENDBRANCH  25  26
ENDBRANCH  24  25
ENDBRANCH  23  24
ENDBRANCH  22  23
ENDBRANCH  21  22
ENDBRANCH  20  21
ENDBRANCH  19  20
ENDBRANCH  18  19
ENDBRANCH   1  18
TORSDOF 28
ENDMDL
MODEL 4
REMARK VINA RESULT:    -3.390      1.524      4.484
REMARK INTER + INTRA:         -15.053
REMARK INTER:                  -8.417
REMARK INTRA:                  -6.636
REMARK UNBOUND:                -6.114
REMARK SMILES CCCCCCCCCCCCCCCCCCCCCCCCCCCCCC(=O)[O-]
REMARK SMILES IDX 16 1 17 2 18 3 19 4 20 5 21 6 22 7 23 8 24 9 25 10 26 11
REMARK SMILES IDX 27 12 28 13 29 14 30 15 31 16 32 17 15 18 14 19 13 20 12 21
REMARK SMILES IDX 11 22 10 23 9 24 8 25 7 26 6 27 5 28 4 29 3 30 2 31 1 32
REMARK H PARENT
REMARK Flexibility Score: inf
ROOT
ATOM      1  C   UNL     1      18.898  -5.599  25.199  1.00  0.00     0.000 C 
ENDROOT
BRANCH   1   2
ATOM      2  C   UNL     1      19.040  -7.093  24.855  1.00  0.00     0.000 C 
BRANCH   2   3
ATOM      3  C   UNL     1      18.005  -7.605  23.829  1.00  0.00     0.000 C 
BRANCH   3   4
ATOM      4  C   UNL     1      17.672  -9.097  24.013  1.00  0.00     0.000 C 
BRANCH   4   5
ATOM      5  C   UNL     1      18.708  -9.840  24.877  1.00  0.00     0.000 C 
BRANCH   5   6
ATOM      6  C   UNL     1      18.124 -10.915  25.810  1.00  0.00     0.000 C 
BRANCH   6   7
ATOM      7  C   UNL     1      18.876 -11.026  27.145  1.00  0.00     0.000 C 
BRANCH   7   8
ATOM      8  C   UNL     1      20.071 -10.066  27.178  1.00  0.00     0.000 C 
BRANCH   8   9
ATOM      9  C   UNL     1      20.763 -10.088  28.549  1.00  0.00     0.000 C 
BRANCH   9  10
ATOM     10  C   UNL     1      19.902 -10.752  29.636  1.00  0.00     0.000 C 
BRANCH  10  11
ATOM     11  C   UNL     1      20.547 -10.669  31.031  1.00  0.00     0.000 C 
BRANCH  11  12
ATOM     12  C   UNL     1      19.589 -10.115  32.101  1.00  0.00     0.000 C 
BRANCH  12  13
ATOM     13  C   UNL     1      18.089 -10.231  31.760  1.00  0.00     0.006 C 
BRANCH  13  14
ATOM     14  C   UNL     1      17.164 -10.376  32.979  1.00  0.00     0.053 C 
BRANCH  14  15
ATOM     15  C   UNL     1      17.164 -11.771  33.526  1.00  0.00     0.041 C 
ATOM     16  O   UNL     1      17.416 -12.747  32.772  1.00  0.00    -0.550 OA
ATOM     17  O   UNL     1      16.908 -11.990  34.873  1.00  0.00    -0.550 OA
ENDBRANCH  14  15
ENDBRANCH  13  14
ENDBRANCH  12  13
ENDBRANCH  11  12
ENDBRANCH  10  11
ENDBRANCH   9  10
ENDBRANCH   8   9
ENDBRANCH   7   8
ENDBRANCH   6   7
ENDBRANCH   5   6
ENDBRANCH   4   5
ENDBRANCH   3   4
ENDBRANCH   2   3
ENDBRANCH   1   2
BRANCH   1  18
ATOM     18  C   UNL     1      19.633  -5.141  26.471  1.00  0.00     0.000 C 
BRANCH  18  19
ATOM     19  C   UNL     1      19.987  -6.310  27.408  1.00  0.00     0.000 C 
BRANCH  19  20
ATOM     20  C   UNL     1      20.082  -5.886  28.885  1.00  0.00     0.000 C 
BRANCH  20  21
ATOM     21  C   UNL     1      19.810  -7.007  29.906  1.00  0.00     0.000 C 
BRANCH  21  22
ATOM     22  C   UNL     1      18.713  -6.640  30.921  1.00  0.00     0.000 C 
BRANCH  22  23
ATOM     23  C   UNL     1      18.269  -5.173  30.800  1.00  0.00     0.000 C 
BRANCH  23  24
ATOM     24  C   UNL     1      16.764  -4.995  31.068  1.00  0.00    -0.000 C 
BRANCH  24  25
ATOM     25  C   UNL     1      15.923  -4.970  29.779  1.00  0.00    -0.000 C 
BRANCH  25  26
ATOM     26  C   UNL     1      16.626  -4.360  28.552  1.00  0.00    -0.000 C 
BRANCH  26  27
ATOM     27  C   UNL     1      16.012  -4.813  27.218  1.00  0.00    -0.000 C 
BRANCH  27  28
ATOM     28  C   UNL     1      15.206  -6.108  27.399  1.00  0.00    -0.000 C 
BRANCH  28  29
ATOM     29  C   UNL     1      15.940  -7.343  26.850  1.00  0.00    -0.000 C 
BRANCH  29  30
ATOM     30  C   UNL     1      16.897  -7.967  27.879  1.00  0.00    -0.000 C 
BRANCH  30  31
ATOM     31  C   UNL     1      16.242  -9.104  28.679  1.00  0.00    -0.003 C 
ATOM     32  C   UNL     1      15.129  -9.805  27.901  1.00  0.00     0.004 C 
ENDBRANCH  30  31
ENDBRANCH  29  30
ENDBRANCH  28  29
ENDBRANCH  27  28
ENDBRANCH  26  27
ENDBRANCH  25  26
ENDBRANCH  24  25
ENDBRANCH  23  24
ENDBRANCH  22  23
ENDBRANCH  21  22
ENDBRANCH  20  21
ENDBRANCH  19  20
ENDBRANCH  18  19
ENDBRANCH   1  18
TORSDOF 28
ENDMDL
MODEL 5
REMARK VINA RESULT:    -3.383      1.938      4.096
REMARK INTER + INTRA:         -15.036
REMARK INTER:                  -9.084
REMARK INTRA:                  -5.952
REMARK UNBOUND:                -6.114
REMARK SMILES CCCCCCCCCCCCCCCCCCCCCCCCCCCCCC(=O)[O-]
REMARK SMILES IDX 16 1 17 2 18 3 19 4 20 5 21 6 22 7 23 8 24 9 25 10 26 11
REMARK SMILES IDX 27 12 28 13 29 14 30 15 31 16 32 17 15 18 14 19 13 20 12 21
REMARK SMILES IDX 11 22 10 23 9 24 8 25 7 26 6 27 5 28 4 29 3 30 2 31 1 32
REMARK H PARENT
REMARK Flexibility Score: inf
ROOT
ATOM      1  C   UNL     1      17.268  -6.974  30.482  1.00  0.00     0.000 C 
ENDROOT
BRANCH   1   2
ATOM      2  C   UNL     1      17.198  -7.641  31.869  1.00  0.00     0.000 C 
BRANCH   2   3
ATOM      3  C   UNL     1      16.972  -6.654  33.033  1.00  0.00     0.000 C 
BRANCH   3   4
ATOM      4  C   UNL     1      17.937  -6.890  34.211  1.00  0.00     0.000 C 
BRANCH   4   5
ATOM      5  C   UNL     1      19.390  -6.505  33.879  1.00  0.00     0.000 C 
BRANCH   5   6
ATOM      6  C   UNL     1      20.396  -6.718  35.024  1.00  0.00     0.000 C 
BRANCH   6   7
ATOM      7  C   UNL     1      21.138  -8.060  34.931  1.00  0.00     0.000 C 
BRANCH   7   8
ATOM      8  C   UNL     1      20.540  -9.081  35.905  1.00  0.00     0.000 C 
BRANCH   8   9
ATOM      9  C   UNL     1      19.760 -10.172  35.157  1.00  0.00     0.000 C 
BRANCH   9  10
ATOM     10  C   UNL     1      18.295 -10.270  35.612  1.00  0.00     0.000 C 
BRANCH  10  11
ATOM     11  C   UNL     1      17.348 -10.674  34.469  1.00  0.00     0.000 C 
BRANCH  11  12
ATOM     12  C   UNL     1      18.096 -11.053  33.178  1.00  0.00     0.000 C 
BRANCH  12  13
ATOM     13  C   UNL     1      18.017 -12.543  32.789  1.00  0.00     0.006 C 
BRANCH  13  14
ATOM     14  C   UNL     1      19.264 -13.083  32.069  1.00  0.00     0.053 C 
BRANCH  14  15
ATOM     15  C   UNL     1      20.484 -13.034  32.937  1.00  0.00     0.041 C 
ATOM     16  O   UNL     1      21.555 -12.539  32.498  1.00  0.00    -0.550 OA
ATOM     17  O   UNL     1      20.431 -13.514  34.239  1.00  0.00    -0.550 OA
ENDBRANCH  14  15
ENDBRANCH  13  14
ENDBRANCH  12  13
ENDBRANCH  11  12
ENDBRANCH  10  11
ENDBRANCH   9  10
ENDBRANCH   8   9
ENDBRANCH   7   8
ENDBRANCH   6   7
ENDBRANCH   5   6
ENDBRANCH   4   5
ENDBRANCH   3   4
ENDBRANCH   2   3
ENDBRANCH   1   2
BRANCH   1  18
ATOM     18  C   UNL     1      17.780  -5.523  30.473  1.00  0.00     0.000 C 
BRANCH  18  19
ATOM     19  C   UNL     1      19.315  -5.433  30.432  1.00  0.00     0.000 C 
BRANCH  19  20
ATOM     20  C   UNL     1      19.938  -6.307  29.327  1.00  0.00     0.000 C 
BRANCH  20  21
ATOM     21  C   UNL     1      21.073  -7.238  29.792  1.00  0.00     0.000 C 
BRANCH  21  22
ATOM     22  C   UNL     1      20.818  -7.848  31.181  1.00  0.00     0.000 C 
BRANCH  22  23
ATOM     23  C   UNL     1      20.752  -9.384  31.145  1.00  0.00     0.000 C 
BRANCH  23  24
ATOM     24  C   UNL     1      19.616  -9.898  30.243  1.00  0.00    -0.000 C 
BRANCH  24  25
ATOM     25  C   UNL     1      20.123 -10.748  29.064  1.00  0.00    -0.000 C 
BRANCH  25  26
ATOM     26  C   UNL     1      20.087 -10.048  27.692  1.00  0.00    -0.000 C 
BRANCH  26  27
ATOM     27  C   UNL     1      19.164 -10.749  26.683  1.00  0.00    -0.000 C 
BRANCH  27  28
ATOM     28  C   UNL     1      17.844  -9.982  26.524  1.00  0.00    -0.000 C 
BRANCH  28  29
ATOM     29  C   UNL     1      17.829  -8.661  27.310  1.00  0.00    -0.000 C 
BRANCH  29  30
ATOM     30  C   UNL     1      17.754  -7.429  26.393  1.00  0.00    -0.000 C 
BRANCH  30  31
ATOM     31  C   UNL     1      19.110  -7.083  25.758  1.00  0.00    -0.003 C 
ATOM     32  C   UNL     1      19.025  -6.914  24.242  1.00  0.00     0.004 C 
ENDBRANCH  30  31
ENDBRANCH  29  30
ENDBRANCH  28  29
ENDBRANCH  27  28
ENDBRANCH  26  27
ENDBRANCH  25  26
ENDBRANCH  24  25
ENDBRANCH  23  24
ENDBRANCH  22  23
ENDBRANCH  21  22
ENDBRANCH  20  21
ENDBRANCH  19  20
ENDBRANCH  18  19
ENDBRANCH   1  18
TORSDOF 28
ENDMDL
MODEL 6
REMARK VINA RESULT:    -3.363      2.311      5.194
REMARK INTER + INTRA:         -14.983
REMARK INTER:                  -9.012
REMARK INTRA:                  -5.970
REMARK UNBOUND:                -6.114
REMARK SMILES CCCCCCCCCCCCCCCCCCCCCCCCCCCCCC(=O)[O-]
REMARK SMILES IDX 16 1 17 2 18 3 19 4 20 5 21 6 22 7 23 8 24 9 25 10 26 11
REMARK SMILES IDX 27 12 28 13 29 14 30 15 31 16 32 17 15 18 14 19 13 20 12 21
REMARK SMILES IDX 11 22 10 23 9 24 8 25 7 26 6 27 5 28 4 29 3 30 2 31 1 32
REMARK H PARENT
REMARK Flexibility Score: inf
ROOT
ATOM      1  C   UNL     1      19.511 -10.625  29.198  1.00  0.00     0.000 C 
ENDROOT
BRANCH   1   2
ATOM      2  C   UNL     1      19.706 -11.337  30.551  1.00  0.00     0.000 C 
BRANCH   2   3
ATOM      3  C   UNL     1      21.184 -11.560  30.939  1.00  0.00     0.000 C 
BRANCH   3   4
ATOM      4  C   UNL     1      21.343 -12.430  32.200  1.00  0.00     0.000 C 
BRANCH   4   5
ATOM      5  C   UNL     1      20.095 -13.278  32.504  1.00  0.00     0.000 C 
BRANCH   5   6
ATOM      6  C   UNL     1      19.737 -13.393  33.996  1.00  0.00     0.000 C 
BRANCH   6   7
ATOM      7  C   UNL     1      18.222 -13.419  34.251  1.00  0.00     0.000 C 
BRANCH   7   8
ATOM      8  C   UNL     1      17.455 -12.923  33.021  1.00  0.00     0.000 C 
BRANCH   8   9
ATOM      9  C   UNL     1      16.639 -11.663  33.345  1.00  0.00     0.000 C 
BRANCH   9  10
ATOM     10  C   UNL     1      17.359 -10.369  32.932  1.00  0.00     0.000 C 
BRANCH  10  11
ATOM     11  C   UNL     1      18.089  -9.698  34.108  1.00  0.00     0.000 C 
BRANCH  11  12
ATOM     12  C   UNL     1      19.621  -9.724  33.955  1.00  0.00     0.000 C 
BRANCH  12  13
ATOM     13  C   UNL     1      20.258  -8.386  33.528  1.00  0.00     0.006 C 
BRANCH  13  14
ATOM     14  C   UNL     1      19.442  -7.139  33.905  1.00  0.00     0.053 C 
BRANCH  14  15
ATOM     15  C   UNL     1      19.842  -6.583  35.238  1.00  0.00     0.041 C 
ATOM     16  O   UNL     1      19.030  -6.596  36.200  1.00  0.00    -0.550 OA
ATOM     17  O   UNL     1      21.120  -6.071  35.423  1.00  0.00    -0.550 OA
ENDBRANCH  14  15
ENDBRANCH  13  14
ENDBRANCH  12  13
ENDBRANCH  11  12
ENDBRANCH  10  11
ENDBRANCH   9  10
ENDBRANCH   8   9
ENDBRANCH   7   8
ENDBRANCH   6   7
ENDBRANCH   5   6
ENDBRANCH   4   5
ENDBRANCH   3   4
ENDBRANCH   2   3
ENDBRANCH   1   2
BRANCH   1  18
ATOM     18  C   UNL     1      20.783 -10.014  28.584  1.00  0.00     0.000 C 
BRANCH  18  19
ATOM     19  C   UNL     1      20.724  -8.480  28.495  1.00  0.00     0.000 C 
BRANCH  19  20
ATOM     20  C   UNL     1      20.722  -7.799  29.877  1.00  0.00     0.000 C 
BRANCH  20  21
ATOM     21  C   UNL     1      19.525  -6.869  30.146  1.00  0.00     0.000 C 
BRANCH  21  22
ATOM     22  C   UNL     1      18.238  -7.635  30.501  1.00  0.00     0.000 C 
BRANCH  22  23
ATOM     23  C   UNL     1      17.020  -7.135  29.707  1.00  0.00     0.000 C 
BRANCH  23  24
ATOM     24  C   UNL     1      16.610  -5.706  30.106  1.00  0.00    -0.000 C 
BRANCH  24  25
ATOM     25  C   UNL     1      16.853  -4.677  28.987  1.00  0.00    -0.000 C 
BRANCH  25  26
ATOM     26  C   UNL     1      16.993  -5.271  27.573  1.00  0.00    -0.000 C 
BRANCH  26  27
ATOM     27  C   UNL     1      18.423  -5.179  27.020  1.00  0.00    -0.000 C 
BRANCH  27  28
ATOM     28  C   UNL     1      18.737  -6.379  26.114  1.00  0.00    -0.000 C 
BRANCH  28  29
ATOM     29  C   UNL     1      17.555  -7.355  25.994  1.00  0.00    -0.000 C 
BRANCH  29  30
ATOM     30  C   UNL     1      17.914  -8.778  26.454  1.00  0.00    -0.000 C 
BRANCH  30  31
ATOM     31  C   UNL     1      16.672  -9.642  26.720  1.00  0.00    -0.003 C 
ATOM     32  C   UNL     1      16.878 -11.106  26.332  1.00  0.00     0.004 C 
ENDBRANCH  30  31
ENDBRANCH  29  30
ENDBRANCH  28  29
ENDBRANCH  27  28
ENDBRANCH  26  27
ENDBRANCH  25  26
ENDBRANCH  24  25
ENDBRANCH  23  24
ENDBRANCH  22  23
ENDBRANCH  21  22
ENDBRANCH  20  21
ENDBRANCH  19  20
ENDBRANCH  18  19
ENDBRANCH   1  18
TORSDOF 28
ENDMDL
MODEL 7
REMARK VINA RESULT:    -3.355      2.644      5.793
REMARK INTER + INTRA:         -14.960
REMARK INTER:                  -9.257
REMARK INTRA:                  -5.704
REMARK UNBOUND:                -6.114
REMARK SMILES CCCCCCCCCCCCCCCCCCCCCCCCCCCCCC(=O)[O-]
REMARK SMILES IDX 16 1 17 2 18 3 19 4 20 5 21 6 22 7 23 8 24 9 25 10 26 11
REMARK SMILES IDX 27 12 28 13 29 14 30 15 31 16 32 17 15 18 14 19 13 20 12 21
REMARK SMILES IDX 11 22 10 23 9 24 8 25 7 26 6 27 5 28 4 29 3 30 2 31 1 32
REMARK H PARENT
REMARK Flexibility Score: inf
ROOT
ATOM      1  C   UNL     1      19.135  -9.692  34.125  1.00  0.00     0.000 C 
ENDROOT
BRANCH   1   2
ATOM      2  C   UNL     1      20.433  -8.920  33.822  1.00  0.00     0.000 C 
BRANCH   2   3
ATOM      3  C   UNL     1      20.539  -8.411  32.369  1.00  0.00     0.000 C 
BRANCH   3   4
ATOM      4  C   UNL     1      19.796  -9.313  31.365  1.00  0.00     0.000 C 
BRANCH   4   5
ATOM      5  C   UNL     1      20.724  -9.892  30.281  1.00  0.00     0.000 C 
BRANCH   5   6
ATOM      6  C   UNL     1      20.844 -11.426  30.280  1.00  0.00     0.000 C 
BRANCH   6   7
ATOM      7  C   UNL     1      21.175 -12.004  31.664  1.00  0.00     0.000 C 
BRANCH   7   8
ATOM      8  C   UNL     1      20.339 -13.257  31.944  1.00  0.00     0.000 C 
BRANCH   8   9
ATOM      9  C   UNL     1      18.881 -12.893  32.266  1.00  0.00     0.000 C 
BRANCH   9  10
ATOM     10  C   UNL     1      18.484 -13.261  33.705  1.00  0.00     0.000 C 
BRANCH  10  11
ATOM     11  C   UNL     1      17.016 -12.919  34.017  1.00  0.00     0.000 C 
BRANCH  11  12
ATOM     12  C   UNL     1      16.407 -11.923  33.014  1.00  0.00     0.000 C 
BRANCH  12  13
ATOM     13  C   UNL     1      15.055 -11.314  33.436  1.00  0.00     0.006 C 
BRANCH  13  14
ATOM     14  C   UNL     1      15.006 -10.802  34.884  1.00  0.00     0.053 C 
BRANCH  14  15
ATOM     15  C   UNL     1      13.665 -11.017  35.516  1.00  0.00     0.041 C 
ATOM     16  O   UNL     1      13.181 -12.177  35.598  1.00  0.00    -0.550 OA
ATOM     17  O   UNL     1      12.959  -9.940  36.034  1.00  0.00    -0.550 OA
ENDBRANCH  14  15
ENDBRANCH  13  14
ENDBRANCH  12  13
ENDBRANCH  11  12
ENDBRANCH  10  11
ENDBRANCH   9  10
ENDBRANCH   8   9
ENDBRANCH   7   8
ENDBRANCH   6   7
ENDBRANCH   5   6
ENDBRANCH   4   5
ENDBRANCH   3   4
ENDBRANCH   2   3
ENDBRANCH   1   2
BRANCH   1  18
ATOM     18  C   UNL     1      18.271  -9.111  35.258  1.00  0.00     0.000 C 
BRANCH  18  19
ATOM     19  C   UNL     1      17.489  -7.857  34.828  1.00  0.00     0.000 C 
BRANCH  19  20
ATOM     20  C   UNL     1      16.894  -7.977  33.413  1.00  0.00     0.000 C 
BRANCH  20  21
ATOM     21  C   UNL     1      16.650  -6.639  32.690  1.00  0.00     0.000 C 
BRANCH  21  22
ATOM     22  C   UNL     1      17.600  -6.418  31.500  1.00  0.00     0.000 C 
BRANCH  22  23
ATOM     23  C   UNL     1      18.215  -5.009  31.494  1.00  0.00     0.000 C 
BRANCH  23  24
ATOM     24  C   UNL     1      19.744  -5.040  31.321  1.00  0.00    -0.000 C 
BRANCH  24  25
ATOM     25  C   UNL     1      20.181  -5.048  29.845  1.00  0.00    -0.000 C 
BRANCH  25  26
ATOM     26  C   UNL     1      21.184  -6.154  29.466  1.00  0.00    -0.000 C 
BRANCH  26  27
ATOM     27  C   UNL     1      20.714  -7.014  28.283  1.00  0.00    -0.000 C 
BRANCH  27  28
ATOM     28  C   UNL     1      19.181  -7.045  28.204  1.00  0.00    -0.000 C 
BRANCH  28  29
ATOM     29  C   UNL     1      18.666  -7.907  27.040  1.00  0.00    -0.000 C 
BRANCH  29  30
ATOM     30  C   UNL     1      17.747  -9.047  27.511  1.00  0.00    -0.000 C 
BRANCH  30  31
ATOM     31  C   UNL     1      18.449 -10.414  27.496  1.00  0.00    -0.003 C 
ATOM     32  C   UNL     1      19.559 -10.495  26.449  1.00  0.00     0.004 C 
ENDBRANCH  30  31
ENDBRANCH  29  30
ENDBRANCH  28  29
ENDBRANCH  27  28
ENDBRANCH  26  27
ENDBRANCH  25  26
ENDBRANCH  24  25
ENDBRANCH  23  24
ENDBRANCH  22  23
ENDBRANCH  21  22
ENDBRANCH  20  21
ENDBRANCH  19  20
ENDBRANCH  18  19
ENDBRANCH   1  18
TORSDOF 28
ENDMDL
MODEL 8
REMARK VINA RESULT:    -3.350      1.581      3.939
REMARK INTER + INTRA:         -14.948
REMARK INTER:                  -8.681
REMARK INTRA:                  -6.267
REMARK UNBOUND:                -6.114
REMARK SMILES CCCCCCCCCCCCCCCCCCCCCCCCCCCCCC(=O)[O-]
REMARK SMILES IDX 16 1 17 2 18 3 19 4 20 5 21 6 22 7 23 8 24 9 25 10 26 11
REMARK SMILES IDX 27 12 28 13 29 14 30 15 31 16 32 17 15 18 14 19 13 20 12 21
REMARK SMILES IDX 11 22 10 23 9 24 8 25 7 26 6 27 5 28 4 29 3 30 2 31 1 32
REMARK H PARENT
REMARK Flexibility Score: inf
ROOT
ATOM      1  C   UNL     1      16.098  -4.792  28.936  1.00  0.00     0.000 C 
ENDROOT
BRANCH   1   2
ATOM      2  C   UNL     1      14.780  -5.553  28.692  1.00  0.00     0.000 C 
BRANCH   2   3
ATOM      3  C   UNL     1      14.967  -6.949  28.058  1.00  0.00     0.000 C 
BRANCH   3   4
ATOM      4  C   UNL     1      14.690  -8.095  29.050  1.00  0.00     0.000 C 
BRANCH   4   5
ATOM      5  C   UNL     1      15.842  -9.113  29.124  1.00  0.00     0.000 C 
BRANCH   5   6
ATOM      6  C   UNL     1      17.119  -8.598  29.812  1.00  0.00     0.000 C 
BRANCH   6   7
ATOM      7  C   UNL     1      16.895  -8.203  31.279  1.00  0.00     0.000 C 
BRANCH   7   8
ATOM      8  C   UNL     1      17.852  -7.079  31.691  1.00  0.00     0.000 C 
BRANCH   8   9
ATOM      9  C   UNL     1      18.284  -7.226  33.158  1.00  0.00     0.000 C 
BRANCH   9  10
ATOM     10  C   UNL     1      19.803  -7.407  33.312  1.00  0.00     0.000 C 
BRANCH  10  11
ATOM     11  C   UNL     1      20.193  -8.855  33.654  1.00  0.00     0.000 C 
BRANCH  11  12
ATOM     12  C   UNL     1      18.973  -9.759  33.909  1.00  0.00     0.000 C 
BRANCH  12  13
ATOM     13  C   UNL     1      19.002 -11.118  33.180  1.00  0.00     0.006 C 
BRANCH  13  14
ATOM     14  C   UNL     1      19.655 -11.085  31.789  1.00  0.00     0.053 C 
BRANCH  14  15
ATOM     15  C   UNL     1      20.889 -11.931  31.723  1.00  0.00     0.041 C 
ATOM     16  O   UNL     1      21.382 -12.416  32.775  1.00  0.00    -0.550 OA
ATOM     17  O   UNL     1      21.481 -12.203  30.497  1.00  0.00    -0.550 OA
ENDBRANCH  14  15
ENDBRANCH  13  14
ENDBRANCH  12  13
ENDBRANCH  11  12
ENDBRANCH  10  11
ENDBRANCH   9  10
ENDBRANCH   8   9
ENDBRANCH   7   8
ENDBRANCH   6   7
ENDBRANCH   5   6
ENDBRANCH   4   5
ENDBRANCH   3   4
ENDBRANCH   2   3
ENDBRANCH   1   2
BRANCH   1  18
ATOM     18  C   UNL     1      16.614  -3.968  27.744  1.00  0.00     0.000 C 
BRANCH  18  19
ATOM     19  C   UNL     1      18.036  -4.368  27.314  1.00  0.00     0.000 C 
BRANCH  19  20
ATOM     20  C   UNL     1      18.554  -5.620  28.046  1.00  0.00     0.000 C 
BRANCH  20  21
ATOM     21  C   UNL     1      19.746  -5.379  28.991  1.00  0.00     0.000 C 
BRANCH  21  22
ATOM     22  C   UNL     1      20.904  -6.365  28.759  1.00  0.00     0.000 C 
BRANCH  22  23
ATOM     23  C   UNL     1      21.205  -7.221  30.000  1.00  0.00     0.000 C 
BRANCH  23  24
ATOM     24  C   UNL     1      20.737  -8.678  29.831  1.00  0.00    -0.000 C 
BRANCH  24  25
ATOM     25  C   UNL     1      20.742  -9.144  28.364  1.00  0.00    -0.000 C 
BRANCH  25  26
ATOM     26  C   UNL     1      19.807 -10.326  28.051  1.00  0.00    -0.000 C 
BRANCH  26  27
ATOM     27  C   UNL     1      19.228 -10.276  26.629  1.00  0.00    -0.000 C 
BRANCH  27  28
ATOM     28  C   UNL     1      18.903  -8.831  26.221  1.00  0.00    -0.000 C 
BRANCH  28  29
ATOM     29  C   UNL     1      17.420  -8.636  25.866  1.00  0.00    -0.000 C 
BRANCH  29  30
ATOM     30  C   UNL     1      16.667  -9.969  25.721  1.00  0.00    -0.000 C 
BRANCH  30  31
ATOM     31  C   UNL     1      15.347  -9.819  24.948  1.00  0.00    -0.003 C 
ATOM     32  C   UNL     1      14.120  -9.917  25.853  1.00  0.00     0.004 C 
ENDBRANCH  30  31
ENDBRANCH  29  30
ENDBRANCH  28  29
ENDBRANCH  27  28
ENDBRANCH  26  27
ENDBRANCH  25  26
ENDBRANCH  24  25
ENDBRANCH  23  24
ENDBRANCH  22  23
ENDBRANCH  21  22
ENDBRANCH  20  21
ENDBRANCH  19  20
ENDBRANCH  18  19
ENDBRANCH   1  18
TORSDOF 28
ENDMDL
MODEL 9
REMARK VINA RESULT:    -3.337      1.923      4.618
REMARK INTER + INTRA:         -14.914
REMARK INTER:                  -8.956
REMARK INTRA:                  -5.958
REMARK UNBOUND:                -6.114
REMARK SMILES CCCCCCCCCCCCCCCCCCCCCCCCCCCCCC(=O)[O-]
REMARK SMILES IDX 16 1 17 2 18 3 19 4 20 5 21 6 22 7 23 8 24 9 25 10 26 11
REMARK SMILES IDX 27 12 28 13 29 14 30 15 31 16 32 17 15 18 14 19 13 20 12 21
REMARK SMILES IDX 11 22 10 23 9 24 8 25 7 26 6 27 5 28 4 29 3 30 2 31 1 32
REMARK H PARENT
REMARK Flexibility Score: inf
ROOT
ATOM      1  C   UNL     1      18.380  -8.596  26.339  1.00  0.00     0.000 C 
ENDROOT
BRANCH   1   2
ATOM      2  C   UNL     1      19.126  -9.944  26.311  1.00  0.00     0.000 C 
BRANCH   2   3
ATOM      3  C   UNL     1      19.392 -10.547  27.707  1.00  0.00     0.000 C 
BRANCH   3   4
ATOM      4  C   UNL     1      20.768 -10.151  28.276  1.00  0.00     0.000 C 
BRANCH   4   5
ATOM      5  C   UNL     1      20.772 -10.040  29.811  1.00  0.00     0.000 C 
BRANCH   5   6
ATOM      6  C   UNL     1      20.166 -11.246  30.550  1.00  0.00     0.000 C 
BRANCH   6   7
ATOM      7  C   UNL     1      21.212 -12.069  31.318  1.00  0.00     0.000 C 
BRANCH   7   8
ATOM      8  C   UNL     1      20.535 -13.147  32.171  1.00  0.00     0.000 C 
BRANCH   8   9
ATOM      9  C   UNL     1      19.010 -13.126  31.988  1.00  0.00     0.000 C 
BRANCH   9  10
ATOM     10  C   UNL     1      18.257 -12.976  33.320  1.00  0.00     0.000 C 
BRANCH  10  11
ATOM     11  C   UNL     1      17.166 -11.892  33.263  1.00  0.00     0.000 C 
BRANCH  11  12
ATOM     12  C   UNL     1      17.742 -10.465  33.240  1.00  0.00     0.000 C 
BRANCH  12  13
ATOM     13  C   UNL     1      18.894 -10.208  34.232  1.00  0.00     0.006 C 
BRANCH  13  14
ATOM     14  C   UNL     1      20.043  -9.354  33.671  1.00  0.00     0.053 C 
BRANCH  14  15
ATOM     15  C   UNL     1      20.176  -8.045  34.387  1.00  0.00     0.041 C 
ATOM     16  O   UNL     1      19.254  -7.190  34.322  1.00  0.00    -0.550 OA
ATOM     17  O   UNL     1      21.308  -7.779  35.145  1.00  0.00    -0.550 OA
ENDBRANCH  14  15
ENDBRANCH  13  14
ENDBRANCH  12  13
ENDBRANCH  11  12
ENDBRANCH  10  11
ENDBRANCH   9  10
ENDBRANCH   8   9
ENDBRANCH   7   8
ENDBRANCH   6   7
ENDBRANCH   5   6
ENDBRANCH   4   5
ENDBRANCH   3   4
ENDBRANCH   2   3
ENDBRANCH   1   2
BRANCH   1  18
ATOM     18  C   UNL     1      19.241  -7.358  26.033  1.00  0.00     0.000 C 
BRANCH  18  19
ATOM     19  C   UNL     1      19.299  -6.368  27.209  1.00  0.00     0.000 C 
BRANCH  19  20
ATOM     20  C   UNL     1      20.593  -6.495  28.035  1.00  0.00     0.000 C 
BRANCH  20  21
ATOM     21  C   UNL     1      20.596  -5.721  29.367  1.00  0.00     0.000 C 
BRANCH  21  22
ATOM     22  C   UNL     1      20.220  -6.600  30.573  1.00  0.00     0.000 C 
BRANCH  22  23
ATOM     23  C   UNL     1      18.725  -6.511  30.921  1.00  0.00     0.000 C 
BRANCH  23  24
ATOM     24  C   UNL     1      18.049  -7.893  30.949  1.00  0.00    -0.000 C 
BRANCH  24  25
ATOM     25  C   UNL     1      17.247  -8.196  29.670  1.00  0.00    -0.000 C 
BRANCH  25  26
ATOM     26  C   UNL     1      15.988  -9.057  29.877  1.00  0.00    -0.000 C 
BRANCH  26  27
ATOM     27  C   UNL     1      15.204  -9.300  28.578  1.00  0.00    -0.000 C 
BRANCH  27  28
ATOM     28  C   UNL     1      15.148  -8.023  27.726  1.00  0.00    -0.000 C 
BRANCH  28  29
ATOM     29  C   UNL     1      14.168  -6.980  28.287  1.00  0.00    -0.000 C 
BRANCH  29  30
ATOM     30  C   UNL     1      14.325  -5.603  27.620  1.00  0.00    -0.000 C 
BRANCH  30  31
ATOM     31  C   UNL     1      15.794  -5.164  27.515  1.00  0.00    -0.003 C 
ATOM     32  C   UNL     1      16.354  -4.657  28.843  1.00  0.00     0.004 C 
ENDBRANCH  30  31
ENDBRANCH  29  30
ENDBRANCH  28  29
ENDBRANCH  27  28
ENDBRANCH  26  27
ENDBRANCH  25  26
ENDBRANCH  24  25
ENDBRANCH  23  24
ENDBRANCH  22  23
ENDBRANCH  21  22
ENDBRANCH  20  21
ENDBRANCH  19  20
ENDBRANCH  18  19
ENDBRANCH   1  18
TORSDOF 28
ENDMDL
