MODEL 1
REMARK VINA RESULT:    -4.374      0.000      0.000
REMARK INTER + INTRA:          -8.438
REMARK INTER:                  -6.932
REMARK INTRA:                  -1.506
REMARK UNBOUND:                -1.506
REMARK SMILES CCCCCCCCCCCC(=O)[O-]
REMARK SMILES IDX 7 1 8 2 9 3 10 4 11 5 12 6 13 7 14 8 6 9 5 10 4 11 3 12 2 13
REMARK SMILES IDX 1 14
REMARK H PARENT
REMARK Flexibility Score: inf
ROOT
ATOM      1  C   UNL     1      63.329  30.116  24.774  1.00  0.00     0.000 C 
ENDROOT
BRANCH   1   2
ATOM      2  C   UNL     1      61.839  29.765  24.914  1.00  0.00     0.000 C 
BRANCH   2   3
ATOM      3  C   UNL     1      61.537  28.310  24.517  1.00  0.00     0.000 C 
BRANCH   3   4
ATOM      4  C   UNL     1      60.776  27.545  25.612  1.00  0.00     0.006 C 
BRANCH   4   5
ATOM      5  C   UNL     1      61.667  27.177  26.805  1.00  0.00     0.053 C 
BRANCH   5   6
ATOM      6  C   UNL     1      61.155  27.819  28.056  1.00  0.00     0.041 C 
ATOM      7  O   UNL     1      60.509  27.141  28.898  1.00  0.00    -0.550 OA
ATOM      8  O   UNL     1      61.436  29.154  28.317  1.00  0.00    -0.550 OA
ENDBRANCH   5   6
ENDBRANCH   4   5
ENDBRANCH   3   4
ENDBRANCH   2   3
ENDBRANCH   1   2
BRANCH   1   9
ATOM      9  C   UNL     1      64.132  29.814  26.051  1.00  0.00     0.000 C 
BRANCH   9  10
ATOM     10  C   UNL     1      65.331  28.882  25.795  1.00  0.00    -0.000 C 
BRANCH  10  11
ATOM     11  C   UNL     1      65.663  28.650  24.309  1.00  0.00    -0.000 C 
BRANCH  11  12
ATOM     12  C   UNL     1      65.678  27.159  23.927  1.00  0.00    -0.000 C 
BRANCH  12  13
ATOM     13  C   UNL     1      64.758  26.313  24.821  1.00  0.00    -0.003 C 
ATOM     14  C   UNL     1      63.687  25.568  24.026  1.00  0.00     0.004 C 
ENDBRANCH  12  13
ENDBRANCH  11  12
ENDBRANCH  10  11
ENDBRANCH   9  10
ENDBRANCH   1   9
TORSDOF 10
ENDMDL
MODEL 2
REMARK VINA RESULT:    -4.343      2.811      4.873
REMARK INTER + INTRA:          -8.388
REMARK INTER:                  -6.799
REMARK INTRA:                  -1.588
REMARK UNBOUND:                -1.506
REMARK SMILES CCCCCCCCCCCC(=O)[O-]
REMARK SMILES IDX 7 1 8 2 9 3 10 4 11 5 12 6 13 7 14 8 6 9 5 10 4 11 3 12 2 13
REMARK SMILES IDX 1 14
REMARK H PARENT
REMARK Flexibility Score: inf
ROOT
ATOM      1  C   UNL     1      62.375  30.017  24.629  1.00  0.00     0.000 C 
ENDROOT
BRANCH   1   2
ATOM      2  C   UNL     1      63.886  29.988  24.913  1.00  0.00     0.000 C 
BRANCH   2   3
ATOM      3  C   UNL     1      64.615  28.899  24.107  1.00  0.00     0.000 C 
BRANCH   3   4
ATOM      4  C   UNL     1      65.488  27.996  24.992  1.00  0.00     0.006 C 
BRANCH   4   5
ATOM      5  C   UNL     1      64.842  26.631  25.264  1.00  0.00     0.053 C 
BRANCH   5   6
ATOM      6  C   UNL     1      64.647  25.882  23.983  1.00  0.00     0.041 C 
ATOM      7  O   UNL     1      63.504  25.466  23.660  1.00  0.00    -0.550 OA
ATOM      8  O   UNL     1      65.719  25.687  23.122  1.00  0.00    -0.550 OA
ENDBRANCH   5   6
ENDBRANCH   4   5
ENDBRANCH   3   4
ENDBRANCH   2   3
ENDBRANCH   1   2
BRANCH   1   9
ATOM      9  C   UNL     1      61.792  28.615  24.379  1.00  0.00     0.000 C 
BRANCH   9  10
ATOM     10  C   UNL     1      60.795  28.180  25.469  1.00  0.00    -0.000 C 
BRANCH  10  11
ATOM     11  C   UNL     1      61.303  27.063  26.400  1.00  0.00    -0.000 C 
BRANCH  11  12
ATOM     12  C   UNL     1      62.045  27.606  27.634  1.00  0.00    -0.000 C 
BRANCH  12  13
ATOM     13  C   UNL     1      61.454  28.931  28.140  1.00  0.00    -0.003 C 
ATOM     14  C   UNL     1      62.520  30.002  28.371  1.00  0.00     0.004 C 
ENDBRANCH  12  13
ENDBRANCH  11  12
ENDBRANCH  10  11
ENDBRANCH   9  10
ENDBRANCH   1   9
TORSDOF 10
ENDMDL
MODEL 3
REMARK VINA RESULT:    -4.294      2.706      4.535
REMARK INTER + INTRA:          -8.311
REMARK INTER:                  -6.690
REMARK INTRA:                  -1.621
REMARK UNBOUND:                -1.506
REMARK SMILES CCCCCCCCCCCC(=O)[O-]
REMARK SMILES IDX 7 1 8 2 9 3 10 4 11 5 12 6 13 7 14 8 6 9 5 10 4 11 3 12 2 13
REMARK SMILES IDX 1 14
REMARK H PARENT
REMARK Flexibility Score: inf
ROOT
ATOM      1  C   UNL     1      63.455  30.720  26.507  1.00  0.00     0.000 C 
ENDROOT
BRANCH   1   2
ATOM      2  C   UNL     1      64.349  30.128  25.405  1.00  0.00     0.000 C 
BRANCH   2   3
ATOM      3  C   UNL     1      65.175  28.927  25.899  1.00  0.00     0.000 C 
BRANCH   3   4
ATOM      4  C   UNL     1      65.454  27.905  24.786  1.00  0.00     0.006 C 
BRANCH   4   5
ATOM      5  C   UNL     1      64.891  26.514  25.104  1.00  0.00     0.053 C 
BRANCH   5   6
ATOM      6  C   UNL     1      64.385  25.858  23.858  1.00  0.00     0.041 C 
ATOM      7  O   UNL     1      63.306  25.209  23.877  1.00  0.00    -0.550 OA
ATOM      8  O   UNL     1      65.079  26.006  22.664  1.00  0.00    -0.550 OA
ENDBRANCH   5   6
ENDBRANCH   4   5
ENDBRANCH   3   4
ENDBRANCH   2   3
ENDBRANCH   1   2
BRANCH   1   9
ATOM      9  C   UNL     1      63.366  29.816  27.749  1.00  0.00     0.000 C 
BRANCH   9  10
ATOM     10  C   UNL     1      61.964  29.209  27.945  1.00  0.00    -0.000 C 
BRANCH  10  11
ATOM     11  C   UNL     1      61.926  27.669  27.978  1.00  0.00    -0.000 C 
BRANCH  11  12
ATOM     12  C   UNL     1      61.687  27.048  26.590  1.00  0.00    -0.000 C 
BRANCH  12  13
ATOM     13  C   UNL     1      60.814  27.936  25.691  1.00  0.00    -0.003 C 
ATOM     14  C   UNL     1      61.475  28.245  24.348  1.00  0.00     0.004 C 
ENDBRANCH  12  13
ENDBRANCH  11  12
ENDBRANCH  10  11
ENDBRANCH   9  10
ENDBRANCH   1   9
TORSDOF 10
ENDMDL
MODEL 4
REMARK VINA RESULT:    -4.267     13.412     14.499
REMARK INTER + INTRA:          -8.269
REMARK INTER:                  -6.823
REMARK INTRA:                  -1.446
REMARK UNBOUND:                -1.506
REMARK SMILES CCCCCCCCCCCC(=O)[O-]
REMARK SMILES IDX 7 1 8 2 9 3 10 4 11 5 12 6 13 7 14 8 6 9 5 10 4 11 3 12 2 13
REMARK SMILES IDX 1 14
REMARK H PARENT
REMARK Flexibility Score: inf
ROOT
ATOM      1  C   UNL     1      63.122  29.020  12.588  1.00  0.00     0.000 C 
ENDROOT
BRANCH   1   2
ATOM      2  C   UNL     1      61.820  29.073  13.403  1.00  0.00     0.000 C 
BRANCH   2   3
ATOM      3  C   UNL     1      60.733  28.141  12.839  1.00  0.00     0.000 C 
BRANCH   3   4
ATOM      4  C   UNL     1      59.527  28.911  12.280  1.00  0.00     0.006 C 
BRANCH   4   5
ATOM      5  C   UNL     1      59.911  29.864  11.140  1.00  0.00     0.053 C 
BRANCH   5   6
ATOM      6  C   UNL     1      60.234  29.091   9.900  1.00  0.00     0.041 C 
ATOM      7  O   UNL     1      61.418  29.042   9.474  1.00  0.00    -0.550 OA
ATOM      8  O   UNL     1      59.236  28.383   9.243  1.00  0.00    -0.550 OA
ENDBRANCH   5   6
ENDBRANCH   4   5
ENDBRANCH   3   4
ENDBRANCH   2   3
ENDBRANCH   1   2
BRANCH   1   9
ATOM      9  C   UNL     1      63.534  30.396  12.038  1.00  0.00     0.000 C 
BRANCH   9  10
ATOM     10  C   UNL     1      63.935  31.386  13.146  1.00  0.00    -0.000 C 
BRANCH  10  11
ATOM     11  C   UNL     1      63.254  32.765  13.059  1.00  0.00    -0.000 C 
BRANCH  11  12
ATOM     12  C   UNL     1      62.074  32.911  14.036  1.00  0.00    -0.000 C 
BRANCH  12  13
ATOM     13  C   UNL     1      60.712  32.773  13.339  1.00  0.00    -0.003 C 
ATOM     14  C   UNL     1      59.662  32.103  14.225  1.00  0.00     0.004 C 
ENDBRANCH  12  13
ENDBRANCH  11  12
ENDBRANCH  10  11
ENDBRANCH   9  10
ENDBRANCH   1   9
TORSDOF 10
ENDMDL
MODEL 5
REMARK VINA RESULT:    -4.260     13.297     14.472
REMARK INTER + INTRA:          -8.256
REMARK INTER:                  -6.699
REMARK INTRA:                  -1.557
REMARK UNBOUND:                -1.506
REMARK SMILES CCCCCCCCCCCC(=O)[O-]
REMARK SMILES IDX 7 1 8 2 9 3 10 4 11 5 12 6 13 7 14 8 6 9 5 10 4 11 3 12 2 13
REMARK SMILES IDX 1 14
REMARK H PARENT
REMARK Flexibility Score: inf
ROOT
ATOM      1  C   UNL     1      63.390  29.020  10.433  1.00  0.00     0.000 C 
ENDROOT
BRANCH   1   2
ATOM      2  C   UNL     1      63.549  29.702  11.801  1.00  0.00     0.000 C 
BRANCH   2   3
ATOM      3  C   UNL     1      63.071  31.164  11.789  1.00  0.00     0.000 C 
BRANCH   3   4
ATOM      4  C   UNL     1      62.506  31.611  13.146  1.00  0.00     0.006 C 
BRANCH   4   5
ATOM      5  C   UNL     1      61.218  32.434  13.009  1.00  0.00     0.053 C 
BRANCH   5   6
ATOM      6  C   UNL     1      60.257  32.085  14.102  1.00  0.00     0.041 C 
ATOM      7  O   UNL     1      59.079  31.738  13.823  1.00  0.00    -0.550 OA
ATOM      8  O   UNL     1      60.677  32.094  15.426  1.00  0.00    -0.550 OA
ENDBRANCH   5   6
ENDBRANCH   4   5
ENDBRANCH   3   4
ENDBRANCH   2   3
ENDBRANCH   1   2
BRANCH   1   9
ATOM      9  C   UNL     1      62.234  29.609   9.607  1.00  0.00     0.000 C 
BRANCH   9  10
ATOM     10  C   UNL     1      61.199  28.548   9.187  1.00  0.00    -0.000 C 
BRANCH  10  11
ATOM     11  C   UNL     1      59.779  28.780   9.735  1.00  0.00    -0.000 C 
BRANCH  11  12
ATOM     12  C   UNL     1      59.772  29.506  11.092  1.00  0.00    -0.000 C 
BRANCH  12  13
ATOM     13  C   UNL     1      59.405  28.574  12.256  1.00  0.00    -0.003 C 
ATOM     14  C   UNL     1      60.568  28.349  13.221  1.00  0.00     0.004 C 
ENDBRANCH  12  13
ENDBRANCH  11  12
ENDBRANCH  10  11
ENDBRANCH   9  10
ENDBRANCH   1   9
TORSDOF 10
ENDMDL
MODEL 6
REMARK VINA RESULT:    -4.215      2.631      5.056
REMARK INTER + INTRA:          -8.186
REMARK INTER:                  -6.722
REMARK INTRA:                  -1.464
REMARK UNBOUND:                -1.506
REMARK SMILES CCCCCCCCCCCC(=O)[O-]
REMARK SMILES IDX 7 1 8 2 9 3 10 4 11 5 12 6 13 7 14 8 6 9 5 10 4 11 3 12 2 13
REMARK SMILES IDX 1 14
REMARK H PARENT
REMARK Flexibility Score: inf
ROOT
ATOM      1  C   UNL     1      60.787  27.962  25.618  1.00  0.00     0.000 C 
ENDROOT
BRANCH   1   2
ATOM      2  C   UNL     1      61.710  28.527  24.527  1.00  0.00     0.000 C 
BRANCH   2   3
ATOM      3  C   UNL     1      62.467  29.785  24.988  1.00  0.00     0.000 C 
BRANCH   3   4
ATOM      4  C   UNL     1      63.979  29.690  24.733  1.00  0.00     0.006 C 
BRANCH   4   5
ATOM      5  C   UNL     1      64.684  28.734  25.704  1.00  0.00     0.053 C 
BRANCH   5   6
ATOM      6  C   UNL     1      65.184  27.525  24.976  1.00  0.00     0.041 C 
ATOM      7  O   UNL     1      66.000  27.651  24.025  1.00  0.00    -0.550 OA
ATOM      8  O   UNL     1      64.787  26.257  25.380  1.00  0.00    -0.550 OA
ENDBRANCH   5   6
ENDBRANCH   4   5
ENDBRANCH   3   4
ENDBRANCH   2   3
ENDBRANCH   1   2
BRANCH   1   9
ATOM      9  C   UNL     1      61.550  27.145  26.676  1.00  0.00     0.000 C 
BRANCH   9  10
ATOM     10  C   UNL     1      61.126  27.489  28.115  1.00  0.00    -0.000 C 
BRANCH  10  11
ATOM     11  C   UNL     1      61.252  28.978  28.487  1.00  0.00    -0.000 C 
BRANCH  11  12
ATOM     12  C   UNL     1      62.695  29.389  28.829  1.00  0.00    -0.000 C 
BRANCH  12  13
ATOM     13  C   UNL     1      62.980  30.863  28.504  1.00  0.00    -0.003 C 
ATOM     14  C   UNL     1      64.468  31.204  28.571  1.00  0.00     0.004 C 
ENDBRANCH  12  13
ENDBRANCH  11  12
ENDBRANCH  10  11
ENDBRANCH   9  10
ENDBRANCH   1   9
TORSDOF 10
ENDMDL
MODEL 7
REMARK VINA RESULT:    -4.195      1.820      2.572
REMARK INTER + INTRA:          -8.154
REMARK INTER:                  -7.058
REMARK INTRA:                  -1.096
REMARK UNBOUND:                -1.506
REMARK SMILES CCCCCCCCCCCC(=O)[O-]
REMARK SMILES IDX 7 1 8 2 9 3 10 4 11 5 12 6 13 7 14 8 6 9 5 10 4 11 3 12 2 13
REMARK SMILES IDX 1 14
REMARK H PARENT
REMARK Flexibility Score: inf
ROOT
ATOM      1  C   UNL     1      63.753  30.346  26.611  1.00  0.00     0.000 C 
ENDROOT
BRANCH   1   2
ATOM      2  C   UNL     1      62.969  30.478  27.926  1.00  0.00     0.000 C 
BRANCH   2   3
ATOM      3  C   UNL     1      62.526  29.115  28.487  1.00  0.00     0.000 C 
BRANCH   3   4
ATOM      4  C   UNL     1      61.233  28.601  27.835  1.00  0.00     0.006 C 
BRANCH   4   5
ATOM      5  C   UNL     1      61.463  27.359  26.963  1.00  0.00     0.053 C 
BRANCH   5   6
ATOM      6  C   UNL     1      60.786  27.519  25.638  1.00  0.00     0.041 C 
ATOM      7  O   UNL     1      61.207  28.369  24.810  1.00  0.00    -0.550 OA
ATOM      8  O   UNL     1      59.721  26.694  25.298  1.00  0.00    -0.550 OA
ENDBRANCH   5   6
ENDBRANCH   4   5
ENDBRANCH   3   4
ENDBRANCH   2   3
ENDBRANCH   1   2
BRANCH   1   9
ATOM      9  C   UNL     1      65.243  30.033  26.837  1.00  0.00     0.000 C 
BRANCH   9  10
ATOM     10  C   UNL     1      65.831  29.114  25.751  1.00  0.00    -0.000 C 
BRANCH  10  11
ATOM     11  C   UNL     1      64.787  28.340  24.925  1.00  0.00    -0.000 C 
BRANCH  11  12
ATOM     12  C   UNL     1      64.729  26.845  25.286  1.00  0.00    -0.000 C 
BRANCH  12  13
ATOM     13  C   UNL     1      64.396  25.960  24.075  1.00  0.00    -0.003 C 
ATOM     14  C   UNL     1      65.610  25.703  23.182  1.00  0.00     0.004 C 
ENDBRANCH  12  13
ENDBRANCH  11  12
ENDBRANCH  10  11
ENDBRANCH   9  10
ENDBRANCH   1   9
TORSDOF 10
ENDMDL
MODEL 8
REMARK VINA RESULT:    -4.172     13.373     14.511
REMARK INTER + INTRA:          -8.118
REMARK INTER:                  -6.675
REMARK INTRA:                  -1.443
REMARK UNBOUND:                -1.506
REMARK SMILES CCCCCCCCCCCC(=O)[O-]
REMARK SMILES IDX 7 1 8 2 9 3 10 4 11 5 12 6 13 7 14 8 6 9 5 10 4 11 3 12 2 13
REMARK SMILES IDX 1 14
REMARK H PARENT
REMARK Flexibility Score: inf
ROOT
ATOM      1  C   UNL     1      60.629  28.700  13.384  1.00  0.00     0.000 C 
ENDROOT
BRANCH   1   2
ATOM      2  C   UNL     1      62.097  28.626  12.933  1.00  0.00     0.000 C 
BRANCH   2   3
ATOM      3  C   UNL     1      62.930  29.814  13.444  1.00  0.00     0.000 C 
BRANCH   3   4
ATOM      4  C   UNL     1      62.701  31.093  12.622  1.00  0.00     0.006 C 
BRANCH   4   5
ATOM      5  C   UNL     1      62.297  32.291  13.492  1.00  0.00     0.053 C 
BRANCH   5   6
ATOM      6  C   UNL     1      60.808  32.364  13.621  1.00  0.00     0.041 C 
ATOM      7  O   UNL     1      60.083  32.371  12.591  1.00  0.00    -0.550 OA
ATOM      8  O   UNL     1      60.219  32.372  14.878  1.00  0.00    -0.550 OA
ENDBRANCH   5   6
ENDBRANCH   4   5
ENDBRANCH   3   4
ENDBRANCH   2   3
ENDBRANCH   1   2
BRANCH   1   9
ATOM      9  C   UNL     1      59.641  28.442  12.233  1.00  0.00     0.000 C 
BRANCH   9  10
ATOM     10  C   UNL     1      59.898  29.344  11.012  1.00  0.00    -0.000 C 
BRANCH  10  11
ATOM     11  C   UNL     1      59.828  28.626   9.652  1.00  0.00    -0.000 C 
BRANCH  11  12
ATOM     12  C   UNL     1      61.217  28.343   9.053  1.00  0.00    -0.000 C 
BRANCH  12  13
ATOM     13  C   UNL     1      62.189  29.518   9.241  1.00  0.00    -0.003 C 
ATOM     14  C   UNL     1      63.610  29.060   9.567  1.00  0.00     0.004 C 
ENDBRANCH  12  13
ENDBRANCH  11  12
ENDBRANCH  10  11
ENDBRANCH   9  10
ENDBRANCH   1   9
TORSDOF 10
ENDMDL
MODEL 9
REMARK VINA RESULT:    -4.152      1.202      3.050
REMARK INTER + INTRA:          -8.086
REMARK INTER:                  -6.542
REMARK INTRA:                  -1.544
REMARK UNBOUND:                -1.506
REMARK SMILES CCCCCCCCCCCC(=O)[O-]
REMARK SMILES IDX 7 1 8 2 9 3 10 4 11 5 12 6 13 7 14 8 6 9 5 10 4 11 3 12 2 13
REMARK SMILES IDX 1 14
REMARK H PARENT
REMARK Flexibility Score: inf
ROOT
ATOM      1  C   UNL     1      64.896  26.058  24.836  1.00  0.00     0.000 C 
ENDROOT
BRANCH   1   2
ATOM      2  C   UNL     1      63.520  26.381  25.442  1.00  0.00     0.000 C 
BRANCH   2   3
ATOM      3  C   UNL     1      62.643  27.222  24.498  1.00  0.00     0.000 C 
BRANCH   3   4
ATOM      4  C   UNL     1      61.637  28.102  25.256  1.00  0.00     0.006 C 
BRANCH   4   5
ATOM      5  C   UNL     1      61.437  27.655  26.710  1.00  0.00     0.053 C 
BRANCH   5   6
ATOM      6  C   UNL     1      61.531  28.829  27.634  1.00  0.00     0.041 C 
ATOM      7  O   UNL     1      62.271  29.806  27.344  1.00  0.00    -0.550 OA
ATOM      8  O   UNL     1      60.763  28.866  28.790  1.00  0.00    -0.550 OA
ENDBRANCH   5   6
ENDBRANCH   4   5
ENDBRANCH   3   4
ENDBRANCH   2   3
ENDBRANCH   1   2
BRANCH   1   9
ATOM      9  C   UNL     1      64.907  26.161  23.301  1.00  0.00     0.000 C 
BRANCH   9  10
ATOM     10  C   UNL     1      65.995  27.114  22.775  1.00  0.00    -0.000 C 
BRANCH  10  11
ATOM     11  C   UNL     1      66.359  28.268  23.728  1.00  0.00    -0.000 C 
BRANCH  11  12
ATOM     12  C   UNL     1      65.469  29.509  23.532  1.00  0.00    -0.000 C 
BRANCH  12  13
ATOM     13  C   UNL     1      64.939  30.068  24.861  1.00  0.00    -0.003 C 
ATOM     14  C   UNL     1      65.636  29.458  26.077  1.00  0.00     0.004 C 
ENDBRANCH  12  13
ENDBRANCH  11  12
ENDBRANCH  10  11
ENDBRANCH   9  10
ENDBRANCH   1   9
TORSDOF 10
ENDMDL
