MODEL 1
REMARK VINA RESULT:    -3.355      0.000      0.000
REMARK INTER + INTRA:          -3.786
REMARK INTER:                  -3.748
REMARK INTRA:                  -0.038
REMARK UNBOUND:                -0.038
REMARK SMILES CCCC(=O)[O-]
REMARK SMILES IDX 3 1 4 2 5 3 6 4 2 5 1 6
REMARK H PARENT
REMARK Flexibility Score: inf
ROOT
ATOM      1  C   UNL     1      14.396 -60.511 -31.664  1.00  0.00     0.052 C 
ENDROOT
BRANCH   1   2
ATOM      2  C   UNL     1      13.158 -59.825 -31.181  1.00  0.00     0.041 C 
ATOM      3  O   UNL     1      12.071 -60.457 -31.112  1.00  0.00    -0.550 OA
ATOM      4  O   UNL     1      13.215 -58.503 -30.760  1.00  0.00    -0.550 OA
ENDBRANCH   1   2
BRANCH   1   5
ATOM      5  C   UNL     1      14.258 -60.894 -33.140  1.00  0.00     0.003 C 
ATOM      6  C   UNL     1      13.827 -59.697 -33.983  1.00  0.00     0.004 C 
ENDBRANCH   1   5
TORSDOF 2
ENDMDL
MODEL 2
REMARK VINA RESULT:    -3.298     10.170     10.928
REMARK INTER + INTRA:          -3.722
REMARK INTER:                  -3.709
REMARK INTRA:                  -0.013
REMARK UNBOUND:                -0.038
REMARK SMILES CCCC(=O)[O-]
REMARK SMILES IDX 3 1 4 2 5 3 6 4 2 5 1 6
REMARK H PARENT
REMARK Flexibility Score: inf
ROOT
ATOM      1  C   UNL     1      10.172 -57.629 -22.846  1.00  0.00     0.052 C 
ENDROOT
BRANCH   1   2
ATOM      2  C   UNL     1       9.896 -56.165 -22.982  1.00  0.00     0.041 C 
ATOM      3  O   UNL     1      10.575 -55.329 -22.330  1.00  0.00    -0.550 OA
ATOM      4  O   UNL     1       8.922 -55.721 -23.868  1.00  0.00    -0.550 OA
ENDBRANCH   1   2
BRANCH   1   5
ATOM      5  C   UNL     1       9.826 -58.111 -21.434  1.00  0.00     0.003 C 
ATOM      6  C   UNL     1      10.684 -59.308 -21.035  1.00  0.00     0.004 C 
ENDBRANCH   1   5
TORSDOF 2
ENDMDL
MODEL 3
REMARK VINA RESULT:    -3.225      2.200      3.161
REMARK INTER + INTRA:          -3.641
REMARK INTER:                  -3.653
REMARK INTRA:                   0.013
REMARK UNBOUND:                -0.038
REMARK SMILES CCCC(=O)[O-]
REMARK SMILES IDX 3 1 4 2 5 3 6 4 2 5 1 6
REMARK H PARENT
REMARK Flexibility Score: inf
ROOT
ATOM      1  C   UNL     1      13.328 -59.294 -31.952  1.00  0.00     0.052 C 
ENDROOT
BRANCH   1   2
ATOM      2  C   UNL     1      13.724 -59.902 -33.259  1.00  0.00     0.041 C 
ATOM      3  O   UNL     1      13.503 -59.288 -34.336  1.00  0.00    -0.550 OA
ATOM      4  O   UNL     1      14.384 -61.125 -33.286  1.00  0.00    -0.550 OA
ENDBRANCH   1   2
BRANCH   1   5
ATOM      5  C   UNL     1      12.809 -60.371 -30.994  1.00  0.00     0.003 C 
ATOM      6  C   UNL     1      13.875 -60.763 -29.975  1.00  0.00     0.004 C 
ENDBRANCH   1   5
TORSDOF 2
ENDMDL
MODEL 4
REMARK VINA RESULT:    -3.203     11.869     12.779
REMARK INTER + INTRA:          -3.616
REMARK INTER:                  -3.598
REMARK INTRA:                  -0.018
REMARK UNBOUND:                -0.038
REMARK SMILES CCCC(=O)[O-]
REMARK SMILES IDX 3 1 4 2 5 3 6 4 2 5 1 6
REMARK H PARENT
REMARK Flexibility Score: inf
ROOT
ATOM      1  C   UNL     1      11.172 -60.261 -19.280  1.00  0.00     0.052 C 
ENDROOT
BRANCH   1   2
ATOM      2  C   UNL     1      12.495 -60.736 -18.769  1.00  0.00     0.041 C 
ATOM      3  O   UNL     1      13.501 -60.741 -19.526  1.00  0.00    -0.550 OA
ATOM      4  O   UNL     1      12.628 -61.125 -17.442  1.00  0.00    -0.550 OA
ENDBRANCH   1   2
BRANCH   1   5
ATOM      5  C   UNL     1      11.250 -59.971 -20.782  1.00  0.00     0.003 C 
ATOM      6  C   UNL     1      10.280 -58.862 -21.181  1.00  0.00     0.004 C 
ENDBRANCH   1   5
TORSDOF 2
ENDMDL
MODEL 5
REMARK VINA RESULT:    -3.130     12.506     13.626
REMARK INTER + INTRA:          -3.535
REMARK INTER:                  -3.513
REMARK INTRA:                  -0.022
REMARK UNBOUND:                -0.038
REMARK SMILES CCCC(=O)[O-]
REMARK SMILES IDX 3 1 4 2 5 3 6 4 2 5 1 6
REMARK H PARENT
REMARK Flexibility Score: inf
ROOT
ATOM      1  C   UNL     1      12.536 -60.832 -18.156  1.00  0.00     0.052 C 
ENDROOT
BRANCH   1   2
ATOM      2  C   UNL     1      12.659 -60.620 -19.632  1.00  0.00     0.041 C 
ATOM      3  O   UNL     1      13.795 -60.509 -20.163  1.00  0.00    -0.550 OA
ATOM      4  O   UNL     1      11.520 -60.596 -20.428  1.00  0.00    -0.550 OA
ENDBRANCH   1   2
BRANCH   1   5
ATOM      5  C   UNL     1      11.142 -60.423 -17.670  1.00  0.00     0.003 C 
ATOM      6  C   UNL     1      11.225 -59.299 -16.642  1.00  0.00     0.004 C 
ENDBRANCH   1   5
TORSDOF 2
ENDMDL
MODEL 6
REMARK VINA RESULT:    -3.125     15.914     16.483
REMARK INTER + INTRA:          -3.528
REMARK INTER:                  -3.522
REMARK INTRA:                  -0.006
REMARK UNBOUND:                -0.038
REMARK SMILES CCCC(=O)[O-]
REMARK SMILES IDX 3 1 4 2 5 3 6 4 2 5 1 6
REMARK H PARENT
REMARK Flexibility Score: inf
ROOT
ATOM      1  C   UNL     1      16.926 -47.608 -21.823  1.00  0.00     0.052 C 
ENDROOT
BRANCH   1   2
ATOM      2  C   UNL     1      17.103 -46.589 -22.903  1.00  0.00     0.041 C 
ATOM      3  O   UNL     1      17.942 -46.780 -23.822  1.00  0.00    -0.550 OA
ATOM      4  O   UNL     1      16.306 -45.451 -22.923  1.00  0.00    -0.550 OA
ENDBRANCH   1   2
BRANCH   1   5
ATOM      5  C   UNL     1      15.442 -47.931 -21.628  1.00  0.00     0.003 C 
ATOM      6  C   UNL     1      15.258 -49.245 -20.874  1.00  0.00     0.004 C 
ENDBRANCH   1   5
TORSDOF 2
ENDMDL
MODEL 7
REMARK VINA RESULT:    -3.092     12.548     13.627
REMARK INTER + INTRA:          -3.492
REMARK INTER:                  -3.459
REMARK INTRA:                  -0.034
REMARK UNBOUND:                -0.038
REMARK SMILES CCCC(=O)[O-]
REMARK SMILES IDX 3 1 4 2 5 3 6 4 2 5 1 6
REMARK H PARENT
REMARK Flexibility Score: inf
ROOT
ATOM      1  C   UNL     1      12.584 -60.927 -18.095  1.00  0.00     0.052 C 
ENDROOT
BRANCH   1   2
ATOM      2  C   UNL     1      12.688 -60.663 -19.563  1.00  0.00     0.041 C 
ATOM      3  O   UNL     1      11.650 -60.627 -20.275  1.00  0.00    -0.550 OA
ATOM      4  O   UNL     1      13.927 -60.407 -20.137  1.00  0.00    -0.550 OA
ENDBRANCH   1   2
BRANCH   1   5
ATOM      5  C   UNL     1      11.190 -60.557 -17.580  1.00  0.00     0.003 C 
ATOM      6  C   UNL     1      11.233 -59.290 -16.732  1.00  0.00     0.004 C 
ENDBRANCH   1   5
TORSDOF 2
ENDMDL
MODEL 8
REMARK VINA RESULT:    -3.078     13.046     13.973
REMARK INTER + INTRA:          -3.476
REMARK INTER:                  -3.452
REMARK INTRA:                  -0.024
REMARK UNBOUND:                -0.038
REMARK SMILES CCCC(=O)[O-]
REMARK SMILES IDX 3 1 4 2 5 3 6 4 2 5 1 6
REMARK H PARENT
REMARK Flexibility Score: inf
ROOT
ATOM      1  C   UNL     1      12.618 -60.744 -17.984  1.00  0.00     0.052 C 
ENDROOT
BRANCH   1   2
ATOM      2  C   UNL     1      13.769 -60.120 -17.262  1.00  0.00     0.041 C 
ATOM      3  O   UNL     1      14.764 -59.694 -17.906  1.00  0.00    -0.550 OA
ATOM      4  O   UNL     1      13.722 -59.963 -15.883  1.00  0.00    -0.550 OA
ENDBRANCH   1   2
BRANCH   1   5
ATOM      5  C   UNL     1      12.890 -60.790 -19.491  1.00  0.00     0.003 C 
ATOM      6  C   UNL     1      11.661 -60.358 -20.286  1.00  0.00     0.004 C 
ENDBRANCH   1   5
TORSDOF 2
ENDMDL
MODEL 9
REMARK VINA RESULT:    -0.389      2.127      2.909
REMARK INTER + INTRA:          -0.473
REMARK INTER:                  -0.412
REMARK INTRA:                  -0.061
REMARK UNBOUND:                -0.038
REMARK SMILES CCCC(=O)[O-]
REMARK SMILES IDX 3 1 4 2 5 3 6 4 2 5 1 6
REMARK H PARENT
REMARK Flexibility Score: inf
ROOT
ATOM      1  C   UNL     1      12.766 -60.242 -31.706  1.00  0.00     0.052 C 
ENDROOT
BRANCH   1   2
ATOM      2  C   UNL     1      13.924 -60.502 -32.615  1.00  0.00     0.041 C 
ATOM      3  O   UNL     1      14.934 -61.125 -32.192  1.00  0.00    -0.550 OA
ATOM      4  O   UNL     1      13.868 -60.102 -33.944  1.00  0.00    -0.550 OA
ENDBRANCH   1   2
BRANCH   1   5
ATOM      5  C   UNL     1      13.137 -59.197 -30.649  1.00  0.00     0.003 C 
ATOM      6  C   UNL     1      13.126 -57.790 -31.237  1.00  0.00     0.004 C 
ENDBRANCH   1   5
TORSDOF 2
ENDMDL
