MODEL 1
REMARK VINA RESULT:    -4.825      0.000      0.000
REMARK INTER + INTRA:          -9.570
REMARK INTER:                  -8.209
REMARK INTRA:                  -1.361
REMARK UNBOUND:                -1.361
REMARK SMILES CCCCCCCCCCCCCC(=O)[O-]
REMARK SMILES IDX 8 1 9 2 10 3 11 4 12 5 13 6 14 7 15 8 16 9 7 10 6 11 5 12
REMARK SMILES IDX 4 13 3 14 2 15 1 16
REMARK H PARENT
REMARK Flexibility Score: inf
ROOT
ATOM      1  C   UNL     1      20.291 -44.603 -23.727  1.00  0.00     0.000 C 
ENDROOT
BRANCH   1   2
ATOM      2  C   UNL     1      20.159 -43.655 -22.523  1.00  0.00     0.000 C 
BRANCH   2   3
ATOM      3  C   UNL     1      19.693 -42.248 -22.930  1.00  0.00     0.000 C 
BRANCH   3   4
ATOM      4  C   UNL     1      18.908 -42.241 -24.250  1.00  0.00     0.000 C 
BRANCH   4   5
ATOM      5  C   UNL     1      17.538 -41.570 -24.070  1.00  0.00     0.006 C 
BRANCH   5   6
ATOM      6  C   UNL     1      17.188 -41.351 -22.593  1.00  0.00     0.053 C 
BRANCH   6   7
ATOM      7  C   UNL     1      15.782 -41.770 -22.288  1.00  0.00     0.041 C 
ATOM      8  O   UNL     1      15.296 -41.573 -21.143  1.00  0.00    -0.550 OA
ATOM      9  O   UNL     1      14.998 -42.348 -23.278  1.00  0.00    -0.550 OA
ENDBRANCH   6   7
ENDBRANCH   5   6
ENDBRANCH   4   5
ENDBRANCH   3   4
ENDBRANCH   2   3
ENDBRANCH   1   2
BRANCH   1  10
ATOM     10  C   UNL     1      19.522 -45.921 -23.535  1.00  0.00     0.000 C 
BRANCH  10  11
ATOM     11  C   UNL     1      18.141 -45.938 -24.223  1.00  0.00    -0.000 C 
BRANCH  11  12
ATOM     12  C   UNL     1      17.013 -45.502 -23.269  1.00  0.00    -0.000 C 
BRANCH  12  13
ATOM     13  C   UNL     1      17.162 -46.105 -21.864  1.00  0.00    -0.000 C 
BRANCH  13  14
ATOM     14  C   UNL     1      16.852 -47.612 -21.830  1.00  0.00    -0.000 C 
BRANCH  14  15
ATOM     15  C   UNL     1      15.368 -47.900 -21.555  1.00  0.00    -0.003 C 
ATOM     16  C   UNL     1      15.146 -49.251 -20.877  1.00  0.00     0.004 C 
ENDBRANCH  14  15
ENDBRANCH  13  14
ENDBRANCH  12  13
ENDBRANCH  11  12
ENDBRANCH  10  11
ENDBRANCH   1  10
TORSDOF 12
ENDMDL
MODEL 2
REMARK VINA RESULT:    -4.715      1.727      3.493
REMARK INTER + INTRA:          -9.384
REMARK INTER:                  -7.431
REMARK INTRA:                  -1.953
REMARK UNBOUND:                -1.361
REMARK SMILES CCCCCCCCCCCCCC(=O)[O-]
REMARK SMILES IDX 8 1 9 2 10 3 11 4 12 5 13 6 14 7 15 8 16 9 7 10 6 11 5 12
REMARK SMILES IDX 4 13 3 14 2 15 1 16
REMARK H PARENT
REMARK Flexibility Score: inf
ROOT
ATOM      1  C   UNL     1      18.982 -41.716 -24.581  1.00  0.00     0.000 C 
ENDROOT
BRANCH   1   2
ATOM      2  C   UNL     1      17.840 -41.240 -23.667  1.00  0.00     0.000 C 
BRANCH   2   3
ATOM      3  C   UNL     1      16.562 -42.078 -23.836  1.00  0.00     0.000 C 
BRANCH   3   4
ATOM      4  C   UNL     1      15.784 -42.246 -22.522  1.00  0.00     0.000 C 
BRANCH   4   5
ATOM      5  C   UNL     1      16.441 -41.444 -21.389  1.00  0.00     0.006 C 
BRANCH   5   6
ATOM      6  C   UNL     1      16.793 -42.324 -20.183  1.00  0.00     0.053 C 
BRANCH   6   7
ATOM      7  C   UNL     1      16.218 -41.779 -18.911  1.00  0.00     0.041 C 
ATOM      8  O   UNL     1      14.975 -41.614 -18.797  1.00  0.00    -0.550 OA
ATOM      9  O   UNL     1      17.053 -41.485 -17.840  1.00  0.00    -0.550 OA
ENDBRANCH   6   7
ENDBRANCH   5   6
ENDBRANCH   4   5
ENDBRANCH   3   4
ENDBRANCH   2   3
ENDBRANCH   1   2
BRANCH   1  10
ATOM     10  C   UNL     1      20.166 -42.307 -23.797  1.00  0.00     0.000 C 
BRANCH  10  11
ATOM     11  C   UNL     1      19.895 -42.453 -22.285  1.00  0.00    -0.000 C 
BRANCH  11  12
ATOM     12  C   UNL     1      19.861 -43.928 -21.842  1.00  0.00    -0.000 C 
BRANCH  12  13
ATOM     13  C   UNL     1      19.618 -44.891 -23.015  1.00  0.00    -0.000 C 
BRANCH  13  14
ATOM     14  C   UNL     1      18.133 -45.258 -23.182  1.00  0.00    -0.000 C 
BRANCH  14  15
ATOM     15  C   UNL     1      17.463 -45.618 -21.848  1.00  0.00    -0.003 C 
ATOM     16  C   UNL     1      16.657 -46.914 -21.923  1.00  0.00     0.004 C 
ENDBRANCH  14  15
ENDBRANCH  13  14
ENDBRANCH  12  13
ENDBRANCH  11  12
ENDBRANCH  10  11
ENDBRANCH   1  10
TORSDOF 12
ENDMDL
MODEL 3
REMARK VINA RESULT:    -4.714      3.337      5.870
REMARK INTER + INTRA:          -9.382
REMARK INTER:                  -7.375
REMARK INTRA:                  -2.007
REMARK UNBOUND:                -1.361
REMARK SMILES CCCCCCCCCCCCCC(=O)[O-]
REMARK SMILES IDX 8 1 9 2 10 3 11 4 12 5 13 6 14 7 15 8 16 9 7 10 6 11 5 12
REMARK SMILES IDX 4 13 3 14 2 15 1 16
REMARK H PARENT
REMARK Flexibility Score: inf
ROOT
ATOM      1  C   UNL     1      16.154 -43.240 -22.971  1.00  0.00     0.000 C 
ENDROOT
BRANCH   1   2
ATOM      2  C   UNL     1      16.958 -43.401 -21.670  1.00  0.00     0.000 C 
BRANCH   2   3
ATOM      3  C   UNL     1      17.808 -44.682 -21.657  1.00  0.00     0.000 C 
BRANCH   3   4
ATOM      4  C   UNL     1      17.001 -45.933 -22.036  1.00  0.00     0.000 C 
BRANCH   4   5
ATOM      5  C   UNL     1      17.901 -47.177 -22.071  1.00  0.00     0.006 C 
BRANCH   5   6
ATOM      6  C   UNL     1      19.387 -46.816 -22.186  1.00  0.00     0.053 C 
BRANCH   6   7
ATOM      7  C   UNL     1      20.231 -47.630 -21.254  1.00  0.00     0.041 C 
ATOM      8  O   UNL     1      19.864 -48.785 -20.911  1.00  0.00    -0.550 OA
ATOM      9  O   UNL     1      21.440 -47.126 -20.790  1.00  0.00    -0.550 OA
ENDBRANCH   6   7
ENDBRANCH   5   6
ENDBRANCH   4   5
ENDBRANCH   3   4
ENDBRANCH   2   3
ENDBRANCH   1   2
BRANCH   1  10
ATOM     10  C   UNL     1      16.291 -41.837 -23.587  1.00  0.00     0.000 C 
BRANCH  10  11
ATOM     11  C   UNL     1      17.696 -41.222 -23.419  1.00  0.00    -0.000 C 
BRANCH  11  12
ATOM     12  C   UNL     1      18.624 -41.568 -24.599  1.00  0.00    -0.000 C 
BRANCH  12  13
ATOM     13  C   UNL     1      19.898 -42.304 -24.152  1.00  0.00    -0.000 C 
BRANCH  13  14
ATOM     14  C   UNL     1      19.865 -43.805 -24.493  1.00  0.00    -0.000 C 
BRANCH  14  15
ATOM     15  C   UNL     1      18.997 -44.109 -25.723  1.00  0.00    -0.003 C 
ATOM     16  C   UNL     1      18.050 -45.287 -25.500  1.00  0.00     0.004 C 
ENDBRANCH  14  15
ENDBRANCH  13  14
ENDBRANCH  12  13
ENDBRANCH  11  12
ENDBRANCH  10  11
ENDBRANCH   1  10
TORSDOF 12
ENDMDL
MODEL 4
REMARK VINA RESULT:    -4.660      2.963      5.650
REMARK INTER + INTRA:          -9.289
REMARK INTER:                  -7.222
REMARK INTRA:                  -2.067
REMARK UNBOUND:                -1.361
REMARK SMILES CCCCCCCCCCCCCC(=O)[O-]
REMARK SMILES IDX 8 1 9 2 10 3 11 4 12 5 13 6 14 7 15 8 16 9 7 10 6 11 5 12
REMARK SMILES IDX 4 13 3 14 2 15 1 16
REMARK H PARENT
REMARK Flexibility Score: inf
ROOT
ATOM      1  C   UNL     1      16.076 -41.957 -23.539  1.00  0.00     0.000 C 
ENDROOT
BRANCH   1   2
ATOM      2  C   UNL     1      17.294 -42.562 -24.257  1.00  0.00     0.000 C 
BRANCH   2   3
ATOM      3  C   UNL     1      17.321 -44.097 -24.181  1.00  0.00     0.000 C 
BRANCH   3   4
ATOM      4  C   UNL     1      16.258 -44.663 -23.227  1.00  0.00     0.000 C 
BRANCH   4   5
ATOM      5  C   UNL     1      16.828 -45.820 -22.394  1.00  0.00     0.006 C 
BRANCH   5   6
ATOM      6  C   UNL     1      18.077 -46.437 -23.035  1.00  0.00     0.053 C 
BRANCH   6   7
ATOM      7  C   UNL     1      18.820 -47.314 -22.073  1.00  0.00     0.041 C 
ATOM      8  O   UNL     1      19.877 -46.903 -21.527  1.00  0.00    -0.550 OA
ATOM      9  O   UNL     1      18.326 -48.572 -21.755  1.00  0.00    -0.550 OA
ENDBRANCH   6   7
ENDBRANCH   5   6
ENDBRANCH   4   5
ENDBRANCH   3   4
ENDBRANCH   2   3
ENDBRANCH   1   2
BRANCH   1  10
ATOM     10  C   UNL     1      16.469 -41.046 -22.363  1.00  0.00     0.000 C 
BRANCH  10  11
ATOM     11  C   UNL     1      16.205 -41.675 -20.979  1.00  0.00    -0.000 C 
BRANCH  11  12
ATOM     12  C   UNL     1      17.467 -42.333 -20.391  1.00  0.00    -0.000 C 
BRANCH  12  13
ATOM     13  C   UNL     1      18.680 -41.389 -20.390  1.00  0.00    -0.000 C 
BRANCH  13  14
ATOM     14  C   UNL     1      19.767 -41.821 -21.390  1.00  0.00    -0.000 C 
BRANCH  14  15
ATOM     15  C   UNL     1      19.762 -43.335 -21.646  1.00  0.00    -0.003 C 
ATOM     16  C   UNL     1      20.650 -43.738 -22.823  1.00  0.00     0.004 C 
ENDBRANCH  14  15
ENDBRANCH  13  14
ENDBRANCH  12  13
ENDBRANCH  11  12
ENDBRANCH  10  11
ENDBRANCH   1  10
TORSDOF 12
ENDMDL
MODEL 5
REMARK VINA RESULT:    -4.612      2.724      5.414
REMARK INTER + INTRA:          -9.208
REMARK INTER:                  -7.012
REMARK INTRA:                  -2.196
REMARK UNBOUND:                -1.361
REMARK SMILES CCCCCCCCCCCCCC(=O)[O-]
REMARK SMILES IDX 8 1 9 2 10 3 11 4 12 5 13 6 14 7 15 8 16 9 7 10 6 11 5 12
REMARK SMILES IDX 4 13 3 14 2 15 1 16
REMARK H PARENT
REMARK Flexibility Score: inf
ROOT
ATOM      1  C   UNL     1      16.537 -41.495 -21.137  1.00  0.00     0.000 C 
ENDROOT
BRANCH   1   2
ATOM      2  C   UNL     1      16.824 -41.050 -22.581  1.00  0.00     0.000 C 
BRANCH   2   3
ATOM      3  C   UNL     1      16.204 -41.996 -23.623  1.00  0.00     0.000 C 
BRANCH   3   4
ATOM      4  C   UNL     1      15.689 -43.305 -23.004  1.00  0.00     0.000 C 
BRANCH   4   5
ATOM      5  C   UNL     1      16.555 -44.496 -23.442  1.00  0.00     0.006 C 
BRANCH   5   6
ATOM      6  C   UNL     1      16.850 -45.457 -22.283  1.00  0.00     0.053 C 
BRANCH   6   7
ATOM      7  C   UNL     1      17.889 -46.470 -22.653  1.00  0.00     0.041 C 
ATOM      8  O   UNL     1      18.493 -47.116 -21.756  1.00  0.00    -0.550 OA
ATOM      9  O   UNL     1      18.168 -46.725 -23.990  1.00  0.00    -0.550 OA
ENDBRANCH   6   7
ENDBRANCH   5   6
ENDBRANCH   4   5
ENDBRANCH   3   4
ENDBRANCH   2   3
ENDBRANCH   1   2
BRANCH   1  10
ATOM     10  C   UNL     1      17.801 -41.967 -20.398  1.00  0.00     0.000 C 
BRANCH  10  11
ATOM     11  C   UNL     1      19.083 -41.890 -21.253  1.00  0.00    -0.000 C 
BRANCH  11  12
ATOM     12  C   UNL     1      19.613 -43.287 -21.628  1.00  0.00    -0.000 C 
BRANCH  12  13
ATOM     13  C   UNL     1      20.497 -43.265 -22.885  1.00  0.00    -0.000 C 
BRANCH  13  14
ATOM     14  C   UNL     1      20.334 -41.971 -23.701  1.00  0.00    -0.000 C 
BRANCH  14  15
ATOM     15  C   UNL     1      19.621 -42.206 -25.040  1.00  0.00    -0.003 C 
ATOM     16  C   UNL     1      19.537 -43.685 -25.412  1.00  0.00     0.004 C 
ENDBRANCH  14  15
ENDBRANCH  13  14
ENDBRANCH  12  13
ENDBRANCH  11  12
ENDBRANCH  10  11
ENDBRANCH   1  10
TORSDOF 12
ENDMDL
MODEL 6
REMARK VINA RESULT:    -4.610      1.741      2.861
REMARK INTER + INTRA:          -9.204
REMARK INTER:                  -6.999
REMARK INTRA:                  -2.206
REMARK UNBOUND:                -1.361
REMARK SMILES CCCCCCCCCCCCCC(=O)[O-]
REMARK SMILES IDX 8 1 9 2 10 3 11 4 12 5 13 6 14 7 15 8 16 9 7 10 6 11 5 12
REMARK SMILES IDX 4 13 3 14 2 15 1 16
REMARK H PARENT
REMARK Flexibility Score: inf
ROOT
ATOM      1  C   UNL     1      21.417 -44.195 -23.193  1.00  0.00     0.000 C 
ENDROOT
BRANCH   1   2
ATOM      2  C   UNL     1      20.949 -43.039 -24.094  1.00  0.00     0.000 C 
BRANCH   2   3
ATOM      3  C   UNL     1      19.746 -42.284 -23.506  1.00  0.00     0.000 C 
BRANCH   3   4
ATOM      4  C   UNL     1      18.902 -41.582 -24.582  1.00  0.00     0.000 C 
BRANCH   4   5
ATOM      5  C   UNL     1      17.460 -41.374 -24.098  1.00  0.00     0.006 C 
BRANCH   5   6
ATOM      6  C   UNL     1      17.302 -41.663 -22.600  1.00  0.00     0.053 C 
BRANCH   6   7
ATOM      7  C   UNL     1      15.863 -41.808 -22.210  1.00  0.00     0.041 C 
ATOM      8  O   UNL     1      15.006 -42.157 -23.065  1.00  0.00    -0.550 OA
ATOM      9  O   UNL     1      15.472 -41.590 -20.895  1.00  0.00    -0.550 OA
ENDBRANCH   6   7
ENDBRANCH   5   6
ENDBRANCH   4   5
ENDBRANCH   3   4
ENDBRANCH   2   3
ENDBRANCH   1   2
BRANCH   1  10
ATOM     10  C   UNL     1      20.548 -44.359 -21.935  1.00  0.00     0.000 C 
BRANCH  10  11
ATOM     11  C   UNL     1      20.204 -45.827 -21.607  1.00  0.00    -0.000 C 
BRANCH  11  12
ATOM     12  C   UNL     1      19.086 -46.376 -22.514  1.00  0.00    -0.000 C 
BRANCH  12  13
ATOM     13  C   UNL     1      17.797 -45.543 -22.433  1.00  0.00    -0.000 C 
BRANCH  13  14
ATOM     14  C   UNL     1      17.278 -45.120 -23.818  1.00  0.00    -0.000 C 
BRANCH  14  15
ATOM     15  C   UNL     1      18.025 -45.818 -24.964  1.00  0.00    -0.003 C 
ATOM     16  C   UNL     1      18.359 -44.869 -26.115  1.00  0.00     0.004 C 
ENDBRANCH  14  15
ENDBRANCH  13  14
ENDBRANCH  12  13
ENDBRANCH  11  12
ENDBRANCH  10  11
ENDBRANCH   1  10
TORSDOF 12
ENDMDL
MODEL 7
REMARK VINA RESULT:    -4.604      2.446      4.981
REMARK INTER + INTRA:          -9.195
REMARK INTER:                  -7.417
REMARK INTRA:                  -1.778
REMARK UNBOUND:                -1.361
REMARK SMILES CCCCCCCCCCCCCC(=O)[O-]
REMARK SMILES IDX 8 1 9 2 10 3 11 4 12 5 13 6 14 7 15 8 16 9 7 10 6 11 5 12
REMARK SMILES IDX 4 13 3 14 2 15 1 16
REMARK H PARENT
REMARK Flexibility Score: inf
ROOT
ATOM      1  C   UNL     1      18.556 -44.173 -25.943  1.00  0.00     0.000 C 
ENDROOT
BRANCH   1   2
ATOM      2  C   UNL     1      18.029 -45.614 -25.835  1.00  0.00     0.000 C 
BRANCH   2   3
ATOM      3  C   UNL     1      17.943 -46.103 -24.380  1.00  0.00     0.000 C 
BRANCH   3   4
ATOM      4  C   UNL     1      17.005 -45.243 -23.519  1.00  0.00     0.000 C 
BRANCH   4   5
ATOM      5  C   UNL     1      17.265 -45.477 -22.024  1.00  0.00     0.006 C 
BRANCH   5   6
ATOM      6  C   UNL     1      18.657 -46.063 -21.760  1.00  0.00     0.053 C 
BRANCH   6   7
ATOM      7  C   UNL     1      19.691 -44.989 -21.606  1.00  0.00     0.041 C 
ATOM      8  O   UNL     1      19.356 -43.834 -21.235  1.00  0.00    -0.550 OA
ATOM      9  O   UNL     1      21.030 -45.275 -21.840  1.00  0.00    -0.550 OA
ENDBRANCH   6   7
ENDBRANCH   5   6
ENDBRANCH   4   5
ENDBRANCH   3   4
ENDBRANCH   2   3
ENDBRANCH   1   2
BRANCH   1  10
ATOM     10  C   UNL     1      19.856 -43.953 -25.150  1.00  0.00     0.000 C 
BRANCH  10  11
ATOM     11  C   UNL     1      19.942 -42.567 -24.477  1.00  0.00    -0.000 C 
BRANCH  11  12
ATOM     12  C   UNL     1      18.654 -41.747 -24.671  1.00  0.00    -0.000 C 
BRANCH  12  13
ATOM     13  C   UNL     1      17.841 -41.608 -23.375  1.00  0.00    -0.000 C 
BRANCH  13  14
ATOM     14  C   UNL     1      16.323 -41.569 -23.629  1.00  0.00    -0.000 C 
BRANCH  14  15
ATOM     15  C   UNL     1      15.510 -42.010 -22.402  1.00  0.00    -0.003 C 
ATOM     16  C   UNL     1      16.207 -41.678 -21.083  1.00  0.00     0.004 C 
ENDBRANCH  14  15
ENDBRANCH  13  14
ENDBRANCH  12  13
ENDBRANCH  11  12
ENDBRANCH  10  11
ENDBRANCH   1  10
TORSDOF 12
ENDMDL
MODEL 8
REMARK VINA RESULT:    -4.602      2.572      4.947
REMARK INTER + INTRA:          -9.192
REMARK INTER:                  -7.165
REMARK INTRA:                  -2.027
REMARK UNBOUND:                -1.361
REMARK SMILES CCCCCCCCCCCCCC(=O)[O-]
REMARK SMILES IDX 8 1 9 2 10 3 11 4 12 5 13 6 14 7 15 8 16 9 7 10 6 11 5 12
REMARK SMILES IDX 4 13 3 14 2 15 1 16
REMARK H PARENT
REMARK Flexibility Score: inf
ROOT
ATOM      1  C   UNL     1      19.990 -42.249 -24.196  1.00  0.00     0.000 C 
ENDROOT
BRANCH   1   2
ATOM      2  C   UNL     1      19.484 -43.400 -25.082  1.00  0.00     0.000 C 
BRANCH   2   3
ATOM      3  C   UNL     1      17.971 -43.629 -24.942  1.00  0.00     0.000 C 
BRANCH   3   4
ATOM      4  C   UNL     1      17.624 -45.063 -24.513  1.00  0.00     0.000 C 
BRANCH   4   5
ATOM      5  C   UNL     1      17.314 -45.126 -23.010  1.00  0.00     0.006 C 
BRANCH   5   6
ATOM      6  C   UNL     1      18.250 -46.084 -22.263  1.00  0.00     0.053 C 
BRANCH   6   7
ATOM      7  C   UNL     1      17.588 -47.397 -21.976  1.00  0.00     0.041 C 
ATOM      8  O   UNL     1      16.333 -47.495 -22.006  1.00  0.00    -0.550 OA
ATOM      9  O   UNL     1      18.359 -48.522 -21.709  1.00  0.00    -0.550 OA
ENDBRANCH   6   7
ENDBRANCH   5   6
ENDBRANCH   4   5
ENDBRANCH   3   4
ENDBRANCH   2   3
ENDBRANCH   1   2
BRANCH   1  10
ATOM     10  C   UNL     1      20.747 -42.744 -22.951  1.00  0.00     0.000 C 
BRANCH  10  11
ATOM     11  C   UNL     1      19.865 -42.838 -21.688  1.00  0.00    -0.000 C 
BRANCH  11  12
ATOM     12  C   UNL     1      18.697 -41.834 -21.721  1.00  0.00    -0.000 C 
BRANCH  12  13
ATOM     13  C   UNL     1      17.669 -42.086 -20.606  1.00  0.00    -0.000 C 
BRANCH  13  14
ATOM     14  C   UNL     1      16.233 -41.741 -21.037  1.00  0.00    -0.000 C 
BRANCH  14  15
ATOM     15  C   UNL     1      16.109 -41.525 -22.552  1.00  0.00    -0.003 C 
ATOM     16  C   UNL     1      14.946 -42.302 -23.166  1.00  0.00     0.004 C 
ENDBRANCH  14  15
ENDBRANCH  13  14
ENDBRANCH  12  13
ENDBRANCH  11  12
ENDBRANCH  10  11
ENDBRANCH   1  10
TORSDOF 12
ENDMDL
MODEL 9
REMARK VINA RESULT:    -4.599      2.374      4.733
REMARK INTER + INTRA:          -9.186
REMARK INTER:                  -7.275
REMARK INTRA:                  -1.910
REMARK UNBOUND:                -1.361
REMARK SMILES CCCCCCCCCCCCCC(=O)[O-]
REMARK SMILES IDX 8 1 9 2 10 3 11 4 12 5 13 6 14 7 15 8 16 9 7 10 6 11 5 12
REMARK SMILES IDX 4 13 3 14 2 15 1 16
REMARK H PARENT
REMARK Flexibility Score: inf
ROOT
ATOM      1  C   UNL     1      16.703 -44.614 -23.362  1.00  0.00     0.000 C 
ENDROOT
BRANCH   1   2
ATOM      2  C   UNL     1      15.570 -43.597 -23.142  1.00  0.00     0.000 C 
BRANCH   2   3
ATOM      3  C   UNL     1      15.978 -42.167 -23.534  1.00  0.00     0.000 C 
BRANCH   3   4
ATOM      4  C   UNL     1      16.582 -41.380 -22.362  1.00  0.00     0.000 C 
BRANCH   4   5
ATOM      5  C   UNL     1      15.781 -41.614 -21.072  1.00  0.00     0.006 C 
BRANCH   5   6
ATOM      6  C   UNL     1      16.660 -41.525 -19.818  1.00  0.00     0.053 C 
BRANCH   6   7
ATOM      7  C   UNL     1      15.872 -41.775 -18.569  1.00  0.00     0.041 C 
ATOM      8  O   UNL     1      14.627 -41.588 -18.556  1.00  0.00    -0.550 OA
ATOM      9  O   UNL     1      16.508 -42.247 -17.428  1.00  0.00    -0.550 OA
ENDBRANCH   6   7
ENDBRANCH   5   6
ENDBRANCH   4   5
ENDBRANCH   3   4
ENDBRANCH   2   3
ENDBRANCH   1   2
BRANCH   1  10
ATOM     10  C   UNL     1      17.296 -45.139 -22.043  1.00  0.00     0.000 C 
BRANCH  10  11
ATOM     11  C   UNL     1      18.837 -45.067 -21.985  1.00  0.00    -0.000 C 
BRANCH  11  12
ATOM     12  C   UNL     1      19.338 -43.650 -21.652  1.00  0.00    -0.000 C 
BRANCH  12  13
ATOM     13  C   UNL     1      20.585 -43.258 -22.461  1.00  0.00    -0.000 C 
BRANCH  13  14
ATOM     14  C   UNL     1      20.360 -42.006 -23.326  1.00  0.00    -0.000 C 
BRANCH  14  15
ATOM     15  C   UNL     1      19.431 -42.275 -24.519  1.00  0.00    -0.003 C 
ATOM     16  C   UNL     1      19.815 -43.535 -25.293  1.00  0.00     0.004 C 
ENDBRANCH  14  15
ENDBRANCH  13  14
ENDBRANCH  12  13
ENDBRANCH  11  12
ENDBRANCH  10  11
ENDBRANCH   1  10
TORSDOF 12
ENDMDL
