MODEL 1
REMARK VINA RESULT:    -5.984      0.000      0.000
REMARK INTER + INTRA:          -7.008
REMARK INTER:                  -6.859
REMARK INTRA:                  -0.149
REMARK UNBOUND:                -0.149
REMARK SMILES O=C([O-])C=Cc1ccc(O)cc1
REMARK SMILES IDX 6 1 7 2 12 3 8 4 11 5 9 6 5 7 4 8 2 9 1 10 3 11 10 12
REMARK H PARENT 10 13
REMARK Flexibility Score: inf
ROOT
ATOM      1  C   UNL     1      13.362 -12.294  28.794  1.00  0.00    -0.025 A 
ATOM      2  C   UNL     1      12.325 -11.526  28.220  1.00  0.00     0.012 A 
ATOM      3  C   UNL     1      13.922 -11.865  30.011  1.00  0.00     0.012 A 
ATOM      4  C   UNL     1      11.868 -10.367  28.854  1.00  0.00     0.047 A 
ATOM      5  C   UNL     1      13.461 -10.705  30.640  1.00  0.00     0.047 A 
ATOM      6  C   UNL     1      12.435  -9.953  30.065  1.00  0.00     0.115 A 
ENDROOT
BRANCH   1   7
ATOM      7  C   UNL     1      13.897 -13.538  28.176  1.00  0.00     0.010 C 
ATOM      8  C   UNL     1      14.893 -14.279  28.684  1.00  0.00     0.025 C 
BRANCH   8   9
ATOM      9  C   UNL     1      15.377 -15.502  28.020  1.00  0.00     0.064 C 
ATOM     10  O   UNL     1      15.755 -15.488  26.819  1.00  0.00    -0.545 OA
ATOM     11  O   UNL     1      15.416 -16.694  28.733  1.00  0.00    -0.545 OA
ENDBRANCH   8   9
ENDBRANCH   1   7
BRANCH   6  12
ATOM     12  O   UNL     1      11.986  -8.799  30.703  1.00  0.00    -0.508 OA
ATOM     13  H   UNL     1      11.050  -8.442  30.553  1.00  0.00     0.293 HD
ENDBRANCH   6  12
TORSDOF 3
ENDMDL
MODEL 2
REMARK VINA RESULT:    -5.801      0.164      1.688
REMARK INTER + INTRA:          -6.798
REMARK INTER:                  -6.664
REMARK INTRA:                  -0.134
REMARK UNBOUND:                -0.149
REMARK SMILES O=C([O-])C=Cc1ccc(O)cc1
REMARK SMILES IDX 6 1 7 2 12 3 8 4 11 5 9 6 5 7 4 8 2 9 1 10 3 11 10 12
REMARK H PARENT 10 13
REMARK Flexibility Score: inf
ROOT
ATOM      1  C   UNL     1      13.494 -12.413  28.909  1.00  0.00    -0.025 A 
ATOM      2  C   UNL     1      14.009 -11.912  30.124  1.00  0.00     0.012 A 
ATOM      3  C   UNL     1      12.452 -11.708  28.279  1.00  0.00     0.012 A 
ATOM      4  C   UNL     1      13.493 -10.739  30.683  1.00  0.00     0.047 A 
ATOM      5  C   UNL     1      11.939 -10.537  28.842  1.00  0.00     0.047 A 
ATOM      6  C   UNL     1      12.456 -10.049  30.044  1.00  0.00     0.115 A 
ENDROOT
BRANCH   1   7
ATOM      7  C   UNL     1      13.996 -13.653  28.257  1.00  0.00     0.010 C 
ATOM      8  C   UNL     1      14.946 -14.455  28.763  1.00  0.00     0.025 C 
BRANCH   8   9
ATOM      9  C   UNL     1      15.400 -15.671  28.065  1.00  0.00     0.064 C 
ATOM     10  O   UNL     1      15.432 -16.786  28.650  1.00  0.00    -0.545 OA
ATOM     11  O   UNL     1      15.800 -15.586  26.738  1.00  0.00    -0.545 OA
ENDBRANCH   8   9
ENDBRANCH   1   7
BRANCH   6  12
ATOM     12  O   UNL     1      11.934  -8.880  30.594  1.00  0.00    -0.508 OA
ATOM     13  H   UNL     1      12.424  -7.996  30.520  1.00  0.00     0.293 HD
ENDBRANCH   6  12
TORSDOF 3
ENDMDL
MODEL 3
REMARK VINA RESULT:    -5.652      1.279      5.713
REMARK INTER + INTRA:          -6.628
REMARK INTER:                  -6.498
REMARK INTRA:                  -0.130
REMARK UNBOUND:                -0.149
REMARK SMILES O=C([O-])C=Cc1ccc(O)cc1
REMARK SMILES IDX 6 1 7 2 12 3 8 4 11 5 9 6 5 7 4 8 2 9 1 10 3 11 10 12
REMARK H PARENT 10 13
REMARK Flexibility Score: inf
ROOT
ATOM      1  C   UNL     1      13.792 -12.920  28.807  1.00  0.00    -0.025 A 
ATOM      2  C   UNL     1      13.807 -13.502  27.520  1.00  0.00     0.012 A 
ATOM      3  C   UNL     1      14.526 -13.542  29.834  1.00  0.00     0.012 A 
ATOM      4  C   UNL     1      14.538 -14.669  27.278  1.00  0.00     0.047 A 
ATOM      5  C   UNL     1      15.254 -14.708  29.586  1.00  0.00     0.047 A 
ATOM      6  C   UNL     1      15.263 -15.275  28.310  1.00  0.00     0.115 A 
ENDROOT
BRANCH   1   7
ATOM      7  C   UNL     1      13.038 -11.680  29.136  1.00  0.00     0.010 C 
ATOM      8  C   UNL     1      11.745 -11.641  29.492  1.00  0.00     0.025 C 
BRANCH   8   9
ATOM      9  C   UNL     1      11.056 -10.377  29.806  1.00  0.00     0.064 C 
ATOM     10  O   UNL     1       9.803 -10.278  29.720  1.00  0.00    -0.545 OA
ATOM     11  O   UNL     1      11.801  -9.274  30.201  1.00  0.00    -0.545 OA
ENDBRANCH   8   9
ENDBRANCH   1   7
BRANCH   6  12
ATOM     12  O   UNL     1      15.994 -16.439  28.078  1.00  0.00    -0.508 OA
ATOM     13  H   UNL     1      16.959 -16.525  28.374  1.00  0.00     0.293 HD
ENDBRANCH   6  12
TORSDOF 3
ENDMDL
MODEL 4
REMARK VINA RESULT:    -5.231     10.423     13.099
REMARK INTER + INTRA:          -6.144
REMARK INTER:                  -5.999
REMARK INTRA:                  -0.145
REMARK UNBOUND:                -0.149
REMARK SMILES O=C([O-])C=Cc1ccc(O)cc1
REMARK SMILES IDX 6 1 7 2 12 3 8 4 11 5 9 6 5 7 4 8 2 9 1 10 3 11 10 12
REMARK H PARENT 10 13
REMARK Flexibility Score: inf
ROOT
ATOM      1  C   UNL     1      16.316  -1.323  27.375  1.00  0.00    -0.025 A 
ATOM      2  C   UNL     1      17.440  -2.160  27.207  1.00  0.00     0.012 A 
ATOM      3  C   UNL     1      15.620  -1.368  28.598  1.00  0.00     0.012 A 
ATOM      4  C   UNL     1      17.850  -3.012  28.238  1.00  0.00     0.047 A 
ATOM      5  C   UNL     1      16.034  -2.222  29.624  1.00  0.00     0.047 A 
ATOM      6  C   UNL     1      17.148  -3.045  29.449  1.00  0.00     0.115 A 
ENDROOT
BRANCH   1   7
ATOM      7  C   UNL     1      15.824  -0.393  26.323  1.00  0.00     0.010 C 
ATOM      8  C   UNL     1      15.308   0.824  26.555  1.00  0.00     0.025 C 
BRANCH   8   9
ATOM      9  C   UNL     1      14.838   1.697  25.466  1.00  0.00     0.064 C 
ATOM     10  O   UNL     1      14.528   1.227  24.339  1.00  0.00    -0.545 OA
ATOM     11  O   UNL     1      14.735   3.064  25.685  1.00  0.00    -0.545 OA
ENDBRANCH   8   9
ENDBRANCH   1   7
BRANCH   6  12
ATOM     12  O   UNL     1      17.549  -3.891  30.481  1.00  0.00    -0.508 OA
ATOM     13  H   UNL     1      18.522  -3.975  30.748  1.00  0.00     0.293 HD
ENDBRANCH   6  12
TORSDOF 3
ENDMDL
MODEL 5
REMARK VINA RESULT:    -5.195     10.493     12.576
REMARK INTER + INTRA:          -6.104
REMARK INTER:                  -5.956
REMARK INTRA:                  -0.147
REMARK UNBOUND:                -0.149
REMARK SMILES O=C([O-])C=Cc1ccc(O)cc1
REMARK SMILES IDX 6 1 7 2 12 3 8 4 11 5 9 6 5 7 4 8 2 9 1 10 3 11 10 12
REMARK H PARENT 10 13
REMARK Flexibility Score: inf
ROOT
ATOM      1  C   UNL     1      15.801  -0.591  27.153  1.00  0.00    -0.025 A 
ATOM      2  C   UNL     1      15.343  -0.724  25.824  1.00  0.00     0.012 A 
ATOM      3  C   UNL     1      15.850   0.695  27.722  1.00  0.00     0.012 A 
ATOM      4  C   UNL     1      14.946   0.401  25.096  1.00  0.00     0.047 A 
ATOM      5  C   UNL     1      15.452   1.816  26.990  1.00  0.00     0.047 A 
ATOM      6  C   UNL     1      15.000   1.674  25.676  1.00  0.00     0.115 A 
ENDROOT
BRANCH   1   7
ATOM      7  C   UNL     1      16.239  -1.744  27.986  1.00  0.00     0.010 C 
ATOM      8  C   UNL     1      16.211  -1.775  29.328  1.00  0.00     0.025 C 
BRANCH   8   9
ATOM      9  C   UNL     1      16.660  -2.950  30.095  1.00  0.00     0.064 C 
ATOM     10  O   UNL     1      17.671  -3.612  29.742  1.00  0.00    -0.545 OA
ATOM     11  O   UNL     1      15.953  -3.335  31.226  1.00  0.00    -0.545 OA
ENDBRANCH   8   9
ENDBRANCH   1   7
BRANCH   6  12
ATOM     12  O   UNL     1      14.606   2.801  24.957  1.00  0.00    -0.508 OA
ATOM     13  H   UNL     1      14.021   2.726  24.134  1.00  0.00     0.293 HD
ENDBRANCH   6  12
TORSDOF 3
ENDMDL
MODEL 6
REMARK VINA RESULT:    -5.113     11.486     14.145
REMARK INTER + INTRA:          -6.010
REMARK INTER:                  -5.876
REMARK INTRA:                  -0.134
REMARK UNBOUND:                -0.149
REMARK SMILES O=C([O-])C=Cc1ccc(O)cc1
REMARK SMILES IDX 6 1 7 2 12 3 8 4 11 5 9 6 5 7 4 8 2 9 1 10 3 11 10 12
REMARK H PARENT 10 13
REMARK Flexibility Score: inf
ROOT
ATOM      1  C   UNL     1      16.844  -0.731  26.272  1.00  0.00    -0.025 A 
ATOM      2  C   UNL     1      16.583  -1.800  27.156  1.00  0.00     0.012 A 
ATOM      3  C   UNL     1      18.120  -0.639  25.686  1.00  0.00     0.012 A 
ATOM      4  C   UNL     1      17.575  -2.745  27.438  1.00  0.00     0.047 A 
ATOM      5  C   UNL     1      19.107  -1.585  25.972  1.00  0.00     0.047 A 
ATOM      6  C   UNL     1      18.839  -2.640  26.847  1.00  0.00     0.115 A 
ENDROOT
BRANCH   1   7
ATOM      7  C   UNL     1      15.837   0.309  25.926  1.00  0.00     0.010 C 
ATOM      8  C   UNL     1      15.845   1.568  26.389  1.00  0.00     0.025 C 
BRANCH   8   9
ATOM      9  C   UNL     1      14.816   2.551  26.007  1.00  0.00     0.064 C 
ATOM     10  O   UNL     1      14.107   3.125  26.876  1.00  0.00    -0.545 OA
ATOM     11  O   UNL     1      14.623   2.848  24.665  1.00  0.00    -0.545 OA
ENDBRANCH   8   9
ENDBRANCH   1   7
BRANCH   6  12
ATOM     12  O   UNL     1      19.834  -3.576  27.123  1.00  0.00    -0.508 OA
ATOM     13  H   UNL     1      19.686  -4.566  26.964  1.00  0.00     0.293 HD
ENDBRANCH   6  12
TORSDOF 3
ENDMDL
MODEL 7
REMARK VINA RESULT:    -5.043      1.323      5.699
REMARK INTER + INTRA:          -5.929
REMARK INTER:                  -5.799
REMARK INTRA:                  -0.130
REMARK UNBOUND:                -0.149
REMARK SMILES O=C([O-])C=Cc1ccc(O)cc1
REMARK SMILES IDX 6 1 7 2 12 3 8 4 11 5 9 6 5 7 4 8 2 9 1 10 3 11 10 12
REMARK H PARENT 10 13
REMARK Flexibility Score: inf
ROOT
ATOM      1  C   UNL     1      14.568 -13.100  28.816  1.00  0.00    -0.025 A 
ATOM      2  C   UNL     1      14.775 -13.616  27.519  1.00  0.00     0.012 A 
ATOM      3  C   UNL     1      14.746 -13.957  29.918  1.00  0.00     0.012 A 
ATOM      4  C   UNL     1      15.152 -14.951  27.339  1.00  0.00     0.047 A 
ATOM      5  C   UNL     1      15.123 -15.290  29.732  1.00  0.00     0.047 A 
ATOM      6  C   UNL     1      15.326 -15.791  28.444  1.00  0.00     0.115 A 
ENDROOT
BRANCH   1   7
ATOM      7  C   UNL     1      14.167 -11.692  29.082  1.00  0.00     0.010 C 
ATOM      8  C   UNL     1      13.197 -11.033  28.428  1.00  0.00     0.025 C 
BRANCH   8   9
ATOM      9  C   UNL     1      12.849  -9.637  28.740  1.00  0.00     0.064 C 
ATOM     10  O   UNL     1      12.909  -8.736  27.861  1.00  0.00    -0.545 OA
ATOM     11  O   UNL     1      12.449  -9.305  30.027  1.00  0.00    -0.545 OA
ENDBRANCH   8   9
ENDBRANCH   1   7
BRANCH   6  12
ATOM     12  O   UNL     1      15.701 -17.122  28.274  1.00  0.00    -0.508 OA
ATOM     13  H   UNL     1      15.021 -17.872  28.317  1.00  0.00     0.293 HD
ENDBRANCH   6  12
TORSDOF 3
ENDMDL
MODEL 8
REMARK VINA RESULT:    -5.010     11.351     13.688
REMARK INTER + INTRA:          -5.892
REMARK INTER:                  -5.760
REMARK INTRA:                  -0.132
REMARK UNBOUND:                -0.149
REMARK SMILES O=C([O-])C=Cc1ccc(O)cc1
REMARK SMILES IDX 6 1 7 2 12 3 8 4 11 5 9 6 5 7 4 8 2 9 1 10 3 11 10 12
REMARK H PARENT 10 13
REMARK Flexibility Score: inf
ROOT
ATOM      1  C   UNL     1      17.786  -1.242  26.272  1.00  0.00    -0.025 A 
ATOM      2  C   UNL     1      19.139  -1.063  25.913  1.00  0.00     0.012 A 
ATOM      3  C   UNL     1      17.472  -2.187  27.267  1.00  0.00     0.012 A 
ATOM      4  C   UNL     1      20.143  -1.810  26.538  1.00  0.00     0.047 A 
ATOM      5  C   UNL     1      18.479  -2.931  27.887  1.00  0.00     0.047 A 
ATOM      6  C   UNL     1      19.815  -2.745  27.526  1.00  0.00     0.115 A 
ENDROOT
BRANCH   1   7
ATOM      7  C   UNL     1      16.667  -0.482  25.650  1.00  0.00     0.010 C 
ATOM      8  C   UNL     1      16.124   0.636  26.156  1.00  0.00     0.025 C 
BRANCH   8   9
ATOM      9  C   UNL     1      15.016   1.341  25.489  1.00  0.00     0.064 C 
ATOM     10  O   UNL     1      14.324   0.778  24.601  1.00  0.00    -0.545 OA
ATOM     11  O   UNL     1      14.730   2.652  25.846  1.00  0.00    -0.545 OA
ENDBRANCH   8   9
ENDBRANCH   1   7
BRANCH   6  12
ATOM     12  O   UNL     1      20.808  -3.495  28.154  1.00  0.00    -0.508 OA
ATOM     13  H   UNL     1      20.580  -4.290  28.739  1.00  0.00     0.293 HD
ENDBRANCH   6  12
TORSDOF 3
ENDMDL
