MODEL 1
REMARK VINA RESULT:    -3.892      0.000      0.000
REMARK INTER + INTRA:          -4.508
REMARK INTER:                  -4.461
REMARK INTRA:                  -0.047
REMARK UNBOUND:                -0.047
REMARK SMILES CC(C)[C@@H]([NH3+])C(=O)[O-]
REMARK SMILES IDX 4 1 5 2 6 6 7 7 8 8 2 9 1 10 3 11
REMARK H PARENT 5 3 5 4 5 5
REMARK Flexibility Score: inf
ROOT
ATOM      1  C   UNL     1      54.576  38.634  -5.113  1.00  0.00     0.230 C 
ENDROOT
BRANCH   1   2
ATOM      2  N   UNL     1      55.125  39.958  -4.778  1.00  0.00    -0.350 N 
ATOM      3  H   UNL     1      54.339  40.631  -4.624  1.00  0.00     0.345 HD
ATOM      4  H   UNL     1      55.678  39.911  -3.894  1.00  0.00     0.345 HD
ATOM      5  H   UNL     1      55.729  40.327  -5.547  1.00  0.00     0.345 HD
ENDBRANCH   1   2
BRANCH   1   6
ATOM      6  C   UNL     1      53.283  38.390  -4.374  1.00  0.00     0.099 C 
ATOM      7  O   UNL     1      53.262  38.426  -3.115  1.00  0.00    -0.544 OA
ATOM      8  O   UNL     1      52.117  38.080  -5.065  1.00  0.00    -0.544 OA
ENDBRANCH   1   6
BRANCH   1   9
ATOM      9  C   UNL     1      54.387  38.422  -6.645  1.00  0.00     0.047 C 
ATOM     10  C   UNL     1      54.779  37.000  -7.077  1.00  0.00     0.014 C 
ATOM     11  C   UNL     1      55.125  39.459  -7.508  1.00  0.00     0.014 C 
ENDBRANCH   1   9
TORSDOF 3
ENDMDL
MODEL 2
REMARK VINA RESULT:    -3.859      3.200      3.900
REMARK INTER + INTRA:          -4.470
REMARK INTER:                  -4.431
REMARK INTRA:                  -0.039
REMARK UNBOUND:                -0.047
REMARK SMILES CC(C)[C@@H]([NH3+])C(=O)[O-]
REMARK SMILES IDX 4 1 5 2 6 6 7 7 8 8 2 9 1 10 3 11
REMARK H PARENT 5 3 5 4 5 5
REMARK Flexibility Score: inf
ROOT
ATOM      1  C   UNL     1      52.688  36.362  -5.769  1.00  0.00     0.230 C 
ENDROOT
BRANCH   1   2
ATOM      2  N   UNL     1      53.413  35.912  -4.570  1.00  0.00    -0.350 N 
ATOM      3  H   UNL     1      52.924  36.265  -3.715  1.00  0.00     0.345 HD
ATOM      4  H   UNL     1      53.421  34.869  -4.520  1.00  0.00     0.345 HD
ATOM      5  H   UNL     1      54.395  36.269  -4.560  1.00  0.00     0.345 HD
ENDBRANCH   1   2
BRANCH   1   6
ATOM      6  C   UNL     1      51.606  35.378  -6.140  1.00  0.00     0.099 C 
ATOM      7  O   UNL     1      50.704  35.712  -6.953  1.00  0.00    -0.544 OA
ATOM      8  O   UNL     1      51.564  34.115  -5.559  1.00  0.00    -0.544 OA
ENDBRANCH   1   6
BRANCH   1   9
ATOM      9  C   UNL     1      52.102  37.799  -5.623  1.00  0.00     0.047 C 
ATOM     10  C   UNL     1      52.502  38.701  -6.801  1.00  0.00     0.014 C 
ATOM     11  C   UNL     1      52.459  38.479  -4.291  1.00  0.00     0.014 C 
ENDBRANCH   1   9
TORSDOF 3
ENDMDL
MODEL 3
REMARK VINA RESULT:    -3.660      2.421      2.846
REMARK INTER + INTRA:          -4.242
REMARK INTER:                  -4.243
REMARK INTRA:                   0.002
REMARK UNBOUND:                -0.047
REMARK SMILES CC(C)[C@@H]([NH3+])C(=O)[O-]
REMARK SMILES IDX 4 1 5 2 6 6 7 7 8 8 2 9 1 10 3 11
REMARK H PARENT 5 3 5 4 5 5
REMARK Flexibility Score: inf
ROOT
ATOM      1  C   UNL     1      52.534  37.009  -4.488  1.00  0.00     0.230 C 
ENDROOT
BRANCH   1   2
ATOM      2  N   UNL     1      53.401  35.853  -4.763  1.00  0.00    -0.350 N 
ATOM      3  H   UNL     1      53.061  35.026  -4.219  1.00  0.00     0.345 HD
ATOM      4  H   UNL     1      53.362  35.600  -5.776  1.00  0.00     0.345 HD
ATOM      5  H   UNL     1      54.391  36.043  -4.490  1.00  0.00     0.345 HD
ENDBRANCH   1   2
BRANCH   1   6
ATOM      6  C   UNL     1      53.311  38.107  -3.804  1.00  0.00     0.099 C 
ATOM      7  O   UNL     1      52.708  38.952  -3.089  1.00  0.00    -0.544 OA
ATOM      8  O   UNL     1      54.683  38.229  -3.988  1.00  0.00    -0.544 OA
ENDBRANCH   1   6
BRANCH   1   9
ATOM      9  C   UNL     1      51.815  37.550  -5.761  1.00  0.00     0.047 C 
ATOM     10  C   UNL     1      51.220  36.414  -6.607  1.00  0.00     0.014 C 
ATOM     11  C   UNL     1      52.703  38.451  -6.634  1.00  0.00     0.014 C 
ENDBRANCH   1   9
TORSDOF 3
ENDMDL
MODEL 4
REMARK VINA RESULT:    -3.596      2.918      3.369
REMARK INTER + INTRA:          -4.168
REMARK INTER:                  -4.138
REMARK INTRA:                  -0.030
REMARK UNBOUND:                -0.047
REMARK SMILES CC(C)[C@@H]([NH3+])C(=O)[O-]
REMARK SMILES IDX 4 1 5 2 6 6 7 7 8 8 2 9 1 10 3 11
REMARK H PARENT 5 3 5 4 5 5
REMARK Flexibility Score: inf
ROOT
ATOM      1  C   UNL     1      53.170  35.915  -5.765  1.00  0.00     0.230 C 
ENDROOT
BRANCH   1   2
ATOM      2  N   UNL     1      53.349  36.274  -4.349  1.00  0.00    -0.350 N 
ATOM      3  H   UNL     1      52.808  35.607  -3.751  1.00  0.00     0.345 HD
ATOM      4  H   UNL     1      54.354  36.196  -4.077  1.00  0.00     0.345 HD
ATOM      5  H   UNL     1      53.009  37.242  -4.154  1.00  0.00     0.345 HD
ENDBRANCH   1   2
BRANCH   1   6
ATOM      6  C   UNL     1      51.882  35.154  -5.964  1.00  0.00     0.099 C 
ATOM      7  O   UNL     1      51.734  34.020  -5.436  1.00  0.00    -0.544 OA
ATOM      8  O   UNL     1      50.869  35.669  -6.765  1.00  0.00    -0.544 OA
ENDBRANCH   1   6
BRANCH   1   9
ATOM      9  C   UNL     1      53.240  37.145  -6.720  1.00  0.00     0.047 C 
ATOM     10  C   UNL     1      54.642  37.323  -7.321  1.00  0.00     0.014 C 
ATOM     11  C   UNL     1      52.772  38.458  -6.069  1.00  0.00     0.014 C 
ENDBRANCH   1   9
TORSDOF 3
ENDMDL
MODEL 5
REMARK VINA RESULT:    -3.582      2.708      3.212
REMARK INTER + INTRA:          -4.153
REMARK INTER:                  -4.090
REMARK INTRA:                  -0.063
REMARK UNBOUND:                -0.047
REMARK SMILES CC(C)[C@@H]([NH3+])C(=O)[O-]
REMARK SMILES IDX 4 1 5 2 6 6 7 7 8 8 2 9 1 10 3 11
REMARK H PARENT 5 3 5 4 5 5
REMARK Flexibility Score: inf
ROOT
ATOM      1  C   UNL     1      52.420  36.904  -5.279  1.00  0.00     0.230 C 
ENDROOT
BRANCH   1   2
ATOM      2  N   UNL     1      53.292  36.566  -4.144  1.00  0.00    -0.350 N 
ATOM      3  H   UNL     1      53.128  35.571  -3.864  1.00  0.00     0.345 HD
ATOM      4  H   UNL     1      54.296  36.656  -4.415  1.00  0.00     0.345 HD
ATOM      5  H   UNL     1      53.098  37.176  -3.318  1.00  0.00     0.345 HD
ENDBRANCH   1   2
BRANCH   1   6
ATOM      6  C   UNL     1      52.880  38.177  -5.946  1.00  0.00     0.099 C 
ATOM      7  O   UNL     1      53.907  38.772  -5.523  1.00  0.00    -0.544 OA
ATOM      8  O   UNL     1      52.158  38.732  -6.996  1.00  0.00    -0.544 OA
ENDBRANCH   1   6
BRANCH   1   9
ATOM      9  C   UNL     1      52.296  35.749  -6.319  1.00  0.00     0.047 C 
ATOM     10  C   UNL     1      51.894  34.423  -5.655  1.00  0.00     0.014 C 
ATOM     11  C   UNL     1      53.559  35.551  -7.174  1.00  0.00     0.014 C 
ENDBRANCH   1   9
TORSDOF 3
ENDMDL
MODEL 6
REMARK VINA RESULT:    -3.561      2.704      3.401
REMARK INTER + INTRA:          -4.129
REMARK INTER:                  -4.075
REMARK INTRA:                  -0.054
REMARK UNBOUND:                -0.047
REMARK SMILES CC(C)[C@@H]([NH3+])C(=O)[O-]
REMARK SMILES IDX 4 1 5 2 6 6 7 7 8 8 2 9 1 10 3 11
REMARK H PARENT 5 3 5 4 5 5
REMARK Flexibility Score: inf
ROOT
ATOM      1  C   UNL     1      53.266  36.871  -5.664  1.00  0.00     0.230 C 
ENDROOT
BRANCH   1   2
ATOM      2  N   UNL     1      53.373  35.822  -4.638  1.00  0.00    -0.350 N 
ATOM      3  H   UNL     1      54.338  35.828  -4.235  1.00  0.00     0.345 HD
ATOM      4  H   UNL     1      52.705  36.005  -3.857  1.00  0.00     0.345 HD
ATOM      5  H   UNL     1      53.189  34.874  -5.038  1.00  0.00     0.345 HD
ENDBRANCH   1   2
BRANCH   1   6
ATOM      6  C   UNL     1      51.973  36.737  -6.431  1.00  0.00     0.099 C 
ATOM      7  O   UNL     1      51.361  35.636  -6.443  1.00  0.00    -0.544 OA
ATOM      8  O   UNL     1      51.468  37.803  -7.166  1.00  0.00    -0.544 OA
ENDBRANCH   1   6
BRANCH   1   9
ATOM      9  C   UNL     1      53.419  38.310  -5.085  1.00  0.00     0.047 C 
ATOM     10  C   UNL     1      54.867  38.813  -5.181  1.00  0.00     0.014 C 
ATOM     11  C   UNL     1      52.904  38.452  -3.643  1.00  0.00     0.014 C 
ENDBRANCH   1   9
TORSDOF 3
ENDMDL
MODEL 7
REMARK VINA RESULT:    -3.491      2.883      3.461
REMARK INTER + INTRA:          -4.048
REMARK INTER:                  -4.020
REMARK INTRA:                  -0.028
REMARK UNBOUND:                -0.047
REMARK SMILES CC(C)[C@@H]([NH3+])C(=O)[O-]
REMARK SMILES IDX 4 1 5 2 6 6 7 7 8 8 2 9 1 10 3 11
REMARK H PARENT 5 3 5 4 5 5
REMARK Flexibility Score: inf
ROOT
ATOM      1  C   UNL     1      53.375  36.288  -5.443  1.00  0.00     0.230 C 
ENDROOT
BRANCH   1   2
ATOM      2  N   UNL     1      54.080  36.550  -6.708  1.00  0.00    -0.350 N 
ATOM      3  H   UNL     1      53.394  36.880  -7.425  1.00  0.00     0.345 HD
ATOM      4  H   UNL     1      54.790  37.304  -6.581  1.00  0.00     0.345 HD
ATOM      5  H   UNL     1      54.548  35.689  -7.071  1.00  0.00     0.345 HD
ENDBRANCH   1   2
BRANCH   1   6
ATOM      6  C   UNL     1      53.013  37.582  -4.756  1.00  0.00     0.099 C 
ATOM      7  O   UNL     1      52.637  38.571  -5.439  1.00  0.00    -0.544 OA
ATOM      8  O   UNL     1      53.133  37.713  -3.377  1.00  0.00    -0.544 OA
ENDBRANCH   1   6
BRANCH   1   9
ATOM      9  C   UNL     1      52.118  35.384  -5.620  1.00  0.00     0.047 C 
ATOM     10  C   UNL     1      52.480  33.891  -5.604  1.00  0.00     0.014 C 
ATOM     11  C   UNL     1      51.293  35.715  -6.875  1.00  0.00     0.014 C 
ENDBRANCH   1   9
TORSDOF 3
ENDMDL
MODEL 8
REMARK VINA RESULT:    -3.482      2.442      3.227
REMARK INTER + INTRA:          -4.038
REMARK INTER:                  -3.977
REMARK INTRA:                  -0.060
REMARK UNBOUND:                -0.047
REMARK SMILES CC(C)[C@@H]([NH3+])C(=O)[O-]
REMARK SMILES IDX 4 1 5 2 6 6 7 7 8 8 2 9 1 10 3 11
REMARK H PARENT 5 3 5 4 5 5
REMARK Flexibility Score: inf
ROOT
ATOM      1  C   UNL     1      52.424  38.137  -5.635  1.00  0.00     0.230 C 
ENDROOT
BRANCH   1   2
ATOM      2  N   UNL     1      52.859  38.910  -6.808  1.00  0.00    -0.350 N 
ATOM      3  H   UNL     1      53.848  39.222  -6.671  1.00  0.00     0.345 HD
ATOM      4  H   UNL     1      52.832  38.317  -7.667  1.00  0.00     0.345 HD
ATOM      5  H   UNL     1      52.263  39.757  -6.951  1.00  0.00     0.345 HD
ENDBRANCH   1   2
BRANCH   1   6
ATOM      6  C   UNL     1      51.777  36.841  -6.060  1.00  0.00     0.099 C 
ATOM      7  O   UNL     1      50.856  36.851  -6.918  1.00  0.00    -0.544 OA
ATOM      8  O   UNL     1      52.154  35.635  -5.480  1.00  0.00    -0.544 OA
ENDBRANCH   1   6
BRANCH   1   9
ATOM      9  C   UNL     1      53.575  37.873  -4.617  1.00  0.00     0.047 C 
ATOM     10  C   UNL     1      53.225  38.391  -3.213  1.00  0.00     0.014 C 
ATOM     11  C   UNL     1      54.934  38.435  -5.064  1.00  0.00     0.014 C 
ENDBRANCH   1   9
TORSDOF 3
ENDMDL
MODEL 9
REMARK VINA RESULT:    -3.288      3.118      3.886
REMARK INTER + INTRA:          -3.816
REMARK INTER:                  -3.757
REMARK INTRA:                  -0.059
REMARK UNBOUND:                -0.047
REMARK SMILES CC(C)[C@@H]([NH3+])C(=O)[O-]
REMARK SMILES IDX 4 1 5 2 6 6 7 7 8 8 2 9 1 10 3 11
REMARK H PARENT 5 3 5 4 5 5
REMARK Flexibility Score: inf
ROOT
ATOM      1  C   UNL     1      51.774  36.752  -5.895  1.00  0.00     0.230 C 
ENDROOT
BRANCH   1   2
ATOM      2  N   UNL     1      51.694  37.674  -7.039  1.00  0.00    -0.350 N 
ATOM      3  H   UNL     1      52.653  38.013  -7.280  1.00  0.00     0.345 HD
ATOM      4  H   UNL     1      51.313  37.182  -7.877  1.00  0.00     0.345 HD
ATOM      5  H   UNL     1      51.096  38.503  -6.821  1.00  0.00     0.345 HD
ENDBRANCH   1   2
BRANCH   1   6
ATOM      6  C   UNL     1      51.696  35.318  -6.358  1.00  0.00     0.099 C 
ATOM      7  O   UNL     1      51.637  34.387  -5.512  1.00  0.00    -0.544 OA
ATOM      8  O   UNL     1      51.736  35.005  -7.712  1.00  0.00    -0.544 OA
ENDBRANCH   1   6
BRANCH   1   9
ATOM      9  C   UNL     1      53.040  36.981  -5.014  1.00  0.00     0.047 C 
ATOM     10  C   UNL     1      52.802  38.053  -3.939  1.00  0.00     0.014 C 
ATOM     11  C   UNL     1      54.303  37.317  -5.825  1.00  0.00     0.014 C 
ENDBRANCH   1   9
TORSDOF 3
ENDMDL
