MODEL 1
REMARK VINA RESULT:     0.354      0.000      0.000
REMARK INTER + INTRA:           2.719
REMARK INTER:                   0.540
REMARK INTRA:                   2.178
REMARK UNBOUND:                 2.178
REMARK SMILES CC1=CCC[C@H](C)C(=O)C[C@@H](C(C)C)C(=O)C1
REMARK SMILES IDX 8 1 9 2 6 3 7 4 5 5 4 6 3 7 2 8 1 9 10 11 11 12 15 13 16 14
REMARK SMILES IDX 17 15 12 17 13 18 14 19
REMARK H PARENT
REMARK Flexibility Score: 70.00
ROOT
ATOM      1  C   UNL     1      27.882  12.574  21.917  1.00  0.00     0.136 C 
ATOM      2  O   UNL     1      27.485  13.156  20.917  1.00  0.00    -0.299 OA
ENDROOT
BRANCH   1   3
ATOM      3  C   UNL     1      28.837  11.406  21.780  1.00  0.00     0.053 C 
ATOM      4  C   UNL     1      29.407  11.381  20.358  1.00  0.00     0.016 C 
BRANCH   3   5
ATOM      5  C   UNL     1      29.983  11.478  22.815  1.00  0.00     0.015 C 
BRANCH   5   6
ATOM      6  C   UNL     1      30.112  10.207  23.668  1.00  0.00     0.028 C 
BRANCH   6   7
ATOM      7  C   UNL     1      28.788   9.490  23.787  1.00  0.00    -0.028 C 
ATOM      8  C   UNL     1      27.922   9.598  24.822  1.00  0.00    -0.070 CG0
ATOM      9  C   UNL     1      26.645   8.799  24.762  1.00  0.00     0.039 C 
ATOM     10  G   UNL     1      28.160  10.507  26.012  1.00  0.00     0.000 G0
ENDBRANCH   6   7
ENDBRANCH   5   6
ENDBRANCH   3   5
ENDBRANCH   1   3
BRANCH   1  11
ATOM     11  C   UNL     1      27.394  13.028  23.268  1.00  0.00     0.087 C 
BRANCH  11  12
ATOM     12  C   UNL     1      28.387  12.655  24.398  1.00  0.00     0.066 C 
BRANCH  12  13
ATOM     13  C   UNL     1      27.675  11.935  25.531  1.00  0.00     0.140 C 
ATOM     14  O   UNL     1      26.761  12.489  26.124  1.00  0.00    -0.299 OA
BRANCH  13  15
ATOM     15  C   UNL     1      28.110  10.565  25.984  1.00  0.00     0.106 CG0
ATOM     16  G   UNL     1      27.928   9.546  24.877  1.00  0.00     0.000 G0
ENDBRANCH  13  15
ENDBRANCH  12  13
BRANCH  12  17
ATOM     17  C   UNL     1      29.191  13.875  24.950  1.00  0.00    -0.006 C 
ATOM     18  C   UNL     1      29.992  14.630  23.874  1.00  0.00     0.008 C 
ATOM     19  C   UNL     1      30.119  13.468  26.107  1.00  0.00     0.008 C 
ENDBRANCH  12  17
ENDBRANCH  11  12
ENDBRANCH   1  11
TORSDOF 1
ENDMDL
MODEL 2
REMARK VINA RESULT:     0.890      2.077      4.584
REMARK INTER + INTRA:           3.537
REMARK INTER:                   0.588
REMARK INTRA:                   2.949
REMARK UNBOUND:                 2.178
REMARK SMILES CC1=CCC[C@H](C)C(=O)C[C@@H](C(C)C)C(=O)C1
REMARK SMILES IDX 8 1 9 2 6 3 7 4 5 5 4 6 3 7 2 8 1 9 10 11 11 12 15 13 16 14
REMARK SMILES IDX 17 15 12 17 13 18 14 19
REMARK H PARENT
REMARK Flexibility Score: 70.00
ROOT
ATOM      1  C   UNL     1      26.953  12.099  25.514  1.00  0.00     0.136 C 
ATOM      2  O   UNL     1      27.713  12.841  26.121  1.00  0.00    -0.299 OA
ENDROOT
BRANCH   1   3
ATOM      3  C   UNL     1      25.868  12.686  24.635  1.00  0.00     0.053 C 
ATOM      4  C   UNL     1      24.937  13.552  25.490  1.00  0.00     0.016 C 
BRANCH   3   5
ATOM      5  C   UNL     1      26.458  13.520  23.474  1.00  0.00     0.015 C 
BRANCH   5   6
ATOM      6  C   UNL     1      27.949  13.843  23.655  1.00  0.00     0.028 C 
BRANCH   6   7
ATOM      7  C   UNL     1      28.777  13.258  22.535  1.00  0.00    -0.028 C 
ATOM      8  C   UNL     1      28.891  11.941  22.246  1.00  0.00    -0.070 CG0
ATOM      9  C   UNL     1      29.770  11.547  21.085  1.00  0.00     0.039 C 
ATOM     10  G   UNL     1      28.154  10.855  23.005  1.00  0.00     0.000 G0
ENDBRANCH   6   7
ENDBRANCH   5   6
ENDBRANCH   3   5
ENDBRANCH   1   3
BRANCH   1  11
ATOM     11  C   UNL     1      27.107  10.609  25.672  1.00  0.00     0.087 C 
BRANCH  11  12
ATOM     12  C   UNL     1      28.582  10.158  25.516  1.00  0.00     0.066 C 
BRANCH  12  13
ATOM     13  C   UNL     1      29.020  10.229  24.062  1.00  0.00     0.140 C 
ATOM     14  O   UNL     1      30.125   9.817  23.739  1.00  0.00    -0.299 OA
BRANCH  13  15
ATOM     15  C   UNL     1      28.142  10.853  23.008  1.00  0.00     0.106 CG0
ATOM     16  G   UNL     1      28.894  11.923  22.241  1.00  0.00     0.000 G0
ENDBRANCH  13  15
ENDBRANCH  12  13
BRANCH  12  17
ATOM     17  C   UNL     1      28.867   8.739  26.101  1.00  0.00    -0.006 C 
ATOM     18  C   UNL     1      30.019   7.997  25.399  1.00  0.00     0.008 C 
ATOM     19  C   UNL     1      27.604   7.863  26.108  1.00  0.00     0.008 C 
ENDBRANCH  12  17
ENDBRANCH  11  12
ENDBRANCH   1  11
TORSDOF 1
ENDMDL
