MODEL 1
REMARK VINA RESULT:    -5.253      0.000      0.000
REMARK INTER + INTRA:          -5.820
REMARK INTER:                  -5.560
REMARK INTRA:                  -0.260
REMARK UNBOUND:                -0.260
REMARK SMILES CC1=CC[C@@H]2[C@H]3[C@H](C(C)C)CC[C@]2(C)[C@@H]13
REMARK SMILES IDX 1 1 2 2 3 3 4 4 5 5 6 6 15 7 13 8 12 9 11 10 7 11 14 12 8 13
REMARK SMILES IDX 9 14 10 15
REMARK H PARENT
REMARK Flexibility Score: inf
ROOT
ATOM      1  C   UNL     1      12.256  17.769  34.169  1.00  0.00     0.039 C 
ATOM      2  C   UNL     1      13.102  17.182  35.259  1.00  0.00    -0.073 C 
ATOM      3  C   UNL     1      14.345  16.699  35.003  1.00  0.00    -0.027 C 
ATOM      4  C   UNL     1      15.170  16.129  36.162  1.00  0.00     0.031 C 
ATOM      5  C   UNL     1      14.352  16.184  37.493  1.00  0.00     0.003 C 
ATOM      6  C   UNL     1      12.933  15.646  37.189  1.00  0.00     0.004 C 
ATOM      7  C   UNL     1      12.597  17.080  36.700  1.00  0.00     0.024 C 
ATOM      8  C   UNL     1      13.683  17.567  37.692  1.00  0.00    -0.022 C 
ATOM      9  C   UNL     1      13.106  17.648  39.138  1.00  0.00     0.008 C 
ATOM     10  C   UNL     1      12.028  16.567  39.413  1.00  0.00     0.005 C 
ATOM     11  C   UNL     1      12.213  15.297  38.526  1.00  0.00    -0.005 C 
ATOM     12  C   UNL     1      14.492  18.839  37.345  1.00  0.00     0.012 C 
ENDROOT
BRANCH  11  13
ATOM     13  C   UNL     1      10.908  14.477  38.298  1.00  0.00    -0.014 C 
ATOM     14  C   UNL     1      11.129  13.324  37.308  1.00  0.00     0.007 C 
ATOM     15  C   UNL     1      10.256  13.954  39.589  1.00  0.00     0.007 C 
ENDBRANCH  11  13
TORSDOF 1
ENDMDL
MODEL 2
REMARK VINA RESULT:    -5.141     11.352     13.971
REMARK INTER + INTRA:          -5.701
REMARK INTER:                  -5.391
REMARK INTRA:                  -0.310
REMARK UNBOUND:                -0.260
REMARK SMILES CC1=CC[C@@H]2[C@H]3[C@H](C(C)C)CC[C@]2(C)[C@@H]13
REMARK SMILES IDX 1 1 2 2 3 3 4 4 5 5 6 6 15 7 13 8 12 9 11 10 7 11 14 12 8 13
REMARK SMILES IDX 9 14 10 15
REMARK H PARENT
REMARK Flexibility Score: inf
ROOT
ATOM      1  C   UNL     1      11.542  19.920  25.077  1.00  0.00     0.039 C 
ATOM      2  C   UNL     1      10.183  19.678  25.664  1.00  0.00    -0.073 C 
ATOM      3  C   UNL     1      10.013  18.854  26.730  1.00  0.00    -0.027 C 
ATOM      4  C   UNL     1       8.603  18.661  27.297  1.00  0.00     0.031 C 
ATOM      5  C   UNL     1       7.562  19.475  26.462  1.00  0.00     0.003 C 
ATOM      6  C   UNL     1       7.858  19.211  24.966  1.00  0.00     0.004 C 
ATOM      7  C   UNL     1       8.928  20.328  25.078  1.00  0.00     0.024 C 
ATOM      8  C   UNL     1       8.048  20.923  26.205  1.00  0.00    -0.022 C 
ATOM      9  C   UNL     1       6.873  21.753  25.602  1.00  0.00     0.008 C 
ATOM     10  C   UNL     1       6.374  21.184  24.248  1.00  0.00     0.005 C 
ATOM     11  C   UNL     1       6.634  19.651  24.109  1.00  0.00    -0.005 C 
ATOM     12  C   UNL     1       8.733  21.691  27.359  1.00  0.00     0.012 C 
ENDROOT
BRANCH  11  13
ATOM     13  C   UNL     1       6.730  19.147  22.638  1.00  0.00    -0.014 C 
ATOM     14  C   UNL     1       7.802  18.058  22.481  1.00  0.00     0.007 C 
ATOM     15  C   UNL     1       5.393  18.669  22.045  1.00  0.00     0.007 C 
ENDBRANCH  11  13
TORSDOF 1
ENDMDL
MODEL 3
REMARK VINA RESULT:    -5.091     11.676     14.950
REMARK INTER + INTRA:          -5.649
REMARK INTER:                  -5.382
REMARK INTRA:                  -0.266
REMARK UNBOUND:                -0.260
REMARK SMILES CC1=CC[C@@H]2[C@H]3[C@H](C(C)C)CC[C@]2(C)[C@@H]13
REMARK SMILES IDX 1 1 2 2 3 3 4 4 5 5 6 6 15 7 13 8 12 9 11 10 7 11 14 12 8 13
REMARK SMILES IDX 9 14 10 15
REMARK H PARENT
REMARK Flexibility Score: inf
ROOT
ATOM      1  C   UNL     1       7.393  18.239  27.469  1.00  0.00     0.039 C 
ATOM      2  C   UNL     1       7.742  19.309  26.478  1.00  0.00    -0.073 C 
ATOM      3  C   UNL     1       8.006  20.579  26.877  1.00  0.00    -0.027 C 
ATOM      4  C   UNL     1       8.375  21.626  25.820  1.00  0.00     0.031 C 
ATOM      5  C   UNL     1       8.338  20.993  24.391  1.00  0.00     0.003 C 
ATOM      6  C   UNL     1       7.026  20.179  24.277  1.00  0.00     0.004 C 
ATOM      7  C   UNL     1       7.794  19.025  24.975  1.00  0.00     0.024 C 
ATOM      8  C   UNL     1       9.076  19.632  24.352  1.00  0.00    -0.022 C 
ATOM      9  C   UNL     1       9.230  19.180  22.867  1.00  0.00     0.008 C 
ATOM     10  C   UNL     1       7.864  18.988  22.158  1.00  0.00     0.005 C 
ATOM     11  C   UNL     1       6.736  19.870  22.778  1.00  0.00    -0.005 C 
ATOM     12  C   UNL     1      10.413  19.492  25.115  1.00  0.00     0.012 C 
ENDROOT
BRANCH  11  13
ATOM     13  C   UNL     1       5.295  19.320  22.556  1.00  0.00    -0.014 C 
ATOM     14  C   UNL     1       4.601  20.009  21.372  1.00  0.00     0.007 C 
ATOM     15  C   UNL     1       5.219  17.791  22.404  1.00  0.00     0.007 C 
ENDBRANCH  11  13
TORSDOF 1
ENDMDL
MODEL 4
REMARK VINA RESULT:    -4.912     11.681     14.327
REMARK INTER + INTRA:          -5.458
REMARK INTER:                  -5.032
REMARK INTRA:                  -0.426
REMARK UNBOUND:                -0.260
REMARK SMILES CC1=CC[C@@H]2[C@H]3[C@H](C(C)C)CC[C@]2(C)[C@@H]13
REMARK SMILES IDX 1 1 2 2 3 3 4 4 5 5 6 6 15 7 13 8 12 9 11 10 7 11 14 12 8 13
REMARK SMILES IDX 9 14 10 15
REMARK H PARENT
REMARK Flexibility Score: inf
ROOT
ATOM      1  C   UNL     1       6.941  18.179  22.871  1.00  0.00     0.039 C 
ATOM      2  C   UNL     1       7.408  19.242  23.821  1.00  0.00    -0.073 C 
ATOM      3  C   UNL     1       6.607  20.284  24.161  1.00  0.00    -0.027 C 
ATOM      4  C   UNL     1       7.132  21.329  25.151  1.00  0.00     0.031 C 
ATOM      5  C   UNL     1       8.597  20.988  25.578  1.00  0.00     0.003 C 
ATOM      6  C   UNL     1       9.388  20.646  24.292  1.00  0.00     0.004 C 
ATOM      7  C   UNL     1       8.811  19.213  24.432  1.00  0.00     0.024 C 
ATOM      8  C   UNL     1       8.746  19.493  25.954  1.00  0.00    -0.022 C 
ATOM      9  C   UNL     1      10.142  19.272  26.612  1.00  0.00     0.008 C 
ATOM     10  C   UNL     1      11.314  19.629  25.660  1.00  0.00     0.005 C 
ATOM     11  C   UNL     1      10.915  20.697  24.594  1.00  0.00    -0.005 C 
ATOM     12  C   UNL     1       7.628  18.823  26.788  1.00  0.00     0.012 C 
ENDROOT
BRANCH  11  13
ATOM     13  C   UNL     1      11.776  20.661  23.295  1.00  0.00    -0.014 C 
ATOM     14  C   UNL     1      12.402  19.277  23.070  1.00  0.00     0.007 C 
ATOM     15  C   UNL     1      11.030  21.122  22.031  1.00  0.00     0.007 C 
ENDBRANCH  11  13
TORSDOF 1
ENDMDL
MODEL 5
REMARK VINA RESULT:    -4.907      1.267      2.860
REMARK INTER + INTRA:          -5.453
REMARK INTER:                  -5.232
REMARK INTRA:                  -0.222
REMARK UNBOUND:                -0.260
REMARK SMILES CC1=CC[C@@H]2[C@H]3[C@H](C(C)C)CC[C@]2(C)[C@@H]13
REMARK SMILES IDX 1 1 2 2 3 3 4 4 5 5 6 6 15 7 13 8 12 9 11 10 7 11 14 12 8 13
REMARK SMILES IDX 9 14 10 15
REMARK H PARENT
REMARK Flexibility Score: inf
ROOT
ATOM      1  C   UNL     1      15.396  18.402  38.841  1.00  0.00     0.039 C 
ATOM      2  C   UNL     1      14.614  17.742  37.744  1.00  0.00    -0.073 C 
ATOM      3  C   UNL     1      14.454  18.339  36.536  1.00  0.00    -0.027 C 
ATOM      4  C   UNL     1      13.660  17.608  35.448  1.00  0.00     0.031 C 
ATOM      5  C   UNL     1      13.123  16.243  35.990  1.00  0.00     0.003 C 
ATOM      6  C   UNL     1      12.502  16.507  37.382  1.00  0.00     0.004 C 
ATOM      7  C   UNL     1      13.943  16.381  37.944  1.00  0.00     0.024 C 
ATOM      8  C   UNL     1      14.228  15.454  36.736  1.00  0.00    -0.022 C 
ATOM      9  C   UNL     1      13.714  14.009  37.021  1.00  0.00     0.008 C 
ATOM     10  C   UNL     1      12.447  13.992  37.916  1.00  0.00     0.005 C 
ATOM     11  C   UNL     1      11.605  15.300  37.788  1.00  0.00    -0.005 C 
ATOM     12  C   UNL     1      15.653  15.427  36.137  1.00  0.00     0.012 C 
ENDROOT
BRANCH  11  13
ATOM     13  C   UNL     1      10.715  15.615  39.028  1.00  0.00    -0.014 C 
ATOM     14  C   UNL     1       9.303  16.055  38.614  1.00  0.00     0.007 C 
ATOM     15  C   UNL     1      10.640  14.475  40.057  1.00  0.00     0.007 C 
ENDBRANCH  11  13
TORSDOF 1
ENDMDL
MODEL 6
REMARK VINA RESULT:    -4.810      1.223      2.247
REMARK INTER + INTRA:          -5.351
REMARK INTER:                  -5.090
REMARK INTRA:                  -0.261
REMARK UNBOUND:                -0.260
REMARK SMILES CC1=CC[C@@H]2[C@H]3[C@H](C(C)C)CC[C@]2(C)[C@@H]13
REMARK SMILES IDX 1 1 2 2 3 3 4 4 5 5 6 6 15 7 13 8 12 9 11 10 7 11 14 12 8 13
REMARK SMILES IDX 9 14 10 15
REMARK H PARENT
REMARK Flexibility Score: inf
ROOT
ATOM      1  C   UNL     1      15.610  14.984  35.310  1.00  0.00     0.039 C 
ATOM      2  C   UNL     1      15.120  15.889  36.401  1.00  0.00    -0.073 C 
ATOM      3  C   UNL     1      15.987  16.544  37.215  1.00  0.00    -0.027 C 
ATOM      4  C   UNL     1      15.428  17.470  38.300  1.00  0.00     0.031 C 
ATOM      5  C   UNL     1      13.865  17.452  38.279  1.00  0.00     0.003 C 
ATOM      6  C   UNL     1      13.418  15.973  38.192  1.00  0.00     0.004 C 
ATOM      7  C   UNL     1      13.626  16.099  36.660  1.00  0.00     0.024 C 
ATOM      8  C   UNL     1      13.313  17.605  36.840  1.00  0.00    -0.022 C 
ATOM      9  C   UNL     1      11.773  17.840  36.909  1.00  0.00     0.008 C 
ATOM     10  C   UNL     1      11.018  16.657  37.572  1.00  0.00     0.005 C 
ATOM     11  C   UNL     1      11.912  15.862  38.574  1.00  0.00    -0.005 C 
ATOM     12  C   UNL     1      13.987  18.625  35.893  1.00  0.00     0.012 C 
ENDROOT
BRANCH  11  13
ATOM     13  C   UNL     1      11.466  14.386  38.800  1.00  0.00    -0.014 C 
ATOM     14  C   UNL     1      10.336  14.288  39.836  1.00  0.00     0.007 C 
ATOM     15  C   UNL     1      11.077  13.640  37.513  1.00  0.00     0.007 C 
ENDBRANCH  11  13
TORSDOF 1
ENDMDL
MODEL 7
REMARK VINA RESULT:    -4.660     12.340     15.846
REMARK INTER + INTRA:          -5.192
REMARK INTER:                  -4.838
REMARK INTRA:                  -0.354
REMARK UNBOUND:                -0.260
REMARK SMILES CC1=CC[C@@H]2[C@H]3[C@H](C(C)C)CC[C@]2(C)[C@@H]13
REMARK SMILES IDX 1 1 2 2 3 3 4 4 5 5 6 6 15 7 13 8 12 9 11 10 7 11 14 12 8 13
REMARK SMILES IDX 9 14 10 15
REMARK H PARENT
REMARK Flexibility Score: inf
ROOT
ATOM      1  C   UNL     1       7.759  18.886  26.644  1.00  0.00     0.039 C 
ATOM      2  C   UNL     1       7.779  19.470  25.263  1.00  0.00    -0.073 C 
ATOM      3  C   UNL     1       8.939  19.872  24.685  1.00  0.00    -0.027 C 
ATOM      4  C   UNL     1       8.899  20.443  23.264  1.00  0.00     0.031 C 
ATOM      5  C   UNL     1       7.429  20.487  22.735  1.00  0.00     0.003 C 
ATOM      6  C   UNL     1       6.549  21.089  23.857  1.00  0.00     0.004 C 
ATOM      7  C   UNL     1       6.494  19.658  24.452  1.00  0.00     0.024 C 
ATOM      8  C   UNL     1       6.689  19.152  23.001  1.00  0.00    -0.022 C 
ATOM      9  C   UNL     1       5.333  19.161  22.231  1.00  0.00     0.008 C 
ATOM     10  C   UNL     1       4.396  20.310  22.688  1.00  0.00     0.005 C 
ATOM     11  C   UNL     1       5.179  21.532  23.261  1.00  0.00    -0.005 C 
ATOM     12  C   UNL     1       7.449  17.825  22.770  1.00  0.00     0.012 C 
ENDROOT
BRANCH  11  13
ATOM     13  C   UNL     1       4.360  22.412  24.252  1.00  0.00    -0.014 C 
ATOM     14  C   UNL     1       2.938  21.868  24.451  1.00  0.00     0.007 C 
ATOM     15  C   UNL     1       5.043  22.633  25.613  1.00  0.00     0.007 C 
ENDBRANCH  11  13
TORSDOF 1
ENDMDL
MODEL 8
REMARK VINA RESULT:    -4.637     10.145     13.600
REMARK INTER + INTRA:          -5.168
REMARK INTER:                  -4.860
REMARK INTRA:                  -0.308
REMARK UNBOUND:                -0.260
REMARK SMILES CC1=CC[C@@H]2[C@H]3[C@H](C(C)C)CC[C@]2(C)[C@@H]13
REMARK SMILES IDX 1 1 2 2 3 3 4 4 5 5 6 6 15 7 13 8 12 9 11 10 7 11 14 12 8 13
REMARK SMILES IDX 9 14 10 15
REMARK H PARENT
REMARK Flexibility Score: inf
ROOT
ATOM      1  C   UNL     1      11.777  19.044  27.921  1.00  0.00     0.039 C 
ATOM      2  C   UNL     1      11.515  19.968  26.769  1.00  0.00    -0.073 C 
ATOM      3  C   UNL     1      11.776  21.297  26.859  1.00  0.00    -0.027 C 
ATOM      4  C   UNL     1      11.505  22.188  25.642  1.00  0.00     0.031 C 
ATOM      5  C   UNL     1      10.908  21.344  24.470  1.00  0.00     0.003 C 
ATOM      6  C   UNL     1       9.792  20.449  25.061  1.00  0.00     0.004 C 
ATOM      7  C   UNL     1      10.923  19.461  25.452  1.00  0.00     0.024 C 
ATOM      8  C   UNL     1      11.708  20.036  24.247  1.00  0.00    -0.022 C 
ATOM      9  C   UNL     1      11.235  19.372  22.917  1.00  0.00     0.008 C 
ATOM     10  C   UNL     1       9.730  18.997  22.941  1.00  0.00     0.005 C 
ATOM     11  C   UNL     1       8.901  19.899  23.908  1.00  0.00    -0.005 C 
ATOM     12  C   UNL     1      13.252  20.089  24.320  1.00  0.00     0.012 C 
ENDROOT
BRANCH  11  13
ATOM     13  C   UNL     1       7.591  19.241  24.436  1.00  0.00    -0.014 C 
ATOM     14  C   UNL     1       7.340  19.585  25.912  1.00  0.00     0.007 C 
ATOM     15  C   UNL     1       6.343  19.557  23.594  1.00  0.00     0.007 C 
ENDBRANCH  11  13
TORSDOF 1
ENDMDL
MODEL 9
REMARK VINA RESULT:    -4.623     10.793     12.865
REMARK INTER + INTRA:          -5.153
REMARK INTER:                  -4.838
REMARK INTRA:                  -0.315
REMARK UNBOUND:                -0.260
REMARK SMILES CC1=CC[C@@H]2[C@H]3[C@H](C(C)C)CC[C@]2(C)[C@@H]13
REMARK SMILES IDX 1 1 2 2 3 3 4 4 5 5 6 6 15 7 13 8 12 9 11 10 7 11 14 12 8 13
REMARK SMILES IDX 9 14 10 15
REMARK H PARENT
REMARK Flexibility Score: inf
ROOT
ATOM      1  C   UNL     1      10.949  22.858  23.370  1.00  0.00     0.039 C 
ATOM      2  C   UNL     1      11.211  21.420  23.708  1.00  0.00    -0.073 C 
ATOM      3  C   UNL     1      11.621  20.538  22.763  1.00  0.00    -0.027 C 
ATOM      4  C   UNL     1      11.891  19.086  23.173  1.00  0.00     0.031 C 
ATOM      5  C   UNL     1      11.587  18.883  24.693  1.00  0.00     0.003 C 
ATOM      6  C   UNL     1      10.221  19.550  24.987  1.00  0.00     0.004 C 
ATOM      7  C   UNL     1      11.007  20.880  25.126  1.00  0.00     0.024 C 
ATOM      8  C   UNL     1      12.214  20.008  25.553  1.00  0.00    -0.022 C 
ATOM      9  C   UNL     1      12.103  19.618  27.059  1.00  0.00     0.008 C 
ATOM     10  C   UNL     1      10.632  19.445  27.522  1.00  0.00     0.005 C 
ATOM     11  C   UNL     1       9.679  19.041  26.355  1.00  0.00    -0.005 C 
ATOM     12  C   UNL     1      13.642  20.494  25.211  1.00  0.00     0.012 C 
ENDROOT
BRANCH  11  13
ATOM     13  C   UNL     1       8.186  19.429  26.581  1.00  0.00    -0.014 C 
ATOM     14  C   UNL     1       7.467  19.709  25.253  1.00  0.00     0.007 C 
ATOM     15  C   UNL     1       7.389  18.412  27.416  1.00  0.00     0.007 C 
ENDBRANCH  11  13
TORSDOF 1
ENDMDL
