MODEL 1
REMARK VINA RESULT:    -7.265      0.000      0.000
REMARK INTER + INTRA:          -8.115
REMARK INTER:                  -8.115
REMARK INTRA:                   0.000
REMARK UNBOUND:                 0.000
REMARK SMILES Oc1cc(O)c2c(c1)CCc1cc(O)c(O)cc1-2
REMARK SMILES IDX 10 1 9 2 7 3 6 4 18 5 17 6 15 7 13 8 12 9 11 10 4 11 3 12
REMARK SMILES IDX 2 13 8 14 14 15 5 17 1 19 16 21
REMARK H PARENT 14 16 5 18 1 20 16 22
REMARK Flexibility Score: inf
ROOT
ATOM      1  C   UNL     1      -8.004 -66.846 -29.419  1.00  0.00     0.041 C 
ATOM      2  C   UNL     1      -8.814 -67.735 -30.368  1.00  0.00     0.041 C 
ATOM      3  C   UNL     1      -9.298 -66.940 -31.556  1.00  0.00    -0.032 A 
ATOM      4  C   UNL     1      -8.483 -65.918 -32.104  1.00  0.00     0.027 A 
ATOM      5  C   UNL     1      -7.138 -65.685 -31.489  1.00  0.00    -0.007 A 
ATOM      6  C   UNL     1      -6.063 -65.123 -32.205  1.00  0.00     0.059 A 
ATOM      7  C   UNL     1      -4.819 -64.915 -31.600  1.00  0.00     0.158 A 
ATOM      8  C   UNL     1      -4.627 -65.290 -30.252  1.00  0.00     0.157 A 
ATOM      9  C   UNL     1      -5.670 -65.907 -29.555  1.00  0.00     0.054 A 
ATOM     10  C   UNL     1      -6.907 -66.137 -30.171  1.00  0.00    -0.036 A 
ATOM     11  C   UNL     1      -9.006 -65.122 -33.152  1.00  0.00     0.127 A 
ATOM     12  C   UNL     1     -10.253 -65.434 -33.714  1.00  0.00     0.093 A 
ATOM     13  C   UNL     1     -11.012 -66.495 -33.218  1.00  0.00     0.119 A 
ATOM     14  C   UNL     1     -10.538 -67.242 -32.136  1.00  0.00     0.050 A 
ENDROOT
BRANCH   8  15
ATOM     15  O   UNL     1      -3.424 -65.079 -29.574  1.00  0.00    -0.504 OA
ATOM     16  H   UNL     1      -2.997 -65.756 -28.958  1.00  0.00     0.293 HD
ENDBRANCH   8  15
BRANCH  11  17
ATOM     17  O   UNL     1      -8.322 -63.998 -33.614  1.00  0.00    -0.507 OA
ATOM     18  H   UNL     1      -8.073 -63.888 -34.590  1.00  0.00     0.293 HD
ENDBRANCH  11  17
BRANCH  13  19
ATOM     19  O   UNL     1     -12.243 -66.789 -33.799  1.00  0.00    -0.508 OA
ATOM     20  H   UNL     1     -13.064 -66.978 -33.235  1.00  0.00     0.293 HD
ENDBRANCH  13  19
BRANCH   7  21
ATOM     21  O   UNL     1      -3.805 -64.345 -32.374  1.00  0.00    -0.504 OA
ATOM     22  H   UNL     1      -3.941 -63.996 -33.313  1.00  0.00     0.293 HD
ENDBRANCH   7  21
TORSDOF 4
ENDMDL
MODEL 2
REMARK VINA RESULT:    -7.166      9.946     11.922
REMARK INTER + INTRA:          -8.003
REMARK INTER:                  -8.003
REMARK INTRA:                   0.000
REMARK UNBOUND:                 0.000
REMARK SMILES Oc1cc(O)c2c(c1)CCc1cc(O)c(O)cc1-2
REMARK SMILES IDX 10 1 9 2 7 3 6 4 18 5 17 6 15 7 13 8 12 9 11 10 4 11 3 12
REMARK SMILES IDX 2 13 8 14 14 15 5 17 1 19 16 21
REMARK H PARENT 14 16 5 18 1 20 16 22
REMARK Flexibility Score: inf
ROOT
ATOM      1  C   UNL     1      -7.945 -53.684 -36.661  1.00  0.00     0.041 C 
ATOM      2  C   UNL     1      -7.108 -53.708 -35.378  1.00  0.00     0.041 C 
ATOM      3  C   UNL     1      -7.247 -55.038 -34.680  1.00  0.00    -0.032 A 
ATOM      4  C   UNL     1      -7.369 -56.228 -35.439  1.00  0.00     0.027 A 
ATOM      5  C   UNL     1      -7.324 -56.117 -36.932  1.00  0.00    -0.007 A 
ATOM      6  C   UNL     1      -6.911 -57.180 -37.759  1.00  0.00     0.059 A 
ATOM      7  C   UNL     1      -6.884 -57.045 -39.152  1.00  0.00     0.158 A 
ATOM      8  C   UNL     1      -7.259 -55.819 -39.743  1.00  0.00     0.157 A 
ATOM      9  C   UNL     1      -7.609 -54.740 -38.924  1.00  0.00     0.054 A 
ATOM     10  C   UNL     1      -7.611 -54.870 -37.528  1.00  0.00    -0.036 A 
ATOM     11  C   UNL     1      -7.601 -57.448 -34.758  1.00  0.00     0.127 A 
ATOM     12  C   UNL     1      -7.577 -57.483 -33.356  1.00  0.00     0.093 A 
ATOM     13  C   UNL     1      -7.375 -56.316 -32.618  1.00  0.00     0.119 A 
ATOM     14  C   UNL     1      -7.218 -55.094 -33.278  1.00  0.00     0.050 A 
ENDROOT
BRANCH   8  15
ATOM     15  O   UNL     1      -7.290 -55.624 -41.125  1.00  0.00    -0.504 OA
ATOM     16  H   UNL     1      -6.468 -55.590 -41.709  1.00  0.00     0.293 HD
ENDBRANCH   8  15
BRANCH  11  17
ATOM     17  O   UNL     1      -7.898 -58.618 -35.455  1.00  0.00    -0.507 OA
ATOM     18  H   UNL     1      -7.432 -59.494 -35.252  1.00  0.00     0.293 HD
ENDBRANCH  11  17
BRANCH  13  19
ATOM     19  O   UNL     1      -7.347 -56.378 -31.227  1.00  0.00    -0.508 OA
ATOM     20  H   UNL     1      -8.156 -56.133 -30.668  1.00  0.00     0.293 HD
ENDBRANCH  13  19
BRANCH   7  21
ATOM     21  O   UNL     1      -6.470 -58.147 -39.904  1.00  0.00    -0.504 OA
ATOM     22  H   UNL     1      -6.902 -59.059 -39.855  1.00  0.00     0.293 HD
ENDBRANCH   7  21
TORSDOF 4
ENDMDL
MODEL 3
REMARK VINA RESULT:    -7.162      4.696      9.404
REMARK INTER + INTRA:          -7.999
REMARK INTER:                  -7.999
REMARK INTRA:                   0.000
REMARK UNBOUND:                 0.000
REMARK SMILES Oc1cc(O)c2c(c1)CCc1cc(O)c(O)cc1-2
REMARK SMILES IDX 10 1 9 2 7 3 6 4 18 5 17 6 15 7 13 8 12 9 11 10 4 11 3 12
REMARK SMILES IDX 2 13 8 14 14 15 5 17 1 19 16 21
REMARK H PARENT 14 16 5 18 1 20 16 22
REMARK Flexibility Score: inf
ROOT
ATOM      1  C   UNL     1     -16.040 -66.744 -32.465  1.00  0.00     0.041 C 
ATOM      2  C   UNL     1     -14.873 -65.789 -32.192  1.00  0.00     0.041 C 
ATOM      3  C   UNL     1     -13.650 -66.211 -32.967  1.00  0.00    -0.032 A 
ATOM      4  C   UNL     1     -13.788 -66.769 -34.262  1.00  0.00     0.027 A 
ATOM      5  C   UNL     1     -15.168 -66.890 -34.832  1.00  0.00    -0.007 A 
ATOM      6  C   UNL     1     -15.417 -66.911 -36.218  1.00  0.00     0.059 A 
ATOM      7  C   UNL     1     -16.719 -67.029 -36.718  1.00  0.00     0.158 A 
ATOM      8  C   UNL     1     -17.807 -67.110 -35.822  1.00  0.00     0.157 A 
ATOM      9  C   UNL     1     -17.572 -67.025 -34.446  1.00  0.00     0.054 A 
ATOM     10  C   UNL     1     -16.269 -66.882 -33.949  1.00  0.00    -0.036 A 
ATOM     11  C   UNL     1     -12.631 -67.250 -34.922  1.00  0.00     0.127 A 
ATOM     12  C   UNL     1     -11.365 -67.053 -34.350  1.00  0.00     0.093 A 
ATOM     13  C   UNL     1     -11.234 -66.429 -33.108  1.00  0.00     0.119 A 
ATOM     14  C   UNL     1     -12.375 -66.016 -32.415  1.00  0.00     0.050 A 
ENDROOT
BRANCH   8  15
ATOM     15  O   UNL     1     -19.127 -67.265 -36.249  1.00  0.00    -0.504 OA
ATOM     16  H   UNL     1     -19.674 -68.101 -36.102  1.00  0.00     0.293 HD
ENDBRANCH   8  15
BRANCH  11  17
ATOM     17  O   UNL     1     -12.726 -67.958 -36.119  1.00  0.00    -0.507 OA
ATOM     18  H   UNL     1     -13.425 -68.677 -36.261  1.00  0.00     0.293 HD
ENDBRANCH  11  17
BRANCH  13  19
ATOM     19  O   UNL     1      -9.966 -66.239 -32.565  1.00  0.00    -0.508 OA
ATOM     20  H   UNL     1      -9.182 -66.825 -32.828  1.00  0.00     0.293 HD
ENDBRANCH  13  19
BRANCH   7  21
ATOM     21  O   UNL     1     -16.883 -67.051 -38.105  1.00  0.00    -0.504 OA
ATOM     22  H   UNL     1     -17.759 -67.256 -38.567  1.00  0.00     0.293 HD
ENDBRANCH   7  21
TORSDOF 4
ENDMDL
MODEL 4
REMARK VINA RESULT:    -7.133     10.653     12.348
REMARK INTER + INTRA:          -7.967
REMARK INTER:                  -7.967
REMARK INTRA:                   0.000
REMARK UNBOUND:                 0.000
REMARK SMILES Oc1cc(O)c2c(c1)CCc1cc(O)c(O)cc1-2
REMARK SMILES IDX 10 1 9 2 7 3 6 4 18 5 17 6 15 7 13 8 12 9 11 10 4 11 3 12
REMARK SMILES IDX 2 13 8 14 14 15 5 17 1 19 16 21
REMARK H PARENT 14 16 5 18 1 20 16 22
REMARK Flexibility Score: inf
ROOT
ATOM      1  C   UNL     1      -7.622 -55.678 -38.354  1.00  0.00     0.041 C 
ATOM      2  C   UNL     1      -8.149 -55.220 -36.990  1.00  0.00     0.041 C 
ATOM      3  C   UNL     1      -7.297 -55.781 -35.878  1.00  0.00    -0.032 A 
ATOM      4  C   UNL     1      -5.899 -55.923 -36.059  1.00  0.00     0.027 A 
ATOM      5  C   UNL     1      -5.309 -55.474 -37.361  1.00  0.00    -0.007 A 
ATOM      6  C   UNL     1      -3.966 -55.068 -37.485  1.00  0.00     0.059 A 
ATOM      7  C   UNL     1      -3.444 -54.658 -38.717  1.00  0.00     0.158 A 
ATOM      8  C   UNL     1      -4.279 -54.632 -39.855  1.00  0.00     0.157 A 
ATOM      9  C   UNL     1      -5.629 -54.973 -39.725  1.00  0.00     0.054 A 
ATOM     10  C   UNL     1      -6.155 -55.359 -38.485  1.00  0.00    -0.036 A 
ATOM     11  C   UNL     1      -5.141 -56.547 -35.038  1.00  0.00     0.127 A 
ATOM     12  C   UNL     1      -5.753 -56.892 -33.823  1.00  0.00     0.093 A 
ATOM     13  C   UNL     1      -7.117 -56.673 -33.626  1.00  0.00     0.119 A 
ATOM     14  C   UNL     1      -7.889 -56.125 -34.654  1.00  0.00     0.050 A 
ENDROOT
BRANCH   8  15
ATOM     15  O   UNL     1      -3.818 -54.268 -41.122  1.00  0.00    -0.504 OA
ATOM     16  H   UNL     1      -4.270 -53.586 -41.714  1.00  0.00     0.293 HD
ENDBRANCH   8  15
BRANCH  11  17
ATOM     17  O   UNL     1      -3.798 -56.867 -35.229  1.00  0.00    -0.507 OA
ATOM     18  H   UNL     1      -3.431 -57.111 -36.141  1.00  0.00     0.293 HD
ENDBRANCH  11  17
BRANCH  13  19
ATOM     19  O   UNL     1      -7.699 -57.017 -32.408  1.00  0.00    -0.508 OA
ATOM     20  H   UNL     1      -8.497 -57.640 -32.359  1.00  0.00     0.293 HD
ENDBRANCH  13  19
BRANCH   7  21
ATOM     21  O   UNL     1      -2.101 -54.277 -38.761  1.00  0.00    -0.504 OA
ATOM     22  H   UNL     1      -1.776 -53.335 -38.597  1.00  0.00     0.293 HD
ENDBRANCH   7  21
TORSDOF 4
ENDMDL
MODEL 5
REMARK VINA RESULT:    -7.038      1.393      2.831
REMARK INTER + INTRA:          -7.861
REMARK INTER:                  -7.861
REMARK INTRA:                   0.000
REMARK UNBOUND:                 0.000
REMARK SMILES Oc1cc(O)c2c(c1)CCc1cc(O)c(O)cc1-2
REMARK SMILES IDX 10 1 9 2 7 3 6 4 18 5 17 6 15 7 13 8 12 9 11 10 4 11 3 12
REMARK SMILES IDX 2 13 8 14 14 15 5 17 1 19 16 21
REMARK H PARENT 14 16 5 18 1 20 16 22
REMARK Flexibility Score: inf
ROOT
ATOM      1  C   UNL     1      -6.582 -64.761 -33.552  1.00  0.00     0.041 C 
ATOM      2  C   UNL     1      -8.029 -64.259 -33.598  1.00  0.00     0.041 C 
ATOM      3  C   UNL     1      -8.968 -65.293 -33.027  1.00  0.00    -0.032 A 
ATOM      4  C   UNL     1      -8.557 -66.097 -31.935  1.00  0.00     0.027 A 
ATOM      5  C   UNL     1      -7.193 -65.862 -31.362  1.00  0.00    -0.007 A 
ATOM      6  C   UNL     1      -6.867 -66.175 -30.028  1.00  0.00     0.059 A 
ATOM      7  C   UNL     1      -5.582 -65.947 -29.524  1.00  0.00     0.158 A 
ATOM      8  C   UNL     1      -4.596 -65.376 -30.358  1.00  0.00     0.157 A 
ATOM      9  C   UNL     1      -4.931 -65.004 -31.663  1.00  0.00     0.054 A 
ATOM     10  C   UNL     1      -6.226 -65.211 -32.158  1.00  0.00    -0.036 A 
ATOM     11  C   UNL     1      -9.420 -67.128 -31.489  1.00  0.00     0.127 A 
ATOM     12  C   UNL     1     -10.705 -67.253 -32.038  1.00  0.00     0.093 A 
ATOM     13  C   UNL     1     -11.128 -66.402 -33.060  1.00  0.00     0.119 A 
ATOM     14  C   UNL     1     -10.259 -65.429 -33.558  1.00  0.00     0.050 A 
ENDROOT
BRANCH   8  15
ATOM     15  O   UNL     1      -3.284 -65.153 -29.934  1.00  0.00    -0.504 OA
ATOM     16  H   UNL     1      -2.793 -64.279 -30.052  1.00  0.00     0.293 HD
ENDBRANCH   8  15
BRANCH  11  17
ATOM     17  O   UNL     1      -9.002 -68.056 -30.536  1.00  0.00    -0.507 OA
ATOM     18  H   UNL     1      -8.021 -68.239 -30.363  1.00  0.00     0.293 HD
ENDBRANCH  11  17
BRANCH  13  19
ATOM     19  O   UNL     1     -12.411 -66.542 -33.583  1.00  0.00    -0.508 OA
ATOM     20  H   UNL     1     -13.086 -67.178 -33.172  1.00  0.00     0.293 HD
ENDBRANCH  13  19
BRANCH   7  21
ATOM     21  O   UNL     1      -5.334 -66.291 -28.193  1.00  0.00    -0.504 OA
ATOM     22  H   UNL     1      -4.538 -65.963 -27.664  1.00  0.00     0.293 HD
ENDBRANCH   7  21
TORSDOF 4
ENDMDL
MODEL 6
REMARK VINA RESULT:    -6.938     10.649     12.357
REMARK INTER + INTRA:          -7.749
REMARK INTER:                  -7.749
REMARK INTRA:                   0.000
REMARK UNBOUND:                 0.000
REMARK SMILES Oc1cc(O)c2c(c1)CCc1cc(O)c(O)cc1-2
REMARK SMILES IDX 10 1 9 2 7 3 6 4 18 5 17 6 15 7 13 8 12 9 11 10 4 11 3 12
REMARK SMILES IDX 2 13 8 14 14 15 5 17 1 19 16 21
REMARK H PARENT 14 16 5 18 1 20 16 22
REMARK Flexibility Score: inf
ROOT
ATOM      1  C   UNL     1      -8.242 -55.329 -36.916  1.00  0.00     0.041 C 
ATOM      2  C   UNL     1      -7.611 -55.861 -38.206  1.00  0.00     0.041 C 
ATOM      3  C   UNL     1      -6.192 -55.367 -38.345  1.00  0.00    -0.032 A 
ATOM      4  C   UNL     1      -5.377 -55.219 -37.196  1.00  0.00     0.027 A 
ATOM      5  C   UNL     1      -5.959 -55.596 -35.868  1.00  0.00    -0.007 A 
ATOM      6  C   UNL     1      -5.163 -55.998 -34.778  1.00  0.00     0.059 A 
ATOM      7  C   UNL     1      -5.738 -56.340 -33.549  1.00  0.00     0.158 A 
ATOM      8  C   UNL     1      -7.141 -56.299 -33.398  1.00  0.00     0.157 A 
ATOM      9  C   UNL     1      -7.940 -55.961 -34.495  1.00  0.00     0.054 A 
ATOM     10  C   UNL     1      -7.363 -55.644 -35.732  1.00  0.00    -0.036 A 
ATOM     11  C   UNL     1      -4.085 -54.657 -37.346  1.00  0.00     0.127 A 
ATOM     12  C   UNL     1      -3.587 -54.380 -38.628  1.00  0.00     0.093 A 
ATOM     13  C   UNL     1      -4.371 -54.605 -39.760  1.00  0.00     0.119 A 
ATOM     14  C   UNL     1      -5.673 -55.091 -39.619  1.00  0.00     0.050 A 
ENDROOT
BRANCH   8  15
ATOM     15  O   UNL     1      -7.781 -56.591 -32.192  1.00  0.00    -0.504 OA
ATOM     16  H   UNL     1      -8.660 -56.186 -31.906  1.00  0.00     0.293 HD
ENDBRANCH   8  15
BRANCH  11  17
ATOM     17  O   UNL     1      -3.307 -54.331 -36.236  1.00  0.00    -0.507 OA
ATOM     18  H   UNL     1      -2.302 -54.454 -36.234  1.00  0.00     0.293 HD
ENDBRANCH  11  17
BRANCH  13  19
ATOM     19  O   UNL     1      -3.850 -54.328 -41.022  1.00  0.00    -0.508 OA
ATOM     20  H   UNL     1      -4.443 -54.030 -41.788  1.00  0.00     0.293 HD
ENDBRANCH  13  19
BRANCH   7  21
ATOM     21  O   UNL     1      -4.881 -56.722 -32.513  1.00  0.00    -0.504 OA
ATOM     22  H   UNL     1      -4.087 -57.335 -32.635  1.00  0.00     0.293 HD
ENDBRANCH   7  21
TORSDOF 4
ENDMDL
MODEL 7
REMARK VINA RESULT:    -6.656      0.859      5.426
REMARK INTER + INTRA:          -7.434
REMARK INTER:                  -7.434
REMARK INTRA:                   0.000
REMARK UNBOUND:                 0.000
REMARK SMILES Oc1cc(O)c2c(c1)CCc1cc(O)c(O)cc1-2
REMARK SMILES IDX 10 1 9 2 7 3 6 4 18 5 17 6 15 7 13 8 12 9 11 10 4 11 3 12
REMARK SMILES IDX 2 13 8 14 14 15 5 17 1 19 16 21
REMARK H PARENT 14 16 5 18 1 20 16 22
REMARK Flexibility Score: inf
ROOT
ATOM      1  C   UNL     1      -8.770 -67.727 -30.147  1.00  0.00     0.041 C 
ATOM      2  C   UNL     1      -8.064 -66.885 -29.080  1.00  0.00     0.041 C 
ATOM      3  C   UNL     1      -6.845 -66.210 -29.658  1.00  0.00    -0.032 A 
ATOM      4  C   UNL     1      -6.860 -65.746 -30.996  1.00  0.00     0.027 A 
ATOM      5  C   UNL     1      -8.119 -65.920 -31.788  1.00  0.00    -0.007 A 
ATOM      6  C   UNL     1      -8.456 -65.085 -32.870  1.00  0.00     0.059 A 
ATOM      7  C   UNL     1      -9.640 -65.277 -33.592  1.00  0.00     0.158 A 
ATOM      8  C   UNL     1     -10.524 -66.314 -33.222  1.00  0.00     0.157 A 
ATOM      9  C   UNL     1     -10.226 -67.106 -32.108  1.00  0.00     0.054 A 
ATOM     10  C   UNL     1      -9.052 -66.895 -31.372  1.00  0.00    -0.036 A 
ATOM     11  C   UNL     1      -5.667 -65.210 -31.542  1.00  0.00     0.127 A 
ATOM     12  C   UNL     1      -4.542 -65.028 -30.725  1.00  0.00     0.093 A 
ATOM     13  C   UNL     1      -4.566 -65.416 -29.385  1.00  0.00     0.119 A 
ATOM     14  C   UNL     1      -5.713 -66.013 -28.854  1.00  0.00     0.050 A 
ENDROOT
BRANCH   8  15
ATOM     15  O   UNL     1     -11.703 -66.586 -33.917  1.00  0.00    -0.504 OA
ATOM     16  H   UNL     1     -12.122 -67.502 -33.983  1.00  0.00     0.293 HD
ENDBRANCH   8  15
BRANCH  11  17
ATOM     17  O   UNL     1      -5.573 -64.896 -32.898  1.00  0.00    -0.507 OA
ATOM     18  H   UNL     1      -4.884 -65.330 -33.500  1.00  0.00     0.293 HD
ENDBRANCH  11  17
BRANCH  13  19
ATOM     19  O   UNL     1      -3.438 -65.217 -28.592  1.00  0.00    -0.508 OA
ATOM     20  H   UNL     1      -3.292 -65.740 -27.736  1.00  0.00     0.293 HD
ENDBRANCH  13  19
BRANCH   7  21
ATOM     21  O   UNL     1      -9.900 -64.412 -34.658  1.00  0.00    -0.504 OA
ATOM     22  H   UNL     1      -9.786 -64.663 -35.630  1.00  0.00     0.293 HD
ENDBRANCH   7  21
TORSDOF 4
ENDMDL
MODEL 8
REMARK VINA RESULT:    -6.651      9.344     11.257
REMARK INTER + INTRA:          -7.429
REMARK INTER:                  -7.429
REMARK INTRA:                   0.000
REMARK UNBOUND:                 0.000
REMARK SMILES Oc1cc(O)c2c(c1)CCc1cc(O)c(O)cc1-2
REMARK SMILES IDX 10 1 9 2 7 3 6 4 18 5 17 6 15 7 13 8 12 9 11 10 4 11 3 12
REMARK SMILES IDX 2 13 8 14 14 15 5 17 1 19 16 21
REMARK H PARENT 14 16 5 18 1 20 16 22
REMARK Flexibility Score: inf
ROOT
ATOM      1  C   UNL     1      -7.742 -55.972 -36.183  1.00  0.00     0.041 C 
ATOM      2  C   UNL     1      -7.653 -55.537 -37.649  1.00  0.00     0.041 C 
ATOM      3  C   UNL     1      -6.260 -55.759 -38.184  1.00  0.00    -0.032 A 
ATOM      4  C   UNL     1      -5.506 -56.879 -37.755  1.00  0.00     0.027 A 
ATOM      5  C   UNL     1      -6.147 -57.833 -36.794  1.00  0.00    -0.007 A 
ATOM      6  C   UNL     1      -5.768 -59.186 -36.701  1.00  0.00     0.059 A 
ATOM      7  C   UNL     1      -6.385 -60.050 -35.790  1.00  0.00     0.158 A 
ATOM      8  C   UNL     1      -7.418 -59.566 -34.958  1.00  0.00     0.157 A 
ATOM      9  C   UNL     1      -7.843 -58.241 -35.090  1.00  0.00     0.054 A 
ATOM     10  C   UNL     1      -7.240 -57.384 -36.022  1.00  0.00    -0.036 A 
ATOM     11  C   UNL     1      -4.165 -57.004 -38.195  1.00  0.00     0.127 A 
ATOM     12  C   UNL     1      -3.650 -56.103 -39.138  1.00  0.00     0.093 A 
ATOM     13  C   UNL     1      -4.430 -55.048 -39.614  1.00  0.00     0.119 A 
ATOM     14  C   UNL     1      -5.729 -54.872 -39.133  1.00  0.00     0.050 A 
ENDROOT
BRANCH   8  15
ATOM     15  O   UNL     1      -8.053 -60.361 -34.002  1.00  0.00    -0.504 OA
ATOM     16  H   UNL     1      -9.041 -60.319 -33.798  1.00  0.00     0.293 HD
ENDBRANCH   8  15
BRANCH  11  17
ATOM     17  O   UNL     1      -3.325 -57.988 -37.675  1.00  0.00    -0.507 OA
ATOM     18  H   UNL     1      -2.762 -58.581 -38.273  1.00  0.00     0.293 HD
ENDBRANCH  11  17
BRANCH  13  19
ATOM     19  O   UNL     1      -3.897 -54.171 -40.556  1.00  0.00    -0.508 OA
ATOM     20  H   UNL     1      -4.326 -53.272 -40.746  1.00  0.00     0.293 HD
ENDBRANCH  13  19
BRANCH   7  21
ATOM     21  O   UNL     1      -5.948 -61.377 -35.752  1.00  0.00    -0.504 OA
ATOM     22  H   UNL     1      -5.222 -61.714 -35.136  1.00  0.00     0.293 HD
ENDBRANCH   7  21
TORSDOF 4
ENDMDL
MODEL 9
REMARK VINA RESULT:    -6.358     10.505     12.131
REMARK INTER + INTRA:          -7.101
REMARK INTER:                  -7.101
REMARK INTRA:                   0.000
REMARK UNBOUND:                 0.000
REMARK SMILES Oc1cc(O)c2c(c1)CCc1cc(O)c(O)cc1-2
REMARK SMILES IDX 10 1 9 2 7 3 6 4 18 5 17 6 15 7 13 8 12 9 11 10 4 11 3 12
REMARK SMILES IDX 2 13 8 14 14 15 5 17 1 19 16 21
REMARK H PARENT 14 16 5 18 1 20 16 22
REMARK Flexibility Score: inf
ROOT
ATOM      1  C   UNL     1      -4.828 -53.338 -36.241  1.00  0.00     0.041 C 
ATOM      2  C   UNL     1      -4.795 -53.919 -34.824  1.00  0.00     0.041 C 
ATOM      3  C   UNL     1      -5.726 -55.101 -34.713  1.00  0.00    -0.032 A 
ATOM      4  C   UNL     1      -5.886 -55.983 -35.811  1.00  0.00     0.027 A 
ATOM      5  C   UNL     1      -5.085 -55.717 -37.048  1.00  0.00    -0.007 A 
ATOM      6  C   UNL     1      -4.740 -56.734 -37.960  1.00  0.00     0.059 A 
ATOM      7  C   UNL     1      -3.993 -56.452 -39.110  1.00  0.00     0.158 A 
ATOM      8  C   UNL     1      -3.560 -55.131 -39.355  1.00  0.00     0.157 A 
ATOM      9  C   UNL     1      -3.845 -54.130 -38.422  1.00  0.00     0.054 A 
ATOM     10  C   UNL     1      -4.571 -54.420 -37.258  1.00  0.00    -0.036 A 
ATOM     11  C   UNL     1      -6.844 -57.022 -35.714  1.00  0.00     0.127 A 
ATOM     12  C   UNL     1      -7.518 -57.242 -34.503  1.00  0.00     0.093 A 
ATOM     13  C   UNL     1      -7.293 -56.415 -33.402  1.00  0.00     0.119 A 
ATOM     14  C   UNL     1      -6.404 -55.342 -33.509  1.00  0.00     0.050 A 
ENDROOT
BRANCH   8  15
ATOM     15  O   UNL     1      -2.843 -54.771 -40.498  1.00  0.00    -0.504 OA
ATOM     16  H   UNL     1      -3.270 -54.458 -41.358  1.00  0.00     0.293 HD
ENDBRANCH   8  15
BRANCH  11  17
ATOM     17  O   UNL     1      -7.165 -57.812 -36.817  1.00  0.00    -0.507 OA
ATOM     18  H   UNL     1      -6.866 -58.776 -36.889  1.00  0.00     0.293 HD
ENDBRANCH  11  17
BRANCH  13  19
ATOM     19  O   UNL     1      -7.969 -56.660 -32.209  1.00  0.00    -0.508 OA
ATOM     20  H   UNL     1      -7.698 -56.208 -31.343  1.00  0.00     0.293 HD
ENDBRANCH  13  19
BRANCH   7  21
ATOM     21  O   UNL     1      -3.697 -57.513 -39.970  1.00  0.00    -0.504 OA
ATOM     22  H   UNL     1      -3.315 -58.397 -39.665  1.00  0.00     0.293 HD
ENDBRANCH   7  21
TORSDOF 4
ENDMDL
