MODEL 1
REMARK VINA RESULT:    -4.677      0.000      0.000
REMARK INTER + INTRA:          -6.531
REMARK INTER:                  -6.044
REMARK INTRA:                  -0.487
REMARK UNBOUND:                -0.487
REMARK SMILES CCO[C@@H]1O[C@H](CO)[C@@H](O)[C@H](O)[C@@H]1O
REMARK SMILES IDX 4 1 13 2 11 3 9 4 6 5 5 6 3 7 2 8 1 9 14 10 12 12 7 14 8 15
REMARK SMILES IDX 10 17
REMARK H PARENT 14 11 12 13 8 16 10 18
REMARK Flexibility Score: inf
ROOT
ATOM      1  C   UNL     1       6.124   7.041  10.875  1.00  0.00     0.281 C 
ATOM      2  C   UNL     1       5.056   6.694  11.926  1.00  0.00     0.202 C 
ATOM      3  C   UNL     1       3.914   7.722  11.914  1.00  0.00     0.179 C 
ATOM      4  C   UNL     1       3.372   7.875  10.485  1.00  0.00     0.177 C 
ATOM      5  C   UNL     1       4.507   8.095   9.452  1.00  0.00     0.178 C 
ATOM      6  O   UNL     1       5.576   7.159   9.567  1.00  0.00    -0.341 OA
ENDROOT
BRANCH   1   7
ATOM      7  O   UNL     1       6.831   8.210  11.251  1.00  0.00    -0.350 OA
BRANCH   7   8
ATOM      8  C   UNL     1       8.189   8.107  10.876  1.00  0.00     0.160 C 
ATOM      9  C   UNL     1       8.674   6.691  11.142  1.00  0.00     0.035 C 
ENDBRANCH   7   8
ENDBRANCH   1   7
BRANCH   2  10
ATOM     10  O   UNL     1       5.650   6.625  13.197  1.00  0.00    -0.385 OA
ATOM     11  H   UNL     1       6.187   5.791  13.217  1.00  0.00     0.211 HD
ENDBRANCH   2  10
BRANCH   3  12
ATOM     12  O   UNL     1       4.348   8.967  12.400  1.00  0.00    -0.387 OA
ATOM     13  H   UNL     1       5.217   8.816  12.856  1.00  0.00     0.211 HD
ENDBRANCH   3  12
BRANCH   5  14
ATOM     14  C   UNL     1       4.993   9.556   9.365  1.00  0.00     0.191 C 
BRANCH  14  15
ATOM     15  O   UNL     1       6.114   9.632   8.528  1.00  0.00    -0.394 OA
ATOM     16  H   UNL     1       6.164   8.761   8.052  1.00  0.00     0.210 HD
ENDBRANCH  14  15
ENDBRANCH   5  14
BRANCH   4  17
ATOM     17  O   UNL     1       2.658   6.718  10.127  1.00  0.00    -0.387 OA
ATOM     18  H   UNL     1       3.216   6.224   9.470  1.00  0.00     0.211 HD
ENDBRANCH   4  17
TORSDOF 7
ENDMDL
MODEL 2
REMARK VINA RESULT:    -4.583      1.685      2.183
REMARK INTER + INTRA:          -6.409
REMARK INTER:                  -5.928
REMARK INTRA:                  -0.481
REMARK UNBOUND:                -0.487
REMARK SMILES CCO[C@@H]1O[C@H](CO)[C@@H](O)[C@H](O)[C@@H]1O
REMARK SMILES IDX 4 1 13 2 11 3 9 4 6 5 5 6 3 7 2 8 1 9 14 10 12 12 7 14 8 15
REMARK SMILES IDX 10 17
REMARK H PARENT 14 11 12 13 8 16 10 18
REMARK Flexibility Score: inf
ROOT
ATOM      1  C   UNL     1       6.005   7.138  10.991  1.00  0.00     0.281 C 
ATOM      2  C   UNL     1       4.485   7.116  10.761  1.00  0.00     0.202 C 
ATOM      3  C   UNL     1       3.948   8.527  10.475  1.00  0.00     0.179 C 
ATOM      4  C   UNL     1       4.753   9.164   9.333  1.00  0.00     0.177 C 
ATOM      5  C   UNL     1       6.281   9.042   9.560  1.00  0.00     0.178 C 
ATOM      6  O   UNL     1       6.708   7.725   9.901  1.00  0.00    -0.341 OA
ENDROOT
BRANCH   1   7
ATOM      7  O   UNL     1       6.314   7.780  12.216  1.00  0.00    -0.350 OA
BRANCH   7   8
ATOM      8  C   UNL     1       7.305   7.056  12.916  1.00  0.00     0.160 C 
ATOM      9  C   UNL     1       6.673   6.390  14.128  1.00  0.00     0.035 C 
ENDBRANCH   7   8
ENDBRANCH   1   7
BRANCH   2  10
ATOM     10  O   UNL     1       3.847   6.558  11.881  1.00  0.00    -0.385 OA
ATOM     11  H   UNL     1       3.800   5.579  11.725  1.00  0.00     0.211 HD
ENDBRANCH   2  10
BRANCH   3  12
ATOM     12  O   UNL     1       4.015   9.336  11.622  1.00  0.00    -0.387 OA
ATOM     13  H   UNL     1       4.507  10.160  11.370  1.00  0.00     0.211 HD
ENDBRANCH   3  12
BRANCH   5  14
ATOM     14  C   UNL     1       6.859  10.123  10.495  1.00  0.00     0.191 C 
BRANCH  14  15
ATOM     15  O   UNL     1       8.174   9.792  10.846  1.00  0.00    -0.394 OA
ATOM     16  H   UNL     1       8.709  10.620  10.727  1.00  0.00     0.210 HD
ENDBRANCH  14  15
ENDBRANCH   5  14
BRANCH   4  17
ATOM     17  O   UNL     1       4.428   8.532   8.119  1.00  0.00    -0.387 OA
ATOM     18  H   UNL     1       5.284   8.261   7.694  1.00  0.00     0.211 HD
ENDBRANCH   4  17
TORSDOF 7
ENDMDL
MODEL 3
REMARK VINA RESULT:    -4.552      1.520      3.317
REMARK INTER + INTRA:          -6.369
REMARK INTER:                  -6.158
REMARK INTRA:                  -0.212
REMARK UNBOUND:                -0.487
REMARK SMILES CCO[C@@H]1O[C@H](CO)[C@@H](O)[C@H](O)[C@@H]1O
REMARK SMILES IDX 4 1 13 2 11 3 9 4 6 5 5 6 3 7 2 8 1 9 14 10 12 12 7 14 8 15
REMARK SMILES IDX 10 17
REMARK H PARENT 14 11 12 13 8 16 10 18
REMARK Flexibility Score: inf
ROOT
ATOM      1  C   UNL     1       5.400   8.596  12.004  1.00  0.00     0.281 C 
ATOM      2  C   UNL     1       6.441   8.766  10.885  1.00  0.00     0.202 C 
ATOM      3  C   UNL     1       6.126   7.850   9.692  1.00  0.00     0.179 C 
ATOM      4  C   UNL     1       4.673   8.067   9.245  1.00  0.00     0.177 C 
ATOM      5  C   UNL     1       3.682   8.010  10.436  1.00  0.00     0.178 C 
ATOM      6  O   UNL     1       4.071   8.819  11.544  1.00  0.00    -0.341 OA
ENDROOT
BRANCH   1   7
ATOM      7  O   UNL     1       5.532   7.325  12.617  1.00  0.00    -0.350 OA
BRANCH   7   8
ATOM      8  C   UNL     1       5.719   7.467  14.010  1.00  0.00     0.160 C 
ATOM      9  C   UNL     1       6.964   6.701  14.427  1.00  0.00     0.035 C 
ENDBRANCH   7   8
ENDBRANCH   1   7
BRANCH   2  10
ATOM     10  O   UNL     1       7.724   8.501  11.390  1.00  0.00    -0.385 OA
ATOM     11  H   UNL     1       7.983   9.286  11.940  1.00  0.00     0.211 HD
ENDBRANCH   2  10
BRANCH   3  12
ATOM     12  O   UNL     1       6.332   6.500  10.022  1.00  0.00    -0.387 OA
ATOM     13  H   UNL     1       6.388   6.446  11.011  1.00  0.00     0.211 HD
ENDBRANCH   3  12
BRANCH   5  14
ATOM     14  C   UNL     1       3.284   6.578  10.845  1.00  0.00     0.191 C 
BRANCH  14  15
ATOM     15  O   UNL     1       2.043   6.254  10.284  1.00  0.00    -0.394 OA
ATOM     16  H   UNL     1       2.065   6.590   9.350  1.00  0.00     0.210 HD
ENDBRANCH  14  15
ENDBRANCH   5  14
BRANCH   4  17
ATOM     17  O   UNL     1       4.554   9.322   8.622  1.00  0.00    -0.387 OA
ATOM     18  H   UNL     1       5.305   9.398   7.976  1.00  0.00     0.211 HD
ENDBRANCH   4  17
TORSDOF 7
ENDMDL
MODEL 4
REMARK VINA RESULT:    -4.358      1.683      2.923
REMARK INTER + INTRA:          -6.119
REMARK INTER:                  -5.711
REMARK INTRA:                  -0.408
REMARK UNBOUND:                -0.487
REMARK SMILES CCO[C@@H]1O[C@H](CO)[C@@H](O)[C@H](O)[C@@H]1O
REMARK SMILES IDX 4 1 13 2 11 3 9 4 6 5 5 6 3 7 2 8 1 9 14 10 12 12 7 14 8 15
REMARK SMILES IDX 10 17
REMARK H PARENT 14 11 12 13 8 16 10 18
REMARK Flexibility Score: inf
ROOT
ATOM      1  C   UNL     1       6.883   8.296  11.153  1.00  0.00     0.281 C 
ATOM      2  C   UNL     1       6.540   7.494   9.887  1.00  0.00     0.202 C 
ATOM      3  C   UNL     1       5.025   7.486   9.631  1.00  0.00     0.179 C 
ATOM      4  C   UNL     1       4.494   8.927   9.633  1.00  0.00     0.177 C 
ATOM      5  C   UNL     1       4.978   9.725  10.870  1.00  0.00     0.178 C 
ATOM      6  O   UNL     1       6.382   9.627  11.102  1.00  0.00    -0.341 OA
ENDROOT
BRANCH   1   7
ATOM      7  O   UNL     1       6.434   7.614  12.311  1.00  0.00    -0.350 OA
BRANCH   7   8
ATOM      8  C   UNL     1       7.505   7.405  13.208  1.00  0.00     0.160 C 
ATOM      9  C   UNL     1       7.096   6.367  14.241  1.00  0.00     0.035 C 
ENDBRANCH   7   8
ENDBRANCH   1   7
BRANCH   2  10
ATOM     10  O   UNL     1       7.030   6.184  10.011  1.00  0.00    -0.385 OA
ATOM     11  H   UNL     1       6.930   5.755   9.122  1.00  0.00     0.211 HD
ENDBRANCH   2  10
BRANCH   3  12
ATOM     12  O   UNL     1       4.351   6.723  10.600  1.00  0.00    -0.387 OA
ATOM     13  H   UNL     1       3.385   6.754  10.377  1.00  0.00     0.211 HD
ENDBRANCH   3  12
BRANCH   5  14
ATOM     14  C   UNL     1       4.139   9.473  12.139  1.00  0.00     0.191 C 
BRANCH  14  15
ATOM     15  O   UNL     1       2.869   9.004  11.781  1.00  0.00    -0.394 OA
ATOM     16  H   UNL     1       2.993   8.061  11.494  1.00  0.00     0.210 HD
ENDBRANCH  14  15
ENDBRANCH   5  14
BRANCH   4  17
ATOM     17  O   UNL     1       4.930   9.591   8.473  1.00  0.00    -0.387 OA
ATOM     18  H   UNL     1       5.874   9.858   8.628  1.00  0.00     0.211 HD
ENDBRANCH   4  17
TORSDOF 7
ENDMDL
MODEL 5
REMARK VINA RESULT:    -4.280      1.292      3.205
REMARK INTER + INTRA:          -6.017
REMARK INTER:                  -5.585
REMARK INTRA:                  -0.433
REMARK UNBOUND:                -0.487
REMARK SMILES CCO[C@@H]1O[C@H](CO)[C@@H](O)[C@H](O)[C@@H]1O
REMARK SMILES IDX 4 1 13 2 11 3 9 4 6 5 5 6 3 7 2 8 1 9 14 10 12 12 7 14 8 15
REMARK SMILES IDX 10 17
REMARK H PARENT 14 11 12 13 8 16 10 18
REMARK Flexibility Score: inf
ROOT
ATOM      1  C   UNL     1       7.145   8.428  11.385  1.00  0.00     0.281 C 
ATOM      2  C   UNL     1       6.663   9.587  10.497  1.00  0.00     0.202 C 
ATOM      3  C   UNL     1       5.253   9.315   9.949  1.00  0.00     0.179 C 
ATOM      4  C   UNL     1       4.307   8.969  11.109  1.00  0.00     0.177 C 
ATOM      5  C   UNL     1       4.903   7.885  12.043  1.00  0.00     0.178 C 
ATOM      6  O   UNL     1       6.243   8.154  12.452  1.00  0.00    -0.341 OA
ENDROOT
BRANCH   1   7
ATOM      7  O   UNL     1       7.394   7.273  10.604  1.00  0.00    -0.350 OA
BRANCH   7   8
ATOM      8  C   UNL     1       8.570   6.625  11.043  1.00  0.00     0.160 C 
ATOM      9  C   UNL     1       9.013   5.625   9.986  1.00  0.00     0.035 C 
ENDBRANCH   7   8
ENDBRANCH   1   7
BRANCH   2  10
ATOM     10  O   UNL     1       7.574   9.786   9.447  1.00  0.00    -0.385 OA
ATOM     11  H   UNL     1       8.160   8.986   9.421  1.00  0.00     0.211 HD
ENDBRANCH   2  10
BRANCH   3  12
ATOM     12  O   UNL     1       5.267   8.269   9.010  1.00  0.00    -0.387 OA
ATOM     13  H   UNL     1       4.760   8.583   8.217  1.00  0.00     0.211 HD
ENDBRANCH   3  12
BRANCH   5  14
ATOM     14  C   UNL     1       4.709   6.445  11.528  1.00  0.00     0.191 C 
BRANCH  14  15
ATOM     15  O   UNL     1       3.545   6.375  10.750  1.00  0.00    -0.394 OA
ATOM     16  H   UNL     1       2.784   6.429  11.386  1.00  0.00     0.210 HD
ENDBRANCH  14  15
ENDBRANCH   5  14
BRANCH   4  17
ATOM     17  O   UNL     1       4.052  10.125  11.868  1.00  0.00    -0.387 OA
ATOM     18  H   UNL     1       3.413   9.867  12.584  1.00  0.00     0.211 HD
ENDBRANCH   4  17
TORSDOF 7
ENDMDL
MODEL 6
REMARK VINA RESULT:    -4.276      1.610      2.907
REMARK INTER + INTRA:          -6.012
REMARK INTER:                  -5.581
REMARK INTRA:                  -0.431
REMARK UNBOUND:                -0.487
REMARK SMILES CCO[C@@H]1O[C@H](CO)[C@@H](O)[C@H](O)[C@@H]1O
REMARK SMILES IDX 4 1 13 2 11 3 9 4 6 5 5 6 3 7 2 8 1 9 14 10 12 12 7 14 8 15
REMARK SMILES IDX 10 17
REMARK H PARENT 14 11 12 13 8 16 10 18
REMARK Flexibility Score: inf
ROOT
ATOM      1  C   UNL     1       4.460   7.658  12.033  1.00  0.00     0.281 C 
ATOM      2  C   UNL     1       3.963   8.958  11.379  1.00  0.00     0.202 C 
ATOM      3  C   UNL     1       5.023   9.542  10.432  1.00  0.00     0.179 C 
ATOM      4  C   UNL     1       5.476   8.463   9.437  1.00  0.00     0.177 C 
ATOM      5  C   UNL     1       5.843   7.134  10.145  1.00  0.00     0.178 C 
ATOM      6  O   UNL     1       4.856   6.686  11.071  1.00  0.00    -0.341 OA
ENDROOT
BRANCH   1   7
ATOM      7  O   UNL     1       5.500   7.932  12.955  1.00  0.00    -0.350 OA
BRANCH   7   8
ATOM      8  C   UNL     1       5.431   7.047  14.054  1.00  0.00     0.160 C 
ATOM      9  C   UNL     1       6.832   6.562  14.393  1.00  0.00     0.035 C 
ENDBRANCH   7   8
ENDBRANCH   1   7
BRANCH   2  10
ATOM     10  O   UNL     1       3.621   9.887  12.375  1.00  0.00    -0.385 OA
ATOM     11  H   UNL     1       3.544  10.770  11.929  1.00  0.00     0.211 HD
ENDBRANCH   2  10
BRANCH   3  12
ATOM     12  O   UNL     1       6.129  10.030  11.150  1.00  0.00    -0.387 OA
ATOM     13  H   UNL     1       5.813  10.808  11.679  1.00  0.00     0.211 HD
ENDBRANCH   3  12
BRANCH   5  14
ATOM     14  C   UNL     1       7.269   7.115  10.730  1.00  0.00     0.191 C 
BRANCH  14  15
ATOM     15  O   UNL     1       8.004   8.193  10.219  1.00  0.00    -0.394 OA
ATOM     16  H   UNL     1       7.912   8.928  10.880  1.00  0.00     0.210 HD
ENDBRANCH  14  15
ENDBRANCH   5  14
BRANCH   4  17
ATOM     17  O   UNL     1       4.444   8.210   8.516  1.00  0.00    -0.387 OA
ATOM     18  H   UNL     1       4.873   8.072   7.630  1.00  0.00     0.211 HD
ENDBRANCH   4  17
TORSDOF 7
ENDMDL
MODEL 7
REMARK VINA RESULT:    -4.179      1.620      3.531
REMARK INTER + INTRA:          -5.887
REMARK INTER:                  -5.412
REMARK INTRA:                  -0.474
REMARK UNBOUND:                -0.487
REMARK SMILES CCO[C@@H]1O[C@H](CO)[C@@H](O)[C@H](O)[C@@H]1O
REMARK SMILES IDX 4 1 13 2 11 3 9 4 6 5 5 6 3 7 2 8 1 9 14 10 12 12 7 14 8 15
REMARK SMILES IDX 10 17
REMARK H PARENT 14 11 12 13 8 16 10 18
REMARK Flexibility Score: inf
ROOT
ATOM      1  C   UNL     1       5.462   8.466  12.146  1.00  0.00     0.281 C 
ATOM      2  C   UNL     1       6.880   7.977  11.806  1.00  0.00     0.202 C 
ATOM      3  C   UNL     1       7.051   7.786  10.291  1.00  0.00     0.179 C 
ATOM      4  C   UNL     1       6.629   9.068   9.558  1.00  0.00     0.177 C 
ATOM      5  C   UNL     1       5.248   9.584  10.035  1.00  0.00     0.178 C 
ATOM      6  O   UNL     1       5.123   9.663  11.454  1.00  0.00    -0.341 OA
ENDROOT
BRANCH   1   7
ATOM      7  O   UNL     1       4.513   7.441  11.911  1.00  0.00    -0.350 OA
BRANCH   7   8
ATOM      8  C   UNL     1       3.376   7.625  12.728  1.00  0.00     0.160 C 
ATOM      9  C   UNL     1       3.822   7.795  14.172  1.00  0.00     0.035 C 
ENDBRANCH   7   8
ENDBRANCH   1   7
BRANCH   2  10
ATOM     10  O   UNL     1       7.143   6.780  12.491  1.00  0.00    -0.385 OA
ATOM     11  H   UNL     1       7.338   6.092  11.802  1.00  0.00     0.211 HD
ENDBRANCH   2  10
BRANCH   3  12
ATOM     12  O   UNL     1       6.293   6.696   9.829  1.00  0.00    -0.387 OA
ATOM     13  H   UNL     1       5.917   6.954   8.948  1.00  0.00     0.211 HD
ENDBRANCH   3  12
BRANCH   5  14
ATOM     14  C   UNL     1       4.055   8.875   9.365  1.00  0.00     0.191 C 
BRANCH  14  15
ATOM     15  O   UNL     1       4.395   8.513   8.055  1.00  0.00    -0.394 OA
ATOM     16  H   UNL     1       3.625   7.995   7.702  1.00  0.00     0.210 HD
ENDBRANCH  14  15
ENDBRANCH   5  14
BRANCH   4  17
ATOM     17  O   UNL     1       7.586  10.075   9.783  1.00  0.00    -0.387 OA
ATOM     18  H   UNL     1       8.368   9.641  10.216  1.00  0.00     0.211 HD
ENDBRANCH   4  17
TORSDOF 7
ENDMDL
MODEL 8
REMARK VINA RESULT:    -4.160      1.217      3.158
REMARK INTER + INTRA:          -5.862
REMARK INTER:                  -5.406
REMARK INTRA:                  -0.456
REMARK UNBOUND:                -0.487
REMARK SMILES CCO[C@@H]1O[C@H](CO)[C@@H](O)[C@H](O)[C@@H]1O
REMARK SMILES IDX 4 1 13 2 11 3 9 4 6 5 5 6 3 7 2 8 1 9 14 10 12 12 7 14 8 15
REMARK SMILES IDX 10 17
REMARK H PARENT 14 11 12 13 8 16 10 18
REMARK Flexibility Score: inf
ROOT
ATOM      1  C   UNL     1       5.635   8.727  10.575  1.00  0.00     0.281 C 
ATOM      2  C   UNL     1       4.286   8.644   9.841  1.00  0.00     0.202 C 
ATOM      3  C   UNL     1       3.301   7.738  10.596  1.00  0.00     0.179 C 
ATOM      4  C   UNL     1       3.200   8.191  12.059  1.00  0.00     0.177 C 
ATOM      5  C   UNL     1       4.596   8.381  12.708  1.00  0.00     0.178 C 
ATOM      6  O   UNL     1       5.492   9.163  11.922  1.00  0.00    -0.341 OA
ENDROOT
BRANCH   1   7
ATOM      7  O   UNL     1       6.320   7.489  10.498  1.00  0.00    -0.350 OA
BRANCH   7   8
ATOM      8  C   UNL     1       7.716   7.699  10.441  1.00  0.00     0.160 C 
ATOM      9  C   UNL     1       8.430   6.418  10.841  1.00  0.00     0.035 C 
ENDBRANCH   7   8
ENDBRANCH   1   7
BRANCH   2  10
ATOM     10  O   UNL     1       4.489   8.178   8.532  1.00  0.00    -0.385 OA
ATOM     11  H   UNL     1       3.597   7.927   8.176  1.00  0.00     0.211 HD
ENDBRANCH   2  10
BRANCH   3  12
ATOM     12  O   UNL     1       3.702   6.393  10.534  1.00  0.00    -0.387 OA
ATOM     13  H   UNL     1       3.593   6.014  11.445  1.00  0.00     0.211 HD
ENDBRANCH   3  12
BRANCH   5  14
ATOM     14  C   UNL     1       5.228   7.069  13.215  1.00  0.00     0.191 C 
BRANCH  14  15
ATOM     15  O   UNL     1       6.521   7.321  13.691  1.00  0.00    -0.394 OA
ATOM     16  H   UNL     1       6.850   6.462  14.066  1.00  0.00     0.210 HD
ENDBRANCH  14  15
ENDBRANCH   5  14
BRANCH   4  17
ATOM     17  O   UNL     1       2.505   9.412  12.128  1.00  0.00    -0.387 OA
ATOM     18  H   UNL     1       3.094  10.105  11.728  1.00  0.00     0.211 HD
ENDBRANCH   4  17
TORSDOF 7
ENDMDL
MODEL 9
REMARK VINA RESULT:    -4.146      1.505      3.583
REMARK INTER + INTRA:          -5.844
REMARK INTER:                  -5.322
REMARK INTRA:                  -0.523
REMARK UNBOUND:                -0.487
REMARK SMILES CCO[C@@H]1O[C@H](CO)[C@@H](O)[C@H](O)[C@@H]1O
REMARK SMILES IDX 4 1 13 2 11 3 9 4 6 5 5 6 3 7 2 8 1 9 14 10 12 12 7 14 8 15
REMARK SMILES IDX 10 17
REMARK H PARENT 14 11 12 13 8 16 10 18
REMARK Flexibility Score: inf
ROOT
ATOM      1  C   UNL     1       4.768   8.023  11.910  1.00  0.00     0.281 C 
ATOM      2  C   UNL     1       4.717   6.794  10.986  1.00  0.00     0.202 C 
ATOM      3  C   UNL     1       5.478   7.054   9.677  1.00  0.00     0.179 C 
ATOM      4  C   UNL     1       6.896   7.551   9.994  1.00  0.00     0.177 C 
ATOM      5  C   UNL     1       6.891   8.706  11.028  1.00  0.00     0.178 C 
ATOM      6  O   UNL     1       6.102   8.437  12.185  1.00  0.00    -0.341 OA
ENDROOT
BRANCH   1   7
ATOM      7  O   UNL     1       3.994   9.081  11.372  1.00  0.00    -0.350 OA
BRANCH   7   8
ATOM      8  C   UNL     1       3.347   9.793  12.406  1.00  0.00     0.160 C 
ATOM      9  C   UNL     1       2.809   8.806  13.431  1.00  0.00     0.035 C 
ENDBRANCH   7   8
ENDBRANCH   1   7
BRANCH   2  10
ATOM     10  O   UNL     1       3.379   6.455  10.725  1.00  0.00    -0.385 OA
ATOM     11  H   UNL     1       2.893   7.307  10.573  1.00  0.00     0.211 HD
ENDBRANCH   2  10
BRANCH   3  12
ATOM     12  O   UNL     1       4.805   7.995   8.878  1.00  0.00    -0.387 OA
ATOM     13  H   UNL     1       3.957   7.574   8.583  1.00  0.00     0.211 HD
ENDBRANCH   3  12
BRANCH   5  14
ATOM     14  C   UNL     1       6.604  10.090  10.412  1.00  0.00     0.191 C 
BRANCH  14  15
ATOM     15  O   UNL     1       6.982  10.095   9.063  1.00  0.00    -0.394 OA
ATOM     16  H   UNL     1       6.779   9.187   8.716  1.00  0.00     0.210 HD
ENDBRANCH  14  15
ENDBRANCH   5  14
BRANCH   4  17
ATOM     17  O   UNL     1       7.662   6.491  10.511  1.00  0.00    -0.387 OA
ATOM     18  H   UNL     1       8.416   6.895  11.015  1.00  0.00     0.211 HD
ENDBRANCH   4  17
TORSDOF 7
ENDMDL
