MODEL 1
REMARK VINA RESULT:     1.660      0.000      0.000
REMARK INTER + INTRA:           2.035
REMARK INTER:                   2.534
REMARK INTRA:                  -0.499
REMARK UNBOUND:                -0.499
REMARK SMILES CCCCCCCCCCC(=O)[O-]
REMARK SMILES IDX 7 1 8 2 9 3 10 4 11 5 12 6 13 7 6 8 5 9 4 10 3 11 2 12 1 13
REMARK H PARENT
REMARK Flexibility Score: inf
ROOT
ATOM      1  C   UNL     1      19.565 -19.938  26.601  1.00  0.00     0.000 C 
ENDROOT
BRANCH   1   2
ATOM      2  C   UNL     1      21.068 -19.937  26.272  1.00  0.00     0.000 C 
BRANCH   2   3
ATOM      3  C   UNL     1      21.469 -20.977  25.205  1.00  0.00     0.006 C 
BRANCH   3   4
ATOM      4  C   UNL     1      22.968 -21.301  25.244  1.00  0.00     0.053 C 
BRANCH   4   5
ATOM      5  C   UNL     1      23.591 -21.062  23.906  1.00  0.00     0.041 C 
ATOM      6  O   UNL     1      23.723 -19.888  23.469  1.00  0.00    -0.550 OA
ATOM      7  O   UNL     1      24.073 -22.131  23.160  1.00  0.00    -0.550 OA
ENDBRANCH   4   5
ENDBRANCH   3   4
ENDBRANCH   2   3
ENDBRANCH   1   2
BRANCH   1   8
ATOM      8  C   UNL     1      18.780 -18.881  25.814  1.00  0.00     0.000 C 
BRANCH   8   9
ATOM      9  C   UNL     1      17.319 -18.817  26.283  1.00  0.00    -0.000 C 
BRANCH   9  10
ATOM     10  C   UNL     1      16.988 -19.881  27.342  1.00  0.00    -0.000 C 
BRANCH  10  11
ATOM     11  C   UNL     1      16.163 -19.317  28.511  1.00  0.00    -0.000 C 
BRANCH  11  12
ATOM     12  C   UNL     1      16.811 -18.075  29.143  1.00  0.00    -0.003 C 
ATOM     13  C   UNL     1      15.876 -16.865  29.168  1.00  0.00     0.004 C 
ENDBRANCH  11  12
ENDBRANCH  10  11
ENDBRANCH   9  10
ENDBRANCH   8   9
ENDBRANCH   1   8
TORSDOF 9
ENDMDL
MODEL 2
REMARK VINA RESULT:     1.661      3.697      7.380
REMARK INTER + INTRA:           2.036
REMARK INTER:                   2.431
REMARK INTRA:                  -0.395
REMARK UNBOUND:                -0.499
REMARK SMILES CCCCCCCCCCC(=O)[O-]
REMARK SMILES IDX 7 1 8 2 9 3 10 4 11 5 12 6 13 7 6 8 5 9 4 10 3 11 2 12 1 13
REMARK H PARENT
REMARK Flexibility Score: inf
ROOT
ATOM      1  C   UNL     1      18.740 -18.973  25.748  1.00  0.00     0.000 C 
ENDROOT
BRANCH   1   2
ATOM      2  C   UNL     1      17.312 -18.818  26.299  1.00  0.00     0.000 C 
BRANCH   2   3
ATOM      3  C   UNL     1      16.898 -19.943  27.271  1.00  0.00     0.006 C 
BRANCH   3   4
ATOM      4  C   UNL     1      16.014 -19.427  28.413  1.00  0.00     0.053 C 
BRANCH   4   5
ATOM      5  C   UNL     1      16.662 -18.265  29.096  1.00  0.00     0.041 C 
ATOM      6  O   UNL     1      17.731 -18.428  29.744  1.00  0.00    -0.550 OA
ATOM      7  O   UNL     1      16.118 -16.993  28.977  1.00  0.00    -0.550 OA
ENDBRANCH   4   5
ENDBRANCH   3   4
ENDBRANCH   2   3
ENDBRANCH   1   2
BRANCH   1   8
ATOM      8  C   UNL     1      19.621 -19.877  26.620  1.00  0.00     0.000 C 
BRANCH   8   9
ATOM      9  C   UNL     1      21.089 -19.811  26.173  1.00  0.00    -0.000 C 
BRANCH   9  10
ATOM     10  C   UNL     1      21.522 -21.049  25.371  1.00  0.00    -0.000 C 
BRANCH  10  11
ATOM     11  C   UNL     1      23.045 -21.121  25.168  1.00  0.00    -0.000 C 
BRANCH  11  12
ATOM     12  C   UNL     1      23.463 -20.789  23.727  1.00  0.00    -0.003 C 
ATOM     13  C   UNL     1      24.185 -21.947  23.037  1.00  0.00     0.004 C 
ENDBRANCH  11  12
ENDBRANCH  10  11
ENDBRANCH   9  10
ENDBRANCH   8   9
ENDBRANCH   1   8
TORSDOF 9
ENDMDL
MODEL 3
REMARK VINA RESULT:     1.935      1.092      1.755
REMARK INTER + INTRA:           2.454
REMARK INTER:                   2.777
REMARK INTRA:                  -0.323
REMARK UNBOUND:                -0.499
REMARK SMILES CCCCCCCCCCC(=O)[O-]
REMARK SMILES IDX 7 1 8 2 9 3 10 4 11 5 12 6 13 7 6 8 5 9 4 10 3 11 2 12 1 13
REMARK H PARENT
REMARK Flexibility Score: inf
ROOT
ATOM      1  C   UNL     1      19.883 -19.912  25.864  1.00  0.00     0.000 C 
ENDROOT
BRANCH   1   2
ATOM      2  C   UNL     1      21.362 -19.787  26.269  1.00  0.00     0.000 C 
BRANCH   2   3
ATOM      3  C   UNL     1      22.197 -21.047  25.956  1.00  0.00     0.006 C 
BRANCH   3   4
ATOM      4  C   UNL     1      22.202 -21.384  24.459  1.00  0.00     0.053 C 
BRANCH   4   5
ATOM      5  C   UNL     1      23.502 -20.988  23.837  1.00  0.00     0.041 C 
ATOM      6  O   UNL     1      24.096 -19.944  24.220  1.00  0.00    -0.550 OA
ATOM      7  O   UNL     1      24.087 -21.795  22.869  1.00  0.00    -0.550 OA
ENDBRANCH   4   5
ENDBRANCH   3   4
ENDBRANCH   2   3
ENDBRANCH   1   2
BRANCH   1   8
ATOM      8  C   UNL     1      18.921 -19.480  26.978  1.00  0.00     0.000 C 
BRANCH   8   9
ATOM      9  C   UNL     1      17.716 -18.722  26.401  1.00  0.00    -0.000 C 
BRANCH   9  10
ATOM     10  C   UNL     1      16.692 -18.326  27.477  1.00  0.00    -0.000 C 
BRANCH  10  11
ATOM     11  C   UNL     1      16.677 -19.300  28.667  1.00  0.00    -0.000 C 
BRANCH  11  12
ATOM     12  C   UNL     1      15.876 -20.578  28.372  1.00  0.00    -0.003 C 
ATOM     13  C   UNL     1      16.183 -21.711  29.352  1.00  0.00     0.004 C 
ENDBRANCH  11  12
ENDBRANCH  10  11
ENDBRANCH   9  10
ENDBRANCH   8   9
ENDBRANCH   1   8
TORSDOF 9
ENDMDL
MODEL 4
REMARK VINA RESULT:     2.470      3.878      7.698
REMARK INTER + INTRA:           3.271
REMARK INTER:                   3.521
REMARK INTRA:                  -0.250
REMARK UNBOUND:                -0.499
REMARK SMILES CCCCCCCCCCC(=O)[O-]
REMARK SMILES IDX 7 1 8 2 9 3 10 4 11 5 12 6 13 7 6 8 5 9 4 10 3 11 2 12 1 13
REMARK H PARENT
REMARK Flexibility Score: inf
ROOT
ATOM      1  C   UNL     1      21.233 -20.124  26.266  1.00  0.00     0.000 C 
ENDROOT
BRANCH   1   2
ATOM      2  C   UNL     1      19.759 -19.869  25.909  1.00  0.00     0.000 C 
BRANCH   2   3
ATOM      3  C   UNL     1      18.912 -19.373  27.101  1.00  0.00     0.006 C 
BRANCH   3   4
ATOM      4  C   UNL     1      17.452 -19.112  26.707  1.00  0.00     0.053 C 
BRANCH   4   5
ATOM      5  C   UNL     1      16.588 -19.024  27.924  1.00  0.00     0.041 C 
ATOM      6  O   UNL     1      16.017 -20.054  28.371  1.00  0.00    -0.550 OA
ATOM      7  O   UNL     1      16.452 -17.816  28.596  1.00  0.00    -0.550 OA
ENDBRANCH   4   5
ENDBRANCH   3   4
ENDBRANCH   2   3
ENDBRANCH   1   2
BRANCH   1   8
ATOM      8  C   UNL     1      21.820 -21.344  25.543  1.00  0.00     0.000 C 
BRANCH   8   9
ATOM      9  C   UNL     1      22.314 -20.967  24.139  1.00  0.00    -0.000 C 
BRANCH   9  10
ATOM     10  C   UNL     1      23.838 -20.770  24.078  1.00  0.00    -0.000 C 
BRANCH  10  11
ATOM     11  C   UNL     1      24.614 -22.035  24.481  1.00  0.00    -0.000 C 
BRANCH  11  12
ATOM     12  C   UNL     1      25.255 -21.913  25.873  1.00  0.00    -0.003 C 
ATOM     13  C   UNL     1      26.412 -22.891  26.081  1.00  0.00     0.004 C 
ENDBRANCH  11  12
ENDBRANCH  10  11
ENDBRANCH   9  10
ENDBRANCH   8   9
ENDBRANCH   1   8
TORSDOF 9
ENDMDL
MODEL 5
REMARK VINA RESULT:     3.287      1.929      2.733
REMARK INTER + INTRA:           4.517
REMARK INTER:                   4.824
REMARK INTRA:                  -0.306
REMARK UNBOUND:                -0.499
REMARK SMILES CCCCCCCCCCC(=O)[O-]
REMARK SMILES IDX 7 1 8 2 9 3 10 4 11 5 12 6 13 7 6 8 5 9 4 10 3 11 2 12 1 13
REMARK H PARENT
REMARK Flexibility Score: inf
ROOT
ATOM      1  C   UNL     1      21.523 -21.017  25.855  1.00  0.00     0.000 C 
ENDROOT
BRANCH   1   2
ATOM      2  C   UNL     1      22.202 -20.989  24.475  1.00  0.00     0.000 C 
BRANCH   2   3
ATOM      3  C   UNL     1      23.724 -20.741  24.540  1.00  0.00     0.006 C 
BRANCH   3   4
ATOM      4  C   UNL     1      24.519 -22.046  24.675  1.00  0.00     0.053 C 
BRANCH   4   5
ATOM      5  C   UNL     1      25.094 -22.170  26.050  1.00  0.00     0.041 C 
ATOM      6  O   UNL     1      24.348 -22.068  27.060  1.00  0.00    -0.550 OA
ATOM      7  O   UNL     1      26.444 -22.449  26.218  1.00  0.00    -0.550 OA
ENDBRANCH   4   5
ENDBRANCH   3   4
ENDBRANCH   2   3
ENDBRANCH   1   2
BRANCH   1   8
ATOM      8  C   UNL     1      20.874 -19.678  26.230  1.00  0.00     0.000 C 
BRANCH   8   9
ATOM      9  C   UNL     1      19.396 -19.867  26.603  1.00  0.00    -0.000 C 
BRANCH   9  10
ATOM     10  C   UNL     1      18.455 -18.984  25.767  1.00  0.00    -0.000 C 
BRANCH  10  11
ATOM     11  C   UNL     1      17.132 -18.681  26.490  1.00  0.00    -0.000 C 
BRANCH  11  12
ATOM     12  C   UNL     1      17.140 -19.149  27.954  1.00  0.00    -0.003 C 
ATOM     13  C   UNL     1      16.027 -20.151  28.263  1.00  0.00     0.004 C 
ENDBRANCH  11  12
ENDBRANCH  10  11
ENDBRANCH   9  10
ENDBRANCH   8   9
ENDBRANCH   1   8
TORSDOF 9
ENDMDL
MODEL 6
REMARK VINA RESULT:     3.624     11.778     13.060
REMARK INTER + INTRA:           5.032
REMARK INTER:                   4.270
REMARK INTRA:                   0.761
REMARK UNBOUND:                -0.499
REMARK SMILES CCCCCCCCCCC(=O)[O-]
REMARK SMILES IDX 7 1 8 2 9 3 10 4 11 5 12 6 13 7 6 8 5 9 4 10 3 11 2 12 1 13
REMARK H PARENT
REMARK Flexibility Score: inf
ROOT
ATOM      1  C   UNL     1      16.808  -9.172  27.661  1.00  0.00     0.000 C 
ENDROOT
BRANCH   1   2
ATOM      2  C   UNL     1      15.875  -9.715  28.757  1.00  0.00     0.000 C 
BRANCH   2   3
ATOM      3  C   UNL     1      16.569  -9.900  30.123  1.00  0.00     0.006 C 
BRANCH   3   4
ATOM      4  C   UNL     1      18.026  -9.419  30.105  1.00  0.00     0.053 C 
BRANCH   4   5
ATOM      5  C   UNL     1      18.084  -7.927  30.024  1.00  0.00     0.041 C 
ATOM      6  O   UNL     1      19.184  -7.347  29.822  1.00  0.00    -0.550 OA
ATOM      7  O   UNL     1      16.919  -7.178  30.121  1.00  0.00    -0.550 OA
ENDBRANCH   4   5
ENDBRANCH   3   4
ENDBRANCH   2   3
ENDBRANCH   1   2
BRANCH   1   8
ATOM      8  C   UNL     1      16.340  -7.826  27.092  1.00  0.00     0.000 C 
BRANCH   8   9
ATOM      9  C   UNL     1      16.080  -7.927  25.581  1.00  0.00    -0.000 C 
BRANCH   9  10
ATOM     10  C   UNL     1      17.280  -8.500  24.809  1.00  0.00    -0.000 C 
BRANCH  10  11
ATOM     11  C   UNL     1      18.396  -7.463  24.598  1.00  0.00    -0.000 C 
BRANCH  11  12
ATOM     12  C   UNL     1      19.719  -8.105  24.151  1.00  0.00    -0.003 C 
ATOM     13  C   UNL     1      19.841  -8.218  22.631  1.00  0.00     0.004 C 
ENDBRANCH  11  12
ENDBRANCH  10  11
ENDBRANCH   9  10
ENDBRANCH   8   9
ENDBRANCH   1   8
TORSDOF 9
ENDMDL
MODEL 7
REMARK VINA RESULT:     3.967      4.542      5.102
REMARK INTER + INTRA:           5.556
REMARK INTER:                   5.841
REMARK INTRA:                  -0.284
REMARK UNBOUND:                -0.499
REMARK SMILES CCCCCCCCCCC(=O)[O-]
REMARK SMILES IDX 7 1 8 2 9 3 10 4 11 5 12 6 13 7 6 8 5 9 4 10 3 11 2 12 1 13
REMARK H PARENT
REMARK Flexibility Score: inf
ROOT
ATOM      1  C   UNL     1      17.435 -20.396  22.644  1.00  0.00     0.000 C 
ENDROOT
BRANCH   1   2
ATOM      2  C   UNL     1      16.250 -21.373  22.547  1.00  0.00     0.000 C 
BRANCH   2   3
ATOM      3  C   UNL     1      16.605 -22.707  21.857  1.00  0.00     0.006 C 
BRANCH   3   4
ATOM      4  C   UNL     1      17.605 -22.519  20.709  1.00  0.00     0.053 C 
BRANCH   4   5
ATOM      5  C   UNL     1      18.010 -23.843  20.143  1.00  0.00     0.041 C 
ATOM      6  O   UNL     1      18.367 -23.934  18.939  1.00  0.00    -0.550 OA
ATOM      7  O   UNL     1      18.042 -24.968  20.957  1.00  0.00    -0.550 OA
ENDBRANCH   4   5
ENDBRANCH   3   4
ENDBRANCH   2   3
ENDBRANCH   1   2
BRANCH   1   8
ATOM      8  C   UNL     1      17.133 -19.177  23.526  1.00  0.00     0.000 C 
BRANCH   8   9
ATOM      9  C   UNL     1      18.101 -19.103  24.715  1.00  0.00    -0.000 C 
BRANCH   9  10
ATOM     10  C   UNL     1      17.442 -18.541  25.985  1.00  0.00    -0.000 C 
BRANCH  10  11
ATOM     11  C   UNL     1      17.653 -19.444  27.211  1.00  0.00    -0.000 C 
BRANCH  11  12
ATOM     12  C   UNL     1      16.598 -19.211  28.303  1.00  0.00    -0.003 C 
ATOM     13  C   UNL     1      16.399 -17.730  28.630  1.00  0.00     0.004 C 
ENDBRANCH  11  12
ENDBRANCH  10  11
ENDBRANCH   9  10
ENDBRANCH   8   9
ENDBRANCH   1   8
TORSDOF 9
ENDMDL
