MODEL 1
REMARK VINA RESULT:    -4.228      0.000      0.000
REMARK INTER + INTRA:          -4.228
REMARK INTER:                  -4.228
REMARK INTRA:                   0.000
REMARK UNBOUND:                 0.000
REMARK SMILES O=c1ccc2ccccc2o1
REMARK SMILES IDX 7 1 8 2 9 3 10 4 5 5 6 6 4 7 3 8 2 9 1 10 11 11
REMARK H PARENT
REMARK Flexibility Score: inf
ROOT
ATOM      1  C   UNL     1      74.778  39.534  19.792  1.00  0.00     0.001 A 
ATOM      2  C   UNL     1      75.178  39.098  18.523  1.00  0.00     0.004 A 
ATOM      3  C   UNL     1      74.501  38.048  17.894  1.00  0.00     0.048 A 
ATOM      4  C   UNL     1      73.419  37.431  18.531  1.00  0.00     0.138 A 
ATOM      5  C   UNL     1      73.014  37.871  19.811  1.00  0.00     0.018 A 
ATOM      6  C   UNL     1      73.698  38.923  20.437  1.00  0.00     0.012 A 
ATOM      7  C   UNL     1      71.930  37.235  20.422  1.00  0.00     0.019 A 
ATOM      8  C   UNL     1      71.284  36.193  19.757  1.00  0.00     0.094 A 
ATOM      9  C   UNL     1      71.740  35.810  18.491  1.00  0.00     0.336 A 
ATOM     10  O   UNL     1      71.170  34.872  17.875  1.00  0.00    -0.246 OA
ATOM     11  O   UNL     1      72.775  36.432  17.931  1.00  0.00    -0.423 OA
ENDROOT
TORSDOF 0
ENDMDL
MODEL 2
REMARK VINA RESULT:    -4.148      2.614      3.479
REMARK INTER + INTRA:          -4.148
REMARK INTER:                  -4.148
REMARK INTRA:                   0.000
REMARK UNBOUND:                 0.000
REMARK SMILES O=c1ccc2ccccc2o1
REMARK SMILES IDX 7 1 8 2 9 3 10 4 5 5 6 6 4 7 3 8 2 9 1 10 11 11
REMARK H PARENT
REMARK Flexibility Score: inf
ROOT
ATOM      1  C   UNL     1      76.453  41.752  18.807  1.00  0.00     0.001 A 
ATOM      2  C   UNL     1      76.260  40.726  17.875  1.00  0.00     0.004 A 
ATOM      3  C   UNL     1      75.497  39.603  18.213  1.00  0.00     0.048 A 
ATOM      4  C   UNL     1      74.922  39.504  19.485  1.00  0.00     0.138 A 
ATOM      5  C   UNL     1      75.116  40.540  20.426  1.00  0.00     0.018 A 
ATOM      6  C   UNL     1      75.883  41.662  20.081  1.00  0.00     0.012 A 
ATOM      7  C   UNL     1      74.530  40.412  21.688  1.00  0.00     0.019 A 
ATOM      8  C   UNL     1      73.776  39.276  21.980  1.00  0.00     0.094 A 
ATOM      9  C   UNL     1      73.627  38.290  21.000  1.00  0.00     0.336 A 
ATOM     10  O   UNL     1      72.950  37.256  21.245  1.00  0.00    -0.246 OA
ATOM     11  O   UNL     1      74.196  38.435  19.805  1.00  0.00    -0.423 OA
ENDROOT
TORSDOF 0
ENDMDL
MODEL 3
REMARK VINA RESULT:    -4.089      1.631      2.538
REMARK INTER + INTRA:          -4.089
REMARK INTER:                  -4.089
REMARK INTRA:                   0.000
REMARK UNBOUND:                 0.000
REMARK SMILES O=c1ccc2ccccc2o1
REMARK SMILES IDX 7 1 8 2 9 3 10 4 5 5 6 6 4 7 3 8 2 9 1 10 11 11
REMARK H PARENT
REMARK Flexibility Score: inf
ROOT
ATOM      1  C   UNL     1      74.749  39.280  21.030  1.00  0.00     0.001 A 
ATOM      2  C   UNL     1      73.747  39.442  21.993  1.00  0.00     0.004 A 
ATOM      3  C   UNL     1      72.484  38.872  21.796  1.00  0.00     0.048 A 
ATOM      4  C   UNL     1      72.221  38.135  20.636  1.00  0.00     0.138 A 
ATOM      5  C   UNL     1      73.233  37.971  19.664  1.00  0.00     0.018 A 
ATOM      6  C   UNL     1      74.496  38.546  19.866  1.00  0.00     0.012 A 
ATOM      7  C   UNL     1      72.939  37.231  18.516  1.00  0.00     0.019 A 
ATOM      8  C   UNL     1      71.667  36.680  18.363  1.00  0.00     0.094 A 
ATOM      9  C   UNL     1      70.715  36.884  19.367  1.00  0.00     0.336 A 
ATOM     10  O   UNL     1      69.560  36.394  19.247  1.00  0.00    -0.246 OA
ATOM     11  O   UNL     1      71.019  37.593  20.451  1.00  0.00    -0.423 OA
ENDROOT
TORSDOF 0
ENDMDL
MODEL 4
REMARK VINA RESULT:    -4.080      1.809      2.517
REMARK INTER + INTRA:          -4.080
REMARK INTER:                  -4.080
REMARK INTRA:                   0.000
REMARK UNBOUND:                 0.000
REMARK SMILES O=c1ccc2ccccc2o1
REMARK SMILES IDX 7 1 8 2 9 3 10 4 5 5 6 6 4 7 3 8 2 9 1 10 11 11
REMARK H PARENT
REMARK Flexibility Score: inf
ROOT
ATOM      1  C   UNL     1      74.752  38.414  19.542  1.00  0.00     0.001 A 
ATOM      2  C   UNL     1      74.331  38.428  20.876  1.00  0.00     0.004 A 
ATOM      3  C   UNL     1      73.031  38.034  21.208  1.00  0.00     0.048 A 
ATOM      4  C   UNL     1      72.147  37.621  20.205  1.00  0.00     0.138 A 
ATOM      5  C   UNL     1      72.571  37.605  18.858  1.00  0.00     0.018 A 
ATOM      6  C   UNL     1      73.876  38.003  18.532  1.00  0.00     0.012 A 
ATOM      7  C   UNL     1      71.666  37.188  17.878  1.00  0.00     0.019 A 
ATOM      8  C   UNL     1      70.380  36.803  18.256  1.00  0.00     0.094 A 
ATOM      9  C   UNL     1      70.028  36.844  19.609  1.00  0.00     0.336 A 
ATOM     10  O   UNL     1      68.872  36.500  19.969  1.00  0.00    -0.246 OA
ATOM     11  O   UNL     1      70.910  37.245  20.522  1.00  0.00    -0.423 OA
ENDROOT
TORSDOF 0
ENDMDL
MODEL 5
REMARK VINA RESULT:    -4.022      2.247      4.303
REMARK INTER + INTRA:          -4.022
REMARK INTER:                  -4.022
REMARK INTRA:                   0.000
REMARK UNBOUND:                 0.000
REMARK SMILES O=c1ccc2ccccc2o1
REMARK SMILES IDX 7 1 8 2 9 3 10 4 5 5 6 6 4 7 3 8 2 9 1 10 11 11
REMARK H PARENT
REMARK Flexibility Score: inf
ROOT
ATOM      1  C   UNL     1      71.801  36.279  17.875  1.00  0.00     0.001 A 
ATOM      2  C   UNL     1      70.939  36.203  18.975  1.00  0.00     0.004 A 
ATOM      3  C   UNL     1      71.255  36.871  20.163  1.00  0.00     0.048 A 
ATOM      4  C   UNL     1      72.434  37.619  20.255  1.00  0.00     0.138 A 
ATOM      5  C   UNL     1      73.304  37.696  19.144  1.00  0.00     0.018 A 
ATOM      6  C   UNL     1      72.982  37.023  17.956  1.00  0.00     0.012 A 
ATOM      7  C   UNL     1      74.474  38.451  19.266  1.00  0.00     0.019 A 
ATOM      8  C   UNL     1      74.747  39.100  20.469  1.00  0.00     0.094 A 
ATOM      9  C   UNL     1      73.840  38.979  21.527  1.00  0.00     0.336 A 
ATOM     10  O   UNL     1      74.070  39.559  22.621  1.00  0.00    -0.246 OA
ATOM     11  O   UNL     1      72.733  38.255  21.385  1.00  0.00    -0.423 OA
ENDROOT
TORSDOF 0
ENDMDL
MODEL 6
REMARK VINA RESULT:    -3.926      2.227      3.618
REMARK INTER + INTRA:          -3.926
REMARK INTER:                  -3.926
REMARK INTRA:                   0.000
REMARK UNBOUND:                 0.000
REMARK SMILES O=c1ccc2ccccc2o1
REMARK SMILES IDX 7 1 8 2 9 3 10 4 5 5 6 6 4 7 3 8 2 9 1 10 11 11
REMARK H PARENT
REMARK Flexibility Score: inf
ROOT
ATOM      1  C   UNL     1      76.485  41.802  18.963  1.00  0.00     0.001 A 
ATOM      2  C   UNL     1      76.190  41.978  20.319  1.00  0.00     0.004 A 
ATOM      3  C   UNL     1      75.348  41.077  20.978  1.00  0.00     0.048 A 
ATOM      4  C   UNL     1      74.800  39.993  20.283  1.00  0.00     0.138 A 
ATOM      5  C   UNL     1      75.099  39.814  18.914  1.00  0.00     0.018 A 
ATOM      6  C   UNL     1      75.943  40.722  18.258  1.00  0.00     0.012 A 
ATOM      7  C   UNL     1      74.536  38.723  18.246  1.00  0.00     0.019 A 
ATOM      8  C   UNL     1      73.703  37.849  18.945  1.00  0.00     0.094 A 
ATOM      9  C   UNL     1      73.451  38.089  20.299  1.00  0.00     0.336 A 
ATOM     10  O   UNL     1      72.702  37.311  20.947  1.00  0.00    -0.246 OA
ATOM     11  O   UNL     1      74.000  39.135  20.912  1.00  0.00    -0.423 OA
ENDROOT
TORSDOF 0
ENDMDL
MODEL 7
REMARK VINA RESULT:    -3.909      2.625      4.355
REMARK INTER + INTRA:          -3.909
REMARK INTER:                  -3.909
REMARK INTRA:                   0.000
REMARK UNBOUND:                 0.000
REMARK SMILES O=c1ccc2ccccc2o1
REMARK SMILES IDX 7 1 8 2 9 3 10 4 5 5 6 6 4 7 3 8 2 9 1 10 11 11
REMARK H PARENT
REMARK Flexibility Score: inf
ROOT
ATOM      1  C   UNL     1      68.471  39.453  21.453  1.00  0.00     0.001 A 
ATOM      2  C   UNL     1      67.641  38.385  21.096  1.00  0.00     0.004 A 
ATOM      3  C   UNL     1      68.167  37.286  20.408  1.00  0.00     0.048 A 
ATOM      4  C   UNL     1      69.526  37.251  20.077  1.00  0.00     0.138 A 
ATOM      5  C   UNL     1      70.364  38.329  20.439  1.00  0.00     0.018 A 
ATOM      6  C   UNL     1      69.831  39.429  21.127  1.00  0.00     0.012 A 
ATOM      7  C   UNL     1      71.717  38.266  20.094  1.00  0.00     0.019 A 
ATOM      8  C   UNL     1      72.197  37.150  19.410  1.00  0.00     0.094 A 
ATOM      9  C   UNL     1      71.309  36.120  19.084  1.00  0.00     0.336 A 
ATOM     10  O   UNL     1      71.724  35.104  18.466  1.00  0.00    -0.246 OA
ATOM     11  O   UNL     1      70.025  36.204  19.424  1.00  0.00    -0.423 OA
ENDROOT
TORSDOF 0
ENDMDL
MODEL 8
REMARK VINA RESULT:    -3.907      2.971      3.876
REMARK INTER + INTRA:          -3.907
REMARK INTER:                  -3.907
REMARK INTRA:                   0.000
REMARK UNBOUND:                 0.000
REMARK SMILES O=c1ccc2ccccc2o1
REMARK SMILES IDX 7 1 8 2 9 3 10 4 5 5 6 6 4 7 3 8 2 9 1 10 11 11
REMARK H PARENT
REMARK Flexibility Score: inf
ROOT
ATOM      1  C   UNL     1      72.199  38.635  20.921  1.00  0.00     0.001 A 
ATOM      2  C   UNL     1      72.384  37.373  20.345  1.00  0.00     0.004 A 
ATOM      3  C   UNL     1      71.284  36.643  19.882  1.00  0.00     0.048 A 
ATOM      4  C   UNL     1      69.995  37.174  19.991  1.00  0.00     0.138 A 
ATOM      5  C   UNL     1      69.807  38.449  20.571  1.00  0.00     0.018 A 
ATOM      6  C   UNL     1      70.914  39.175  21.035  1.00  0.00     0.012 A 
ATOM      7  C   UNL     1      68.507  38.953  20.667  1.00  0.00     0.019 A 
ATOM      8  C   UNL     1      67.441  38.191  20.190  1.00  0.00     0.094 A 
ATOM      9  C   UNL     1      67.702  36.937  19.627  1.00  0.00     0.336 A 
ATOM     10  O   UNL     1      66.752  36.234  19.192  1.00  0.00    -0.246 OA
ATOM     11  O   UNL     1      68.949  36.480  19.548  1.00  0.00    -0.423 OA
ENDROOT
TORSDOF 0
ENDMDL
MODEL 9
REMARK VINA RESULT:    -3.903      3.158      3.789
REMARK INTER + INTRA:          -3.903
REMARK INTER:                  -3.903
REMARK INTRA:                   0.000
REMARK UNBOUND:                 0.000
REMARK SMILES O=c1ccc2ccccc2o1
REMARK SMILES IDX 7 1 8 2 9 3 10 4 5 5 6 6 4 7 3 8 2 9 1 10 11 11
REMARK H PARENT
REMARK Flexibility Score: inf
ROOT
ATOM      1  C   UNL     1      73.857  39.006  21.611  1.00  0.00     0.001 A 
ATOM      2  C   UNL     1      73.599  38.040  20.632  1.00  0.00     0.004 A 
ATOM      3  C   UNL     1      72.284  37.768  20.242  1.00  0.00     0.048 A 
ATOM      4  C   UNL     1      71.221  38.463  20.829  1.00  0.00     0.138 A 
ATOM      5  C   UNL     1      71.481  39.439  21.817  1.00  0.00     0.018 A 
ATOM      6  C   UNL     1      72.802  39.706  22.205  1.00  0.00     0.012 A 
ATOM      7  C   UNL     1      70.398  40.116  22.385  1.00  0.00     0.019 A 
ATOM      8  C   UNL     1      69.104  39.813  21.965  1.00  0.00     0.094 A 
ATOM      9  C   UNL     1      68.922  38.834  20.981  1.00  0.00     0.336 A 
ATOM     10  O   UNL     1      67.761  38.546  20.589  1.00  0.00    -0.246 OA
ATOM     11  O   UNL     1      69.970  38.204  20.456  1.00  0.00    -0.423 OA
ENDROOT
TORSDOF 0
ENDMDL
