MODEL 1
REMARK VINA RESULT:    -3.388      0.000      0.000
REMARK INTER + INTRA:          -3.604
REMARK INTER:                  -3.587
REMARK INTRA:                  -0.017
REMARK UNBOUND:                -0.017
REMARK SMILES O=C([O-])c1cccnc1
REMARK SMILES IDX 4 1 5 2 9 3 6 4 8 5 7 6 2 7 1 8 3 9
REMARK H PARENT
REMARK Flexibility Score: inf
ROOT
ATOM      1  C   UNL     1      43.675  63.390  30.359  1.00  0.00     0.016 A 
ATOM      2  C   UNL     1      43.882  63.807  31.685  1.00  0.00     0.013 A 
ATOM      3  C   UNL     1      44.409  64.019  29.340  1.00  0.00     0.120 A 
ATOM      4  C   UNL     1      44.796  64.823  31.966  1.00  0.00     0.021 A 
ATOM      5  N   UNL     1      45.295  65.006  29.641  1.00  0.00    -0.264 NA
ATOM      6  C   UNL     1      45.502  65.417  30.919  1.00  0.00     0.111 A 
ENDROOT
BRANCH   1   7
ATOM      7  C   UNL     1      42.710  62.315  30.041  1.00  0.00     0.073 C 
ATOM      8  O   UNL     1      42.946  61.123  30.374  1.00  0.00    -0.545 OA
ATOM      9  O   UNL     1      41.528  62.606  29.370  1.00  0.00    -0.545 OA
ENDBRANCH   1   7
TORSDOF 1
ENDMDL
MODEL 2
REMARK VINA RESULT:    -3.337     18.569     19.389
REMARK INTER + INTRA:          -3.549
REMARK INTER:                  -3.533
REMARK INTRA:                  -0.016
REMARK UNBOUND:                -0.017
REMARK SMILES O=C([O-])c1cccnc1
REMARK SMILES IDX 4 1 5 2 9 3 6 4 8 5 7 6 2 7 1 8 3 9
REMARK H PARENT
REMARK Flexibility Score: inf
ROOT
ATOM      1  C   UNL     1      36.932  59.142  47.735  1.00  0.00     0.016 A 
ATOM      2  C   UNL     1      35.626  58.662  47.927  1.00  0.00     0.013 A 
ATOM      3  C   UNL     1      37.098  60.471  47.309  1.00  0.00     0.120 A 
ATOM      4  C   UNL     1      34.531  59.496  47.698  1.00  0.00     0.021 A 
ATOM      5  N   UNL     1      36.014  61.263  47.092  1.00  0.00    -0.264 NA
ATOM      6  C   UNL     1      34.747  60.808  47.276  1.00  0.00     0.111 A 
ENDROOT
BRANCH   1   7
ATOM      7  C   UNL     1      38.106  58.274  47.973  1.00  0.00     0.073 C 
ATOM      8  O   UNL     1      38.606  58.175  49.125  1.00  0.00    -0.545 OA
ATOM      9  O   UNL     1      38.672  57.554  46.927  1.00  0.00    -0.545 OA
ENDBRANCH   1   7
TORSDOF 1
ENDMDL
MODEL 3
REMARK VINA RESULT:    -3.327     18.108     18.894
REMARK INTER + INTRA:          -3.538
REMARK INTER:                  -3.522
REMARK INTRA:                  -0.016
REMARK UNBOUND:                -0.017
REMARK SMILES O=C([O-])c1cccnc1
REMARK SMILES IDX 4 1 5 2 9 3 6 4 8 5 7 6 2 7 1 8 3 9
REMARK H PARENT
REMARK Flexibility Score: inf
ROOT
ATOM      1  C   UNL     1      35.883  60.314  47.131  1.00  0.00     0.016 A 
ATOM      2  C   UNL     1      35.656  60.442  45.750  1.00  0.00     0.013 A 
ATOM      3  C   UNL     1      35.702  61.446  47.944  1.00  0.00     0.120 A 
ATOM      4  C   UNL     1      35.260  61.668  45.215  1.00  0.00     0.021 A 
ATOM      5  N   UNL     1      35.316  62.630  47.397  1.00  0.00    -0.264 NA
ATOM      6  C   UNL     1      35.094  62.763  46.064  1.00  0.00     0.111 A 
ENDROOT
BRANCH   1   7
ATOM      7  C   UNL     1      36.302  59.022  47.718  1.00  0.00     0.073 C 
ATOM      8  O   UNL     1      35.473  58.299  48.331  1.00  0.00    -0.545 OA
ATOM      9  O   UNL     1      37.617  58.590  47.598  1.00  0.00    -0.545 OA
ENDBRANCH   1   7
TORSDOF 1
ENDMDL
MODEL 4
REMARK VINA RESULT:    -3.221      0.933      1.604
REMARK INTER + INTRA:          -3.426
REMARK INTER:                  -3.410
REMARK INTRA:                  -0.017
REMARK UNBOUND:                -0.017
REMARK SMILES O=C([O-])c1cccnc1
REMARK SMILES IDX 4 1 5 2 9 3 6 4 8 5 7 6 2 7 1 8 3 9
REMARK H PARENT
REMARK Flexibility Score: inf
ROOT
ATOM      1  C   UNL     1      43.661  63.426  30.372  1.00  0.00     0.016 A 
ATOM      2  C   UNL     1      44.450  64.064  29.400  1.00  0.00     0.013 A 
ATOM      3  C   UNL     1      43.835  63.792  31.718  1.00  0.00     0.120 A 
ATOM      4  C   UNL     1      45.379  65.035  29.777  1.00  0.00     0.021 A 
ATOM      5  N   UNL     1      44.748  64.742  32.058  1.00  0.00    -0.264 NA
ATOM      6  C   UNL     1      45.515  65.364  31.126  1.00  0.00     0.111 A 
ENDROOT
BRANCH   1   7
ATOM      7  C   UNL     1      42.671  62.395  29.993  1.00  0.00     0.073 C 
ATOM      8  O   UNL     1      42.859  61.185  30.292  1.00  0.00    -0.545 OA
ATOM      9  O   UNL     1      41.519  62.747  29.300  1.00  0.00    -0.545 OA
ENDBRANCH   1   7
TORSDOF 1
ENDMDL
MODEL 5
REMARK VINA RESULT:    -3.199      2.924      4.034
REMARK INTER + INTRA:          -3.403
REMARK INTER:                  -3.379
REMARK INTRA:                  -0.024
REMARK UNBOUND:                -0.017
REMARK SMILES O=C([O-])c1cccnc1
REMARK SMILES IDX 4 1 5 2 9 3 6 4 8 5 7 6 2 7 1 8 3 9
REMARK H PARENT
REMARK Flexibility Score: inf
ROOT
ATOM      1  C   UNL     1      44.318  63.718  31.142  1.00  0.00     0.016 A 
ATOM      2  C   UNL     1      43.588  63.634  29.944  1.00  0.00     0.013 A 
ATOM      3  C   UNL     1      44.407  62.572  31.950  1.00  0.00     0.120 A 
ATOM      4  C   UNL     1      42.972  62.436  29.580  1.00  0.00     0.021 A 
ATOM      5  N   UNL     1      43.797  61.416  31.573  1.00  0.00    -0.264 NA
ATOM      6  C   UNL     1      43.088  61.325  30.417  1.00  0.00     0.111 A 
ENDROOT
BRANCH   1   7
ATOM      7  C   UNL     1      44.979  64.978  31.544  1.00  0.00     0.073 C 
ATOM      8  O   UNL     1      44.946  65.987  30.790  1.00  0.00    -0.545 OA
ATOM      9  O   UNL     1      45.645  65.066  32.761  1.00  0.00    -0.545 OA
ENDBRANCH   1   7
TORSDOF 1
ENDMDL
MODEL 6
REMARK VINA RESULT:    -3.166     16.877     17.558
REMARK INTER + INTRA:          -3.369
REMARK INTER:                  -3.345
REMARK INTRA:                  -0.023
REMARK UNBOUND:                -0.017
REMARK SMILES O=C([O-])c1cccnc1
REMARK SMILES IDX 4 1 5 2 9 3 6 4 8 5 7 6 2 7 1 8 3 9
REMARK H PARENT
REMARK Flexibility Score: inf
ROOT
ATOM      1  C   UNL     1      35.268  61.526  45.180  1.00  0.00     0.016 A 
ATOM      2  C   UNL     1      35.978  60.544  45.892  1.00  0.00     0.013 A 
ATOM      3  C   UNL     1      34.889  62.698  45.857  1.00  0.00     0.120 A 
ATOM      4  C   UNL     1      36.291  60.743  47.238  1.00  0.00     0.021 A 
ATOM      5  N   UNL     1      35.207  62.867  47.168  1.00  0.00    -0.264 NA
ATOM      6  C   UNL     1      35.893  61.924  47.866  1.00  0.00     0.111 A 
ENDROOT
BRANCH   1   7
ATOM      7  C   UNL     1      34.927  61.334  43.754  1.00  0.00     0.073 C 
ATOM      8  O   UNL     1      34.946  60.184  43.240  1.00  0.00    -0.545 OA
ATOM      9  O   UNL     1      34.581  62.421  42.961  1.00  0.00    -0.545 OA
ENDBRANCH   1   7
TORSDOF 1
ENDMDL
MODEL 7
REMARK VINA RESULT:    -3.138     17.956     18.751
REMARK INTER + INTRA:          -3.339
REMARK INTER:                  -3.321
REMARK INTRA:                  -0.017
REMARK UNBOUND:                -0.017
REMARK SMILES O=C([O-])c1cccnc1
REMARK SMILES IDX 4 1 5 2 9 3 6 4 8 5 7 6 2 7 1 8 3 9
REMARK H PARENT
REMARK Flexibility Score: inf
ROOT
ATOM      1  C   UNL     1      35.404  60.399  46.368  1.00  0.00     0.016 A 
ATOM      2  C   UNL     1      35.249  60.780  45.024  1.00  0.00     0.013 A 
ATOM      3  C   UNL     1      34.323  59.773  47.013  1.00  0.00     0.120 A 
ATOM      4  C   UNL     1      34.047  60.536  44.360  1.00  0.00     0.021 A 
ATOM      5  N   UNL     1      33.162  59.547  46.342  1.00  0.00    -0.264 NA
ATOM      6  C   UNL     1      33.002  59.911  45.043  1.00  0.00     0.111 A 
ENDROOT
BRANCH   1   7
ATOM      7  C   UNL     1      36.670  60.649  47.090  1.00  0.00     0.073 C 
ATOM      8  O   UNL     1      37.057  61.827  47.316  1.00  0.00    -0.545 OA
ATOM      9  O   UNL     1      37.451  59.587  47.529  1.00  0.00    -0.545 OA
ENDBRANCH   1   7
TORSDOF 1
ENDMDL
MODEL 8
REMARK VINA RESULT:    -3.138     18.622     19.364
REMARK INTER + INTRA:          -3.338
REMARK INTER:                  -3.317
REMARK INTRA:                  -0.021
REMARK UNBOUND:                -0.017
REMARK SMILES O=C([O-])c1cccnc1
REMARK SMILES IDX 4 1 5 2 9 3 6 4 8 5 7 6 2 7 1 8 3 9
REMARK H PARENT
REMARK Flexibility Score: inf
ROOT
ATOM      1  C   UNL     1      35.443  61.026  47.346  1.00  0.00     0.016 A 
ATOM      2  C   UNL     1      34.735  59.900  47.800  1.00  0.00     0.013 A 
ATOM      3  C   UNL     1      36.839  60.927  47.213  1.00  0.00     0.120 A 
ATOM      4  C   UNL     1      35.415  58.721  48.106  1.00  0.00     0.021 A 
ATOM      5  N   UNL     1      37.477  59.766  47.518  1.00  0.00    -0.264 NA
ATOM      6  C   UNL     1      36.802  58.672  47.957  1.00  0.00     0.111 A 
ENDROOT
BRANCH   1   7
ATOM      7  C   UNL     1      34.741  62.286  47.016  1.00  0.00     0.073 C 
ATOM      8  O   UNL     1      35.193  63.058  46.130  1.00  0.00    -0.545 OA
ATOM      9  O   UNL     1      33.571  62.633  47.681  1.00  0.00    -0.545 OA
ENDBRANCH   1   7
TORSDOF 1
ENDMDL
MODEL 9
REMARK VINA RESULT:    -3.136     18.887     19.640
REMARK INTER + INTRA:          -3.336
REMARK INTER:                  -3.312
REMARK INTRA:                  -0.024
REMARK UNBOUND:                -0.017
REMARK SMILES O=C([O-])c1cccnc1
REMARK SMILES IDX 4 1 5 2 9 3 6 4 8 5 7 6 2 7 1 8 3 9
REMARK H PARENT
REMARK Flexibility Score: inf
ROOT
ATOM      1  C   UNL     1      35.324  61.063  47.496  1.00  0.00     0.016 A 
ATOM      2  C   UNL     1      36.450  60.491  46.879  1.00  0.00     0.013 A 
ATOM      3  C   UNL     1      34.735  60.381  48.574  1.00  0.00     0.120 A 
ATOM      4  C   UNL     1      36.958  59.275  47.338  1.00  0.00     0.021 A 
ATOM      5  N   UNL     1      35.251  59.197  49.002  1.00  0.00    -0.264 NA
ATOM      6  C   UNL     1      36.338  58.635  48.412  1.00  0.00     0.111 A 
ENDROOT
BRANCH   1   7
ATOM      7  C   UNL     1      34.770  62.351  47.025  1.00  0.00     0.073 C 
ATOM      8  O   UNL     1      35.385  63.036  46.164  1.00  0.00    -0.545 OA
ATOM      9  O   UNL     1      33.563  62.823  47.526  1.00  0.00    -0.545 OA
ENDBRANCH   1   7
TORSDOF 1
ENDMDL
