MODEL 1
REMARK VINA RESULT:    -3.400      0.000      0.000
REMARK INTER + INTRA:          -4.937
REMARK INTER:                  -4.592
REMARK INTRA:                  -0.345
REMARK UNBOUND:                -0.345
REMARK SMILES CCCCCCC=CC(=O)[O-]
REMARK SMILES IDX 5 1 6 2 7 3 8 4 9 5 10 6 11 7 4 8 3 9 2 10 1 11
REMARK H PARENT
REMARK Flexibility Score: inf
ROOT
ATOM      1  C   UNL     1      -2.620  31.227 -12.337  1.00  0.00     0.004 C 
ENDROOT
BRANCH   1   2
ATOM      2  C   UNL     1      -1.753  32.236 -13.104  1.00  0.00     0.027 C 
BRANCH   2   3
ATOM      3  C   UNL     1      -2.585  33.319 -13.740  1.00  0.00    -0.025 C 
ATOM      4  C   UNL     1      -2.979  33.385 -15.022  1.00  0.00     0.020 C 
BRANCH   4   5
ATOM      5  C   UNL     1      -2.729  32.389 -16.085  1.00  0.00     0.064 C 
ATOM      6  O   UNL     1      -3.602  31.511 -16.310  1.00  0.00    -0.545 OA
ATOM      7  O   UNL     1      -1.542  32.351 -16.803  1.00  0.00    -0.545 OA
ENDBRANCH   4   5
ENDBRANCH   2   3
ENDBRANCH   1   2
BRANCH   1   8
ATOM      8  C   UNL     1      -3.855  31.881 -11.696  1.00  0.00     0.000 C 
BRANCH   8   9
ATOM      9  C   UNL     1      -4.147  31.338 -10.288  1.00  0.00    -0.000 C 
BRANCH   9  10
ATOM     10  C   UNL     1      -4.956  32.322  -9.430  1.00  0.00    -0.003 C 
ATOM     11  C   UNL     1      -6.259  31.690  -8.950  1.00  0.00     0.004 C 
ENDBRANCH   9  10
ENDBRANCH   8   9
ENDBRANCH   1   8
TORSDOF 6
ENDMDL
MODEL 2
REMARK VINA RESULT:    -3.375      3.310      6.848
REMARK INTER + INTRA:          -4.904
REMARK INTER:                  -4.524
REMARK INTRA:                  -0.379
REMARK UNBOUND:                -0.345
REMARK SMILES CCCCCCC=CC(=O)[O-]
REMARK SMILES IDX 5 1 6 2 7 3 8 4 9 5 10 6 11 7 4 8 3 9 2 10 1 11
REMARK H PARENT
REMARK Flexibility Score: inf
ROOT
ATOM      1  C   UNL     1      -3.271  30.466 -17.415  1.00  0.00     0.004 C 
ENDROOT
BRANCH   1   2
ATOM      2  C   UNL     1      -3.016  30.952 -15.980  1.00  0.00     0.027 C 
BRANCH   2   3
ATOM      3  C   UNL     1      -3.080  32.454 -15.880  1.00  0.00    -0.025 C 
ATOM      4  C   UNL     1      -2.797  33.202 -14.801  1.00  0.00     0.020 C 
BRANCH   4   5
ATOM      5  C   UNL     1      -2.311  32.727 -13.488  1.00  0.00     0.064 C 
ATOM      6  O   UNL     1      -1.071  32.676 -13.282  1.00  0.00    -0.545 OA
ATOM      7  O   UNL     1      -3.173  32.281 -12.495  1.00  0.00    -0.545 OA
ENDBRANCH   4   5
ENDBRANCH   2   3
ENDBRANCH   1   2
BRANCH   1   8
ATOM      8  C   UNL     1      -2.551  31.328 -18.464  1.00  0.00     0.000 C 
BRANCH   8   9
ATOM      9  C   UNL     1      -1.611  30.506 -19.360  1.00  0.00    -0.000 C 
BRANCH   9  10
ATOM     10  C   UNL     1      -1.986  29.018 -19.406  1.00  0.00    -0.003 C 
ATOM     11  C   UNL     1      -1.937  28.482 -20.834  1.00  0.00     0.004 C 
ENDBRANCH   9  10
ENDBRANCH   8   9
ENDBRANCH   1   8
TORSDOF 6
ENDMDL
MODEL 3
REMARK VINA RESULT:    -3.359     16.797     17.938
REMARK INTER + INTRA:          -4.882
REMARK INTER:                  -4.328
REMARK INTRA:                  -0.554
REMARK UNBOUND:                -0.345
REMARK SMILES CCCCCCC=CC(=O)[O-]
REMARK SMILES IDX 5 1 6 2 7 3 8 4 9 5 10 6 11 7 4 8 3 9 2 10 1 11
REMARK H PARENT
REMARK Flexibility Score: inf
ROOT
ATOM      1  C   UNL     1       6.822  19.463  -7.047  1.00  0.00     0.004 C 
ENDROOT
BRANCH   1   2
ATOM      2  C   UNL     1       7.933  19.922  -6.091  1.00  0.00     0.027 C 
BRANCH   2   3
ATOM      3  C   UNL     1       7.380  20.339  -4.752  1.00  0.00    -0.025 C 
ATOM      4  C   UNL     1       7.231  21.594  -4.297  1.00  0.00     0.020 C 
BRANCH   4   5
ATOM      5  C   UNL     1       7.527  22.847  -5.023  1.00  0.00     0.064 C 
ATOM      6  O   UNL     1       6.568  23.549  -5.435  1.00  0.00    -0.545 OA
ATOM      7  O   UNL     1       8.824  23.247  -5.315  1.00  0.00    -0.545 OA
ENDBRANCH   4   5
ENDBRANCH   2   3
ENDBRANCH   1   2
BRANCH   1   8
ATOM      8  C   UNL     1       6.788  17.936  -7.220  1.00  0.00     0.000 C 
BRANCH   8   9
ATOM      9  C   UNL     1       5.407  17.337  -6.908  1.00  0.00    -0.000 C 
BRANCH   9  10
ATOM     10  C   UNL     1       5.043  17.430  -5.420  1.00  0.00    -0.003 C 
ATOM     11  C   UNL     1       6.191  16.942  -4.541  1.00  0.00     0.004 C 
ENDBRANCH   9  10
ENDBRANCH   8   9
ENDBRANCH   1   8
TORSDOF 6
ENDMDL
MODEL 4
REMARK VINA RESULT:    -3.355      2.661      5.125
REMARK INTER + INTRA:          -4.877
REMARK INTER:                  -3.972
REMARK INTRA:                  -0.905
REMARK UNBOUND:                -0.345
REMARK SMILES CCCCCCC=CC(=O)[O-]
REMARK SMILES IDX 5 1 6 2 7 3 8 4 9 5 10 6 11 7 4 8 3 9 2 10 1 11
REMARK H PARENT
REMARK Flexibility Score: inf
ROOT
ATOM      1  C   UNL     1      -2.430  32.654 -16.028  1.00  0.00     0.004 C 
ENDROOT
BRANCH   1   2
ATOM      2  C   UNL     1      -2.734  33.237 -14.640  1.00  0.00     0.027 C 
BRANCH   2   3
ATOM      3  C   UNL     1      -1.750  32.757 -13.604  1.00  0.00    -0.025 C 
ATOM      4  C   UNL     1      -2.018  31.992 -12.533  1.00  0.00     0.020 C 
BRANCH   4   5
ATOM      5  C   UNL     1      -3.322  31.410 -12.156  1.00  0.00     0.064 C 
ATOM      6  O   UNL     1      -3.654  30.299 -12.645  1.00  0.00    -0.545 OA
ATOM      7  O   UNL     1      -4.219  32.070 -11.327  1.00  0.00    -0.545 OA
ENDBRANCH   4   5
ENDBRANCH   2   3
ENDBRANCH   1   2
BRANCH   1   8
ATOM      8  C   UNL     1      -3.488  31.637 -16.483  1.00  0.00     0.000 C 
BRANCH   8   9
ATOM      9  C   UNL     1      -3.104  30.189 -16.135  1.00  0.00    -0.000 C 
BRANCH   9  10
ATOM     10  C   UNL     1      -1.588  29.954 -16.168  1.00  0.00    -0.003 C 
ATOM     11  C   UNL     1      -1.113  29.251 -14.899  1.00  0.00     0.004 C 
ENDBRANCH   9  10
ENDBRANCH   8   9
ENDBRANCH   1   8
TORSDOF 6
ENDMDL
MODEL 5
REMARK VINA RESULT:    -3.336      3.312      4.748
REMARK INTER + INTRA:          -4.851
REMARK INTER:                  -4.504
REMARK INTRA:                  -0.347
REMARK UNBOUND:                -0.345
REMARK SMILES CCCCCCC=CC(=O)[O-]
REMARK SMILES IDX 5 1 6 2 7 3 8 4 9 5 10 6 11 7 4 8 3 9 2 10 1 11
REMARK H PARENT
REMARK Flexibility Score: inf
ROOT
ATOM      1  C   UNL     1      -2.344  32.665 -15.976  1.00  0.00     0.004 C 
ENDROOT
BRANCH   1   2
ATOM      2  C   UNL     1      -3.417  31.861 -16.725  1.00  0.00     0.027 C 
BRANCH   2   3
ATOM      3  C   UNL     1      -2.977  31.508 -18.122  1.00  0.00    -0.025 C 
ATOM      4  C   UNL     1      -2.494  30.326 -18.540  1.00  0.00     0.020 C 
BRANCH   4   5
ATOM      5  C   UNL     1      -2.333  29.094 -17.740  1.00  0.00     0.064 C 
ATOM      6  O   UNL     1      -1.288  28.949 -17.054  1.00  0.00    -0.545 OA
ATOM      7  O   UNL     1      -3.267  28.068 -17.762  1.00  0.00    -0.545 OA
ENDBRANCH   4   5
ENDBRANCH   2   3
ENDBRANCH   1   2
BRANCH   1   8
ATOM      8  C   UNL     1      -2.854  33.225 -14.639  1.00  0.00     0.000 C 
BRANCH   8   9
ATOM      9  C   UNL     1      -1.951  32.846 -13.455  1.00  0.00    -0.000 C 
BRANCH   9  10
ATOM     10  C   UNL     1      -0.626  32.210 -13.900  1.00  0.00    -0.003 C 
ATOM     11  C   UNL     1       0.231  31.826 -12.697  1.00  0.00     0.004 C 
ENDBRANCH   9  10
ENDBRANCH   8   9
ENDBRANCH   1   8
TORSDOF 6
ENDMDL
MODEL 6
REMARK VINA RESULT:    -3.317     17.349     18.762
REMARK INTER + INTRA:          -4.826
REMARK INTER:                  -4.167
REMARK INTRA:                  -0.659
REMARK UNBOUND:                -0.345
REMARK SMILES CCCCCCC=CC(=O)[O-]
REMARK SMILES IDX 5 1 6 2 7 3 8 4 9 5 10 6 11 7 4 8 3 9 2 10 1 11
REMARK H PARENT
REMARK Flexibility Score: inf
ROOT
ATOM      1  C   UNL     1       7.208  19.976  -7.523  1.00  0.00     0.004 C 
ENDROOT
BRANCH   1   2
ATOM      2  C   UNL     1       7.906  18.632  -7.268  1.00  0.00     0.027 C 
BRANCH   2   3
ATOM      3  C   UNL     1       7.031  17.466  -7.651  1.00  0.00    -0.025 C 
ATOM      4  C   UNL     1       6.094  16.877  -6.890  1.00  0.00     0.020 C 
BRANCH   4   5
ATOM      5  C   UNL     1       5.676  17.269  -5.528  1.00  0.00     0.064 C 
ATOM      6  O   UNL     1       4.682  18.029  -5.394  1.00  0.00    -0.545 OA
ATOM      7  O   UNL     1       6.374  16.876  -4.394  1.00  0.00    -0.545 OA
ENDBRANCH   4   5
ENDBRANCH   2   3
ENDBRANCH   1   2
BRANCH   1   8
ATOM      8  C   UNL     1       7.443  20.500  -8.948  1.00  0.00     0.000 C 
BRANCH   8   9
ATOM      9  C   UNL     1       8.870  20.228  -9.451  1.00  0.00    -0.000 C 
BRANCH   9  10
ATOM     10  C   UNL     1       8.894  19.513 -10.809  1.00  0.00    -0.003 C 
ATOM     11  C   UNL     1       7.537  18.889 -11.125  1.00  0.00     0.004 C 
ENDBRANCH   9  10
ENDBRANCH   8   9
ENDBRANCH   1   8
TORSDOF 6
ENDMDL
MODEL 7
REMARK VINA RESULT:    -3.269     11.626     13.465
REMARK INTER + INTRA:          -4.761
REMARK INTER:                  -4.247
REMARK INTRA:                  -0.514
REMARK UNBOUND:                -0.345
REMARK SMILES CCCCCCC=CC(=O)[O-]
REMARK SMILES IDX 5 1 6 2 7 3 8 4 9 5 10 6 11 7 4 8 3 9 2 10 1 11
REMARK H PARENT
REMARK Flexibility Score: inf
ROOT
ATOM      1  C   UNL     1      -7.039  21.685  -6.387  1.00  0.00     0.004 C 
ENDROOT
BRANCH   1   2
ATOM      2  C   UNL     1      -8.542  21.784  -6.087  1.00  0.00     0.027 C 
BRANCH   2   3
ATOM      3  C   UNL     1      -9.329  22.198  -7.304  1.00  0.00    -0.025 C 
ATOM      4  C   UNL     1      -9.711  23.443  -7.632  1.00  0.00     0.020 C 
BRANCH   4   5
ATOM      5  C   UNL     1      -9.404  24.691  -6.902  1.00  0.00     0.064 C 
ATOM      6  O   UNL     1     -10.335  25.285  -6.299  1.00  0.00    -0.545 OA
ATOM      7  O   UNL     1      -8.139  25.262  -6.906  1.00  0.00    -0.545 OA
ENDBRANCH   4   5
ENDBRANCH   2   3
ENDBRANCH   1   2
BRANCH   1   8
ATOM      8  C   UNL     1      -6.755  21.215  -7.823  1.00  0.00     0.000 C 
BRANCH   8   9
ATOM      9  C   UNL     1      -6.575  19.691  -7.921  1.00  0.00    -0.000 C 
BRANCH   9  10
ATOM     10  C   UNL     1      -7.556  19.041  -8.907  1.00  0.00    -0.003 C 
ATOM     11  C   UNL     1      -7.593  17.526  -8.727  1.00  0.00     0.004 C 
ENDBRANCH   9  10
ENDBRANCH   8   9
ENDBRANCH   1   8
TORSDOF 6
ENDMDL
MODEL 8
REMARK VINA RESULT:    -3.220      2.857      5.361
REMARK INTER + INTRA:          -4.694
REMARK INTER:                  -4.031
REMARK INTRA:                  -0.664
REMARK UNBOUND:                -0.345
REMARK SMILES CCCCCCC=CC(=O)[O-]
REMARK SMILES IDX 5 1 6 2 7 3 8 4 9 5 10 6 11 7 4 8 3 9 2 10 1 11
REMARK H PARENT
REMARK Flexibility Score: inf
ROOT
ATOM      1  C   UNL     1      -1.367  32.678 -13.623  1.00  0.00     0.004 C 
ENDROOT
BRANCH   1   2
ATOM      2  C   UNL     1      -1.472  31.734 -12.416  1.00  0.00     0.027 C 
BRANCH   2   3
ATOM      3  C   UNL     1      -2.489  30.646 -12.644  1.00  0.00    -0.025 C 
ATOM      4  C   UNL     1      -3.597  30.413 -11.920  1.00  0.00     0.020 C 
BRANCH   4   5
ATOM      5  C   UNL     1      -4.094  31.201 -10.773  1.00  0.00     0.064 C 
ATOM      6  O   UNL     1      -4.647  32.309 -10.992  1.00  0.00    -0.545 OA
ATOM      7  O   UNL     1      -3.922  30.788  -9.459  1.00  0.00    -0.545 OA
ENDBRANCH   4   5
ENDBRANCH   2   3
ENDBRANCH   1   2
BRANCH   1   8
ATOM      8  C   UNL     1      -2.733  32.961 -14.269  1.00  0.00     0.000 C 
BRANCH   8   9
ATOM      9  C   UNL     1      -2.674  32.955 -15.805  1.00  0.00    -0.000 C 
BRANCH   9  10
ATOM     10  C   UNL     1      -2.462  31.549 -16.384  1.00  0.00    -0.003 C 
ATOM     11  C   UNL     1      -3.698  30.678 -16.177  1.00  0.00     0.004 C 
ENDBRANCH   9  10
ENDBRANCH   8   9
ENDBRANCH   1   8
TORSDOF 6
ENDMDL
MODEL 9
REMARK VINA RESULT:    -3.217      2.997      4.605
REMARK INTER + INTRA:          -4.691
REMARK INTER:                  -3.739
REMARK INTRA:                  -0.952
REMARK UNBOUND:                -0.345
REMARK SMILES CCCCCCC=CC(=O)[O-]
REMARK SMILES IDX 5 1 6 2 7 3 8 4 9 5 10 6 11 7 4 8 3 9 2 10 1 11
REMARK H PARENT
REMARK Flexibility Score: inf
ROOT
ATOM      1  C   UNL     1      -1.360  32.677 -13.262  1.00  0.00     0.004 C 
ENDROOT
BRANCH   1   2
ATOM      2  C   UNL     1      -2.782  32.767 -13.835  1.00  0.00     0.027 C 
BRANCH   2   3
ATOM      3  C   UNL     1      -2.771  33.037 -15.318  1.00  0.00    -0.025 C 
ATOM      4  C   UNL     1      -2.928  32.136 -16.302  1.00  0.00     0.020 C 
BRANCH   4   5
ATOM      5  C   UNL     1      -3.198  30.691 -16.154  1.00  0.00     0.064 C 
ATOM      6  O   UNL     1      -4.393  30.299 -16.114  1.00  0.00    -0.545 OA
ATOM      7  O   UNL     1      -2.182  29.758 -15.999  1.00  0.00    -0.545 OA
ENDBRANCH   4   5
ENDBRANCH   2   3
ENDBRANCH   1   2
BRANCH   1   8
ATOM      8  C   UNL     1      -0.917  31.227 -13.012  1.00  0.00     0.000 C 
BRANCH   8   9
ATOM      9  C   UNL     1       0.343  30.848 -13.808  1.00  0.00    -0.000 C 
BRANCH   9  10
ATOM     10  C   UNL     1       0.824  31.979 -14.728  1.00  0.00    -0.003 C 
ATOM     11  C   UNL     1       0.844  31.530 -16.187  1.00  0.00     0.004 C 
ENDBRANCH   9  10
ENDBRANCH   8   9
ENDBRANCH   1   8
TORSDOF 6
ENDMDL
