MODEL 1
REMARK VINA RESULT:    -4.531      0.000      0.000
REMARK INTER + INTRA:         -14.132
REMARK INTER:                 -10.358
REMARK INTRA:                  -3.774
REMARK UNBOUND:                -3.774
REMARK SMILES CCCCCCCCCCCCCCCCCCCCCCCC(=O)[O-]
REMARK SMILES IDX 13 1 14 2 15 3 16 4 17 5 18 6 19 7 20 8 21 9 22 10 23 11
REMARK SMILES IDX 24 12 25 13 26 14 12 15 11 16 10 17 9 18 8 19 7 20 6 21 5 22
REMARK SMILES IDX 4 23 3 24 2 25 1 26
REMARK H PARENT
REMARK Flexibility Score: inf
ROOT
ATOM      1  C   UNL     1       6.683  -6.902 -31.374  1.00  0.00     0.000 C 
ENDROOT
BRANCH   1   2
ATOM      2  C   UNL     1       7.479  -5.634 -31.744  1.00  0.00     0.000 C 
BRANCH   2   3
ATOM      3  C   UNL     1       8.308  -5.751 -33.044  1.00  0.00     0.000 C 
BRANCH   3   4
ATOM      4  C   UNL     1       8.330  -4.461 -33.884  1.00  0.00     0.000 C 
BRANCH   4   5
ATOM      5  C   UNL     1       7.113  -3.537 -33.679  1.00  0.00     0.000 C 
BRANCH   5   6
ATOM      6  C   UNL     1       6.143  -3.464 -34.877  1.00  0.00     0.000 C 
BRANCH   6   7
ATOM      7  C   UNL     1       6.591  -2.542 -36.029  1.00  0.00     0.000 C 
BRANCH   7   8
ATOM      8  C   UNL     1       7.456  -3.222 -37.105  1.00  0.00     0.000 C 
BRANCH   8   9
ATOM      9  C   UNL     1       8.714  -2.410 -37.460  1.00  0.00     0.000 C 
BRANCH   9  10
ATOM     10  C   UNL     1       9.457  -1.887 -36.216  1.00  0.00     0.006 C 
BRANCH  10  11
ATOM     11  C   UNL     1      10.782  -1.175 -36.540  1.00  0.00     0.053 C 
BRANCH  11  12
ATOM     12  C   UNL     1      11.961  -1.841 -35.900  1.00  0.00     0.041 C 
ATOM     13  O   UNL     1      12.853  -2.372 -36.613  1.00  0.00    -0.550 OA
ATOM     14  O   UNL     1      12.071  -1.884 -34.516  1.00  0.00    -0.550 OA
ENDBRANCH  11  12
ENDBRANCH  10  11
ENDBRANCH   9  10
ENDBRANCH   8   9
ENDBRANCH   7   8
ENDBRANCH   6   7
ENDBRANCH   5   6
ENDBRANCH   4   5
ENDBRANCH   3   4
ENDBRANCH   2   3
ENDBRANCH   1   2
BRANCH   1  15
ATOM     15  C   UNL     1       5.209  -6.927 -31.839  1.00  0.00     0.000 C 
BRANCH  15  16
ATOM     16  C   UNL     1       4.991  -7.159 -33.344  1.00  0.00     0.000 C 
BRANCH  16  17
ATOM     17  C   UNL     1       5.012  -8.649 -33.727  1.00  0.00     0.000 C 
BRANCH  17  18
ATOM     18  C   UNL     1       3.677  -9.131 -34.322  1.00  0.00    -0.000 C 
BRANCH  18  19
ATOM     19  C   UNL     1       3.328  -8.546 -35.705  1.00  0.00    -0.000 C 
BRANCH  19  20
ATOM     20  C   UNL     1       2.210  -7.487 -35.702  1.00  0.00    -0.000 C 
BRANCH  20  21
ATOM     21  C   UNL     1       2.440  -6.290 -36.649  1.00  0.00    -0.000 C 
BRANCH  21  22
ATOM     22  C   UNL     1       3.864  -5.706 -36.635  1.00  0.00    -0.000 C 
BRANCH  22  23
ATOM     23  C   UNL     1       4.573  -5.820 -37.995  1.00  0.00    -0.000 C 
BRANCH  23  24
ATOM     24  C   UNL     1       5.913  -6.571 -37.907  1.00  0.00    -0.000 C 
BRANCH  24  25
ATOM     25  C   UNL     1       6.461  -6.699 -36.470  1.00  0.00    -0.003 C 
ATOM     26  C   UNL     1       7.864  -7.307 -36.436  1.00  0.00     0.004 C 
ENDBRANCH  24  25
ENDBRANCH  23  24
ENDBRANCH  22  23
ENDBRANCH  21  22
ENDBRANCH  20  21
ENDBRANCH  19  20
ENDBRANCH  18  19
ENDBRANCH  17  18
ENDBRANCH  16  17
ENDBRANCH  15  16
ENDBRANCH   1  15
TORSDOF 22
ENDMDL
MODEL 2
REMARK VINA RESULT:    -4.450      3.784      7.679
REMARK INTER + INTRA:         -13.948
REMARK INTER:                  -9.803
REMARK INTRA:                  -4.145
REMARK UNBOUND:                -3.774
REMARK SMILES CCCCCCCCCCCCCCCCCCCCCCCC(=O)[O-]
REMARK SMILES IDX 13 1 14 2 15 3 16 4 17 5 18 6 19 7 20 8 21 9 22 10 23 11
REMARK SMILES IDX 24 12 25 13 26 14 12 15 11 16 10 17 9 18 8 19 7 20 6 21 5 22
REMARK SMILES IDX 4 23 3 24 2 25 1 26
REMARK H PARENT
REMARK Flexibility Score: inf
ROOT
ATOM      1  C   UNL     1       5.207  -3.197 -35.506  1.00  0.00     0.000 C 
ENDROOT
BRANCH   1   2
ATOM      2  C   UNL     1       5.789  -4.000 -36.688  1.00  0.00     0.000 C 
BRANCH   2   3
ATOM      3  C   UNL     1       4.743  -4.797 -37.501  1.00  0.00     0.000 C 
BRANCH   3   4
ATOM      4  C   UNL     1       3.285  -4.443 -37.153  1.00  0.00     0.000 C 
BRANCH   4   5
ATOM      5  C   UNL     1       2.436  -5.628 -36.654  1.00  0.00     0.000 C 
BRANCH   5   6
ATOM      6  C   UNL     1       2.772  -6.988 -37.300  1.00  0.00     0.000 C 
BRANCH   6   7
ATOM      7  C   UNL     1       1.925  -8.177 -36.803  1.00  0.00     0.000 C 
BRANCH   7   8
ATOM      8  C   UNL     1       1.698  -8.223 -35.282  1.00  0.00     0.000 C 
BRANCH   8   9
ATOM      9  C   UNL     1       1.897  -9.629 -34.690  1.00  0.00     0.000 C 
BRANCH   9  10
ATOM     10  C   UNL     1       1.970  -9.625 -33.151  1.00  0.00     0.006 C 
BRANCH  10  11
ATOM     11  C   UNL     1       2.130 -11.025 -32.535  1.00  0.00     0.053 C 
BRANCH  11  12
ATOM     12  C   UNL     1       3.566 -11.428 -32.394  1.00  0.00     0.041 C 
ATOM     13  O   UNL     1       3.869 -12.636 -32.207  1.00  0.00    -0.550 OA
ATOM     14  O   UNL     1       4.568 -10.469 -32.457  1.00  0.00    -0.550 OA
ENDBRANCH  11  12
ENDBRANCH  10  11
ENDBRANCH   9  10
ENDBRANCH   8   9
ENDBRANCH   7   8
ENDBRANCH   6   7
ENDBRANCH   5   6
ENDBRANCH   4   5
ENDBRANCH   3   4
ENDBRANCH   2   3
ENDBRANCH   1   2
BRANCH   1  15
ATOM     15  C   UNL     1       6.110  -3.095 -34.256  1.00  0.00     0.000 C 
BRANCH  15  16
ATOM     16  C   UNL     1       7.570  -2.687 -34.522  1.00  0.00     0.000 C 
BRANCH  16  17
ATOM     17  C   UNL     1       8.585  -3.627 -33.848  1.00  0.00     0.000 C 
BRANCH  17  18
ATOM     18  C   UNL     1       8.156  -5.104 -33.899  1.00  0.00    -0.000 C 
BRANCH  18  19
ATOM     19  C   UNL     1       8.302  -5.873 -32.571  1.00  0.00    -0.000 C 
BRANCH  19  20
ATOM     20  C   UNL     1       7.004  -6.009 -31.751  1.00  0.00    -0.000 C 
BRANCH  20  21
ATOM     21  C   UNL     1       6.150  -7.251 -32.080  1.00  0.00    -0.000 C 
BRANCH  21  22
ATOM     22  C   UNL     1       4.904  -6.981 -32.943  1.00  0.00    -0.000 C 
BRANCH  22  23
ATOM     23  C   UNL     1       5.220  -6.903 -34.446  1.00  0.00    -0.000 C 
BRANCH  23  24
ATOM     24  C   UNL     1       5.490  -8.283 -35.070  1.00  0.00    -0.000 C 
BRANCH  24  25
ATOM     25  C   UNL     1       6.091  -8.216 -36.491  1.00  0.00    -0.003 C 
ATOM     26  C   UNL     1       7.342  -7.338 -36.551  1.00  0.00     0.004 C 
ENDBRANCH  24  25
ENDBRANCH  23  24
ENDBRANCH  22  23
ENDBRANCH  21  22
ENDBRANCH  20  21
ENDBRANCH  19  20
ENDBRANCH  18  19
ENDBRANCH  17  18
ENDBRANCH  16  17
ENDBRANCH  15  16
ENDBRANCH   1  15
TORSDOF 22
ENDMDL
MODEL 3
REMARK VINA RESULT:    -4.399      1.621      3.249
REMARK INTER + INTRA:         -13.832
REMARK INTER:                 -10.813
REMARK INTRA:                  -3.018
REMARK UNBOUND:                -3.774
REMARK SMILES CCCCCCCCCCCCCCCCCCCCCCCC(=O)[O-]
REMARK SMILES IDX 13 1 14 2 15 3 16 4 17 5 18 6 19 7 20 8 21 9 22 10 23 11
REMARK SMILES IDX 24 12 25 13 26 14 12 15 11 16 10 17 9 18 8 19 7 20 6 21 5 22
REMARK SMILES IDX 4 23 3 24 2 25 1 26
REMARK H PARENT
REMARK Flexibility Score: inf
ROOT
ATOM      1  C   UNL     1       8.296  -5.811 -33.328  1.00  0.00     0.000 C 
ENDROOT
BRANCH   1   2
ATOM      2  C   UNL     1       8.369  -4.322 -33.721  1.00  0.00     0.000 C 
BRANCH   2   3
ATOM      3  C   UNL     1       7.288  -3.429 -33.067  1.00  0.00     0.000 C 
BRANCH   3   4
ATOM      4  C   UNL     1       6.485  -2.588 -34.076  1.00  0.00     0.000 C 
BRANCH   4   5
ATOM      5  C   UNL     1       5.694  -3.408 -35.113  1.00  0.00     0.000 C 
BRANCH   5   6
ATOM      6  C   UNL     1       6.223  -3.311 -36.559  1.00  0.00     0.000 C 
BRANCH   6   7
ATOM      7  C   UNL     1       7.214  -2.159 -36.820  1.00  0.00     0.000 C 
BRANCH   7   8
ATOM      8  C   UNL     1       8.574  -2.590 -37.396  1.00  0.00     0.000 C 
BRANCH   8   9
ATOM      9  C   UNL     1       9.731  -1.689 -36.932  1.00  0.00     0.000 C 
BRANCH   9  10
ATOM     10  C   UNL     1       9.907  -1.684 -35.401  1.00  0.00     0.006 C 
BRANCH  10  11
ATOM     11  C   UNL     1      11.300  -2.141 -34.936  1.00  0.00     0.053 C 
BRANCH  11  12
ATOM     12  C   UNL     1      12.400  -1.580 -35.785  1.00  0.00     0.041 C 
ATOM     13  O   UNL     1      13.080  -2.341 -36.524  1.00  0.00    -0.550 OA
ATOM     14  O   UNL     1      12.682  -0.221 -35.752  1.00  0.00    -0.550 OA
ENDBRANCH  11  12
ENDBRANCH  10  11
ENDBRANCH   9  10
ENDBRANCH   8   9
ENDBRANCH   7   8
ENDBRANCH   6   7
ENDBRANCH   5   6
ENDBRANCH   4   5
ENDBRANCH   3   4
ENDBRANCH   2   3
ENDBRANCH   1   2
BRANCH   1  15
ATOM     15  C   UNL     1       7.597  -6.115 -31.983  1.00  0.00     0.000 C 
BRANCH  15  16
ATOM     16  C   UNL     1       6.236  -6.825 -32.088  1.00  0.00     0.000 C 
BRANCH  16  17
ATOM     17  C   UNL     1       5.534  -6.575 -33.434  1.00  0.00     0.000 C 
BRANCH  17  18
ATOM     18  C   UNL     1       5.472  -7.833 -34.319  1.00  0.00    -0.000 C 
BRANCH  18  19
ATOM     19  C   UNL     1       4.717  -7.658 -35.652  1.00  0.00    -0.000 C 
BRANCH  19  20
ATOM     20  C   UNL     1       4.876  -8.823 -36.647  1.00  0.00    -0.000 C 
BRANCH  20  21
ATOM     21  C   UNL     1       3.654  -9.759 -36.759  1.00  0.00    -0.000 C 
BRANCH  21  22
ATOM     22  C   UNL     1       3.354 -10.599 -35.504  1.00  0.00    -0.000 C 
BRANCH  22  23
ATOM     23  C   UNL     1       2.005 -10.246 -34.855  1.00  0.00    -0.000 C 
BRANCH  23  24
ATOM     24  C   UNL     1       1.258  -9.129 -35.604  1.00  0.00    -0.000 C 
BRANCH  24  25
ATOM     25  C   UNL     1       1.024  -7.860 -34.755  1.00  0.00    -0.003 C 
ATOM     26  C   UNL     1       1.445  -8.052 -33.297  1.00  0.00     0.004 C 
ENDBRANCH  24  25
ENDBRANCH  23  24
ENDBRANCH  22  23
ENDBRANCH  21  22
ENDBRANCH  20  21
ENDBRANCH  19  20
ENDBRANCH  18  19
ENDBRANCH  17  18
ENDBRANCH  16  17
ENDBRANCH  15  16
ENDBRANCH   1  15
TORSDOF 22
ENDMDL
MODEL 4
REMARK VINA RESULT:    -4.357      4.122      7.388
REMARK INTER + INTRA:         -13.734
REMARK INTER:                 -10.447
REMARK INTRA:                  -3.287
REMARK UNBOUND:                -3.774
REMARK SMILES CCCCCCCCCCCCCCCCCCCCCCCC(=O)[O-]
REMARK SMILES IDX 13 1 14 2 15 3 16 4 17 5 18 6 19 7 20 8 21 9 22 10 23 11
REMARK SMILES IDX 24 12 25 13 26 14 12 15 11 16 10 17 9 18 8 19 7 20 6 21 5 22
REMARK SMILES IDX 4 23 3 24 2 25 1 26
REMARK H PARENT
REMARK Flexibility Score: inf
ROOT
ATOM      1  C   UNL     1       7.252  -5.854 -31.488  1.00  0.00     0.000 C 
ENDROOT
BRANCH   1   2
ATOM      2  C   UNL     1       6.103  -6.883 -31.497  1.00  0.00     0.000 C 
BRANCH   2   3
ATOM      3  C   UNL     1       5.290  -6.928 -32.811  1.00  0.00     0.000 C 
BRANCH   3   4
ATOM      4  C   UNL     1       5.239  -8.323 -33.461  1.00  0.00     0.000 C 
BRANCH   4   5
ATOM      5  C   UNL     1       4.688  -8.344 -34.900  1.00  0.00     0.000 C 
BRANCH   5   6
ATOM      6  C   UNL     1       3.731  -7.185 -35.248  1.00  0.00     0.000 C 
BRANCH   6   7
ATOM      7  C   UNL     1       2.548  -7.564 -36.161  1.00  0.00     0.000 C 
BRANCH   7   8
ATOM      8  C   UNL     1       1.447  -8.400 -35.487  1.00  0.00     0.000 C 
BRANCH   8   9
ATOM      9  C   UNL     1       1.096  -7.898 -34.076  1.00  0.00     0.000 C 
BRANCH   9  10
ATOM     10  C   UNL     1       1.160  -9.010 -33.012  1.00  0.00     0.006 C 
BRANCH  10  11
ATOM     11  C   UNL     1       1.938 -10.257 -33.465  1.00  0.00     0.053 C 
BRANCH  11  12
ATOM     12  C   UNL     1       2.352 -11.124 -32.317  1.00  0.00     0.041 C 
ATOM     13  O   UNL     1       3.547 -11.117 -31.917  1.00  0.00    -0.550 OA
ATOM     14  O   UNL     1       1.423 -11.946 -31.693  1.00  0.00    -0.550 OA
ENDBRANCH  11  12
ENDBRANCH  10  11
ENDBRANCH   9  10
ENDBRANCH   8   9
ENDBRANCH   7   8
ENDBRANCH   6   7
ENDBRANCH   5   6
ENDBRANCH   4   5
ENDBRANCH   3   4
ENDBRANCH   2   3
ENDBRANCH   1   2
BRANCH   1  15
ATOM     15  C   UNL     1       8.385  -6.106 -32.509  1.00  0.00     0.000 C 
BRANCH  15  16
ATOM     16  C   UNL     1       8.268  -5.335 -33.835  1.00  0.00     0.000 C 
BRANCH  16  17
ATOM     17  C   UNL     1       7.804  -3.881 -33.641  1.00  0.00     0.000 C 
BRANCH  17  18
ATOM     18  C   UNL     1       8.114  -2.988 -34.855  1.00  0.00    -0.000 C 
BRANCH  18  19
ATOM     19  C   UNL     1       6.878  -2.425 -35.586  1.00  0.00    -0.000 C 
BRANCH  19  20
ATOM     20  C   UNL     1       5.530  -3.025 -35.142  1.00  0.00    -0.000 C 
BRANCH  20  21
ATOM     21  C   UNL     1       4.553  -3.358 -36.290  1.00  0.00    -0.000 C 
BRANCH  21  22
ATOM     22  C   UNL     1       5.205  -3.937 -37.559  1.00  0.00    -0.000 C 
BRANCH  22  23
ATOM     23  C   UNL     1       5.781  -5.346 -37.348  1.00  0.00    -0.000 C 
BRANCH  23  24
ATOM     24  C   UNL     1       7.252  -5.459 -37.786  1.00  0.00    -0.000 C 
BRANCH  24  25
ATOM     25  C   UNL     1       7.794  -6.905 -37.779  1.00  0.00    -0.003 C 
ATOM     26  C   UNL     1       7.778  -7.523 -36.380  1.00  0.00     0.004 C 
ENDBRANCH  24  25
ENDBRANCH  23  24
ENDBRANCH  22  23
ENDBRANCH  21  22
ENDBRANCH  20  21
ENDBRANCH  19  20
ENDBRANCH  18  19
ENDBRANCH  17  18
ENDBRANCH  16  17
ENDBRANCH  15  16
ENDBRANCH   1  15
TORSDOF 22
ENDMDL
MODEL 5
REMARK VINA RESULT:    -4.302      1.360      3.722
REMARK INTER + INTRA:         -13.608
REMARK INTER:                 -10.065
REMARK INTRA:                  -3.544
REMARK UNBOUND:                -3.774
REMARK SMILES CCCCCCCCCCCCCCCCCCCCCCCC(=O)[O-]
REMARK SMILES IDX 13 1 14 2 15 3 16 4 17 5 18 6 19 7 20 8 21 9 22 10 23 11
REMARK SMILES IDX 24 12 25 13 26 14 12 15 11 16 10 17 9 18 8 19 7 20 6 21 5 22
REMARK SMILES IDX 4 23 3 24 2 25 1 26
REMARK H PARENT
REMARK Flexibility Score: inf
ROOT
ATOM      1  C   UNL     1       5.995  -8.131 -36.224  1.00  0.00     0.000 C 
ENDROOT
BRANCH   1   2
ATOM      2  C   UNL     1       7.195  -7.294 -36.712  1.00  0.00     0.000 C 
BRANCH   2   3
ATOM      3  C   UNL     1       7.034  -5.767 -36.523  1.00  0.00     0.000 C 
BRANCH   3   4
ATOM      4  C   UNL     1       5.800  -5.371 -35.693  1.00  0.00     0.000 C 
BRANCH   4   5
ATOM      5  C   UNL     1       4.844  -4.383 -36.390  1.00  0.00     0.000 C 
BRANCH   5   6
ATOM      6  C   UNL     1       5.236  -2.897 -36.261  1.00  0.00     0.000 C 
BRANCH   6   7
ATOM      7  C   UNL     1       6.278  -2.402 -37.284  1.00  0.00     0.000 C 
BRANCH   7   8
ATOM      8  C   UNL     1       7.710  -2.262 -36.738  1.00  0.00     0.000 C 
BRANCH   8   9
ATOM      9  C   UNL     1       7.766  -2.274 -35.201  1.00  0.00     0.000 C 
BRANCH   9  10
ATOM     10  C   UNL     1       9.127  -2.750 -34.657  1.00  0.00     0.006 C 
BRANCH  10  11
ATOM     11  C   UNL     1      10.084  -1.603 -34.293  1.00  0.00     0.053 C 
BRANCH  11  12
ATOM     12  C   UNL     1      11.386  -1.687 -35.027  1.00  0.00     0.041 C 
ATOM     13  O   UNL     1      12.474  -1.573 -34.403  1.00  0.00    -0.550 OA
ATOM     14  O   UNL     1      11.399  -1.880 -36.403  1.00  0.00    -0.550 OA
ENDBRANCH  11  12
ENDBRANCH  10  11
ENDBRANCH   9  10
ENDBRANCH   8   9
ENDBRANCH   7   8
ENDBRANCH   6   7
ENDBRANCH   5   6
ENDBRANCH   4   5
ENDBRANCH   3   4
ENDBRANCH   2   3
ENDBRANCH   1   2
BRANCH   1  15
ATOM     15  C   UNL     1       5.065  -8.677 -37.331  1.00  0.00     0.000 C 
BRANCH  15  16
ATOM     16  C   UNL     1       4.273  -7.616 -38.116  1.00  0.00     0.000 C 
BRANCH  16  17
ATOM     17  C   UNL     1       2.760  -7.683 -37.848  1.00  0.00     0.000 C 
BRANCH  17  18
ATOM     18  C   UNL     1       2.379  -7.177 -36.445  1.00  0.00    -0.000 C 
BRANCH  18  19
ATOM     19  C   UNL     1       1.795  -8.248 -35.501  1.00  0.00    -0.000 C 
BRANCH  19  20
ATOM     20  C   UNL     1       2.159  -8.074 -34.014  1.00  0.00    -0.000 C 
BRANCH  20  21
ATOM     21  C   UNL     1       3.613  -8.444 -33.650  1.00  0.00    -0.000 C 
BRANCH  21  22
ATOM     22  C   UNL     1       4.482  -7.275 -33.151  1.00  0.00    -0.000 C 
BRANCH  22  23
ATOM     23  C   UNL     1       5.759  -7.741 -32.433  1.00  0.00    -0.000 C 
BRANCH  23  24
ATOM     24  C   UNL     1       6.331  -6.674 -31.482  1.00  0.00    -0.000 C 
BRANCH  24  25
ATOM     25  C   UNL     1       7.013  -5.496 -32.209  1.00  0.00    -0.003 C 
ATOM     26  C   UNL     1       8.349  -5.897 -32.837  1.00  0.00     0.004 C 
ENDBRANCH  24  25
ENDBRANCH  23  24
ENDBRANCH  22  23
ENDBRANCH  21  22
ENDBRANCH  20  21
ENDBRANCH  19  20
ENDBRANCH  18  19
ENDBRANCH  17  18
ENDBRANCH  16  17
ENDBRANCH  15  16
ENDBRANCH   1  15
TORSDOF 22
ENDMDL
MODEL 6
REMARK VINA RESULT:    -4.300      1.090      3.054
REMARK INTER + INTRA:         -13.605
REMARK INTER:                 -10.445
REMARK INTRA:                  -3.160
REMARK UNBOUND:                -3.774
REMARK SMILES CCCCCCCCCCCCCCCCCCCCCCCC(=O)[O-]
REMARK SMILES IDX 13 1 14 2 15 3 16 4 17 5 18 6 19 7 20 8 21 9 22 10 23 11
REMARK SMILES IDX 24 12 25 13 26 14 12 15 11 16 10 17 9 18 8 19 7 20 6 21 5 22
REMARK SMILES IDX 4 23 3 24 2 25 1 26
REMARK H PARENT
REMARK Flexibility Score: inf
ROOT
ATOM      1  C   UNL     1       8.057  -4.456 -33.637  1.00  0.00     0.000 C 
ENDROOT
BRANCH   1   2
ATOM      2  C   UNL     1       6.696  -3.730 -33.611  1.00  0.00     0.000 C 
BRANCH   2   3
ATOM      3  C   UNL     1       6.467  -2.750 -34.786  1.00  0.00     0.000 C 
BRANCH   3   4
ATOM      4  C   UNL     1       5.328  -3.171 -35.732  1.00  0.00     0.000 C 
BRANCH   4   5
ATOM      5  C   UNL     1       5.791  -3.865 -37.028  1.00  0.00     0.000 C 
BRANCH   5   6
ATOM      6  C   UNL     1       7.314  -3.840 -37.272  1.00  0.00     0.000 C 
BRANCH   6   7
ATOM      7  C   UNL     1       7.842  -2.588 -38.000  1.00  0.00     0.000 C 
BRANCH   7   8
ATOM      8  C   UNL     1       9.371  -2.419 -37.978  1.00  0.00     0.000 C 
BRANCH   8   9
ATOM      9  C   UNL     1       9.839  -1.365 -36.959  1.00  0.00     0.000 C 
BRANCH   9  10
ATOM     10  C   UNL     1       9.793  -1.876 -35.507  1.00  0.00     0.006 C 
BRANCH  10  11
ATOM     11  C   UNL     1      11.181  -2.053 -34.867  1.00  0.00     0.053 C 
BRANCH  11  12
ATOM     12  C   UNL     1      12.285  -1.561 -35.751  1.00  0.00     0.041 C 
ATOM     13  O   UNL     1      12.623  -0.347 -35.726  1.00  0.00    -0.550 OA
ATOM     14  O   UNL     1      12.935  -2.438 -36.610  1.00  0.00    -0.550 OA
ENDBRANCH  11  12
ENDBRANCH  10  11
ENDBRANCH   9  10
ENDBRANCH   8   9
ENDBRANCH   7   8
ENDBRANCH   6   7
ENDBRANCH   5   6
ENDBRANCH   4   5
ENDBRANCH   3   4
ENDBRANCH   2   3
ENDBRANCH   1   2
BRANCH   1  15
ATOM     15  C   UNL     1       8.132  -5.766 -32.819  1.00  0.00     0.000 C 
BRANCH  15  16
ATOM     16  C   UNL     1       7.310  -5.786 -31.519  1.00  0.00     0.000 C 
BRANCH  16  17
ATOM     17  C   UNL     1       6.253  -6.903 -31.499  1.00  0.00     0.000 C 
BRANCH  17  18
ATOM     18  C   UNL     1       5.338  -6.882 -32.737  1.00  0.00    -0.000 C 
BRANCH  18  19
ATOM     19  C   UNL     1       4.966  -8.270 -33.298  1.00  0.00    -0.000 C 
BRANCH  19  20
ATOM     20  C   UNL     1       5.390  -8.517 -34.758  1.00  0.00    -0.000 C 
BRANCH  20  21
ATOM     21  C   UNL     1       6.332  -7.451 -35.356  1.00  0.00    -0.000 C 
BRANCH  21  22
ATOM     22  C   UNL     1       6.446  -7.462 -36.891  1.00  0.00    -0.000 C 
BRANCH  22  23
ATOM     23  C   UNL     1       5.232  -8.109 -37.578  1.00  0.00    -0.000 C 
BRANCH  23  24
ATOM     24  C   UNL     1       4.233  -7.072 -38.122  1.00  0.00    -0.000 C 
BRANCH  24  25
ATOM     25  C   UNL     1       2.772  -7.336 -37.700  1.00  0.00    -0.003 C 
ATOM     26  C   UNL     1       2.462  -6.789 -36.306  1.00  0.00     0.004 C 
ENDBRANCH  24  25
ENDBRANCH  23  24
ENDBRANCH  22  23
ENDBRANCH  21  22
ENDBRANCH  20  21
ENDBRANCH  19  20
ENDBRANCH  18  19
ENDBRANCH  17  18
ENDBRANCH  16  17
ENDBRANCH  15  16
ENDBRANCH   1  15
TORSDOF 22
ENDMDL
MODEL 7
REMARK VINA RESULT:    -4.290      3.750      7.914
REMARK INTER + INTRA:         -13.582
REMARK INTER:                  -9.681
REMARK INTRA:                  -3.901
REMARK UNBOUND:                -3.774
REMARK SMILES CCCCCCCCCCCCCCCCCCCCCCCC(=O)[O-]
REMARK SMILES IDX 13 1 14 2 15 3 16 4 17 5 18 6 19 7 20 8 21 9 22 10 23 11
REMARK SMILES IDX 24 12 25 13 26 14 12 15 11 16 10 17 9 18 8 19 7 20 6 21 5 22
REMARK SMILES IDX 4 23 3 24 2 25 1 26
REMARK H PARENT
REMARK Flexibility Score: inf
ROOT
ATOM      1  C   UNL     1       5.496  -8.205 -35.096  1.00  0.00     0.000 C 
ENDROOT
BRANCH   1   2
ATOM      2  C   UNL     1       4.269  -7.280 -34.961  1.00  0.00     0.000 C 
BRANCH   2   3
ATOM      3  C   UNL     1       3.620  -6.870 -36.304  1.00  0.00     0.000 C 
BRANCH   3   4
ATOM      4  C   UNL     1       2.113  -7.172 -36.382  1.00  0.00     0.000 C 
BRANCH   4   5
ATOM      5  C   UNL     1       1.488  -7.677 -35.067  1.00  0.00     0.000 C 
BRANCH   5   6
ATOM      6  C   UNL     1       0.924  -9.112 -35.123  1.00  0.00     0.000 C 
BRANCH   6   7
ATOM      7  C   UNL     1       1.596 -10.041 -36.153  1.00  0.00     0.000 C 
BRANCH   7   8
ATOM      8  C   UNL     1       2.911 -10.687 -35.686  1.00  0.00     0.000 C 
BRANCH   8   9
ATOM      9  C   UNL     1       2.700 -12.060 -35.025  1.00  0.00     0.000 C 
BRANCH   9  10
ATOM     10  C   UNL     1       2.872 -12.020 -33.494  1.00  0.00     0.006 C 
BRANCH  10  11
ATOM     11  C   UNL     1       3.511 -10.720 -32.977  1.00  0.00     0.053 C 
BRANCH  11  12
ATOM     12  C   UNL     1       4.535 -10.969 -31.913  1.00  0.00     0.041 C 
ATOM     13  O   UNL     1       5.736 -10.638 -32.099  1.00  0.00    -0.550 OA
ATOM     14  O   UNL     1       4.166 -11.576 -30.719  1.00  0.00    -0.550 OA
ENDBRANCH  11  12
ENDBRANCH  10  11
ENDBRANCH   9  10
ENDBRANCH   8   9
ENDBRANCH   7   8
ENDBRANCH   6   7
ENDBRANCH   5   6
ENDBRANCH   4   5
ENDBRANCH   3   4
ENDBRANCH   2   3
ENDBRANCH   1   2
BRANCH   1  15
ATOM     15  C   UNL     1       6.325  -8.032 -36.390  1.00  0.00     0.000 C 
BRANCH  15  16
ATOM     16  C   UNL     1       7.485  -7.026 -36.306  1.00  0.00     0.000 C 
BRANCH  16  17
ATOM     17  C   UNL     1       7.646  -6.192 -37.589  1.00  0.00     0.000 C 
BRANCH  17  18
ATOM     18  C   UNL     1       7.405  -4.689 -37.359  1.00  0.00    -0.000 C 
BRANCH  18  19
ATOM     19  C   UNL     1       5.924  -4.267 -37.289  1.00  0.00    -0.000 C 
BRANCH  19  20
ATOM     20  C   UNL     1       5.477  -3.681 -35.936  1.00  0.00    -0.000 C 
BRANCH  20  21
ATOM     21  C   UNL     1       6.516  -2.777 -35.240  1.00  0.00    -0.000 C 
BRANCH  21  22
ATOM     22  C   UNL     1       6.957  -3.240 -33.840  1.00  0.00    -0.000 C 
BRANCH  22  23
ATOM     23  C   UNL     1       6.670  -4.729 -33.583  1.00  0.00    -0.000 C 
BRANCH  23  24
ATOM     24  C   UNL     1       7.843  -5.452 -32.899  1.00  0.00    -0.000 C 
BRANCH  24  25
ATOM     25  C   UNL     1       7.458  -6.153 -31.579  1.00  0.00    -0.003 C 
ATOM     26  C   UNL     1       6.094  -6.841 -31.663  1.00  0.00     0.004 C 
ENDBRANCH  24  25
ENDBRANCH  23  24
ENDBRANCH  22  23
ENDBRANCH  21  22
ENDBRANCH  20  21
ENDBRANCH  19  20
ENDBRANCH  18  19
ENDBRANCH  17  18
ENDBRANCH  16  17
ENDBRANCH  15  16
ENDBRANCH   1  15
TORSDOF 22
ENDMDL
MODEL 8
REMARK VINA RESULT:    -4.204      1.457      3.860
REMARK INTER + INTRA:         -13.386
REMARK INTER:                  -9.460
REMARK INTRA:                  -3.926
REMARK UNBOUND:                -3.774
REMARK SMILES CCCCCCCCCCCCCCCCCCCCCCCC(=O)[O-]
REMARK SMILES IDX 13 1 14 2 15 3 16 4 17 5 18 6 19 7 20 8 21 9 22 10 23 11
REMARK SMILES IDX 24 12 25 13 26 14 12 15 11 16 10 17 9 18 8 19 7 20 6 21 5 22
REMARK SMILES IDX 4 23 3 24 2 25 1 26
REMARK H PARENT
REMARK Flexibility Score: inf
ROOT
ATOM      1  C   UNL     1       6.295  -6.988 -36.671  1.00  0.00     0.000 C 
ENDROOT
BRANCH   1   2
ATOM      2  C   UNL     1       7.249  -6.107 -37.504  1.00  0.00     0.000 C 
BRANCH   2   3
ATOM      3  C   UNL     1       7.390  -4.653 -36.996  1.00  0.00     0.000 C 
BRANCH   3   4
ATOM      4  C   UNL     1       6.254  -3.722 -37.458  1.00  0.00     0.000 C 
BRANCH   4   5
ATOM      5  C   UNL     1       5.631  -2.862 -36.342  1.00  0.00     0.000 C 
BRANCH   5   6
ATOM      6  C   UNL     1       5.547  -3.547 -34.962  1.00  0.00     0.000 C 
BRANCH   6   7
ATOM      7  C   UNL     1       6.326  -2.846 -33.832  1.00  0.00     0.000 C 
BRANCH   7   8
ATOM      8  C   UNL     1       7.485  -3.664 -33.237  1.00  0.00     0.000 C 
BRANCH   8   9
ATOM      9  C   UNL     1       8.807  -3.469 -33.999  1.00  0.00     0.000 C 
BRANCH   9  10
ATOM     10  C   UNL     1       8.913  -2.085 -34.667  1.00  0.00     0.006 C 
BRANCH  10  11
ATOM     11  C   UNL     1      10.304  -1.782 -35.248  1.00  0.00     0.053 C 
BRANCH  11  12
ATOM     12  C   UNL     1      10.244  -1.324 -36.672  1.00  0.00     0.041 C 
ATOM     13  O   UNL     1       9.552  -1.958 -37.512  1.00  0.00    -0.550 OA
ATOM     14  O   UNL     1      10.960  -0.204 -37.076  1.00  0.00    -0.550 OA
ENDBRANCH  11  12
ENDBRANCH  10  11
ENDBRANCH   9  10
ENDBRANCH   8   9
ENDBRANCH   7   8
ENDBRANCH   6   7
ENDBRANCH   5   6
ENDBRANCH   4   5
ENDBRANCH   3   4
ENDBRANCH   2   3
ENDBRANCH   1   2
BRANCH   1  15
ATOM     15  C   UNL     1       4.893  -7.218 -37.279  1.00  0.00     0.000 C 
BRANCH  15  16
ATOM     16  C   UNL     1       3.756  -6.388 -36.660  1.00  0.00     0.000 C 
BRANCH  16  17
ATOM     17  C   UNL     1       2.370  -7.024 -36.869  1.00  0.00     0.000 C 
BRANCH  17  18
ATOM     18  C   UNL     1       1.538  -7.081 -35.576  1.00  0.00    -0.000 C 
BRANCH  18  19
ATOM     19  C   UNL     1       1.374  -8.488 -34.965  1.00  0.00    -0.000 C 
BRANCH  19  20
ATOM     20  C   UNL     1       1.903  -9.642 -35.838  1.00  0.00    -0.000 C 
BRANCH  20  21
ATOM     21  C   UNL     1       3.367 -10.047 -35.570  1.00  0.00    -0.000 C 
BRANCH  21  22
ATOM     22  C   UNL     1       3.784 -10.060 -34.088  1.00  0.00    -0.000 C 
BRANCH  22  23
ATOM     23  C   UNL     1       4.982  -9.143 -33.794  1.00  0.00    -0.000 C 
BRANCH  23  24
ATOM     24  C   UNL     1       4.558  -7.736 -33.337  1.00  0.00    -0.000 C 
BRANCH  24  25
ATOM     25  C   UNL     1       5.744  -6.789 -33.059  1.00  0.00    -0.003 C 
ATOM     26  C   UNL     1       6.078  -6.699 -31.569  1.00  0.00     0.004 C 
ENDBRANCH  24  25
ENDBRANCH  23  24
ENDBRANCH  22  23
ENDBRANCH  21  22
ENDBRANCH  20  21
ENDBRANCH  19  20
ENDBRANCH  18  19
ENDBRANCH  17  18
ENDBRANCH  16  17
ENDBRANCH  15  16
ENDBRANCH   1  15
TORSDOF 22
ENDMDL
MODEL 9
REMARK VINA RESULT:    -4.200      1.083      2.890
REMARK INTER + INTRA:         -13.376
REMARK INTER:                  -9.720
REMARK INTRA:                  -3.656
REMARK UNBOUND:                -3.774
REMARK SMILES CCCCCCCCCCCCCCCCCCCCCCCC(=O)[O-]
REMARK SMILES IDX 13 1 14 2 15 3 16 4 17 5 18 6 19 7 20 8 21 9 22 10 23 11
REMARK SMILES IDX 24 12 25 13 26 14 12 15 11 16 10 17 9 18 8 19 7 20 6 21 5 22
REMARK SMILES IDX 4 23 3 24 2 25 1 26
REMARK H PARENT
REMARK Flexibility Score: inf
ROOT
ATOM      1  C   UNL     1       4.979  -6.790 -32.793  1.00  0.00     0.000 C 
ENDROOT
BRANCH   1   2
ATOM      2  C   UNL     1       6.162  -7.313 -31.953  1.00  0.00     0.000 C 
BRANCH   2   3
ATOM      3  C   UNL     1       7.182  -6.229 -31.532  1.00  0.00     0.000 C 
BRANCH   3   4
ATOM      4  C   UNL     1       8.395  -6.119 -32.475  1.00  0.00     0.000 C 
BRANCH   4   5
ATOM      5  C   UNL     1       8.278  -5.021 -33.550  1.00  0.00     0.000 C 
BRANCH   5   6
ATOM      6  C   UNL     1       7.144  -4.001 -33.319  1.00  0.00     0.000 C 
BRANCH   6   7
ATOM      7  C   UNL     1       7.325  -2.647 -34.032  1.00  0.00     0.000 C 
BRANCH   7   8
ATOM      8  C   UNL     1       7.143  -2.687 -35.559  1.00  0.00     0.000 C 
BRANCH   8   9
ATOM      9  C   UNL     1       8.475  -2.592 -36.322  1.00  0.00     0.000 C 
BRANCH   9  10
ATOM     10  C   UNL     1       9.468  -1.612 -35.670  1.00  0.00     0.006 C 
BRANCH  10  11
ATOM     11  C   UNL     1      10.679  -2.299 -35.016  1.00  0.00     0.053 C 
BRANCH  11  12
ATOM     12  C   UNL     1      11.981  -1.702 -35.450  1.00  0.00     0.041 C 
ATOM     13  O   UNL     1      12.322  -0.560 -35.041  1.00  0.00    -0.550 OA
ATOM     14  O   UNL     1      12.815  -2.399 -36.315  1.00  0.00    -0.550 OA
ENDBRANCH  11  12
ENDBRANCH  10  11
ENDBRANCH   9  10
ENDBRANCH   8   9
ENDBRANCH   7   8
ENDBRANCH   6   7
ENDBRANCH   5   6
ENDBRANCH   4   5
ENDBRANCH   3   4
ENDBRANCH   2   3
ENDBRANCH   1   2
BRANCH   1  15
ATOM     15  C   UNL     1       4.672  -7.583 -34.083  1.00  0.00     0.000 C 
BRANCH  15  16
ATOM     16  C   UNL     1       5.746  -8.598 -34.510  1.00  0.00     0.000 C 
BRANCH  16  17
ATOM     17  C   UNL     1       6.309  -8.316 -35.914  1.00  0.00     0.000 C 
BRANCH  17  18
ATOM     18  C   UNL     1       7.584  -7.453 -35.884  1.00  0.00    -0.000 C 
BRANCH  18  19
ATOM     19  C   UNL     1       7.652  -6.349 -36.959  1.00  0.00    -0.000 C 
BRANCH  19  20
ATOM     20  C   UNL     1       6.485  -6.347 -37.965  1.00  0.00    -0.000 C 
BRANCH  20  21
ATOM     21  C   UNL     1       5.545  -5.127 -37.874  1.00  0.00    -0.000 C 
BRANCH  21  22
ATOM     22  C   UNL     1       4.656  -5.074 -36.618  1.00  0.00    -0.000 C 
BRANCH  22  23
ATOM     23  C   UNL     1       3.202  -4.685 -36.928  1.00  0.00    -0.000 C 
BRANCH  23  24
ATOM     24  C   UNL     1       2.210  -5.835 -36.673  1.00  0.00    -0.000 C 
BRANCH  24  25
ATOM     25  C   UNL     1       2.817  -7.238 -36.888  1.00  0.00    -0.003 C 
ATOM     26  C   UNL     1       2.248  -7.933 -38.125  1.00  0.00     0.004 C 
ENDBRANCH  24  25
ENDBRANCH  23  24
ENDBRANCH  22  23
ENDBRANCH  21  22
ENDBRANCH  20  21
ENDBRANCH  19  20
ENDBRANCH  18  19
ENDBRANCH  17  18
ENDBRANCH  16  17
ENDBRANCH  15  16
ENDBRANCH   1  15
TORSDOF 22
ENDMDL
