MODEL 1
REMARK VINA RESULT:    -5.124      0.000      0.000
REMARK INTER + INTRA:          -5.124
REMARK INTER:                  -5.124
REMARK INTRA:                   0.000
REMARK UNBOUND:                 0.000
REMARK SMILES C=C1CCC[C@]2(C)CC(=O)C(=C(C)C)C[C@H]12
REMARK SMILES IDX 13 1 12 2 11 3 15 4 16 5 2 6 1 7 3 8 4 9 5 10 6 11 8 12 9 13
REMARK SMILES IDX 10 14 7 15 14 16
REMARK H PARENT
REMARK Flexibility Score: inf
ROOT
ATOM      1  C   UNL     1      92.696 144.262 136.802  1.00  0.00     0.039 C 
ATOM      2  C   UNL     1      94.199 144.357 136.921  1.00  0.00    -0.070 C 
ATOM      3  C   UNL     1      94.999 143.259 136.792  1.00  0.00    -0.006 C 
ATOM      4  C   UNL     1      96.514 143.367 136.848  1.00  0.00     0.047 C 
ATOM      5  C   UNL     1      97.238 142.318 135.961  1.00  0.00     0.025 C 
ATOM      6  C   UNL     1      97.244 142.621 134.459  1.00  0.00    -0.073 C 
ATOM      7  C   UNL     1      96.631 143.680 133.898  1.00  0.00     0.008 C 
ATOM      8  C   UNL     1      97.944 141.641 133.545  1.00  0.00     0.031 C 
ATOM      9  C   UNL     1      98.495 140.440 134.319  1.00  0.00     0.005 C 
ATOM     10  C   UNL     1      97.418 139.826 135.228  1.00  0.00     0.008 C 
ATOM     11  C   UNL     1      96.720 140.856 136.200  1.00  0.00    -0.018 C 
ATOM     12  C   UNL     1      95.187 140.817 135.948  1.00  0.00     0.088 C 
ATOM     13  C   UNL     1      94.449 141.878 136.710  1.00  0.00     0.159 C 
ATOM     14  O   UNL     1      93.368 141.572 137.282  1.00  0.00    -0.295 OA
ATOM     15  C   UNL     1      97.010 140.415 137.658  1.00  0.00     0.012 C 
ATOM     16  C   UNL     1      94.785 145.732 137.153  1.00  0.00     0.039 C 
ENDROOT
TORSDOF 0
ENDMDL
MODEL 2
REMARK VINA RESULT:    -4.986     13.477     16.146
REMARK INTER + INTRA:          -4.986
REMARK INTER:                  -4.986
REMARK INTRA:                   0.000
REMARK UNBOUND:                 0.000
REMARK SMILES C=C1CCC[C@]2(C)CC(=O)C(=C(C)C)C[C@H]12
REMARK SMILES IDX 13 1 12 2 11 3 15 4 16 5 2 6 1 7 3 8 4 9 5 10 6 11 8 12 9 13
REMARK SMILES IDX 10 14 7 15 14 16
REMARK H PARENT
REMARK Flexibility Score: inf
ROOT
ATOM      1  C   UNL     1     101.090 136.989 125.158  1.00  0.00     0.039 C 
ATOM      2  C   UNL     1     100.396 135.677 124.872  1.00  0.00    -0.070 C 
ATOM      3  C   UNL     1     101.061 134.620 124.322  1.00  0.00    -0.006 C 
ATOM      4  C   UNL     1     100.377 133.282 124.094  1.00  0.00     0.047 C 
ATOM      5  C   UNL     1     101.338 132.070 124.229  1.00  0.00     0.025 C 
ATOM      6  C   UNL     1     101.697 131.674 125.666  1.00  0.00    -0.073 C 
ATOM      7  C   UNL     1     101.275 132.335 126.760  1.00  0.00     0.008 C 
ATOM      8  C   UNL     1     102.620 130.493 125.862  1.00  0.00     0.031 C 
ATOM      9  C   UNL     1     103.095 129.919 124.524  1.00  0.00     0.005 C 
ATOM     10  C   UNL     1     103.642 131.026 123.608  1.00  0.00     0.008 C 
ATOM     11  C   UNL     1     102.652 132.236 123.387  1.00  0.00    -0.018 C 
ATOM     12  C   UNL     1     103.364 133.548 123.819  1.00  0.00     0.088 C 
ATOM     13  C   UNL     1     102.449 134.737 123.799  1.00  0.00     0.159 C 
ATOM     14  O   UNL     1     102.878 135.823 123.324  1.00  0.00    -0.295 OA
ATOM     15  C   UNL     1     102.314 132.312 121.875  1.00  0.00     0.012 C 
ATOM     16  C   UNL     1      98.937 135.573 125.258  1.00  0.00     0.039 C 
ENDROOT
TORSDOF 0
ENDMDL
MODEL 3
REMARK VINA RESULT:    -4.969      1.520      1.973
REMARK INTER + INTRA:          -4.969
REMARK INTER:                  -4.969
REMARK INTRA:                   0.000
REMARK UNBOUND:                 0.000
REMARK SMILES C=C1CCC[C@]2(C)CC(=O)C(=C(C)C)C[C@H]12
REMARK SMILES IDX 13 1 12 2 11 3 15 4 16 5 2 6 1 7 3 8 4 9 5 10 6 11 8 12 9 13
REMARK SMILES IDX 10 14 7 15 14 16
REMARK H PARENT
REMARK Flexibility Score: inf
ROOT
ATOM      1  C   UNL     1      94.934 145.844 135.004  1.00  0.00     0.039 C 
ATOM      2  C   UNL     1      96.108 145.105 135.603  1.00  0.00    -0.070 C 
ATOM      3  C   UNL     1      96.007 143.804 136.004  1.00  0.00    -0.006 C 
ATOM      4  C   UNL     1      97.206 143.044 136.548  1.00  0.00     0.047 C 
ATOM      5  C   UNL     1      97.170 141.526 136.220  1.00  0.00     0.025 C 
ATOM      6  C   UNL     1      97.553 141.156 134.783  1.00  0.00    -0.073 C 
ATOM      7  C   UNL     1      97.851 142.054 133.824  1.00  0.00     0.008 C 
ATOM      8  C   UNL     1      97.548 139.692 134.407  1.00  0.00     0.031 C 
ATOM      9  C   UNL     1      97.086 138.811 135.571  1.00  0.00     0.005 C 
ATOM     10  C   UNL     1      95.770 139.332 136.171  1.00  0.00     0.008 C 
ATOM     11  C   UNL     1      95.802 140.854 136.589  1.00  0.00    -0.018 C 
ATOM     12  C   UNL     1      94.658 141.598 135.846  1.00  0.00     0.088 C 
ATOM     13  C   UNL     1      94.705 143.084 136.052  1.00  0.00     0.159 C 
ATOM     14  O   UNL     1      93.628 143.699 136.275  1.00  0.00    -0.295 OA
ATOM     15  C   UNL     1      95.557 140.938 138.119  1.00  0.00     0.012 C 
ATOM     16  C   UNL     1      97.415 145.859 135.706  1.00  0.00     0.039 C 
ENDROOT
TORSDOF 0
ENDMDL
MODEL 4
REMARK VINA RESULT:    -4.877      1.876      2.280
REMARK INTER + INTRA:          -4.877
REMARK INTER:                  -4.877
REMARK INTRA:                   0.000
REMARK UNBOUND:                 0.000
REMARK SMILES C=C1CCC[C@]2(C)CC(=O)C(=C(C)C)C[C@H]12
REMARK SMILES IDX 13 1 12 2 11 3 15 4 16 5 2 6 1 7 3 8 4 9 5 10 6 11 8 12 9 13
REMARK SMILES IDX 10 14 7 15 14 16
REMARK H PARENT
REMARK Flexibility Score: inf
ROOT
ATOM      1  C   UNL     1      92.732 140.619 138.429  1.00  0.00     0.039 C 
ATOM      2  C   UNL     1      94.061 141.339 138.454  1.00  0.00    -0.070 C 
ATOM      3  C   UNL     1      95.130 140.894 137.731  1.00  0.00    -0.006 C 
ATOM      4  C   UNL     1      96.446 141.655 137.707  1.00  0.00     0.047 C 
ATOM      5  C   UNL     1      97.207 141.523 136.360  1.00  0.00     0.025 C 
ATOM      6  C   UNL     1      96.661 142.378 135.211  1.00  0.00    -0.073 C 
ATOM      7  C   UNL     1      95.568 143.159 135.303  1.00  0.00     0.008 C 
ATOM      8  C   UNL     1      97.367 142.301 133.878  1.00  0.00     0.031 C 
ATOM      9  C   UNL     1      98.520 141.293 133.906  1.00  0.00     0.005 C 
ATOM     10  C   UNL     1      98.059 139.941 134.476  1.00  0.00     0.008 C 
ATOM     11  C   UNL     1      97.353 140.035 135.885  1.00  0.00    -0.018 C 
ATOM     12  C   UNL     1      95.939 139.400 135.775  1.00  0.00     0.088 C 
ATOM     13  C   UNL     1      95.123 139.586 137.021  1.00  0.00     0.159 C 
ATOM     14  O   UNL     1      94.448 138.613 137.454  1.00  0.00    -0.295 OA
ATOM     15  C   UNL     1      98.198 139.226 136.903  1.00  0.00     0.012 C 
ATOM     16  C   UNL     1      94.145 142.597 139.287  1.00  0.00     0.039 C 
ENDROOT
TORSDOF 0
ENDMDL
MODEL 5
REMARK VINA RESULT:    -4.841      2.849      5.239
REMARK INTER + INTRA:          -4.841
REMARK INTER:                  -4.841
REMARK INTRA:                   0.000
REMARK UNBOUND:                 0.000
REMARK SMILES C=C1CCC[C@]2(C)CC(=O)C(=C(C)C)C[C@H]12
REMARK SMILES IDX 13 1 12 2 11 3 15 4 16 5 2 6 1 7 3 8 4 9 5 10 6 11 8 12 9 13
REMARK SMILES IDX 10 14 7 15 14 16
REMARK H PARENT
REMARK Flexibility Score: inf
ROOT
ATOM      1  C   UNL     1      99.929 141.665 135.265  1.00  0.00     0.039 C 
ATOM      2  C   UNL     1      98.722 140.860 134.840  1.00  0.00    -0.070 C 
ATOM      3  C   UNL     1      98.126 139.965 135.679  1.00  0.00    -0.006 C 
ATOM      4  C   UNL     1      96.875 139.204 135.272  1.00  0.00     0.047 C 
ATOM      5  C   UNL     1      95.933 138.889 136.465  1.00  0.00     0.025 C 
ATOM      6  C   UNL     1      95.088 140.067 136.963  1.00  0.00    -0.073 C 
ATOM      7  C   UNL     1      95.166 141.316 136.467  1.00  0.00     0.008 C 
ATOM      8  C   UNL     1      94.142 139.819 138.116  1.00  0.00     0.031 C 
ATOM      9  C   UNL     1      94.248 138.382 138.635  1.00  0.00     0.005 C 
ATOM     10  C   UNL     1      95.712 137.996 138.901  1.00  0.00     0.008 C 
ATOM     11  C   UNL     1      96.681 138.230 137.677  1.00  0.00    -0.018 C 
ATOM     12  C   UNL     1      97.834 139.169 138.127  1.00  0.00     0.088 C 
ATOM     13  C   UNL     1      98.721 139.583 136.989  1.00  0.00     0.159 C 
ATOM     14  O   UNL     1      99.969 139.589 137.166  1.00  0.00    -0.295 OA
ATOM     15  C   UNL     1      97.272 136.858 137.261  1.00  0.00     0.012 C 
ATOM     16  C   UNL     1      98.179 141.118 133.452  1.00  0.00     0.039 C 
ENDROOT
TORSDOF 0
ENDMDL
MODEL 6
REMARK VINA RESULT:    -4.820     13.967     16.815
REMARK INTER + INTRA:          -4.820
REMARK INTER:                  -4.820
REMARK INTRA:                   0.000
REMARK UNBOUND:                 0.000
REMARK SMILES C=C1CCC[C@]2(C)CC(=O)C(=C(C)C)C[C@H]12
REMARK SMILES IDX 13 1 12 2 11 3 15 4 16 5 2 6 1 7 3 8 4 9 5 10 6 11 8 12 9 13
REMARK SMILES IDX 10 14 7 15 14 16
REMARK H PARENT
REMARK Flexibility Score: inf
ROOT
ATOM      1  C   UNL     1     105.255 130.699 124.251  1.00  0.00     0.039 C 
ATOM      2  C   UNL     1     104.306 131.414 123.317  1.00  0.00    -0.070 C 
ATOM      3  C   UNL     1     103.127 131.939 123.759  1.00  0.00    -0.006 C 
ATOM      4  C   UNL     1     102.204 132.713 122.832  1.00  0.00     0.047 C 
ATOM      5  C   UNL     1     101.408 133.834 123.554  1.00  0.00     0.025 C 
ATOM      6  C   UNL     1     102.204 135.106 123.869  1.00  0.00    -0.073 C 
ATOM      7  C   UNL     1     103.515 135.261 123.606  1.00  0.00     0.008 C 
ATOM      8  C   UNL     1     101.479 136.237 124.561  1.00  0.00     0.031 C 
ATOM      9  C   UNL     1     100.029 135.866 124.885  1.00  0.00     0.005 C 
ATOM     10  C   UNL     1      99.953 134.510 125.605  1.00  0.00     0.008 C 
ATOM     11  C   UNL     1     100.686 133.331 124.853  1.00  0.00    -0.018 C 
ATOM     12  C   UNL     1     101.744 132.712 125.808  1.00  0.00     0.088 C 
ATOM     13  C   UNL     1     102.607 131.688 125.131  1.00  0.00     0.159 C 
ATOM     14  O   UNL     1     102.869 130.618 125.742  1.00  0.00    -0.295 OA
ATOM     15  C   UNL     1      99.627 132.255 124.497  1.00  0.00     0.012 C 
ATOM     16  C   UNL     1     104.739 131.557 121.876  1.00  0.00     0.039 C 
ENDROOT
TORSDOF 0
ENDMDL
MODEL 7
REMARK VINA RESULT:    -4.705      2.367      4.963
REMARK INTER + INTRA:          -4.705
REMARK INTER:                  -4.705
REMARK INTRA:                   0.000
REMARK UNBOUND:                 0.000
REMARK SMILES C=C1CCC[C@]2(C)CC(=O)C(=C(C)C)C[C@H]12
REMARK SMILES IDX 13 1 12 2 11 3 15 4 16 5 2 6 1 7 3 8 4 9 5 10 6 11 8 12 9 13
REMARK SMILES IDX 10 14 7 15 14 16
REMARK H PARENT
REMARK Flexibility Score: inf
ROOT
ATOM      1  C   UNL     1      98.134 137.682 137.934  1.00  0.00     0.039 C 
ATOM      2  C   UNL     1      99.013 138.838 137.516  1.00  0.00    -0.070 C 
ATOM      3  C   UNL     1      98.590 139.769 136.613  1.00  0.00    -0.006 C 
ATOM      4  C   UNL     1      99.450 140.966 136.241  1.00  0.00     0.047 C 
ATOM      5  C   UNL     1      98.623 142.231 135.890  1.00  0.00     0.025 C 
ATOM      6  C   UNL     1      98.040 142.988 137.089  1.00  0.00    -0.073 C 
ATOM      7  C   UNL     1      98.165 142.588 138.369  1.00  0.00     0.008 C 
ATOM      8  C   UNL     1      97.234 144.236 136.812  1.00  0.00     0.031 C 
ATOM      9  C   UNL     1      97.094 144.496 135.309  1.00  0.00     0.005 C 
ATOM     10  C   UNL     1      96.615 143.235 134.571  1.00  0.00     0.008 C 
ATOM     11  C   UNL     1      97.487 141.948 134.846  1.00  0.00    -0.018 C 
ATOM     12  C   UNL     1      96.562 140.829 135.399  1.00  0.00     0.088 C 
ATOM     13  C   UNL     1      97.324 139.615 135.844  1.00  0.00     0.159 C 
ATOM     14  O   UNL     1      96.877 138.476 135.545  1.00  0.00    -0.295 OA
ATOM     15  C   UNL     1      98.099 141.485 133.498  1.00  0.00     0.012 C 
ATOM     16  C   UNL     1     100.372 138.940 138.171  1.00  0.00     0.039 C 
ENDROOT
TORSDOF 0
ENDMDL
MODEL 8
REMARK VINA RESULT:    -4.679      2.071      4.610
REMARK INTER + INTRA:          -4.679
REMARK INTER:                  -4.679
REMARK INTRA:                   0.000
REMARK UNBOUND:                 0.000
REMARK SMILES C=C1CCC[C@]2(C)CC(=O)C(=C(C)C)C[C@H]12
REMARK SMILES IDX 13 1 12 2 11 3 15 4 16 5 2 6 1 7 3 8 4 9 5 10 6 11 8 12 9 13
REMARK SMILES IDX 10 14 7 15 14 16
REMARK H PARENT
REMARK Flexibility Score: inf
ROOT
ATOM      1  C   UNL     1      97.915 142.193 133.132  1.00  0.00     0.039 C 
ATOM      2  C   UNL     1      98.186 141.549 134.472  1.00  0.00    -0.070 C 
ATOM      3  C   UNL     1      97.252 141.544 135.466  1.00  0.00    -0.006 C 
ATOM      4  C   UNL     1      97.503 140.841 136.791  1.00  0.00     0.047 C 
ATOM      5  C   UNL     1      96.213 140.261 137.432  1.00  0.00     0.025 C 
ATOM      6  C   UNL     1      95.698 138.959 136.807  1.00  0.00    -0.073 C 
ATOM      7  C   UNL     1      96.260 138.357 135.742  1.00  0.00     0.008 C 
ATOM      8  C   UNL     1      94.451 138.339 137.396  1.00  0.00     0.031 C 
ATOM      9  C   UNL     1      93.874 139.196 138.527  1.00  0.00     0.005 C 
ATOM     10  C   UNL     1      93.726 140.663 138.089  1.00  0.00     0.008 C 
ATOM     11  C   UNL     1      95.045 141.306 137.507  1.00  0.00    -0.018 C 
ATOM     12  C   UNL     1      94.751 141.836 136.076  1.00  0.00     0.088 C 
ATOM     13  C   UNL     1      95.985 142.321 135.373  1.00  0.00     0.159 C 
ATOM     14  O   UNL     1      95.926 143.396 134.718  1.00  0.00    -0.295 OA
ATOM     15  C   UNL     1      95.445 142.494 138.420  1.00  0.00     0.012 C 
ATOM     16  C   UNL     1      99.528 140.876 134.652  1.00  0.00     0.039 C 
ENDROOT
TORSDOF 0
ENDMDL
MODEL 9
REMARK VINA RESULT:    -4.489      1.694      3.126
REMARK INTER + INTRA:          -4.489
REMARK INTER:                  -4.489
REMARK INTRA:                   0.000
REMARK UNBOUND:                 0.000
REMARK SMILES C=C1CCC[C@]2(C)CC(=O)C(=C(C)C)C[C@H]12
REMARK SMILES IDX 13 1 12 2 11 3 15 4 16 5 2 6 1 7 3 8 4 9 5 10 6 11 8 12 9 13
REMARK SMILES IDX 10 14 7 15 14 16
REMARK H PARENT
REMARK Flexibility Score: inf
ROOT
ATOM      1  C   UNL     1      94.908 144.705 139.390  1.00  0.00     0.039 C 
ATOM      2  C   UNL     1      94.380 143.882 138.238  1.00  0.00    -0.070 C 
ATOM      3  C   UNL     1      95.157 143.584 137.156  1.00  0.00    -0.006 C 
ATOM      4  C   UNL     1      94.645 142.702 136.028  1.00  0.00     0.047 C 
ATOM      5  C   UNL     1      95.760 141.857 135.355  1.00  0.00     0.025 C 
ATOM      6  C   UNL     1      96.217 140.626 136.146  1.00  0.00    -0.073 C 
ATOM      7  C   UNL     1      95.753 140.295 137.366  1.00  0.00     0.008 C 
ATOM      8  C   UNL     1      97.293 139.756 135.536  1.00  0.00     0.031 C 
ATOM      9  C   UNL     1      97.790 140.323 134.203  1.00  0.00     0.005 C 
ATOM     10  C   UNL     1      98.155 141.811 134.336  1.00  0.00     0.008 C 
ATOM     11  C   UNL     1      97.009 142.711 134.943  1.00  0.00    -0.018 C 
ATOM     12  C   UNL     1      97.561 143.436 136.202  1.00  0.00     0.088 C 
ATOM     13  C   UNL     1      96.499 144.192 136.946  1.00  0.00     0.159 C 
ATOM     14  O   UNL     1      96.766 145.347 137.375  1.00  0.00    -0.295 OA
ATOM     15  C   UNL     1      96.611 143.767 133.879  1.00  0.00     0.012 C 
ATOM     16  C   UNL     1      92.963 143.370 138.352  1.00  0.00     0.039 C 
ENDROOT
TORSDOF 0
ENDMDL
