MODEL 1
REMARK VINA RESULT:    -5.703      0.000      0.000
REMARK INTER + INTRA:         -10.448
REMARK INTER:                  -8.703
REMARK INTRA:                  -1.745
REMARK UNBOUND:                -1.745
REMARK SMILES CC(=O)CCC=C(C)CCC=C(C)CCC=C(C)C
REMARK SMILES IDX 10 1 11 2 12 3 13 4 14 5 15 6 16 7 18 8 17 9 19 10 9 11 7 12
REMARK SMILES IDX 6 13 8 14 5 15 4 16 2 17 3 18 1 19
REMARK H PARENT
REMARK Flexibility Score: inf
ROOT
ATOM      1  C   UNL     1      99.903 115.801 126.496  1.00  0.00     0.032 C 
ENDROOT
BRANCH   1   2
ATOM      2  C   UNL     1     100.979 114.749 126.587  1.00  0.00    -0.028 C 
ATOM      3  C   UNL     1     100.766 113.422 126.437  1.00  0.00    -0.077 C 
ATOM      4  C   UNL     1      99.382 112.857 126.207  1.00  0.00     0.039 C 
BRANCH   3   5
ATOM      5  C   UNL     1     101.943 112.472 126.521  1.00  0.00     0.034 C 
BRANCH   5   6
ATOM      6  C   UNL     1     102.697 112.374 125.187  1.00  0.00     0.032 C 
BRANCH   6   7
ATOM      7  C   UNL     1     102.083 111.345 124.268  1.00  0.00    -0.028 C 
ATOM      8  C   UNL     1     101.038 113.056 122.767  1.00  0.00     0.039 C 
ATOM      9  C   UNL     1     101.305 111.636 123.202  1.00  0.00    -0.080 C 
ATOM     10  C   UNL     1     100.718 110.521 122.376  1.00  0.00     0.039 C 
ENDBRANCH   6   7
ENDBRANCH   5   6
ENDBRANCH   3   5
ENDBRANCH   1   2
BRANCH   1  11
ATOM     11  C   UNL     1     100.499 117.157 126.099  1.00  0.00     0.034 C 
BRANCH  11  12
ATOM     12  C   UNL     1     100.009 117.580 124.731  1.00  0.00    -0.077 C 
ATOM     13  C   UNL     1      99.427 116.657 123.930  1.00  0.00    -0.028 C 
ATOM     14  C   UNL     1     100.174 119.019 124.302  1.00  0.00     0.039 C 
BRANCH  13  15
ATOM     15  C   UNL     1      98.932 116.930 122.532  1.00  0.00     0.035 C 
BRANCH  15  16
ATOM     16  C   UNL     1      99.852 116.282 121.494  1.00  0.00     0.079 C 
BRANCH  16  17
ATOM     17  C   UNL     1     100.391 117.315 120.541  1.00  0.00     0.130 C 
ATOM     18  O   UNL     1      99.778 117.562 119.512  1.00  0.00    -0.300 OA
ATOM     19  C   UNL     1     101.672 118.045 120.821  1.00  0.00     0.087 C 
ENDBRANCH  16  17
ENDBRANCH  15  16
ENDBRANCH  13  15
ENDBRANCH  11  12
ENDBRANCH   1  11
TORSDOF 9
ENDMDL
MODEL 2
REMARK VINA RESULT:    -5.592      0.753      1.256
REMARK INTER + INTRA:         -10.279
REMARK INTER:                  -8.193
REMARK INTRA:                  -2.086
REMARK UNBOUND:                -1.745
REMARK SMILES CC(=O)CCC=C(C)CCC=C(C)CCC=C(C)C
REMARK SMILES IDX 10 1 11 2 12 3 13 4 14 5 15 6 16 7 18 8 17 9 19 10 9 11 7 12
REMARK SMILES IDX 6 13 8 14 5 15 4 16 2 17 3 18 1 19
REMARK H PARENT
REMARK Flexibility Score: inf
ROOT
ATOM      1  C   UNL     1      99.952 115.800 126.661  1.00  0.00     0.032 C 
ENDROOT
BRANCH   1   2
ATOM      2  C   UNL     1     100.987 114.716 126.830  1.00  0.00    -0.028 C 
ATOM      3  C   UNL     1     100.765 113.403 126.594  1.00  0.00    -0.077 C 
ATOM      4  C   UNL     1      99.407 112.886 126.176  1.00  0.00     0.039 C 
BRANCH   3   5
ATOM      5  C   UNL     1     101.904 112.419 126.773  1.00  0.00     0.034 C 
BRANCH   5   6
ATOM      6  C   UNL     1     102.406 111.875 125.428  1.00  0.00     0.032 C 
BRANCH   6   7
ATOM      7  C   UNL     1     102.904 112.979 124.525  1.00  0.00    -0.028 C 
ATOM      8  C   UNL     1     101.002 112.753 122.911  1.00  0.00     0.039 C 
ATOM      9  C   UNL     1     102.306 113.356 123.373  1.00  0.00    -0.080 C 
ATOM     10  C   UNL     1     102.916 114.450 122.536  1.00  0.00     0.039 C 
ENDBRANCH   6   7
ENDBRANCH   5   6
ENDBRANCH   3   5
ENDBRANCH   1   2
BRANCH   1  11
ATOM     11  C   UNL     1     100.558 117.030 125.974  1.00  0.00     0.034 C 
BRANCH  11  12
ATOM     12  C   UNL     1      99.829 117.339 124.686  1.00  0.00    -0.077 C 
ATOM     13  C   UNL     1      99.708 116.367 123.752  1.00  0.00    -0.028 C 
ATOM     14  C   UNL     1      99.249 118.719 124.480  1.00  0.00     0.039 C 
BRANCH  13  15
ATOM     15  C   UNL     1      99.044 116.550 122.410  1.00  0.00     0.035 C 
BRANCH  15  16
ATOM     16  C   UNL     1      99.968 116.085 121.280  1.00  0.00     0.079 C 
BRANCH  16  17
ATOM     17  C   UNL     1     100.436 117.258 120.459  1.00  0.00     0.130 C 
ATOM     18  O   UNL     1      99.805 117.586 119.465  1.00  0.00    -0.300 OA
ATOM     19  C   UNL     1     101.668 118.029 120.829  1.00  0.00     0.087 C 
ENDBRANCH  16  17
ENDBRANCH  15  16
ENDBRANCH  13  15
ENDBRANCH  11  12
ENDBRANCH   1  11
TORSDOF 9
ENDMDL
MODEL 3
REMARK VINA RESULT:    -5.482      1.612      4.727
REMARK INTER + INTRA:         -10.110
REMARK INTER:                  -8.300
REMARK INTRA:                  -1.811
REMARK UNBOUND:                -1.745
REMARK SMILES CC(=O)CCC=C(C)CCC=C(C)CCC=C(C)C
REMARK SMILES IDX 10 1 11 2 12 3 13 4 14 5 15 6 16 7 18 8 17 9 19 10 9 11 7 12
REMARK SMILES IDX 6 13 8 14 5 15 4 16 2 17 3 18 1 19
REMARK H PARENT
REMARK Flexibility Score: inf
ROOT
ATOM      1  C   UNL     1     101.460 112.464 125.721  1.00  0.00     0.032 C 
ENDROOT
BRANCH   1   2
ATOM      2  C   UNL     1     100.939 112.658 124.319  1.00  0.00    -0.028 C 
ATOM      3  C   UNL     1     101.590 113.338 123.349  1.00  0.00    -0.077 C 
ATOM      4  C   UNL     1     102.912 114.026 123.606  1.00  0.00     0.039 C 
BRANCH   3   5
ATOM      5  C   UNL     1     100.968 113.431 121.970  1.00  0.00     0.034 C 
BRANCH   5   6
ATOM      6  C   UNL     1     101.175 114.817 121.342  1.00  0.00     0.032 C 
BRANCH   6   7
ATOM      7  C   UNL     1      99.941 115.680 121.465  1.00  0.00    -0.028 C 
ATOM      8  C   UNL     1     101.148 117.792 120.867  1.00  0.00     0.039 C 
ATOM      9  C   UNL     1      99.923 117.021 121.293  1.00  0.00    -0.080 C 
ATOM     10  C   UNL     1      98.636 117.782 121.476  1.00  0.00     0.039 C 
ENDBRANCH   6   7
ENDBRANCH   5   6
ENDBRANCH   3   5
ENDBRANCH   1   2
BRANCH   1  11
ATOM     11  C   UNL     1     100.637 113.281 126.725  1.00  0.00     0.034 C 
BRANCH  11  12
ATOM     12  C   UNL     1     101.056 114.735 126.706  1.00  0.00    -0.077 C 
ATOM     13  C   UNL     1     100.160 115.670 126.313  1.00  0.00    -0.028 C 
ATOM     14  C   UNL     1     102.458 115.104 127.133  1.00  0.00     0.039 C 
BRANCH  13  15
ATOM     15  C   UNL     1     100.455 117.145 126.207  1.00  0.00     0.035 C 
BRANCH  15  16
ATOM     16  C   UNL     1      99.780 117.746 124.970  1.00  0.00     0.079 C 
BRANCH  16  17
ATOM     17  C   UNL     1     100.086 119.216 124.858  1.00  0.00     0.130 C 
ATOM     18  O   UNL     1     100.519 119.663 123.806  1.00  0.00    -0.300 OA
ATOM     19  C   UNL     1      99.878 120.147 126.017  1.00  0.00     0.087 C 
ENDBRANCH  16  17
ENDBRANCH  15  16
ENDBRANCH  13  15
ENDBRANCH  11  12
ENDBRANCH   1  11
TORSDOF 9
ENDMDL
MODEL 4
REMARK VINA RESULT:    -5.444      1.877      5.603
REMARK INTER + INTRA:         -10.054
REMARK INTER:                  -8.721
REMARK INTRA:                  -1.333
REMARK UNBOUND:                -1.745
REMARK SMILES CC(=O)CCC=C(C)CCC=C(C)CCC=C(C)C
REMARK SMILES IDX 10 1 11 2 12 3 13 4 14 5 15 6 16 7 18 8 17 9 19 10 9 11 7 12
REMARK SMILES IDX 6 13 8 14 5 15 4 16 2 17 3 18 1 19
REMARK H PARENT
REMARK Flexibility Score: inf
ROOT
ATOM      1  C   UNL     1      99.949 115.849 126.590  1.00  0.00     0.032 C 
ENDROOT
BRANCH   1   2
ATOM      2  C   UNL     1     100.004 116.665 125.323  1.00  0.00    -0.028 C 
ATOM      3  C   UNL     1      99.997 118.017 125.282  1.00  0.00    -0.077 C 
ATOM      4  C   UNL     1      99.879 118.851 126.537  1.00  0.00     0.039 C 
BRANCH   3   5
ATOM      5  C   UNL     1     100.089 118.715 123.940  1.00  0.00     0.034 C 
BRANCH   5   6
ATOM      6  C   UNL     1      98.825 118.501 123.096  1.00  0.00     0.032 C 
BRANCH   6   7
ATOM      7  C   UNL     1      99.108 117.685 121.857  1.00  0.00    -0.028 C 
ATOM      8  C   UNL     1      97.235 118.710 120.546  1.00  0.00     0.039 C 
ATOM      9  C   UNL     1      98.379 117.741 120.720  1.00  0.00    -0.080 C 
ATOM     10  C   UNL     1      98.736 116.853 119.556  1.00  0.00     0.039 C 
ENDBRANCH   6   7
ENDBRANCH   5   6
ENDBRANCH   3   5
ENDBRANCH   1   2
BRANCH   1  11
ATOM     11  C   UNL     1     101.176 114.936 126.703  1.00  0.00     0.034 C 
BRANCH  11  12
ATOM     12  C   UNL     1     100.915 113.601 126.041  1.00  0.00    -0.077 C 
ATOM     13  C   UNL     1     101.812 113.130 125.143  1.00  0.00    -0.028 C 
ATOM     14  C   UNL     1      99.669 112.829 126.404  1.00  0.00     0.039 C 
BRANCH  13  15
ATOM     15  C   UNL     1     101.658 111.838 124.380  1.00  0.00     0.035 C 
BRANCH  15  16
ATOM     16  C   UNL     1     100.935 112.076 123.051  1.00  0.00     0.079 C 
BRANCH  16  17
ATOM     17  C   UNL     1     101.558 113.227 122.305  1.00  0.00     0.130 C 
ATOM     18  O   UNL     1     102.706 113.129 121.897  1.00  0.00    -0.300 OA
ATOM     19  C   UNL     1     100.801 114.498 122.057  1.00  0.00     0.087 C 
ENDBRANCH  16  17
ENDBRANCH  15  16
ENDBRANCH  13  15
ENDBRANCH  11  12
ENDBRANCH   1  11
TORSDOF 9
ENDMDL
MODEL 5
REMARK VINA RESULT:    -5.429      2.425      3.553
REMARK INTER + INTRA:         -10.030
REMARK INTER:                  -8.815
REMARK INTRA:                  -1.215
REMARK UNBOUND:                -1.745
REMARK SMILES CC(=O)CCC=C(C)CCC=C(C)CCC=C(C)C
REMARK SMILES IDX 10 1 11 2 12 3 13 4 14 5 15 6 16 7 18 8 17 9 19 10 9 11 7 12
REMARK SMILES IDX 6 13 8 14 5 15 4 16 2 17 3 18 1 19
REMARK H PARENT
REMARK Flexibility Score: inf
ROOT
ATOM      1  C   UNL     1      99.968 113.764 126.148  1.00  0.00     0.032 C 
ENDROOT
BRANCH   1   2
ATOM      2  C   UNL     1     101.111 112.866 126.552  1.00  0.00    -0.028 C 
ATOM      3  C   UNL     1     101.841 112.122 125.689  1.00  0.00    -0.077 C 
ATOM      4  C   UNL     1     101.533 112.086 124.209  1.00  0.00     0.039 C 
BRANCH   3   5
ATOM      5  C   UNL     1     102.986 111.285 126.223  1.00  0.00     0.034 C 
BRANCH   5   6
ATOM      6  C   UNL     1     103.741 110.565 125.097  1.00  0.00     0.032 C 
BRANCH   6   7
ATOM      7  C   UNL     1     103.877 109.085 125.368  1.00  0.00    -0.028 C 
ATOM      8  C   UNL     1     102.396 108.425 123.459  1.00  0.00     0.039 C 
ATOM      9  C   UNL     1     103.249 108.117 124.665  1.00  0.00    -0.080 C 
ATOM     10  C   UNL     1     103.434 106.672 125.050  1.00  0.00     0.039 C 
ENDBRANCH   6   7
ENDBRANCH   5   6
ENDBRANCH   3   5
ENDBRANCH   1   2
BRANCH   1  11
ATOM     11  C   UNL     1     100.126 115.157 126.768  1.00  0.00     0.034 C 
BRANCH  11  12
ATOM     12  C   UNL     1     100.129 116.225 125.697  1.00  0.00    -0.077 C 
ATOM     13  C   UNL     1     100.240 117.522 126.066  1.00  0.00    -0.028 C 
ATOM     14  C   UNL     1     100.016 115.815 124.247  1.00  0.00     0.039 C 
BRANCH  13  15
ATOM     15  C   UNL     1     100.215 118.687 125.108  1.00  0.00     0.035 C 
BRANCH  15  16
ATOM     16  C   UNL     1      98.936 119.510 125.287  1.00  0.00     0.079 C 
BRANCH  16  17
ATOM     17  C   UNL     1      98.300 119.802 123.954  1.00  0.00     0.130 C 
ATOM     18  O   UNL     1      97.642 120.822 123.812  1.00  0.00    -0.300 OA
ATOM     19  C   UNL     1      98.449 118.862 122.794  1.00  0.00     0.087 C 
ENDBRANCH  16  17
ENDBRANCH  15  16
ENDBRANCH  13  15
ENDBRANCH  11  12
ENDBRANCH   1  11
TORSDOF 9
ENDMDL
MODEL 6
REMARK VINA RESULT:    -5.362      1.168      4.961
REMARK INTER + INTRA:          -9.927
REMARK INTER:                  -8.182
REMARK INTRA:                  -1.745
REMARK UNBOUND:                -1.745
REMARK SMILES CC(=O)CCC=C(C)CCC=C(C)CCC=C(C)C
REMARK SMILES IDX 10 1 11 2 12 3 13 4 14 5 15 6 16 7 18 8 17 9 19 10 9 11 7 12
REMARK SMILES IDX 6 13 8 14 5 15 4 16 2 17 3 18 1 19
REMARK H PARENT
REMARK Flexibility Score: inf
ROOT
ATOM      1  C   UNL     1     102.485 111.652 125.787  1.00  0.00     0.032 C 
ENDROOT
BRANCH   1   2
ATOM      2  C   UNL     1     102.357 113.075 126.270  1.00  0.00    -0.028 C 
ATOM      3  C   UNL     1     101.183 113.723 126.439  1.00  0.00    -0.077 C 
ATOM      4  C   UNL     1      99.859 113.075 126.102  1.00  0.00     0.039 C 
BRANCH   3   5
ATOM      5  C   UNL     1     101.193 115.145 126.962  1.00  0.00     0.034 C 
BRANCH   5   6
ATOM      6  C   UNL     1      99.915 115.905 126.579  1.00  0.00     0.032 C 
BRANCH   6   7
ATOM      7  C   UNL     1     100.131 116.801 125.383  1.00  0.00    -0.028 C 
ATOM      8  C   UNL     1      99.803 118.913 126.690  1.00  0.00     0.039 C 
ATOM      9  C   UNL     1     100.045 118.150 125.411  1.00  0.00    -0.080 C 
ATOM     10  C   UNL     1     100.246 118.940 124.143  1.00  0.00     0.039 C 
ENDBRANCH   6   7
ENDBRANCH   5   6
ENDBRANCH   3   5
ENDBRANCH   1   2
BRANCH   1  11
ATOM     11  C   UNL     1     103.091 111.607 124.379  1.00  0.00     0.034 C 
BRANCH  11  12
ATOM     12  C   UNL     1     102.062 111.992 123.339  1.00  0.00    -0.077 C 
ATOM     13  C   UNL     1     102.098 113.240 122.814  1.00  0.00    -0.028 C 
ATOM     14  C   UNL     1     101.031 110.975 122.909  1.00  0.00     0.039 C 
BRANCH  13  15
ATOM     15  C   UNL     1     101.112 113.769 121.803  1.00  0.00     0.035 C 
BRANCH  15  16
ATOM     16  C   UNL     1     100.492 115.083 122.287  1.00  0.00     0.079 C 
BRANCH  16  17
ATOM     17  C   UNL     1     100.015 115.908 121.120  1.00  0.00     0.130 C 
ATOM     18  O   UNL     1     100.533 115.756 120.024  1.00  0.00    -0.300 OA
ATOM     19  C   UNL     1      98.920 116.922 121.276  1.00  0.00     0.087 C 
ENDBRANCH  16  17
ENDBRANCH  15  16
ENDBRANCH  13  15
ENDBRANCH  11  12
ENDBRANCH   1  11
TORSDOF 9
ENDMDL
MODEL 7
REMARK VINA RESULT:    -5.331      1.997      2.719
REMARK INTER + INTRA:          -9.881
REMARK INTER:                  -8.679
REMARK INTRA:                  -1.201
REMARK UNBOUND:                -1.745
REMARK SMILES CC(=O)CCC=C(C)CCC=C(C)CCC=C(C)C
REMARK SMILES IDX 10 1 11 2 12 3 13 4 14 5 15 6 16 7 18 8 17 9 19 10 9 11 7 12
REMARK SMILES IDX 6 13 8 14 5 15 4 16 2 17 3 18 1 19
REMARK H PARENT
REMARK Flexibility Score: inf
ROOT
ATOM      1  C   UNL     1      99.859 113.825 126.134  1.00  0.00     0.032 C 
ENDROOT
BRANCH   1   2
ATOM      2  C   UNL     1     100.984 112.910 126.547  1.00  0.00    -0.028 C 
ATOM      3  C   UNL     1     101.768 112.223 125.685  1.00  0.00    -0.077 C 
ATOM      4  C   UNL     1     101.545 112.276 124.190  1.00  0.00     0.039 C 
BRANCH   3   5
ATOM      5  C   UNL     1     102.887 111.361 126.232  1.00  0.00     0.034 C 
BRANCH   5   6
ATOM      6  C   UNL     1     103.727 110.734 125.110  1.00  0.00     0.032 C 
BRANCH   6   7
ATOM      7  C   UNL     1     103.953 109.257 125.335  1.00  0.00    -0.028 C 
ATOM      8  C   UNL     1     102.421 108.564 123.478  1.00  0.00     0.039 C 
ATOM      9  C   UNL     1     103.344 108.274 124.635  1.00  0.00    -0.080 C 
ATOM     10  C   UNL     1     103.623 106.831 124.973  1.00  0.00     0.039 C 
ENDBRANCH   6   7
ENDBRANCH   5   6
ENDBRANCH   3   5
ENDBRANCH   1   2
BRANCH   1  11
ATOM     11  C   UNL     1     100.031 115.215 126.758  1.00  0.00     0.034 C 
BRANCH  11  12
ATOM     12  C   UNL     1     100.138 116.276 125.685  1.00  0.00    -0.077 C 
ATOM     13  C   UNL     1     100.148 115.896 124.386  1.00  0.00    -0.028 C 
ATOM     14  C   UNL     1     100.223 117.729 126.091  1.00  0.00     0.039 C 
BRANCH  13  15
ATOM     15  C   UNL     1     100.291 116.841 123.220  1.00  0.00     0.035 C 
BRANCH  15  16
ATOM     16  C   UNL     1      99.067 116.761 122.303  1.00  0.00     0.079 C 
BRANCH  16  17
ATOM     17  C   UNL     1      99.457 116.257 120.938  1.00  0.00     0.130 C 
ATOM     18  O   UNL     1     100.345 115.424 120.835  1.00  0.00    -0.300 OA
ATOM     19  C   UNL     1      98.783 116.763 119.697  1.00  0.00     0.087 C 
ENDBRANCH  16  17
ENDBRANCH  15  16
ENDBRANCH  13  15
ENDBRANCH  11  12
ENDBRANCH   1  11
TORSDOF 9
ENDMDL
MODEL 8
REMARK VINA RESULT:    -5.307      2.507      5.379
REMARK INTER + INTRA:          -9.843
REMARK INTER:                  -8.080
REMARK INTRA:                  -1.764
REMARK UNBOUND:                -1.745
REMARK SMILES CC(=O)CCC=C(C)CCC=C(C)CCC=C(C)C
REMARK SMILES IDX 10 1 11 2 12 3 13 4 14 5 15 6 16 7 18 8 17 9 19 10 9 11 7 12
REMARK SMILES IDX 6 13 8 14 5 15 4 16 2 17 3 18 1 19
REMARK H PARENT
REMARK Flexibility Score: inf
ROOT
ATOM      1  C   UNL     1      99.285 118.030 123.011  1.00  0.00     0.032 C 
ENDROOT
BRANCH   1   2
ATOM      2  C   UNL     1     100.261 117.702 121.909  1.00  0.00    -0.028 C 
ATOM      3  C   UNL     1      99.927 117.096 120.747  1.00  0.00    -0.077 C 
ATOM      4  C   UNL     1      98.514 116.638 120.464  1.00  0.00     0.039 C 
BRANCH   3   5
ATOM      5  C   UNL     1     101.002 116.851 119.707  1.00  0.00     0.034 C 
BRANCH   5   6
ATOM      6  C   UNL     1     102.092 115.903 120.224  1.00  0.00     0.032 C 
BRANCH   6   7
ATOM      7  C   UNL     1     101.520 114.578 120.671  1.00  0.00    -0.028 C 
ATOM      8  C   UNL     1     102.250 114.870 123.049  1.00  0.00     0.039 C 
ATOM      9  C   UNL     1     101.618 114.086 121.926  1.00  0.00    -0.080 C 
ATOM     10  C   UNL     1     101.035 112.733 122.248  1.00  0.00     0.039 C 
ENDBRANCH   6   7
ENDBRANCH   5   6
ENDBRANCH   3   5
ENDBRANCH   1   2
BRANCH   1  11
ATOM     11  C   UNL     1      99.969 118.839 124.120  1.00  0.00     0.034 C 
BRANCH  11  12
ATOM     12  C   UNL     1      99.969 118.070 125.423  1.00  0.00    -0.077 C 
ATOM     13  C   UNL     1     100.091 116.722 125.388  1.00  0.00    -0.028 C 
ATOM     14  C   UNL     1      99.841 118.826 126.725  1.00  0.00     0.039 C 
BRANCH  13  15
ATOM     15  C   UNL     1     100.065 115.831 126.604  1.00  0.00     0.035 C 
BRANCH  15  16
ATOM     16  C   UNL     1     101.347 114.997 126.693  1.00  0.00     0.079 C 
BRANCH  16  17
ATOM     17  C   UNL     1     101.028 113.526 126.676  1.00  0.00     0.130 C 
ATOM     18  O   UNL     1     101.842 112.728 127.115  1.00  0.00    -0.300 OA
ATOM     19  C   UNL     1      99.731 113.014 126.120  1.00  0.00     0.087 C 
ENDBRANCH  16  17
ENDBRANCH  15  16
ENDBRANCH  13  15
ENDBRANCH  11  12
ENDBRANCH   1  11
TORSDOF 9
ENDMDL
MODEL 9
REMARK VINA RESULT:    -5.300      1.949      2.675
REMARK INTER + INTRA:          -9.833
REMARK INTER:                  -8.203
REMARK INTRA:                  -1.630
REMARK UNBOUND:                -1.745
REMARK SMILES CC(=O)CCC=C(C)CCC=C(C)CCC=C(C)C
REMARK SMILES IDX 10 1 11 2 12 3 13 4 14 5 15 6 16 7 18 8 17 9 19 10 9 11 7 12
REMARK SMILES IDX 6 13 8 14 5 15 4 16 2 17 3 18 1 19
REMARK H PARENT
REMARK Flexibility Score: inf
ROOT
ATOM      1  C   UNL     1     100.532 114.195 126.845  1.00  0.00     0.032 C 
ENDROOT
BRANCH   1   2
ATOM      2  C   UNL     1     101.164 112.860 126.541  1.00  0.00    -0.028 C 
ATOM      3  C   UNL     1     102.271 112.693 125.781  1.00  0.00    -0.077 C 
ATOM      4  C   UNL     1     102.961 113.859 125.111  1.00  0.00     0.039 C 
BRANCH   3   5
ATOM      5  C   UNL     1     102.822 111.296 125.579  1.00  0.00     0.034 C 
BRANCH   5   6
ATOM      6  C   UNL     1     103.238 111.051 124.121  1.00  0.00     0.032 C 
BRANCH   6   7
ATOM      7  C   UNL     1     102.217 110.223 123.377  1.00  0.00    -0.028 C 
ATOM      8  C   UNL     1     101.091 112.215 122.358  1.00  0.00     0.039 C 
ATOM      9  C   UNL     1     101.226 110.734 122.614  1.00  0.00    -0.080 C 
ATOM     10  C   UNL     1     100.243 109.808 121.945  1.00  0.00     0.039 C 
ENDBRANCH   6   7
ENDBRANCH   5   6
ENDBRANCH   3   5
ENDBRANCH   1   2
BRANCH   1  11
ATOM     11  C   UNL     1      99.565 114.607 125.729  1.00  0.00     0.034 C 
BRANCH  11  12
ATOM     12  C   UNL     1      99.908 115.982 125.201  1.00  0.00    -0.077 C 
ATOM     13  C   UNL     1      99.774 116.227 123.876  1.00  0.00    -0.028 C 
ATOM     14  C   UNL     1     100.383 117.045 126.164  1.00  0.00     0.039 C 
BRANCH  13  15
ATOM     15  C   UNL     1     100.119 117.535 123.210  1.00  0.00     0.035 C 
BRANCH  15  16
ATOM     16  C   UNL     1      98.862 118.388 123.006  1.00  0.00     0.079 C 
BRANCH  16  17
ATOM     17  C   UNL     1      98.876 119.583 123.921  1.00  0.00     0.130 C 
ATOM     18  O   UNL     1      97.844 119.926 124.479  1.00  0.00    -0.300 OA
ATOM     19  C   UNL     1     100.130 120.372 124.158  1.00  0.00     0.087 C 
ENDBRANCH  16  17
ENDBRANCH  15  16
ENDBRANCH  13  15
ENDBRANCH  11  12
ENDBRANCH   1  11
TORSDOF 9
ENDMDL
