MODEL 1
REMARK VINA RESULT:    -4.533      0.000      0.000
REMARK INTER + INTRA:         -17.126
REMARK INTER:                 -11.952
REMARK INTRA:                  -5.174
REMARK UNBOUND:                -5.174
REMARK SMILES CCCCCCCCCCCCCCCCCCCCCCCCCCCCCC(=O)[O-]
REMARK SMILES IDX 16 1 17 2 18 3 19 4 20 5 21 6 22 7 23 8 24 9 25 10 26 11
REMARK SMILES IDX 27 12 28 13 29 14 30 15 31 16 32 17 15 18 14 19 13 20 12 21
REMARK SMILES IDX 11 22 10 23 9 24 8 25 7 26 6 27 5 28 4 29 3 30 2 31 1 32
REMARK H PARENT
REMARK Flexibility Score: inf
ROOT
ATOM      1  C   UNL     1      42.163 117.296  10.723  1.00  0.00     0.000 C 
ENDROOT
BRANCH   1   2
ATOM      2  C   UNL     1      40.737 117.521  11.257  1.00  0.00     0.000 C 
BRANCH   2   3
ATOM      3  C   UNL     1      40.579 117.092  12.723  1.00  0.00     0.000 C 
BRANCH   3   4
ATOM      4  C   UNL     1      41.690 116.129  13.177  1.00  0.00     0.000 C 
BRANCH   4   5
ATOM      5  C   UNL     1      41.163 115.013  14.091  1.00  0.00     0.000 C 
BRANCH   5   6
ATOM      6  C   UNL     1      41.071 115.448  15.566  1.00  0.00     0.000 C 
BRANCH   6   7
ATOM      7  C   UNL     1      40.432 114.360  16.457  1.00  0.00     0.000 C 
BRANCH   7   8
ATOM      8  C   UNL     1      40.191 113.021  15.736  1.00  0.00     0.000 C 
BRANCH   8   9
ATOM      9  C   UNL     1      38.710 112.605  15.705  1.00  0.00     0.000 C 
BRANCH   9  10
ATOM     10  C   UNL     1      37.822 113.577  16.511  1.00  0.00     0.000 C 
BRANCH  10  11
ATOM     11  C   UNL     1      36.846 114.353  15.609  1.00  0.00     0.000 C 
BRANCH  11  12
ATOM     12  C   UNL     1      37.087 115.881  15.676  1.00  0.00     0.000 C 
BRANCH  12  13
ATOM     13  C   UNL     1      37.046 116.578  14.305  1.00  0.00     0.006 C 
BRANCH  13  14
ATOM     14  C   UNL     1      37.387 118.079  14.352  1.00  0.00     0.053 C 
BRANCH  14  15
ATOM     15  C   UNL     1      36.492 118.901  13.473  1.00  0.00     0.041 C 
ATOM     16  O   UNL     1      36.617 120.153  13.436  1.00  0.00    -0.550 OA
ATOM     17  O   UNL     1      35.554 118.283  12.654  1.00  0.00    -0.550 OA
ENDBRANCH  14  15
ENDBRANCH  13  14
ENDBRANCH  12  13
ENDBRANCH  11  12
ENDBRANCH  10  11
ENDBRANCH   9  10
ENDBRANCH   8   9
ENDBRANCH   7   8
ENDBRANCH   6   7
ENDBRANCH   5   6
ENDBRANCH   4   5
ENDBRANCH   3   4
ENDBRANCH   2   3
ENDBRANCH   1   2
BRANCH   1  18
ATOM     18  C   UNL     1      42.258 117.534   9.201  1.00  0.00     0.000 C 
BRANCH  18  19
ATOM     19  C   UNL     1      43.021 116.430   8.444  1.00  0.00     0.000 C 
BRANCH  19  20
ATOM     20  C   UNL     1      44.407 116.151   9.036  1.00  0.00     0.000 C 
BRANCH  20  21
ATOM     21  C   UNL     1      44.890 114.742   8.677  1.00  0.00     0.000 C 
BRANCH  21  22
ATOM     22  C   UNL     1      45.029 113.876   9.939  1.00  0.00     0.000 C 
BRANCH  22  23
ATOM     23  C   UNL     1      43.785 113.927  10.844  1.00  0.00     0.000 C 
BRANCH  23  24
ATOM     24  C   UNL     1      43.915 113.182  12.186  1.00  0.00    -0.000 C 
BRANCH  24  25
ATOM     25  C   UNL     1      45.376 112.991  12.624  1.00  0.00    -0.000 C 
BRANCH  25  26
ATOM     26  C   UNL     1      45.540 112.918  14.154  1.00  0.00    -0.000 C 
BRANCH  26  27
ATOM     27  C   UNL     1      44.238 113.077  14.962  1.00  0.00    -0.000 C 
BRANCH  27  28
ATOM     28  C   UNL     1      44.370 114.077  16.118  1.00  0.00    -0.000 C 
BRANCH  28  29
ATOM     29  C   UNL     1      45.369 115.189  15.768  1.00  0.00    -0.000 C 
BRANCH  29  30
ATOM     30  C   UNL     1      44.700 116.385  15.073  1.00  0.00    -0.000 C 
BRANCH  30  31
ATOM     31  C   UNL     1      45.644 117.104  14.096  1.00  0.00    -0.003 C 
ATOM     32  C   UNL     1      45.299 116.772  12.648  1.00  0.00     0.004 C 
ENDBRANCH  30  31
ENDBRANCH  29  30
ENDBRANCH  28  29
ENDBRANCH  27  28
ENDBRANCH  26  27
ENDBRANCH  25  26
ENDBRANCH  24  25
ENDBRANCH  23  24
ENDBRANCH  22  23
ENDBRANCH  21  22
ENDBRANCH  20  21
ENDBRANCH  19  20
ENDBRANCH  18  19
ENDBRANCH   1  18
TORSDOF 28
ENDMDL
MODEL 2
REMARK VINA RESULT:    -4.442      1.949      3.435
REMARK INTER + INTRA:         -16.887
REMARK INTER:                 -12.236
REMARK INTRA:                  -4.651
REMARK UNBOUND:                -5.174
REMARK SMILES CCCCCCCCCCCCCCCCCCCCCCCCCCCCCC(=O)[O-]
REMARK SMILES IDX 16 1 17 2 18 3 19 4 20 5 21 6 22 7 23 8 24 9 25 10 26 11
REMARK SMILES IDX 27 12 28 13 29 14 30 15 31 16 32 17 15 18 14 19 13 20 12 21
REMARK SMILES IDX 11 22 10 23 9 24 8 25 7 26 6 27 5 28 4 29 3 30 2 31 1 32
REMARK H PARENT
REMARK Flexibility Score: inf
ROOT
ATOM      1  C   UNL     1      43.268 116.814   9.063  1.00  0.00     0.000 C 
ENDROOT
BRANCH   1   2
ATOM      2  C   UNL     1      42.738 117.146  10.469  1.00  0.00     0.000 C 
BRANCH   2   3
ATOM      3  C   UNL     1      41.423 117.939  10.434  1.00  0.00     0.000 C 
BRANCH   3   4
ATOM      4  C   UNL     1      40.467 117.542  11.573  1.00  0.00     0.000 C 
BRANCH   4   5
ATOM      5  C   UNL     1      41.089 116.514  12.530  1.00  0.00     0.000 C 
BRANCH   5   6
ATOM      6  C   UNL     1      41.084 116.988  13.995  1.00  0.00     0.000 C 
BRANCH   6   7
ATOM      7  C   UNL     1      40.134 118.184  14.219  1.00  0.00     0.000 C 
BRANCH   7   8
ATOM      8  C   UNL     1      39.004 117.907  15.227  1.00  0.00     0.000 C 
BRANCH   8   9
ATOM      9  C   UNL     1      38.359 116.522  15.050  1.00  0.00     0.000 C 
BRANCH   9  10
ATOM     10  C   UNL     1      36.928 116.621  14.477  1.00  0.00     0.000 C 
BRANCH  10  11
ATOM     11  C   UNL     1      36.924 117.064  13.003  1.00  0.00     0.000 C 
BRANCH  11  12
ATOM     12  C   UNL     1      35.968 118.257  12.761  1.00  0.00     0.000 C 
BRANCH  12  13
ATOM     13  C   UNL     1      35.707 119.109  14.016  1.00  0.00     0.006 C 
BRANCH  13  14
ATOM     14  C   UNL     1      36.610 120.351  14.132  1.00  0.00     0.053 C 
BRANCH  14  15
ATOM     15  C   UNL     1      36.578 120.961  15.501  1.00  0.00     0.041 C 
ATOM     16  O   UNL     1      36.190 120.283  16.488  1.00  0.00    -0.550 OA
ATOM     17  O   UNL     1      37.025 122.262  15.699  1.00  0.00    -0.550 OA
ENDBRANCH  14  15
ENDBRANCH  13  14
ENDBRANCH  12  13
ENDBRANCH  11  12
ENDBRANCH  10  11
ENDBRANCH   9  10
ENDBRANCH   8   9
ENDBRANCH   7   8
ENDBRANCH   6   7
ENDBRANCH   5   6
ENDBRANCH   4   5
ENDBRANCH   3   4
ENDBRANCH   2   3
ENDBRANCH   1   2
BRANCH   1  18
ATOM     18  C   UNL     1      43.305 115.293   8.801  1.00  0.00     0.000 C 
BRANCH  18  19
ATOM     19  C   UNL     1      44.723 114.692   8.822  1.00  0.00     0.000 C 
BRANCH  19  20
ATOM     20  C   UNL     1      45.054 113.992  10.146  1.00  0.00     0.000 C 
BRANCH  20  21
ATOM     21  C   UNL     1      43.793 113.771  10.988  1.00  0.00     0.000 C 
BRANCH  21  22
ATOM     22  C   UNL     1      44.031 114.193  12.446  1.00  0.00     0.000 C 
BRANCH  22  23
ATOM     23  C   UNL     1      45.230 115.145  12.609  1.00  0.00     0.000 C 
BRANCH  23  24
ATOM     24  C   UNL     1      44.903 116.514  13.234  1.00  0.00    -0.000 C 
BRANCH  24  25
ATOM     25  C   UNL     1      44.578 116.424  14.734  1.00  0.00    -0.000 C 
BRANCH  25  26
ATOM     26  C   UNL     1      45.826 116.187  15.606  1.00  0.00    -0.000 C 
BRANCH  26  27
ATOM     27  C   UNL     1      45.709 115.033  16.620  1.00  0.00    -0.000 C 
BRANCH  27  28
ATOM     28  C   UNL     1      44.671 113.980  16.210  1.00  0.00    -0.000 C 
BRANCH  28  29
ATOM     29  C   UNL     1      45.268 112.567  16.285  1.00  0.00    -0.000 C 
BRANCH  29  30
ATOM     30  C   UNL     1      45.204 111.827  14.940  1.00  0.00    -0.000 C 
BRANCH  30  31
ATOM     31  C   UNL     1      46.594 111.446  14.408  1.00  0.00    -0.003 C 
ATOM     32  C   UNL     1      46.659 111.569  12.889  1.00  0.00     0.004 C 
ENDBRANCH  30  31
ENDBRANCH  29  30
ENDBRANCH  28  29
ENDBRANCH  27  28
ENDBRANCH  26  27
ENDBRANCH  25  26
ENDBRANCH  24  25
ENDBRANCH  23  24
ENDBRANCH  22  23
ENDBRANCH  21  22
ENDBRANCH  20  21
ENDBRANCH  19  20
ENDBRANCH  18  19
ENDBRANCH   1  18
TORSDOF 28
ENDMDL
MODEL 3
REMARK VINA RESULT:    -4.393      1.275      2.060
REMARK INTER + INTRA:         -16.757
REMARK INTER:                 -12.290
REMARK INTRA:                  -4.467
REMARK UNBOUND:                -5.174
REMARK SMILES CCCCCCCCCCCCCCCCCCCCCCCCCCCCCC(=O)[O-]
REMARK SMILES IDX 16 1 17 2 18 3 19 4 20 5 21 6 22 7 23 8 24 9 25 10 26 11
REMARK SMILES IDX 27 12 28 13 29 14 30 15 31 16 32 17 15 18 14 19 13 20 12 21
REMARK SMILES IDX 11 22 10 23 9 24 8 25 7 26 6 27 5 28 4 29 3 30 2 31 1 32
REMARK H PARENT
REMARK Flexibility Score: inf
ROOT
ATOM      1  C   UNL     1      42.602 117.126   8.863  1.00  0.00     0.000 C 
ENDROOT
BRANCH   1   2
ATOM      2  C   UNL     1      42.578 117.355  10.385  1.00  0.00     0.000 C 
BRANCH   2   3
ATOM      3  C   UNL     1      41.192 117.771  10.900  1.00  0.00     0.000 C 
BRANCH   3   4
ATOM      4  C   UNL     1      40.820 117.070  12.218  1.00  0.00     0.000 C 
BRANCH   4   5
ATOM      5  C   UNL     1      41.878 116.046  12.657  1.00  0.00     0.000 C 
BRANCH   5   6
ATOM      6  C   UNL     1      42.008 115.946  14.188  1.00  0.00     0.000 C 
BRANCH   6   7
ATOM      7  C   UNL     1      40.753 116.476  14.917  1.00  0.00     0.000 C 
BRANCH   7   8
ATOM      8  C   UNL     1      40.434 115.739  16.231  1.00  0.00     0.000 C 
BRANCH   8   9
ATOM      9  C   UNL     1      39.385 114.626  16.063  1.00  0.00     0.000 C 
BRANCH   9  10
ATOM     10  C   UNL     1      38.010 115.039  16.632  1.00  0.00     0.000 C 
BRANCH  10  11
ATOM     11  C   UNL     1      36.959 115.234  15.525  1.00  0.00     0.000 C 
BRANCH  11  12
ATOM     12  C   UNL     1      36.688 116.732  15.243  1.00  0.00     0.000 C 
BRANCH  12  13
ATOM     13  C   UNL     1      37.200 117.209  13.872  1.00  0.00     0.006 C 
BRANCH  13  14
ATOM     14  C   UNL     1      37.868 118.596  13.898  1.00  0.00     0.053 C 
BRANCH  14  15
ATOM     15  C   UNL     1      36.886 119.713  13.708  1.00  0.00     0.041 C 
ATOM     16  O   UNL     1      37.252 120.909  13.849  1.00  0.00    -0.550 OA
ATOM     17  O   UNL     1      35.579 119.438  13.325  1.00  0.00    -0.550 OA
ENDBRANCH  14  15
ENDBRANCH  13  14
ENDBRANCH  12  13
ENDBRANCH  11  12
ENDBRANCH  10  11
ENDBRANCH   9  10
ENDBRANCH   8   9
ENDBRANCH   7   8
ENDBRANCH   6   7
ENDBRANCH   5   6
ENDBRANCH   4   5
ENDBRANCH   3   4
ENDBRANCH   2   3
ENDBRANCH   1   2
BRANCH   1  18
ATOM     18  C   UNL     1      43.419 115.874   8.477  1.00  0.00     0.000 C 
BRANCH  18  19
ATOM     19  C   UNL     1      44.767 115.759   9.211  1.00  0.00     0.000 C 
BRANCH  19  20
ATOM     20  C   UNL     1      45.107 114.318   9.613  1.00  0.00     0.000 C 
BRANCH  20  21
ATOM     21  C   UNL     1      44.157 113.807  10.701  1.00  0.00     0.000 C 
BRANCH  21  22
ATOM     22  C   UNL     1      44.928 113.010  11.765  1.00  0.00     0.000 C 
BRANCH  22  23
ATOM     23  C   UNL     1      44.396 113.241  13.192  1.00  0.00     0.000 C 
BRANCH  23  24
ATOM     24  C   UNL     1      45.224 112.593  14.317  1.00  0.00    -0.000 C 
BRANCH  24  25
ATOM     25  C   UNL     1      46.465 111.851  13.794  1.00  0.00    -0.000 C 
BRANCH  25  26
ATOM     26  C   UNL     1      47.783 112.580  14.124  1.00  0.00    -0.000 C 
BRANCH  26  27
ATOM     27  C   UNL     1      47.668 113.701  15.173  1.00  0.00    -0.000 C 
BRANCH  27  28
ATOM     28  C   UNL     1      48.523 114.929  14.831  1.00  0.00    -0.000 C 
BRANCH  28  29
ATOM     29  C   UNL     1      47.769 116.227  15.155  1.00  0.00    -0.000 C 
BRANCH  29  30
ATOM     30  C   UNL     1      46.248 116.083  14.986  1.00  0.00    -0.000 C 
BRANCH  30  31
ATOM     31  C   UNL     1      45.643 117.190  14.109  1.00  0.00    -0.003 C 
ATOM     32  C   UNL     1      45.533 116.745  12.655  1.00  0.00     0.004 C 
ENDBRANCH  30  31
ENDBRANCH  29  30
ENDBRANCH  28  29
ENDBRANCH  27  28
ENDBRANCH  26  27
ENDBRANCH  25  26
ENDBRANCH  24  25
ENDBRANCH  23  24
ENDBRANCH  22  23
ENDBRANCH  21  22
ENDBRANCH  20  21
ENDBRANCH  19  20
ENDBRANCH  18  19
ENDBRANCH   1  18
TORSDOF 28
ENDMDL
MODEL 4
REMARK VINA RESULT:    -4.386      1.030      3.475
REMARK INTER + INTRA:         -16.739
REMARK INTER:                 -12.039
REMARK INTRA:                  -4.700
REMARK UNBOUND:                -5.174
REMARK SMILES CCCCCCCCCCCCCCCCCCCCCCCCCCCCCC(=O)[O-]
REMARK SMILES IDX 16 1 17 2 18 3 19 4 20 5 21 6 22 7 23 8 24 9 25 10 26 11
REMARK SMILES IDX 27 12 28 13 29 14 30 15 31 16 32 17 15 18 14 19 13 20 12 21
REMARK SMILES IDX 11 22 10 23 9 24 8 25 7 26 6 27 5 28 4 29 3 30 2 31 1 32
REMARK H PARENT
REMARK Flexibility Score: inf
ROOT
ATOM      1  C   UNL     1      44.077 113.686  11.244  1.00  0.00     0.000 C 
ENDROOT
BRANCH   1   2
ATOM      2  C   UNL     1      44.580 112.604  12.216  1.00  0.00     0.000 C 
BRANCH   2   3
ATOM      3  C   UNL     1      45.753 113.086  13.084  1.00  0.00     0.000 C 
BRANCH   3   4
ATOM      4  C   UNL     1      45.439 113.014  14.589  1.00  0.00     0.000 C 
BRANCH   4   5
ATOM      5  C   UNL     1      43.930 112.967  14.872  1.00  0.00     0.000 C 
BRANCH   5   6
ATOM      6  C   UNL     1      43.602 112.316  16.229  1.00  0.00     0.000 C 
BRANCH   6   7
ATOM      7  C   UNL     1      42.088 112.334  16.534  1.00  0.00     0.000 C 
BRANCH   7   8
ATOM      8  C   UNL     1      41.275 113.270  15.621  1.00  0.00     0.000 C 
BRANCH   8   9
ATOM      9  C   UNL     1      39.756 113.168  15.844  1.00  0.00     0.000 C 
BRANCH   9  10
ATOM     10  C   UNL     1      39.176 114.459  16.460  1.00  0.00     0.000 C 
BRANCH  10  11
ATOM     11  C   UNL     1      37.825 114.845  15.833  1.00  0.00     0.000 C 
BRANCH  11  12
ATOM     12  C   UNL     1      37.683 116.377  15.662  1.00  0.00     0.000 C 
BRANCH  12  13
ATOM     13  C   UNL     1      36.980 116.795  14.358  1.00  0.00     0.006 C 
BRANCH  13  14
ATOM     14  C   UNL     1      37.449 118.151  13.798  1.00  0.00     0.053 C 
BRANCH  14  15
ATOM     15  C   UNL     1      36.453 119.247  14.034  1.00  0.00     0.041 C 
ATOM     16  O   UNL     1      35.325 118.984  14.526  1.00  0.00    -0.550 OA
ATOM     17  O   UNL     1      36.787 120.568  13.758  1.00  0.00    -0.550 OA
ENDBRANCH  14  15
ENDBRANCH  13  14
ENDBRANCH  12  13
ENDBRANCH  11  12
ENDBRANCH  10  11
ENDBRANCH   9  10
ENDBRANCH   8   9
ENDBRANCH   7   8
ENDBRANCH   6   7
ENDBRANCH   5   6
ENDBRANCH   4   5
ENDBRANCH   3   4
ENDBRANCH   2   3
ENDBRANCH   1   2
BRANCH   1  18
ATOM     18  C   UNL     1      45.084 113.959  10.107  1.00  0.00     0.000 C 
BRANCH  18  19
ATOM     19  C   UNL     1      44.428 114.406   8.787  1.00  0.00     0.000 C 
BRANCH  19  20
ATOM     20  C   UNL     1      44.498 115.922   8.569  1.00  0.00     0.000 C 
BRANCH  20  21
ATOM     21  C   UNL     1      43.110 116.562   8.670  1.00  0.00     0.000 C 
BRANCH  21  22
ATOM     22  C   UNL     1      42.815 116.998  10.113  1.00  0.00     0.000 C 
BRANCH  22  23
ATOM     23  C   UNL     1      41.513 117.810  10.242  1.00  0.00     0.000 C 
BRANCH  23  24
ATOM     24  C   UNL     1      40.669 117.508  11.495  1.00  0.00    -0.000 C 
BRANCH  24  25
ATOM     25  C   UNL     1      41.426 116.669  12.537  1.00  0.00    -0.000 C 
BRANCH  25  26
ATOM     26  C   UNL     1      40.825 116.783  13.952  1.00  0.00    -0.000 C 
BRANCH  26  27
ATOM     27  C   UNL     1      41.852 116.907  15.093  1.00  0.00    -0.000 C 
BRANCH  27  28
ATOM     28  C   UNL     1      43.202 116.260  14.755  1.00  0.00    -0.000 C 
BRANCH  28  29
ATOM     29  C   UNL     1      44.365 117.126  15.262  1.00  0.00    -0.000 C 
BRANCH  29  30
ATOM     30  C   UNL     1      45.530 117.192  14.262  1.00  0.00    -0.000 C 
BRANCH  30  31
ATOM     31  C   UNL     1      45.139 116.685  12.865  1.00  0.00    -0.003 C 
ATOM     32  C   UNL     1      46.018 117.305  11.784  1.00  0.00     0.004 C 
ENDBRANCH  30  31
ENDBRANCH  29  30
ENDBRANCH  28  29
ENDBRANCH  27  28
ENDBRANCH  26  27
ENDBRANCH  25  26
ENDBRANCH  24  25
ENDBRANCH  23  24
ENDBRANCH  22  23
ENDBRANCH  21  22
ENDBRANCH  20  21
ENDBRANCH  19  20
ENDBRANCH  18  19
ENDBRANCH   1  18
TORSDOF 28
ENDMDL
MODEL 5
REMARK VINA RESULT:    -4.294      3.372      7.299
REMARK INTER + INTRA:         -16.496
REMARK INTER:                 -12.163
REMARK INTRA:                  -4.334
REMARK UNBOUND:                -5.174
REMARK SMILES CCCCCCCCCCCCCCCCCCCCCCCCCCCCCC(=O)[O-]
REMARK SMILES IDX 16 1 17 2 18 3 19 4 20 5 21 6 22 7 23 8 24 9 25 10 26 11
REMARK SMILES IDX 27 12 28 13 29 14 30 15 31 16 32 17 15 18 14 19 13 20 12 21
REMARK SMILES IDX 11 22 10 23 9 24 8 25 7 26 6 27 5 28 4 29 3 30 2 31 1 32
REMARK H PARENT
REMARK Flexibility Score: inf
ROOT
ATOM      1  C   UNL     1      45.264 114.334  10.424  1.00  0.00     0.000 C 
ENDROOT
BRANCH   1   2
ATOM      2  C   UNL     1      43.972 113.710  10.982  1.00  0.00     0.000 C 
BRANCH   2   3
ATOM      3  C   UNL     1      44.242 112.689  12.098  1.00  0.00     0.000 C 
BRANCH   3   4
ATOM      4  C   UNL     1      45.496 111.839  11.827  1.00  0.00     0.000 C 
BRANCH   4   5
ATOM      5  C   UNL     1      46.336 111.612  13.093  1.00  0.00     0.000 C 
BRANCH   5   6
ATOM      6  C   UNL     1      46.708 112.928  13.802  1.00  0.00     0.000 C 
BRANCH   6   7
ATOM      7  C   UNL     1      46.280 112.932  15.286  1.00  0.00     0.000 C 
BRANCH   7   8
ATOM      8  C   UNL     1      44.947 112.211  15.556  1.00  0.00     0.000 C 
BRANCH   8   9
ATOM      9  C   UNL     1      43.841 113.150  16.068  1.00  0.00     0.000 C 
BRANCH   9  10
ATOM     10  C   UNL     1      43.306 114.073  14.951  1.00  0.00     0.000 C 
BRANCH  10  11
ATOM     11  C   UNL     1      43.801 115.522  15.109  1.00  0.00     0.000 C 
BRANCH  11  12
ATOM     12  C   UNL     1      44.347 116.093  13.778  1.00  0.00     0.000 C 
BRANCH  12  13
ATOM     13  C   UNL     1      45.487 117.111  13.959  1.00  0.00     0.006 C 
BRANCH  13  14
ATOM     14  C   UNL     1      46.888 116.477  14.048  1.00  0.00     0.053 C 
BRANCH  14  15
ATOM     15  C   UNL     1      47.508 116.636  15.404  1.00  0.00     0.041 C 
ATOM     16  O   UNL     1      48.537 115.979  15.712  1.00  0.00    -0.550 OA
ATOM     17  O   UNL     1      46.983 117.548  16.312  1.00  0.00    -0.550 OA
ENDBRANCH  14  15
ENDBRANCH  13  14
ENDBRANCH  12  13
ENDBRANCH  11  12
ENDBRANCH  10  11
ENDBRANCH   9  10
ENDBRANCH   8   9
ENDBRANCH   7   8
ENDBRANCH   6   7
ENDBRANCH   5   6
ENDBRANCH   4   5
ENDBRANCH   3   4
ENDBRANCH   2   3
ENDBRANCH   1   2
BRANCH   1  18
ATOM     18  C   UNL     1      45.085 115.829  10.083  1.00  0.00     0.000 C 
BRANCH  18  19
ATOM     19  C   UNL     1      44.394 116.081   8.730  1.00  0.00     0.000 C 
BRANCH  19  20
ATOM     20  C   UNL     1      43.055 116.815   8.872  1.00  0.00     0.000 C 
BRANCH  20  21
ATOM     21  C   UNL     1      42.686 117.018  10.345  1.00  0.00     0.000 C 
BRANCH  21  22
ATOM     22  C   UNL     1      41.486 117.967  10.481  1.00  0.00     0.000 C 
BRANCH  22  23
ATOM     23  C   UNL     1      40.468 117.502  11.538  1.00  0.00     0.000 C 
BRANCH  23  24
ATOM     24  C   UNL     1      41.048 116.651  12.682  1.00  0.00    -0.000 C 
BRANCH  24  25
ATOM     25  C   UNL     1      40.709 117.209  14.074  1.00  0.00    -0.000 C 
BRANCH  25  26
ATOM     26  C   UNL     1      39.256 117.711  14.182  1.00  0.00    -0.000 C 
BRANCH  26  27
ATOM     27  C   UNL     1      38.249 116.692  14.746  1.00  0.00    -0.000 C 
BRANCH  27  28
ATOM     28  C   UNL     1      37.301 117.302  15.787  1.00  0.00    -0.000 C 
BRANCH  28  29
ATOM     29  C   UNL     1      37.286 118.834  15.682  1.00  0.00    -0.000 C 
BRANCH  29  30
ATOM     30  C   UNL     1      36.017 119.365  14.995  1.00  0.00    -0.000 C 
BRANCH  30  31
ATOM     31  C   UNL     1      36.236 119.670  13.505  1.00  0.00    -0.003 C 
ATOM     32  C   UNL     1      35.206 118.956  12.637  1.00  0.00     0.004 C 
ENDBRANCH  30  31
ENDBRANCH  29  30
ENDBRANCH  28  29
ENDBRANCH  27  28
ENDBRANCH  26  27
ENDBRANCH  25  26
ENDBRANCH  24  25
ENDBRANCH  23  24
ENDBRANCH  22  23
ENDBRANCH  21  22
ENDBRANCH  20  21
ENDBRANCH  19  20
ENDBRANCH  18  19
ENDBRANCH   1  18
TORSDOF 28
ENDMDL
MODEL 6
REMARK VINA RESULT:    -4.285      1.637      3.856
REMARK INTER + INTRA:         -16.474
REMARK INTER:                 -12.413
REMARK INTRA:                  -4.060
REMARK UNBOUND:                -5.174
REMARK SMILES CCCCCCCCCCCCCCCCCCCCCCCCCCCCCC(=O)[O-]
REMARK SMILES IDX 16 1 17 2 18 3 19 4 20 5 21 6 22 7 23 8 24 9 25 10 26 11
REMARK SMILES IDX 27 12 28 13 29 14 30 15 31 16 32 17 15 18 14 19 13 20 12 21
REMARK SMILES IDX 11 22 10 23 9 24 8 25 7 26 6 27 5 28 4 29 3 30 2 31 1 32
REMARK H PARENT
REMARK Flexibility Score: inf
ROOT
ATOM      1  C   UNL     1      44.245 115.626   8.698  1.00  0.00     0.000 C 
ENDROOT
BRANCH   1   2
ATOM      2  C   UNL     1      43.485 116.413   9.780  1.00  0.00     0.000 C 
BRANCH   2   3
ATOM      3  C   UNL     1      42.472 117.404   9.190  1.00  0.00     0.000 C 
BRANCH   3   4
ATOM      4  C   UNL     1      41.500 117.953  10.250  1.00  0.00     0.000 C 
BRANCH   4   5
ATOM      5  C   UNL     1      41.453 117.078  11.512  1.00  0.00     0.000 C 
BRANCH   5   6
ATOM      6  C   UNL     1      40.092 117.144  12.228  1.00  0.00     0.000 C 
BRANCH   6   7
ATOM      7  C   UNL     1      40.011 118.324  13.221  1.00  0.00     0.000 C 
BRANCH   7   8
ATOM      8  C   UNL     1      40.112 117.907  14.700  1.00  0.00     0.000 C 
BRANCH   8   9
ATOM      9  C   UNL     1      40.020 116.386  14.910  1.00  0.00     0.000 C 
BRANCH   9  10
ATOM     10  C   UNL     1      39.033 116.018  16.039  1.00  0.00     0.000 C 
BRANCH  10  11
ATOM     11  C   UNL     1      37.588 115.882  15.525  1.00  0.00     0.000 C 
BRANCH  11  12
ATOM     12  C   UNL     1      36.650 116.943  16.149  1.00  0.00     0.000 C 
BRANCH  12  13
ATOM     13  C   UNL     1      36.730 118.321  15.468  1.00  0.00     0.006 C 
BRANCH  13  14
ATOM     14  C   UNL     1      35.503 118.667  14.604  1.00  0.00     0.053 C 
BRANCH  14  15
ATOM     15  C   UNL     1      35.780 118.549  13.135  1.00  0.00     0.041 C 
ATOM     16  O   UNL     1      35.354 119.425  12.337  1.00  0.00    -0.550 OA
ATOM     17  O   UNL     1      36.551 117.500  12.650  1.00  0.00    -0.550 OA
ENDBRANCH  14  15
ENDBRANCH  13  14
ENDBRANCH  12  13
ENDBRANCH  11  12
ENDBRANCH  10  11
ENDBRANCH   9  10
ENDBRANCH   8   9
ENDBRANCH   7   8
ENDBRANCH   6   7
ENDBRANCH   5   6
ENDBRANCH   4   5
ENDBRANCH   3   4
ENDBRANCH   2   3
ENDBRANCH   1   2
BRANCH   1  18
ATOM     18  C   UNL     1      44.719 114.247   9.207  1.00  0.00     0.000 C 
BRANCH  18  19
ATOM     19  C   UNL     1      44.018 113.786  10.498  1.00  0.00     0.000 C 
BRANCH  19  20
ATOM     20  C   UNL     1      44.971 113.093  11.480  1.00  0.00     0.000 C 
BRANCH  20  21
ATOM     21  C   UNL     1      44.473 113.223  12.923  1.00  0.00     0.000 C 
BRANCH  21  22
ATOM     22  C   UNL     1      43.314 114.228  13.010  1.00  0.00     0.000 C 
BRANCH  22  23
ATOM     23  C   UNL     1      43.672 115.489  13.817  1.00  0.00     0.000 C 
BRANCH  23  24
ATOM     24  C   UNL     1      44.743 116.396  13.182  1.00  0.00    -0.000 C 
BRANCH  24  25
ATOM     25  C   UNL     1      45.656 117.062  14.224  1.00  0.00    -0.000 C 
BRANCH  25  26
ATOM     26  C   UNL     1      47.076 116.463  14.248  1.00  0.00    -0.000 C 
BRANCH  26  27
ATOM     27  C   UNL     1      47.271 115.275  15.209  1.00  0.00    -0.000 C 
BRANCH  27  28
ATOM     28  C   UNL     1      48.124 114.151  14.605  1.00  0.00    -0.000 C 
BRANCH  28  29
ATOM     29  C   UNL     1      47.453 112.786  14.809  1.00  0.00    -0.000 C 
BRANCH  29  30
ATOM     30  C   UNL     1      47.865 111.761  13.741  1.00  0.00    -0.000 C 
BRANCH  30  31
ATOM     31  C   UNL     1      47.402 110.335  14.079  1.00  0.00    -0.003 C 
ATOM     32  C   UNL     1      46.063 110.346  14.808  1.00  0.00     0.004 C 
ENDBRANCH  30  31
ENDBRANCH  29  30
ENDBRANCH  28  29
ENDBRANCH  27  28
ENDBRANCH  26  27
ENDBRANCH  25  26
ENDBRANCH  24  25
ENDBRANCH  23  24
ENDBRANCH  22  23
ENDBRANCH  21  22
ENDBRANCH  20  21
ENDBRANCH  19  20
ENDBRANCH  18  19
ENDBRANCH   1  18
TORSDOF 28
ENDMDL
MODEL 7
REMARK VINA RESULT:    -4.277      1.035      2.200
REMARK INTER + INTRA:         -16.451
REMARK INTER:                 -11.983
REMARK INTRA:                  -4.468
REMARK UNBOUND:                -5.174
REMARK SMILES CCCCCCCCCCCCCCCCCCCCCCCCCCCCCC(=O)[O-]
REMARK SMILES IDX 16 1 17 2 18 3 19 4 20 5 21 6 22 7 23 8 24 9 25 10 26 11
REMARK SMILES IDX 27 12 28 13 29 14 30 15 31 16 32 17 15 18 14 19 13 20 12 21
REMARK SMILES IDX 11 22 10 23 9 24 8 25 7 26 6 27 5 28 4 29 3 30 2 31 1 32
REMARK H PARENT
REMARK Flexibility Score: inf
ROOT
ATOM      1  C   UNL     1      41.043 117.902  10.749  1.00  0.00     0.000 C 
ENDROOT
BRANCH   1   2
ATOM      2  C   UNL     1      40.440 117.204  11.981  1.00  0.00     0.000 C 
BRANCH   2   3
ATOM      3  C   UNL     1      41.475 116.373  12.756  1.00  0.00     0.000 C 
BRANCH   3   4
ATOM      4  C   UNL     1      41.019 116.058  14.192  1.00  0.00     0.000 C 
BRANCH   4   5
ATOM      5  C   UNL     1      41.474 114.667  14.660  1.00  0.00     0.000 C 
BRANCH   5   6
ATOM      6  C   UNL     1      40.737 114.197  15.927  1.00  0.00     0.000 C 
BRANCH   6   7
ATOM      7  C   UNL     1      39.976 112.872  15.703  1.00  0.00     0.000 C 
BRANCH   7   8
ATOM      8  C   UNL     1      38.671 112.753  16.513  1.00  0.00     0.000 C 
BRANCH   8   9
ATOM      9  C   UNL     1      37.418 112.623  15.629  1.00  0.00     0.000 C 
BRANCH   9  10
ATOM     10  C   UNL     1      36.559 113.905  15.654  1.00  0.00     0.000 C 
BRANCH  10  11
ATOM     11  C   UNL     1      37.108 114.952  16.640  1.00  0.00     0.000 C 
BRANCH  11  12
ATOM     12  C   UNL     1      37.281 116.338  15.975  1.00  0.00     0.000 C 
BRANCH  12  13
ATOM     13  C   UNL     1      37.031 116.335  14.456  1.00  0.00     0.006 C 
BRANCH  13  14
ATOM     14  C   UNL     1      37.189 117.715  13.791  1.00  0.00     0.053 C 
BRANCH  14  15
ATOM     15  C   UNL     1      35.891 118.461  13.696  1.00  0.00     0.041 C 
ATOM     16  O   UNL     1      35.466 119.121  14.681  1.00  0.00    -0.550 OA
ATOM     17  O   UNL     1      35.173 118.471  12.506  1.00  0.00    -0.550 OA
ENDBRANCH  14  15
ENDBRANCH  13  14
ENDBRANCH  12  13
ENDBRANCH  11  12
ENDBRANCH  10  11
ENDBRANCH   9  10
ENDBRANCH   8   9
ENDBRANCH   7   8
ENDBRANCH   6   7
ENDBRANCH   5   6
ENDBRANCH   4   5
ENDBRANCH   3   4
ENDBRANCH   2   3
ENDBRANCH   1   2
BRANCH   1  18
ATOM     18  C   UNL     1      42.429 117.332  10.378  1.00  0.00     0.000 C 
BRANCH  18  19
ATOM     19  C   UNL     1      42.628 117.115   8.866  1.00  0.00     0.000 C 
BRANCH  19  20
ATOM     20  C   UNL     1      43.905 116.331   8.539  1.00  0.00     0.000 C 
BRANCH  20  21
ATOM     21  C   UNL     1      43.752 114.848   8.891  1.00  0.00     0.000 C 
BRANCH  21  22
ATOM     22  C   UNL     1      45.009 114.324   9.602  1.00  0.00     0.000 C 
BRANCH  22  23
ATOM     23  C   UNL     1      44.698 113.625  10.938  1.00  0.00     0.000 C 
BRANCH  23  24
ATOM     24  C   UNL     1      44.285 114.559  12.090  1.00  0.00    -0.000 C 
BRANCH  24  25
ATOM     25  C   UNL     1      45.215 115.774  12.238  1.00  0.00    -0.000 C 
BRANCH  25  26
ATOM     26  C   UNL     1      44.996 116.542  13.556  1.00  0.00    -0.000 C 
BRANCH  26  27
ATOM     27  C   UNL     1      46.138 116.424  14.582  1.00  0.00    -0.000 C 
BRANCH  27  28
ATOM     28  C   UNL     1      47.113 115.282  14.263  1.00  0.00    -0.000 C 
BRANCH  28  29
ATOM     29  C   UNL     1      46.785 114.035  15.097  1.00  0.00    -0.000 C 
BRANCH  29  30
ATOM     30  C   UNL     1      46.884 112.737  14.280  1.00  0.00    -0.000 C 
BRANCH  30  31
ATOM     31  C   UNL     1      45.553 111.971  14.224  1.00  0.00    -0.003 C 
ATOM     32  C   UNL     1      44.531 112.564  15.188  1.00  0.00     0.004 C 
ENDBRANCH  30  31
ENDBRANCH  29  30
ENDBRANCH  28  29
ENDBRANCH  27  28
ENDBRANCH  26  27
ENDBRANCH  25  26
ENDBRANCH  24  25
ENDBRANCH  23  24
ENDBRANCH  22  23
ENDBRANCH  21  22
ENDBRANCH  20  21
ENDBRANCH  19  20
ENDBRANCH  18  19
ENDBRANCH   1  18
TORSDOF 28
ENDMDL
MODEL 8
REMARK VINA RESULT:    -4.256      2.259      4.868
REMARK INTER + INTRA:         -16.396
REMARK INTER:                 -11.627
REMARK INTRA:                  -4.769
REMARK UNBOUND:                -5.174
REMARK SMILES CCCCCCCCCCCCCCCCCCCCCCCCCCCCCC(=O)[O-]
REMARK SMILES IDX 16 1 17 2 18 3 19 4 20 5 21 6 22 7 23 8 24 9 25 10 26 11
REMARK SMILES IDX 27 12 28 13 29 14 30 15 31 16 32 17 15 18 14 19 13 20 12 21
REMARK SMILES IDX 11 22 10 23 9 24 8 25 7 26 6 27 5 28 4 29 3 30 2 31 1 32
REMARK H PARENT
REMARK Flexibility Score: inf
ROOT
ATOM      1  C   UNL     1      39.822 118.998  12.627  1.00  0.00     0.000 C 
ENDROOT
BRANCH   1   2
ATOM      2  C   UNL     1      38.797 118.975  13.775  1.00  0.00     0.000 C 
BRANCH   2   3
ATOM      3  C   UNL     1      37.746 120.088  13.653  1.00  0.00     0.000 C 
BRANCH   3   4
ATOM      4  C   UNL     1      36.425 119.585  13.045  1.00  0.00     0.000 C 
BRANCH   4   5
ATOM      5  C   UNL     1      35.662 118.647  13.993  1.00  0.00     0.000 C 
BRANCH   5   6
ATOM      6  C   UNL     1      35.523 119.224  15.414  1.00  0.00     0.000 C 
BRANCH   6   7
ATOM      7  C   UNL     1      35.585 118.127  16.499  1.00  0.00     0.000 C 
BRANCH   7   8
ATOM      8  C   UNL     1      36.947 117.414  16.593  1.00  0.00     0.000 C 
BRANCH   8   9
ATOM      9  C   UNL     1      36.962 116.039  15.902  1.00  0.00     0.000 C 
BRANCH   9  10
ATOM     10  C   UNL     1      38.399 115.552  15.621  1.00  0.00     0.000 C 
BRANCH  10  11
ATOM     11  C   UNL     1      38.872 114.512  16.653  1.00  0.00     0.000 C 
BRANCH  11  12
ATOM     12  C   UNL     1      39.289 113.181  15.983  1.00  0.00     0.000 C 
BRANCH  12  13
ATOM     13  C   UNL     1      38.102 112.284  15.589  1.00  0.00     0.006 C 
BRANCH  13  14
ATOM     14  C   UNL     1      36.953 112.276  16.615  1.00  0.00     0.053 C 
BRANCH  14  15
ATOM     15  C   UNL     1      35.615 112.516  15.984  1.00  0.00     0.041 C 
ATOM     16  O   UNL     1      35.424 112.227  14.774  1.00  0.00    -0.550 OA
ATOM     17  O   UNL     1      34.561 113.011  16.743  1.00  0.00    -0.550 OA
ENDBRANCH  14  15
ENDBRANCH  13  14
ENDBRANCH  12  13
ENDBRANCH  11  12
ENDBRANCH  10  11
ENDBRANCH   9  10
ENDBRANCH   8   9
ENDBRANCH   7   8
ENDBRANCH   6   7
ENDBRANCH   5   6
ENDBRANCH   4   5
ENDBRANCH   3   4
ENDBRANCH   2   3
ENDBRANCH   1   2
BRANCH   1  18
ATOM     18  C   UNL     1      39.940 117.628  11.926  1.00  0.00     0.000 C 
BRANCH  18  19
ATOM     19  C   UNL     1      41.352 117.017  11.986  1.00  0.00     0.000 C 
BRANCH  19  20
ATOM     20  C   UNL     1      41.466 115.875  13.004  1.00  0.00     0.000 C 
BRANCH  20  21
ATOM     21  C   UNL     1      41.799 116.408  14.401  1.00  0.00     0.000 C 
BRANCH  21  22
ATOM     22  C   UNL     1      42.317 115.279  15.305  1.00  0.00     0.000 C 
BRANCH  22  23
ATOM     23  C   UNL     1      42.787 114.043  14.516  1.00  0.00     0.000 C 
BRANCH  23  24
ATOM     24  C   UNL     1      43.781 113.128  15.256  1.00  0.00    -0.000 C 
BRANCH  24  25
ATOM     25  C   UNL     1      45.227 113.294  14.763  1.00  0.00    -0.000 C 
BRANCH  25  26
ATOM     26  C   UNL     1      45.784 114.711  15.001  1.00  0.00    -0.000 C 
BRANCH  26  27
ATOM     27  C   UNL     1      46.286 115.439  13.740  1.00  0.00    -0.000 C 
BRANCH  27  28
ATOM     28  C   UNL     1      45.428 116.657  13.371  1.00  0.00    -0.000 C 
BRANCH  28  29
ATOM     29  C   UNL     1      44.958 116.573  11.911  1.00  0.00    -0.000 C 
BRANCH  29  30
ATOM     30  C   UNL     1      44.809 115.123  11.423  1.00  0.00    -0.000 C 
BRANCH  30  31
ATOM     31  C   UNL     1      43.969 115.015  10.141  1.00  0.00    -0.003 C 
ATOM     32  C   UNL     1      43.906 116.349   9.406  1.00  0.00     0.004 C 
ENDBRANCH  30  31
ENDBRANCH  29  30
ENDBRANCH  28  29
ENDBRANCH  27  28
ENDBRANCH  26  27
ENDBRANCH  25  26
ENDBRANCH  24  25
ENDBRANCH  23  24
ENDBRANCH  22  23
ENDBRANCH  21  22
ENDBRANCH  20  21
ENDBRANCH  19  20
ENDBRANCH  18  19
ENDBRANCH   1  18
TORSDOF 28
ENDMDL
MODEL 9
REMARK VINA RESULT:    -4.199      1.209      2.303
REMARK INTER + INTRA:         -16.247
REMARK INTER:                 -11.225
REMARK INTRA:                  -5.022
REMARK UNBOUND:                -5.174
REMARK SMILES CCCCCCCCCCCCCCCCCCCCCCCCCCCCCC(=O)[O-]
REMARK SMILES IDX 16 1 17 2 18 3 19 4 20 5 21 6 22 7 23 8 24 9 25 10 26 11
REMARK SMILES IDX 27 12 28 13 29 14 30 15 31 16 32 17 15 18 14 19 13 20 12 21
REMARK SMILES IDX 11 22 10 23 9 24 8 25 7 26 6 27 5 28 4 29 3 30 2 31 1 32
REMARK H PARENT
REMARK Flexibility Score: inf
ROOT
ATOM      1  C   UNL     1      42.289 117.062  10.717  1.00  0.00     0.000 C 
ENDROOT
BRANCH   1   2
ATOM      2  C   UNL     1      41.050 117.919  11.031  1.00  0.00     0.000 C 
BRANCH   2   3
ATOM      3  C   UNL     1      40.009 117.168  11.875  1.00  0.00     0.000 C 
BRANCH   3   4
ATOM      4  C   UNL     1      40.235 117.351  13.386  1.00  0.00     0.000 C 
BRANCH   4   5
ATOM      5  C   UNL     1      40.846 116.104  14.043  1.00  0.00     0.000 C 
BRANCH   5   6
ATOM      6  C   UNL     1      41.233 116.339  15.515  1.00  0.00     0.000 C 
BRANCH   6   7
ATOM      7  C   UNL     1      41.340 115.018  16.308  1.00  0.00     0.000 C 
BRANCH   7   8
ATOM      8  C   UNL     1      41.055 113.758  15.470  1.00  0.00     0.000 C 
BRANCH   8   9
ATOM      9  C   UNL     1      40.017 112.823  16.115  1.00  0.00     0.000 C 
BRANCH   9  10
ATOM     10  C   UNL     1      38.826 113.606  16.708  1.00  0.00     0.000 C 
BRANCH  10  11
ATOM     11  C   UNL     1      37.478 113.140  16.128  1.00  0.00     0.000 C 
BRANCH  11  12
ATOM     12  C   UNL     1      36.629 114.328  15.614  1.00  0.00     0.000 C 
BRANCH  12  13
ATOM     13  C   UNL     1      37.430 115.626  15.416  1.00  0.00     0.006 C 
BRANCH  13  14
ATOM     14  C   UNL     1      36.627 116.910  15.698  1.00  0.00     0.053 C 
BRANCH  14  15
ATOM     15  C   UNL     1      36.332 117.690  14.452  1.00  0.00     0.041 C 
ATOM     16  O   UNL     1      35.855 118.853  14.530  1.00  0.00    -0.550 OA
ATOM     17  O   UNL     1      36.631 117.157  13.204  1.00  0.00    -0.550 OA
ENDBRANCH  14  15
ENDBRANCH  13  14
ENDBRANCH  12  13
ENDBRANCH  11  12
ENDBRANCH  10  11
ENDBRANCH   9  10
ENDBRANCH   8   9
ENDBRANCH   7   8
ENDBRANCH   6   7
ENDBRANCH   5   6
ENDBRANCH   4   5
ENDBRANCH   3   4
ENDBRANCH   2   3
ENDBRANCH   1   2
BRANCH   1  18
ATOM     18  C   UNL     1      42.673 117.122   9.223  1.00  0.00     0.000 C 
BRANCH  18  19
ATOM     19  C   UNL     1      43.979 116.377   8.885  1.00  0.00     0.000 C 
BRANCH  19  20
ATOM     20  C   UNL     1      43.879 114.864   9.114  1.00  0.00     0.000 C 
BRANCH  20  21
ATOM     21  C   UNL     1      45.242 114.267   9.478  1.00  0.00     0.000 C 
BRANCH  21  22
ATOM     22  C   UNL     1      45.186 113.579  10.851  1.00  0.00     0.000 C 
BRANCH  22  23
ATOM     23  C   UNL     1      43.749 113.383  11.367  1.00  0.00     0.000 C 
BRANCH  23  24
ATOM     24  C   UNL     1      43.406 114.138  12.665  1.00  0.00    -0.000 C 
BRANCH  24  25
ATOM     25  C   UNL     1      44.451 115.205  13.029  1.00  0.00    -0.000 C 
BRANCH  25  26
ATOM     26  C   UNL     1      44.667 115.340  14.549  1.00  0.00    -0.000 C 
BRANCH  26  27
ATOM     27  C   UNL     1      45.531 114.238  15.190  1.00  0.00    -0.000 C 
BRANCH  27  28
ATOM     28  C   UNL     1      44.732 113.319  16.123  1.00  0.00    -0.000 C 
BRANCH  28  29
ATOM     29  C   UNL     1      44.698 111.883  15.578  1.00  0.00    -0.000 C 
BRANCH  29  30
ATOM     30  C   UNL     1      45.446 111.742  14.243  1.00  0.00    -0.000 C 
BRANCH  30  31
ATOM     31  C   UNL     1      46.621 110.756  14.325  1.00  0.00    -0.003 C 
ATOM     32  C   UNL     1      47.745 111.153  13.375  1.00  0.00     0.004 C 
ENDBRANCH  30  31
ENDBRANCH  29  30
ENDBRANCH  28  29
ENDBRANCH  27  28
ENDBRANCH  26  27
ENDBRANCH  25  26
ENDBRANCH  24  25
ENDBRANCH  23  24
ENDBRANCH  22  23
ENDBRANCH  21  22
ENDBRANCH  20  21
ENDBRANCH  19  20
ENDBRANCH  18  19
ENDBRANCH   1  18
TORSDOF 28
ENDMDL
