MODEL 1
REMARK VINA RESULT:    -3.409      0.000      0.000
REMARK INTER + INTRA:          -4.549
REMARK INTER:                  -4.405
REMARK INTRA:                  -0.144
REMARK UNBOUND:                -0.144
REMARK SMILES CCCCCCC(=O)[O-]
REMARK SMILES IDX 5 1 6 2 7 3 8 4 9 5 4 6 3 7 2 8 1 9
REMARK H PARENT
REMARK Flexibility Score: inf
ROOT
ATOM      1  C   UNL     1      29.025  21.068  14.186  1.00  0.00     0.006 C 
ENDROOT
BRANCH   1   2
ATOM      2  C   UNL     1      29.288  22.522  13.772  1.00  0.00     0.053 C 
BRANCH   2   3
ATOM      3  C   UNL     1      29.102  22.685  12.296  1.00  0.00     0.041 C 
ATOM      4  O   UNL     1      29.645  23.646  11.691  1.00  0.00    -0.550 OA
ATOM      5  O   UNL     1      28.367  21.748  11.581  1.00  0.00    -0.550 OA
ENDBRANCH   2   3
ENDBRANCH   1   2
BRANCH   1   6
ATOM      6  C   UNL     1      27.677  20.892  14.902  1.00  0.00     0.000 C 
BRANCH   6   7
ATOM      7  C   UNL     1      27.822  20.844  16.433  1.00  0.00    -0.000 C 
BRANCH   7   8
ATOM      8  C   UNL     1      26.503  20.492  17.137  1.00  0.00    -0.003 C 
ATOM      9  C   UNL     1      25.422  20.017  16.166  1.00  0.00     0.004 C 
ENDBRANCH   7   8
ENDBRANCH   6   7
ENDBRANCH   1   6
TORSDOF 5
ENDMDL
MODEL 2
REMARK VINA RESULT:    -3.229      0.687      1.273
REMARK INTER + INTRA:          -4.317
REMARK INTER:                  -4.165
REMARK INTRA:                  -0.151
REMARK UNBOUND:                -0.144
REMARK SMILES CCCCCCC(=O)[O-]
REMARK SMILES IDX 5 1 6 2 7 3 8 4 9 5 4 6 3 7 2 8 1 9
REMARK H PARENT
REMARK Flexibility Score: inf
ROOT
ATOM      1  C   UNL     1      28.657  22.040  14.176  1.00  0.00     0.006 C 
ENDROOT
BRANCH   1   2
ATOM      2  C   UNL     1      29.836  21.903  13.204  1.00  0.00     0.053 C 
BRANCH   2   3
ATOM      3  C   UNL     1      29.506  22.539  11.891  1.00  0.00     0.041 C 
ATOM      4  O   UNL     1      28.872  21.893  11.015  1.00  0.00    -0.550 OA
ATOM      5  O   UNL     1      29.856  23.861  11.651  1.00  0.00    -0.550 OA
ENDBRANCH   2   3
ENDBRANCH   1   2
BRANCH   1   6
ATOM      6  C   UNL     1      28.190  20.685  14.732  1.00  0.00     0.000 C 
BRANCH   6   7
ATOM      7  C   UNL     1      28.307  20.603  16.264  1.00  0.00    -0.000 C 
BRANCH   7   8
ATOM      8  C   UNL     1      26.988  20.945  16.974  1.00  0.00    -0.003 C 
ATOM      9  C   UNL     1      25.779  20.262  16.335  1.00  0.00     0.004 C 
ENDBRANCH   7   8
ENDBRANCH   6   7
ENDBRANCH   1   6
TORSDOF 5
ENDMDL
MODEL 3
REMARK VINA RESULT:    -2.999      3.271      5.246
REMARK INTER + INTRA:          -4.020
REMARK INTER:                  -3.842
REMARK INTRA:                  -0.178
REMARK UNBOUND:                -0.144
REMARK SMILES CCCCCCC(=O)[O-]
REMARK SMILES IDX 5 1 6 2 7 3 8 4 9 5 4 6 3 7 2 8 1 9
REMARK H PARENT
REMARK Flexibility Score: inf
ROOT
ATOM      1  C   UNL     1      25.325  19.919  15.997  1.00  0.00     0.006 C 
ENDROOT
BRANCH   1   2
ATOM      2  C   UNL     1      23.959  20.615  15.955  1.00  0.00     0.053 C 
BRANCH   2   3
ATOM      3  C   UNL     1      23.139  20.088  14.821  1.00  0.00     0.041 C 
ATOM      4  O   UNL     1      21.907  19.875  14.974  1.00  0.00    -0.550 OA
ATOM      5  O   UNL     1      23.725  19.877  13.580  1.00  0.00    -0.550 OA
ENDBRANCH   2   3
ENDBRANCH   1   2
BRANCH   1   6
ATOM      6  C   UNL     1      26.321  20.627  16.929  1.00  0.00     0.000 C 
BRANCH   6   7
ATOM      7  C   UNL     1      27.754  20.633  16.369  1.00  0.00    -0.000 C 
BRANCH   7   8
ATOM      8  C   UNL     1      27.785  20.625  14.833  1.00  0.00    -0.003 C 
ATOM      9  C   UNL     1      28.626  21.762  14.253  1.00  0.00     0.004 C 
ENDBRANCH   7   8
ENDBRANCH   6   7
ENDBRANCH   1   6
TORSDOF 5
ENDMDL
MODEL 4
REMARK VINA RESULT:    -2.845      3.172      5.104
REMARK INTER + INTRA:          -3.821
REMARK INTER:                  -3.653
REMARK INTRA:                  -0.168
REMARK UNBOUND:                -0.144
REMARK SMILES CCCCCCC(=O)[O-]
REMARK SMILES IDX 5 1 6 2 7 3 8 4 9 5 4 6 3 7 2 8 1 9
REMARK H PARENT
REMARK Flexibility Score: inf
ROOT
ATOM      1  C   UNL     1      28.105  21.071  15.160  1.00  0.00     0.006 C 
ENDROOT
BRANCH   1   2
ATOM      2  C   UNL     1      26.859  20.230  14.853  1.00  0.00     0.053 C 
BRANCH   2   3
ATOM      3  C   UNL     1      25.919  20.247  16.017  1.00  0.00     0.041 C 
ATOM      4  O   UNL     1      24.724  19.878  15.873  1.00  0.00    -0.550 OA
ATOM      5  O   UNL     1      26.376  20.625  17.273  1.00  0.00    -0.550 OA
ENDBRANCH   2   3
ENDBRANCH   1   2
BRANCH   1   6
ATOM      6  C   UNL     1      29.111  21.080  13.998  1.00  0.00     0.000 C 
BRANCH   6   7
ATOM      7  C   UNL     1      29.366  22.494  13.447  1.00  0.00    -0.000 C 
BRANCH   7   8
ATOM      8  C   UNL     1      28.728  22.711  12.066  1.00  0.00    -0.003 C 
ATOM      9  C   UNL     1      29.268  21.748  11.009  1.00  0.00     0.004 C 
ENDBRANCH   7   8
ENDBRANCH   6   7
ENDBRANCH   1   6
TORSDOF 5
ENDMDL
MODEL 5
REMARK VINA RESULT:    -2.781      2.662      4.078
REMARK INTER + INTRA:          -3.737
REMARK INTER:                  -3.653
REMARK INTRA:                  -0.084
REMARK UNBOUND:                -0.144
REMARK SMILES CCCCCCC(=O)[O-]
REMARK SMILES IDX 5 1 6 2 7 3 8 4 9 5 4 6 3 7 2 8 1 9
REMARK H PARENT
REMARK Flexibility Score: inf
ROOT
ATOM      1  C   UNL     1      26.126  21.025  16.505  1.00  0.00     0.006 C 
ENDROOT
BRANCH   1   2
ATOM      2  C   UNL     1      27.522  20.632  17.008  1.00  0.00     0.053 C 
BRANCH   2   3
ATOM      3  C   UNL     1      28.504  20.644  15.880  1.00  0.00     0.041 C 
ATOM      4  O   UNL     1      29.510  19.886  15.906  1.00  0.00    -0.550 OA
ATOM      5  O   UNL     1      28.284  21.457  14.775  1.00  0.00    -0.550 OA
ENDBRANCH   2   3
ENDBRANCH   1   2
BRANCH   1   6
ATOM      6  C   UNL     1      25.418  19.875  15.772  1.00  0.00     0.000 C 
BRANCH   6   7
ATOM      7  C   UNL     1      23.922  20.152  15.543  1.00  0.00    -0.000 C 
BRANCH   7   8
ATOM      8  C   UNL     1      23.488  19.879  14.095  1.00  0.00    -0.003 C 
ATOM      9  C   UNL     1      21.982  20.045  13.888  1.00  0.00     0.004 C 
ENDBRANCH   7   8
ENDBRANCH   6   7
ENDBRANCH   1   6
TORSDOF 5
ENDMDL
MODEL 6
REMARK VINA RESULT:    -2.765     17.499     18.629
REMARK INTER + INTRA:          -3.717
REMARK INTER:                  -3.558
REMARK INTRA:                  -0.159
REMARK UNBOUND:                -0.144
REMARK SMILES CCCCCCC(=O)[O-]
REMARK SMILES IDX 5 1 6 2 7 3 8 4 9 5 4 6 3 7 2 8 1 9
REMARK H PARENT
REMARK Flexibility Score: inf
ROOT
ATOM      1  C   UNL     1      11.058  21.512  18.336  1.00  0.00     0.006 C 
ENDROOT
BRANCH   1   2
ATOM      2  C   UNL     1      10.577  21.294  19.776  1.00  0.00     0.053 C 
BRANCH   2   3
ATOM      3  C   UNL     1      10.573  22.588  20.526  1.00  0.00     0.041 C 
ATOM      4  O   UNL     1      10.459  23.679  19.908  1.00  0.00    -0.550 OA
ATOM      5  O   UNL     1      10.648  22.588  21.913  1.00  0.00    -0.550 OA
ENDBRANCH   2   3
ENDBRANCH   1   2
BRANCH   1   6
ATOM      6  C   UNL     1       9.901  21.538  17.325  1.00  0.00     0.000 C 
BRANCH   6   7
ATOM      7  C   UNL     1       9.986  22.734  16.360  1.00  0.00    -0.000 C 
BRANCH   7   8
ATOM      8  C   UNL     1      10.031  22.299  14.887  1.00  0.00    -0.003 C 
ATOM      9  C   UNL     1      11.450  22.284  14.319  1.00  0.00     0.004 C 
ENDBRANCH   7   8
ENDBRANCH   6   7
ENDBRANCH   1   6
TORSDOF 5
ENDMDL
MODEL 7
REMARK VINA RESULT:    -2.603     16.181     17.600
REMARK INTER + INTRA:          -3.508
REMARK INTER:                  -3.426
REMARK INTRA:                  -0.082
REMARK UNBOUND:                -0.144
REMARK SMILES CCCCCCC(=O)[O-]
REMARK SMILES IDX 5 1 6 2 7 3 8 4 9 5 4 6 3 7 2 8 1 9
REMARK H PARENT
REMARK Flexibility Score: inf
ROOT
ATOM      1  C   UNL     1      11.219  21.080  17.665  1.00  0.00     0.006 C 
ENDROOT
BRANCH   1   2
ATOM      2  C   UNL     1      11.306  20.154  18.885  1.00  0.00     0.053 C 
BRANCH   2   3
ATOM      3  C   UNL     1      12.728  20.001  19.323  1.00  0.00     0.041 C 
ATOM      4  O   UNL     1      13.651  19.927  18.469  1.00  0.00    -0.550 OA
ATOM      5  O   UNL     1      13.041  19.989  20.676  1.00  0.00    -0.550 OA
ENDBRANCH   2   3
ENDBRANCH   1   2
BRANCH   1   6
ATOM      6  C   UNL     1       9.898  21.864  17.612  1.00  0.00     0.000 C 
BRANCH   6   7
ATOM      7  C   UNL     1       9.875  22.909  16.484  1.00  0.00    -0.000 C 
BRANCH   7   8
ATOM      8  C   UNL     1       9.910  22.268  15.088  1.00  0.00    -0.003 C 
ATOM      9  C   UNL     1      11.270  22.412  14.405  1.00  0.00     0.004 C 
ENDBRANCH   7   8
ENDBRANCH   6   7
ENDBRANCH   1   6
TORSDOF 5
ENDMDL
MODEL 8
REMARK VINA RESULT:    -2.441      3.172      5.380
REMARK INTER + INTRA:          -3.298
REMARK INTER:                  -3.218
REMARK INTRA:                  -0.080
REMARK UNBOUND:                -0.144
REMARK SMILES CCCCCCC(=O)[O-]
REMARK SMILES IDX 5 1 6 2 7 3 8 4 9 5 4 6 3 7 2 8 1 9
REMARK H PARENT
REMARK Flexibility Score: inf
ROOT
ATOM      1  C   UNL     1      27.625  20.569  13.616  1.00  0.00     0.006 C 
ENDROOT
BRANCH   1   2
ATOM      2  C   UNL     1      28.035  21.103  14.994  1.00  0.00     0.053 C 
BRANCH   2   3
ATOM      3  C   UNL     1      27.035  20.697  16.030  1.00  0.00     0.041 C 
ATOM      4  O   UNL     1      27.254  20.926  17.248  1.00  0.00    -0.550 OA
ATOM      5  O   UNL     1      25.837  20.107  15.645  1.00  0.00    -0.550 OA
ENDBRANCH   2   3
ENDBRANCH   1   2
BRANCH   1   6
ATOM      6  C   UNL     1      28.063  21.495  12.470  1.00  0.00     0.000 C 
BRANCH   6   7
ATOM      7  C   UNL     1      28.481  20.718  11.209  1.00  0.00    -0.000 C 
BRANCH   7   8
ATOM      8  C   UNL     1      29.424  21.528  10.306  1.00  0.00    -0.003 C 
ATOM      9  C   UNL     1      29.629  20.882   8.936  1.00  0.00     0.004 C 
ENDBRANCH   7   8
ENDBRANCH   6   7
ENDBRANCH   1   6
TORSDOF 5
ENDMDL
MODEL 9
REMARK VINA RESULT:    -2.404     14.253     16.428
REMARK INTER + INTRA:          -3.251
REMARK INTER:                  -2.908
REMARK INTRA:                  -0.343
REMARK UNBOUND:                -0.144
REMARK SMILES CCCCCCC(=O)[O-]
REMARK SMILES IDX 5 1 6 2 7 3 8 4 9 5 4 6 3 7 2 8 1 9
REMARK H PARENT
REMARK Flexibility Score: inf
ROOT
ATOM      1  C   UNL     1      12.298  21.004  18.391  1.00  0.00     0.006 C 
ENDROOT
BRANCH   1   2
ATOM      2  C   UNL     1      13.459  20.103  17.951  1.00  0.00     0.053 C 
BRANCH   2   3
ATOM      3  C   UNL     1      14.044  20.596  16.666  1.00  0.00     0.041 C 
ATOM      4  O   UNL     1      13.294  21.026  15.751  1.00  0.00    -0.550 OA
ATOM      5  O   UNL     1      15.423  20.626  16.497  1.00  0.00    -0.550 OA
ENDBRANCH   2   3
ENDBRANCH   1   2
BRANCH   1   6
ATOM      6  C   UNL     1      10.959  20.253  18.453  1.00  0.00     0.000 C 
BRANCH   6   7
ATOM      7  C   UNL     1       9.875  20.902  17.574  1.00  0.00    -0.000 C 
BRANCH   7   8
ATOM      8  C   UNL     1      10.261  22.317  17.115  1.00  0.00    -0.003 C 
ATOM      9  C   UNL     1      10.118  22.507  15.605  1.00  0.00     0.004 C 
ENDBRANCH   7   8
ENDBRANCH   6   7
ENDBRANCH   1   6
TORSDOF 5
ENDMDL
