MODEL 1
REMARK VINA RESULT:    -9.138      0.000      0.000
REMARK INTER + INTRA:         -13.827
REMARK INTER:                 -12.877
REMARK INTRA:                  -0.950
REMARK UNBOUND:                -0.950
REMARK SMILES C[C@@H](CO)CCC(=O)[C@H](C)[C@H]1C(=O)C[C@H]2[C@H]3CC=C4C[C@H](O)CC[C@@]4(C)[C@H]3CC[C@@]12C
REMARK SMILES IDX 6 1 5 2 2 3 1 4 3 5 4 6 7 8 8 9 9 10 10 11 11 12 12 13 30 14
REMARK SMILES IDX 13 15 14 16 15 17 29 18 31 19 16 20 28 21 27 22 17 23 25 24
REMARK SMILES IDX 18 25 19 26 24 27 26 28 20 29 23 30 21 31 22 32
REMARK H PARENT 4 7 22 33
REMARK Flexibility Score: inf
ROOT
ATOM      1  C   UNL     1     -21.764 -45.914  22.347  1.00  0.00     0.076 C 
ENDROOT
BRANCH   1   2
ATOM      2  C   UNL     1     -22.445 -47.120  23.019  1.00  0.00     0.013 C 
BRANCH   2   3
ATOM      3  C   UNL     1     -21.509 -47.993  23.888  1.00  0.00     0.012 C 
ATOM      4  C   UNL     1     -20.076 -48.022  23.338  1.00  0.00     0.010 C 
BRANCH   3   5
ATOM      5  C   UNL     1     -21.511 -47.603  25.378  1.00  0.00     0.159 C 
BRANCH   5   6
ATOM      6  O   UNL     1     -20.381 -46.832  25.694  1.00  0.00    -0.396 OA
ATOM      7  H   UNL     1     -20.284 -46.158  24.973  1.00  0.00     0.210 HD
ENDBRANCH   5   6
ENDBRANCH   3   5
ENDBRANCH   2   3
ENDBRANCH   1   2
BRANCH   1   8
ATOM      8  C   UNL     1     -22.017 -44.668  23.155  1.00  0.00     0.136 C 
ATOM      9  O   UNL     1     -23.165 -44.396  23.478  1.00  0.00    -0.299 OA
BRANCH   8  10
ATOM     10  C   UNL     1     -20.884 -43.720  23.510  1.00  0.00     0.064 C 
ATOM     11  C   UNL     1     -19.617 -44.536  23.841  1.00  0.00     0.017 C 
BRANCH  10  12
ATOM     12  C   UNL     1     -21.334 -42.723  24.638  1.00  0.00     0.072 C 
ATOM     13  C   UNL     1     -21.070 -43.226  26.018  1.00  0.00     0.137 C 
ATOM     14  C   UNL     1     -20.744 -41.253  24.623  1.00  0.00    -0.019 C 
ATOM     15  O   UNL     1     -21.477 -44.304  26.421  1.00  0.00    -0.299 OA
ATOM     16  C   UNL     1     -20.336 -42.291  26.889  1.00  0.00     0.080 C 
ATOM     17  C   UNL     1     -20.313 -40.964  26.110  1.00  0.00     0.007 C 
ATOM     18  C   UNL     1     -19.541 -41.032  23.660  1.00  0.00     0.008 C 
ATOM     19  C   UNL     1     -21.886 -40.293  24.179  1.00  0.00     0.012 C 
ATOM     20  C   UNL     1     -19.010 -40.114  26.311  1.00  0.00     0.001 C 
ATOM     21  C   UNL     1     -18.843 -39.660  23.808  1.00  0.00     0.005 C 
ATOM     22  C   UNL     1     -18.907 -39.018  25.228  1.00  0.00     0.003 C 
ATOM     23  C   UNL     1     -17.682 -40.909  26.413  1.00  0.00     0.031 C 
ATOM     24  C   UNL     1     -17.715 -38.029  25.528  1.00  0.00    -0.008 C 
ATOM     25  C   UNL     1     -16.435 -40.078  26.226  1.00  0.00    -0.027 C 
ATOM     26  C   UNL     1     -16.421 -38.812  25.752  1.00  0.00    -0.065 C 
ATOM     27  C   UNL     1     -17.541 -37.007  24.351  1.00  0.00     0.014 C 
ATOM     28  C   UNL     1     -18.019 -37.221  26.822  1.00  0.00     0.016 C 
ATOM     29  C   UNL     1     -15.099 -38.069  25.702  1.00  0.00     0.063 C 
ATOM     30  C   UNL     1     -16.227 -36.210  24.404  1.00  0.00     0.033 C 
ATOM     31  C   UNL     1     -15.021 -37.159  24.469  1.00  0.00     0.118 C 
BRANCH  31  32
ATOM     32  O   UNL     1     -13.818 -36.432  24.464  1.00  0.00    -0.393 OA
ATOM     33  H   UNL     1     -13.072 -37.082  24.563  1.00  0.00     0.210 HD
ENDBRANCH  31  32
ENDBRANCH  10  12
ENDBRANCH   8  10
ENDBRANCH   1   8
TORSDOF 8
ENDMDL
MODEL 2
REMARK VINA RESULT:    -8.890      1.751      2.210
REMARK INTER + INTRA:         -13.478
REMARK INTER:                 -12.582
REMARK INTRA:                  -0.896
REMARK UNBOUND:                -0.950
REMARK SMILES C[C@@H](CO)CCC(=O)[C@H](C)[C@H]1C(=O)C[C@H]2[C@H]3CC=C4C[C@H](O)CC[C@@]4(C)[C@H]3CC[C@@]12C
REMARK SMILES IDX 6 1 5 2 2 3 1 4 3 5 4 6 7 8 8 9 9 10 10 11 11 12 12 13 30 14
REMARK SMILES IDX 13 15 14 16 15 17 29 18 31 19 16 20 28 21 27 22 17 23 25 24
REMARK SMILES IDX 18 25 19 26 24 27 26 28 20 29 23 30 21 31 22 32
REMARK H PARENT 4 7 22 33
REMARK Flexibility Score: inf
ROOT
ATOM      1  C   UNL     1     -23.254 -45.276  23.090  1.00  0.00     0.076 C 
ENDROOT
BRANCH   1   2
ATOM      2  C   UNL     1     -24.008 -46.567  23.458  1.00  0.00     0.013 C 
BRANCH   2   3
ATOM      3  C   UNL     1     -24.895 -46.464  24.721  1.00  0.00     0.012 C 
ATOM      4  C   UNL     1     -25.163 -45.005  25.116  1.00  0.00     0.010 C 
BRANCH   3   5
ATOM      5  C   UNL     1     -26.217 -47.247  24.610  1.00  0.00     0.159 C 
BRANCH   5   6
ATOM      6  O   UNL     1     -27.109 -46.870  25.625  1.00  0.00    -0.396 OA
ATOM      7  H   UNL     1     -27.987 -46.715  25.191  1.00  0.00     0.210 HD
ENDBRANCH   5   6
ENDBRANCH   3   5
ENDBRANCH   2   3
ENDBRANCH   1   2
BRANCH   1   8
ATOM      8  C   UNL     1     -21.789 -45.574  22.908  1.00  0.00     0.136 C 
ATOM      9  O   UNL     1     -21.462 -46.606  22.338  1.00  0.00    -0.299 OA
BRANCH   8  10
ATOM     10  C   UNL     1     -20.725 -44.652  23.479  1.00  0.00     0.064 C 
ATOM     11  C   UNL     1     -19.626 -45.497  24.157  1.00  0.00     0.017 C 
BRANCH  10  12
ATOM     12  C   UNL     1     -21.379 -43.563  24.404  1.00  0.00     0.072 C 
ATOM     13  C   UNL     1     -21.295 -43.888  25.858  1.00  0.00     0.137 C 
ATOM     14  C   UNL     1     -20.860 -42.070  24.292  1.00  0.00    -0.019 C 
ATOM     15  O   UNL     1     -21.706 -44.936  26.329  1.00  0.00    -0.299 OA
ATOM     16  C   UNL     1     -20.739 -42.816  26.702  1.00  0.00     0.080 C 
ATOM     17  C   UNL     1     -20.664 -41.587  25.777  1.00  0.00     0.007 C 
ATOM     18  C   UNL     1     -19.543 -41.886  23.484  1.00  0.00     0.008 C 
ATOM     19  C   UNL     1     -21.969 -41.241  23.580  1.00  0.00     0.012 C 
ATOM     20  C   UNL     1     -19.444 -40.639  26.052  1.00  0.00     0.001 C 
ATOM     21  C   UNL     1     -18.937 -40.465  23.560  1.00  0.00     0.005 C 
ATOM     22  C   UNL     1     -19.235 -39.670  24.868  1.00  0.00     0.003 C 
ATOM     23  C   UNL     1     -18.109 -41.333  26.432  1.00  0.00     0.031 C 
ATOM     24  C   UNL     1     -18.146 -38.580  25.207  1.00  0.00    -0.008 C 
ATOM     25  C   UNL     1     -16.888 -40.452  26.320  1.00  0.00    -0.027 C 
ATOM     26  C   UNL     1     -16.864 -39.250  25.702  1.00  0.00    -0.065 C 
ATOM     27  C   UNL     1     -17.850 -37.690  23.950  1.00  0.00     0.014 C 
ATOM     28  C   UNL     1     -18.671 -37.651  26.339  1.00  0.00     0.016 C 
ATOM     29  C   UNL     1     -15.583 -38.436  25.745  1.00  0.00     0.063 C 
ATOM     30  C   UNL     1     -16.596 -36.812  24.087  1.00  0.00     0.033 C 
ATOM     31  C   UNL     1     -15.370 -37.669  24.433  1.00  0.00     0.118 C 
BRANCH  31  32
ATOM     32  O   UNL     1     -14.213 -36.874  24.506  1.00  0.00    -0.393 OA
ATOM     33  H   UNL     1     -13.840 -36.968  25.423  1.00  0.00     0.210 HD
ENDBRANCH  31  32
ENDBRANCH  10  12
ENDBRANCH   8  10
ENDBRANCH   1   8
TORSDOF 8
ENDMDL
MODEL 3
REMARK VINA RESULT:    -8.436      1.766      8.759
REMARK INTER + INTRA:         -12.838
REMARK INTER:                 -11.925
REMARK INTRA:                  -0.913
REMARK UNBOUND:                -0.950
REMARK SMILES C[C@@H](CO)CCC(=O)[C@H](C)[C@H]1C(=O)C[C@H]2[C@H]3CC=C4C[C@H](O)CC[C@@]4(C)[C@H]3CC[C@@]12C
REMARK SMILES IDX 6 1 5 2 2 3 1 4 3 5 4 6 7 8 8 9 9 10 10 11 11 12 12 13 30 14
REMARK SMILES IDX 13 15 14 16 15 17 29 18 31 19 16 20 28 21 27 22 17 23 25 24
REMARK SMILES IDX 18 25 19 26 24 27 26 28 20 29 23 30 21 31 22 32
REMARK H PARENT 4 7 22 33
REMARK Flexibility Score: inf
ROOT
ATOM      1  C   UNL     1     -15.882 -36.987  26.870  1.00  0.00     0.076 C 
ENDROOT
BRANCH   1   2
ATOM      2  C   UNL     1     -15.462 -35.626  26.288  1.00  0.00     0.013 C 
BRANCH   2   3
ATOM      3  C   UNL     1     -14.300 -35.686  25.268  1.00  0.00     0.012 C 
ATOM      4  C   UNL     1     -13.154 -36.583  25.755  1.00  0.00     0.010 C 
BRANCH   3   5
ATOM      5  C   UNL     1     -14.746 -36.097  23.852  1.00  0.00     0.159 C 
BRANCH   5   6
ATOM      6  O   UNL     1     -14.850 -37.492  23.745  1.00  0.00    -0.396 OA
ATOM      7  H   UNL     1     -13.986 -37.816  23.381  1.00  0.00     0.210 HD
ENDBRANCH   5   6
ENDBRANCH   3   5
ENDBRANCH   2   3
ENDBRANCH   1   2
BRANCH   1   8
ATOM      8  C   UNL     1     -17.311 -37.283  26.497  1.00  0.00     0.136 C 
ATOM      9  O   UNL     1     -18.125 -36.371  26.503  1.00  0.00    -0.299 OA
BRANCH   8  10
ATOM     10  C   UNL     1     -17.762 -38.701  26.185  1.00  0.00     0.064 C 
ATOM     11  C   UNL     1     -16.548 -39.536  25.727  1.00  0.00     0.017 C 
BRANCH  10  12
ATOM     12  C   UNL     1     -18.965 -38.685  25.174  1.00  0.00     0.072 C 
ATOM     13  C   UNL     1     -18.542 -38.607  23.745  1.00  0.00     0.137 C 
ATOM     14  C   UNL     1     -20.006 -39.878  25.224  1.00  0.00    -0.019 C 
ATOM     15  O   UNL     1     -17.807 -37.731  23.317  1.00  0.00    -0.299 OA
ATOM     16  C   UNL     1     -19.134 -39.631  22.866  1.00  0.00     0.080 C 
ATOM     17  C   UNL     1     -20.223 -40.301  23.723  1.00  0.00     0.007 C 
ATOM     18  C   UNL     1     -19.566 -41.105  26.073  1.00  0.00     0.008 C 
ATOM     19  C   UNL     1     -21.323 -39.325  25.841  1.00  0.00     0.012 C 
ATOM     20  C   UNL     1     -20.417 -41.833  23.446  1.00  0.00     0.001 C 
ATOM     21  C   UNL     1     -20.488 -42.340  25.943  1.00  0.00     0.005 C 
ATOM     22  C   UNL     1     -21.233 -42.489  24.582  1.00  0.00     0.003 C 
ATOM     23  C   UNL     1     -19.127 -42.647  23.161  1.00  0.00     0.031 C 
ATOM     24  C   UNL     1     -21.611 -43.979  24.228  1.00  0.00    -0.008 C 
ATOM     25  C   UNL     1     -19.289 -44.144  23.274  1.00  0.00    -0.027 C 
ATOM     26  C   UNL     1     -20.360 -44.760  23.825  1.00  0.00    -0.065 C 
ATOM     27  C   UNL     1     -22.320 -44.669  25.444  1.00  0.00     0.014 C 
ATOM     28  C   UNL     1     -22.597 -43.997  23.025  1.00  0.00     0.016 C 
ATOM     29  C   UNL     1     -20.424 -46.276  23.789  1.00  0.00     0.063 C 
ATOM     30  C   UNL     1     -22.447 -46.196  25.310  1.00  0.00     0.033 C 
ATOM     31  C   UNL     1     -21.071 -46.833  25.064  1.00  0.00     0.118 C 
BRANCH  31  32
ATOM     32  O   UNL     1     -21.179 -48.233  24.994  1.00  0.00    -0.393 OA
ATOM     33  H   UNL     1     -21.035 -48.593  25.910  1.00  0.00     0.210 HD
ENDBRANCH  31  32
ENDBRANCH  10  12
ENDBRANCH   8  10
ENDBRANCH   1   8
TORSDOF 8
ENDMDL
MODEL 4
REMARK VINA RESULT:    -8.178      2.107      8.858
REMARK INTER + INTRA:         -12.475
REMARK INTER:                 -11.653
REMARK INTRA:                  -0.821
REMARK UNBOUND:                -0.950
REMARK SMILES C[C@@H](CO)CCC(=O)[C@H](C)[C@H]1C(=O)C[C@H]2[C@H]3CC=C4C[C@H](O)CC[C@@]4(C)[C@H]3CC[C@@]12C
REMARK SMILES IDX 6 1 5 2 2 3 1 4 3 5 4 6 7 8 8 9 9 10 10 11 11 12 12 13 30 14
REMARK SMILES IDX 13 15 14 16 15 17 29 18 31 19 16 20 28 21 27 22 17 23 25 24
REMARK SMILES IDX 18 25 19 26 24 27 26 28 20 29 23 30 21 31 22 32
REMARK H PARENT 4 7 22 33
REMARK Flexibility Score: inf
ROOT
ATOM      1  C   UNL     1     -16.882 -37.225  24.150  1.00  0.00     0.076 C 
ENDROOT
BRANCH   1   2
ATOM      2  C   UNL     1     -15.538 -36.534  24.441  1.00  0.00     0.013 C 
BRANCH   2   3
ATOM      3  C   UNL     1     -15.536 -35.615  25.686  1.00  0.00     0.012 C 
ATOM      4  C   UNL     1     -16.960 -35.278  26.152  1.00  0.00     0.010 C 
BRANCH   3   5
ATOM      5  C   UNL     1     -14.698 -36.164  26.855  1.00  0.00     0.159 C 
BRANCH   5   6
ATOM      6  O   UNL     1     -15.432 -37.097  27.603  1.00  0.00    -0.396 OA
ATOM      7  H   UNL     1     -15.983 -37.610  26.957  1.00  0.00     0.210 HD
ENDBRANCH   5   6
ENDBRANCH   3   5
ENDBRANCH   2   3
ENDBRANCH   1   2
BRANCH   1   8
ATOM      8  C   UNL     1     -16.886 -38.607  24.749  1.00  0.00     0.136 C 
ATOM      9  O   UNL     1     -16.005 -38.911  25.542  1.00  0.00    -0.299 OA
BRANCH   8  10
ATOM     10  C   UNL     1     -17.919 -39.640  24.331  1.00  0.00     0.064 C 
ATOM     11  C   UNL     1     -18.771 -39.074  23.176  1.00  0.00     0.017 C 
BRANCH  10  12
ATOM     12  C   UNL     1     -18.744 -40.128  25.577  1.00  0.00     0.072 C 
ATOM     13  C   UNL     1     -20.011 -39.369  25.786  1.00  0.00     0.137 C 
ATOM     14  C   UNL     1     -19.167 -41.653  25.647  1.00  0.00    -0.019 C 
ATOM     15  O   UNL     1     -20.048 -38.153  25.888  1.00  0.00    -0.299 OA
ATOM     16  C   UNL     1     -21.216 -40.204  25.933  1.00  0.00     0.080 C 
ATOM     17  C   UNL     1     -20.684 -41.642  26.070  1.00  0.00     0.007 C 
ATOM     18  C   UNL     1     -18.980 -42.455  24.327  1.00  0.00     0.008 C 
ATOM     19  C   UNL     1     -18.292 -42.333  26.740  1.00  0.00     0.012 C 
ATOM     20  C   UNL     1     -21.602 -42.739  25.425  1.00  0.00     0.001 C 
ATOM     21  C   UNL     1     -19.591 -43.875  24.346  1.00  0.00     0.005 C 
ATOM     22  C   UNL     1     -20.830 -44.068  25.273  1.00  0.00     0.003 C 
ATOM     23  C   UNL     1     -22.295 -42.355  24.091  1.00  0.00     0.031 C 
ATOM     24  C   UNL     1     -21.786 -45.236  24.815  1.00  0.00    -0.008 C 
ATOM     25  C   UNL     1     -22.850 -43.523  23.311  1.00  0.00    -0.027 C 
ATOM     26  C   UNL     1     -22.568 -44.820  23.568  1.00  0.00    -0.065 C 
ATOM     27  C   UNL     1     -20.964 -46.542  24.537  1.00  0.00     0.014 C 
ATOM     28  C   UNL     1     -22.811 -45.546  25.944  1.00  0.00     0.016 C 
ATOM     29  C   UNL     1     -23.271 -45.892  22.755  1.00  0.00     0.063 C 
ATOM     30  C   UNL     1     -21.755 -47.633  23.796  1.00  0.00     0.033 C 
ATOM     31  C   UNL     1     -22.340 -47.083  22.487  1.00  0.00     0.118 C 
BRANCH  31  32
ATOM     32  O   UNL     1     -23.019 -48.093  21.784  1.00  0.00    -0.393 OA
ATOM     33  H   UNL     1     -23.008 -48.913  22.347  1.00  0.00     0.210 HD
ENDBRANCH  31  32
ENDBRANCH  10  12
ENDBRANCH   8  10
ENDBRANCH   1   8
TORSDOF 8
ENDMDL
MODEL 5
REMARK VINA RESULT:    -6.979      2.186      8.824
REMARK INTER + INTRA:         -10.784
REMARK INTER:                  -9.976
REMARK INTRA:                  -0.809
REMARK UNBOUND:                -0.950
REMARK SMILES C[C@@H](CO)CCC(=O)[C@H](C)[C@H]1C(=O)C[C@H]2[C@H]3CC=C4C[C@H](O)CC[C@@]4(C)[C@H]3CC[C@@]12C
REMARK SMILES IDX 6 1 5 2 2 3 1 4 3 5 4 6 7 8 8 9 9 10 10 11 11 12 12 13 30 14
REMARK SMILES IDX 13 15 14 16 15 17 29 18 31 19 16 20 28 21 27 22 17 23 25 24
REMARK SMILES IDX 18 25 19 26 24 27 26 28 20 29 23 30 21 31 22 32
REMARK H PARENT 4 7 22 33
REMARK Flexibility Score: inf
ROOT
ATOM      1  C   UNL     1     -17.858 -38.065  23.865  1.00  0.00     0.076 C 
ENDROOT
BRANCH   1   2
ATOM      2  C   UNL     1     -17.155 -36.759  24.277  1.00  0.00     0.013 C 
BRANCH   2   3
ATOM      3  C   UNL     1     -15.709 -36.936  24.796  1.00  0.00     0.012 C 
ATOM      4  C   UNL     1     -15.345 -35.881  25.851  1.00  0.00     0.010 C 
BRANCH   3   5
ATOM      5  C   UNL     1     -15.412 -38.353  25.321  1.00  0.00     0.159 C 
BRANCH   5   6
ATOM      6  O   UNL     1     -15.837 -38.493  26.651  1.00  0.00    -0.396 OA
ATOM      7  H   UNL     1     -16.827 -38.539  26.632  1.00  0.00     0.210 HD
ENDBRANCH   5   6
ENDBRANCH   3   5
ENDBRANCH   2   3
ENDBRANCH   1   2
BRANCH   1   8
ATOM      8  C   UNL     1     -18.807 -38.499  24.951  1.00  0.00     0.136 C 
ATOM      9  O   UNL     1     -18.793 -37.905  26.021  1.00  0.00    -0.299 OA
BRANCH   8  10
ATOM     10  C   UNL     1     -19.720 -39.699  24.761  1.00  0.00     0.064 C 
ATOM     11  C   UNL     1     -20.871 -39.634  25.788  1.00  0.00     0.017 C 
BRANCH  10  12
ATOM     12  C   UNL     1     -18.890 -41.033  24.791  1.00  0.00     0.072 C 
ATOM     13  C   UNL     1     -18.546 -41.490  26.169  1.00  0.00     0.137 C 
ATOM     14  C   UNL     1     -19.496 -42.311  24.079  1.00  0.00    -0.019 C 
ATOM     15  O   UNL     1     -17.966 -40.783  26.978  1.00  0.00    -0.299 OA
ATOM     16  C   UNL     1     -18.898 -42.890  26.464  1.00  0.00     0.080 C 
ATOM     17  C   UNL     1     -19.293 -43.491  25.103  1.00  0.00     0.007 C 
ATOM     18  C   UNL     1     -20.994 -42.198  23.676  1.00  0.00     0.008 C 
ATOM     19  C   UNL     1     -18.675 -42.557  22.780  1.00  0.00     0.012 C 
ATOM     20  C   UNL     1     -20.434 -44.566  25.172  1.00  0.00     0.001 C 
ATOM     21  C   UNL     1     -21.627 -43.518  23.178  1.00  0.00     0.005 C 
ATOM     22  C   UNL     1     -21.016 -44.827  23.766  1.00  0.00     0.003 C 
ATOM     23  C   UNL     1     -21.570 -44.293  26.192  1.00  0.00     0.031 C 
ATOM     24  C   UNL     1     -22.021 -46.043  23.780  1.00  0.00    -0.008 C 
ATOM     25  C   UNL     1     -22.818 -45.117  25.978  1.00  0.00    -0.027 C 
ATOM     26  C   UNL     1     -23.077 -45.843  24.868  1.00  0.00    -0.065 C 
ATOM     27  C   UNL     1     -22.702 -46.208  22.377  1.00  0.00     0.014 C 
ATOM     28  C   UNL     1     -21.248 -47.356  24.095  1.00  0.00     0.016 C 
ATOM     29  C   UNL     1     -24.334 -46.693  24.831  1.00  0.00     0.063 C 
ATOM     30  C   UNL     1     -23.912 -47.158  22.378  1.00  0.00     0.033 C 
ATOM     31  C   UNL     1     -24.946 -46.716  23.424  1.00  0.00     0.118 C 
BRANCH  31  32
ATOM     32  O   UNL     1     -26.075 -47.553  23.389  1.00  0.00    -0.393 OA
ATOM     33  H   UNL     1     -26.057 -48.119  24.206  1.00  0.00     0.210 HD
ENDBRANCH  31  32
ENDBRANCH  10  12
ENDBRANCH   8  10
ENDBRANCH   1   8
TORSDOF 8
ENDMDL
MODEL 6
REMARK VINA RESULT:    -6.523      2.140      8.816
REMARK INTER + INTRA:         -10.142
REMARK INTER:                 -10.025
REMARK INTRA:                  -0.117
REMARK UNBOUND:                -0.950
REMARK SMILES C[C@@H](CO)CCC(=O)[C@H](C)[C@H]1C(=O)C[C@H]2[C@H]3CC=C4C[C@H](O)CC[C@@]4(C)[C@H]3CC[C@@]12C
REMARK SMILES IDX 6 1 5 2 2 3 1 4 3 5 4 6 7 8 8 9 9 10 10 11 11 12 12 13 30 14
REMARK SMILES IDX 13 15 14 16 15 17 29 18 31 19 16 20 28 21 27 22 17 23 25 24
REMARK SMILES IDX 18 25 19 26 24 27 26 28 20 29 23 30 21 31 22 32
REMARK H PARENT 4 7 22 33
REMARK Flexibility Score: inf
ROOT
ATOM      1  C   UNL     1     -17.196 -37.468  25.780  1.00  0.00     0.076 C 
ENDROOT
BRANCH   1   2
ATOM      2  C   UNL     1     -15.892 -37.664  26.574  1.00  0.00     0.013 C 
BRANCH   2   3
ATOM      3  C   UNL     1     -14.643 -37.001  25.946  1.00  0.00     0.012 C 
ATOM      4  C   UNL     1     -14.963 -36.330  24.603  1.00  0.00     0.010 C 
BRANCH   3   5
ATOM      5  C   UNL     1     -13.932 -36.012  26.890  1.00  0.00     0.159 C 
BRANCH   5   6
ATOM      6  O   UNL     1     -12.658 -35.683  26.403  1.00  0.00    -0.396 OA
ATOM      7  H   UNL     1     -12.704 -34.741  26.096  1.00  0.00     0.210 HD
ENDBRANCH   5   6
ENDBRANCH   3   5
ENDBRANCH   2   3
ENDBRANCH   1   2
BRANCH   1   8
ATOM      8  C   UNL     1     -17.996 -38.744  25.787  1.00  0.00     0.136 C 
ATOM      9  O   UNL     1     -18.289 -39.252  26.860  1.00  0.00    -0.299 OA
BRANCH   8  10
ATOM     10  C   UNL     1     -18.377 -39.438  24.490  1.00  0.00     0.064 C 
ATOM     11  C   UNL     1     -17.863 -38.608  23.295  1.00  0.00     0.017 C 
BRANCH  10  12
ATOM     12  C   UNL     1     -19.919 -39.742  24.461  1.00  0.00     0.072 C 
ATOM     13  C   UNL     1     -20.526 -39.615  23.104  1.00  0.00     0.137 C 
ATOM     14  C   UNL     1     -20.419 -41.145  25.000  1.00  0.00    -0.019 C 
ATOM     15  O   UNL     1     -20.429 -38.605  22.425  1.00  0.00    -0.299 OA
ATOM     16  C   UNL     1     -21.316 -40.780  22.667  1.00  0.00     0.080 C 
ATOM     17  C   UNL     1     -21.447 -41.659  23.924  1.00  0.00     0.007 C 
ATOM     18  C   UNL     1     -19.301 -42.203  25.228  1.00  0.00     0.008 C 
ATOM     19  C   UNL     1     -21.122 -40.900  26.366  1.00  0.00     0.012 C 
ATOM     20  C   UNL     1     -21.454 -43.202  23.640  1.00  0.00     0.001 C 
ATOM     21  C   UNL     1     -19.818 -43.625  25.549  1.00  0.00     0.005 C 
ATOM     22  C   UNL     1     -21.208 -43.993  24.943  1.00  0.00     0.003 C 
ATOM     23  C   UNL     1     -20.508 -43.696  22.514  1.00  0.00     0.031 C 
ATOM     24  C   UNL     1     -21.409 -45.541  24.719  1.00  0.00    -0.008 C 
ATOM     25  C   UNL     1     -20.251 -45.185  22.515  1.00  0.00    -0.027 C 
ATOM     26  C   UNL     1     -20.573 -46.017  23.531  1.00  0.00    -0.065 C 
ATOM     27  C   UNL     1     -21.024 -46.338  26.015  1.00  0.00     0.014 C 
ATOM     28  C   UNL     1     -22.904 -45.834  24.403  1.00  0.00     0.016 C 
ATOM     29  C   UNL     1     -20.334 -47.506  23.354  1.00  0.00     0.063 C 
ATOM     30  C   UNL     1     -20.892 -47.855  25.799  1.00  0.00     0.033 C 
ATOM     31  C   UNL     1     -19.893 -48.156  24.672  1.00  0.00     0.118 C 
BRANCH  31  32
ATOM     32  O   UNL     1     -19.732 -49.543  24.511  1.00  0.00    -0.393 OA
ATOM     33  H   UNL     1     -20.302 -49.826  23.747  1.00  0.00     0.210 HD
ENDBRANCH  31  32
ENDBRANCH  10  12
ENDBRANCH   8  10
ENDBRANCH   1   8
TORSDOF 8
ENDMDL
MODEL 7
REMARK VINA RESULT:    -6.263      1.610      2.773
REMARK INTER + INTRA:          -9.775
REMARK INTER:                  -8.673
REMARK INTRA:                  -1.102
REMARK UNBOUND:                -0.950
REMARK SMILES C[C@@H](CO)CCC(=O)[C@H](C)[C@H]1C(=O)C[C@H]2[C@H]3CC=C4C[C@H](O)CC[C@@]4(C)[C@H]3CC[C@@]12C
REMARK SMILES IDX 6 1 5 2 2 3 1 4 3 5 4 6 7 8 8 9 9 10 10 11 11 12 12 13 30 14
REMARK SMILES IDX 13 15 14 16 15 17 29 18 31 19 16 20 28 21 27 22 17 23 25 24
REMARK SMILES IDX 18 25 19 26 24 27 26 28 20 29 23 30 21 31 22 32
REMARK H PARENT 4 7 22 33
REMARK Flexibility Score: inf
ROOT
ATOM      1  C   UNL     1     -23.813 -45.079  24.758  1.00  0.00     0.076 C 
ENDROOT
BRANCH   1   2
ATOM      2  C   UNL     1     -24.373 -46.295  23.997  1.00  0.00     0.013 C 
BRANCH   2   3
ATOM      3  C   UNL     1     -23.313 -47.338  23.571  1.00  0.00     0.012 C 
ATOM      4  C   UNL     1     -23.005 -47.262  22.069  1.00  0.00     0.010 C 
BRANCH   3   5
ATOM      5  C   UNL     1     -22.014 -47.268  24.395  1.00  0.00     0.159 C 
BRANCH   5   6
ATOM      6  O   UNL     1     -20.904 -47.054  23.563  1.00  0.00    -0.396 OA
ATOM      7  H   UNL     1     -20.993 -46.136  23.199  1.00  0.00     0.210 HD
ENDBRANCH   5   6
ENDBRANCH   3   5
ENDBRANCH   2   3
ENDBRANCH   1   2
BRANCH   1   8
ATOM      8  C   UNL     1     -24.005 -43.831  23.939  1.00  0.00     0.136 C 
ATOM      9  O   UNL     1     -24.925 -43.787  23.134  1.00  0.00    -0.299 OA
BRANCH   8  10
ATOM     10  C   UNL     1     -23.037 -42.664  24.047  1.00  0.00     0.064 C 
ATOM     11  C   UNL     1     -23.127 -41.803  22.770  1.00  0.00     0.017 C 
BRANCH  10  12
ATOM     12  C   UNL     1     -21.592 -43.179  24.391  1.00  0.00     0.072 C 
ATOM     13  C   UNL     1     -20.821 -43.630  23.196  1.00  0.00     0.137 C 
ATOM     14  C   UNL     1     -20.610 -42.205  25.162  1.00  0.00    -0.019 C 
ATOM     15  O   UNL     1     -21.238 -44.471  22.415  1.00  0.00    -0.299 OA
ATOM     16  C   UNL     1     -19.480 -43.034  23.062  1.00  0.00     0.080 C 
ATOM     17  C   UNL     1     -19.238 -42.307  24.397  1.00  0.00     0.007 C 
ATOM     18  C   UNL     1     -21.075 -40.722  25.242  1.00  0.00     0.008 C 
ATOM     19  C   UNL     1     -20.474 -42.734  26.620  1.00  0.00     0.012 C 
ATOM     20  C   UNL     1     -18.401 -40.986  24.275  1.00  0.00     0.001 C 
ATOM     21  C   UNL     1     -20.017 -39.746  25.808  1.00  0.00     0.005 C 
ATOM     22  C   UNL     1     -18.529 -40.144  25.564  1.00  0.00     0.003 C 
ATOM     23  C   UNL     1     -18.676 -40.113  23.023  1.00  0.00     0.031 C 
ATOM     24  C   UNL     1     -17.541 -38.915  25.545  1.00  0.00    -0.008 C 
ATOM     25  C   UNL     1     -18.154 -38.698  23.115  1.00  0.00    -0.027 C 
ATOM     26  C   UNL     1     -17.718 -38.114  24.254  1.00  0.00    -0.065 C 
ATOM     27  C   UNL     1     -17.780 -37.999  26.795  1.00  0.00     0.014 C 
ATOM     28  C   UNL     1     -16.072 -39.424  25.597  1.00  0.00     0.016 C 
ATOM     29  C   UNL     1     -17.139 -36.713  24.177  1.00  0.00     0.063 C 
ATOM     30  C   UNL     1     -17.089 -36.628  26.707  1.00  0.00     0.033 C 
ATOM     31  C   UNL     1     -17.503 -35.895  25.423  1.00  0.00     0.118 C 
BRANCH  31  32
ATOM     32  O   UNL     1     -16.913 -34.620  25.368  1.00  0.00    -0.393 OA
ATOM     33  H   UNL     1     -17.247 -34.168  24.548  1.00  0.00     0.210 HD
ENDBRANCH  31  32
ENDBRANCH  10  12
ENDBRANCH   8  10
ENDBRANCH   1   8
TORSDOF 8
ENDMDL
