MODEL 1
REMARK VINA RESULT:    -6.071      0.000      0.000
REMARK INTER + INTRA:          -9.953
REMARK INTER:                  -9.265
REMARK INTRA:                  -0.689
REMARK UNBOUND:                -0.689
REMARK SMILES CC(=O)CCC=C(C)CCC=C(C)CCC=C(C)C
REMARK SMILES IDX 10 1 11 2 12 3 13 4 14 5 15 6 16 7 18 8 17 9 19 10 9 11 7 12
REMARK SMILES IDX 6 13 8 14 5 15 4 16 2 17 3 18 1 19
REMARK H PARENT
REMARK Flexibility Score: inf
ROOT
ATOM      1  C   UNL     1      14.676  20.620  26.789  1.00  0.00     0.032 C 
ENDROOT
BRANCH   1   2
ATOM      2  C   UNL     1      14.909  21.078  28.210  1.00  0.00    -0.028 C 
ATOM      3  C   UNL     1      15.205  20.265  29.249  1.00  0.00    -0.077 C 
ATOM      4  C   UNL     1      15.324  20.876  30.621  1.00  0.00     0.039 C 
BRANCH   3   5
ATOM      5  C   UNL     1      15.456  18.776  29.087  1.00  0.00     0.034 C 
BRANCH   5   6
ATOM      6  C   UNL     1      16.468  18.251  30.117  1.00  0.00     0.032 C 
BRANCH   6   7
ATOM      7  C   UNL     1      16.352  16.758  30.309  1.00  0.00    -0.028 C 
ATOM      8  C   UNL     1      17.076  14.411  30.297  1.00  0.00     0.039 C 
ATOM      9  C   UNL     1      17.360  15.879  30.114  1.00  0.00    -0.080 C 
ATOM     10  C   UNL     1      18.754  16.327  29.740  1.00  0.00     0.039 C 
ENDBRANCH   6   7
ENDBRANCH   5   6
ENDBRANCH   3   5
ENDBRANCH   1   2
BRANCH   1  11
ATOM     11  C   UNL     1      14.975  21.738  25.779  1.00  0.00     0.034 C 
BRANCH  11  12
ATOM     12  C   UNL     1      16.282  22.441  26.084  1.00  0.00    -0.077 C 
ATOM     13  C   UNL     1      16.261  23.615  26.753  1.00  0.00    -0.028 C 
ATOM     14  C   UNL     1      17.579  21.815  25.634  1.00  0.00     0.039 C 
BRANCH  13  15
ATOM     15  C   UNL     1      17.510  24.391  27.096  1.00  0.00     0.035 C 
BRANCH  15  16
ATOM     16  C   UNL     1      17.193  25.703  27.827  1.00  0.00     0.079 C 
BRANCH  16  17
ATOM     17  C   UNL     1      18.401  26.603  27.906  1.00  0.00     0.130 C 
ATOM     18  O   UNL     1      18.330  27.744  27.476  1.00  0.00    -0.300 OA
ATOM     19  C   UNL     1      19.689  26.131  28.513  1.00  0.00     0.087 C 
ENDBRANCH  16  17
ENDBRANCH  15  16
ENDBRANCH  13  15
ENDBRANCH  11  12
ENDBRANCH   1  11
TORSDOF 9
ENDMDL
MODEL 2
REMARK VINA RESULT:    -5.973      3.506      6.887
REMARK INTER + INTRA:          -9.804
REMARK INTER:                  -8.520
REMARK INTRA:                  -1.283
REMARK UNBOUND:                -0.689
REMARK SMILES CC(=O)CCC=C(C)CCC=C(C)CCC=C(C)C
REMARK SMILES IDX 10 1 11 2 12 3 13 4 14 5 15 6 16 7 18 8 17 9 19 10 9 11 7 12
REMARK SMILES IDX 6 13 8 14 5 15 4 16 2 17 3 18 1 19
REMARK H PARENT
REMARK Flexibility Score: inf
ROOT
ATOM      1  C   UNL     1      14.106  25.086  29.019  1.00  0.00     0.032 C 
ENDROOT
BRANCH   1   2
ATOM      2  C   UNL     1      14.892  26.276  29.517  1.00  0.00    -0.028 C 
ATOM      3  C   UNL     1      16.121  26.633  29.077  1.00  0.00    -0.077 C 
ATOM      4  C   UNL     1      16.803  27.802  29.741  1.00  0.00     0.039 C 
BRANCH   3   5
ATOM      5  C   UNL     1      16.822  25.934  27.925  1.00  0.00     0.034 C 
BRANCH   5   6
ATOM      6  C   UNL     1      18.240  26.480  27.704  1.00  0.00     0.032 C 
BRANCH   6   7
ATOM      7  C   UNL     1      19.181  25.411  27.202  1.00  0.00    -0.028 C 
ATOM      8  C   UNL     1      21.174  23.974  27.185  1.00  0.00     0.039 C 
ATOM      9  C   UNL     1      20.308  25.021  27.838  1.00  0.00    -0.080 C 
ATOM     10  C   UNL     1      20.707  25.586  29.180  1.00  0.00     0.039 C 
ENDBRANCH   6   7
ENDBRANCH   5   6
ENDBRANCH   3   5
ENDBRANCH   1   2
BRANCH   1  11
ATOM     11  C   UNL     1      13.987  23.997  30.096  1.00  0.00     0.034 C 
BRANCH  11  12
ATOM     12  C   UNL     1      14.494  22.657  29.602  1.00  0.00    -0.077 C 
ATOM     13  C   UNL     1      14.427  22.370  28.284  1.00  0.00    -0.028 C 
ATOM     14  C   UNL     1      15.062  21.672  30.596  1.00  0.00     0.039 C 
BRANCH  13  15
ATOM     15  C   UNL     1      14.902  21.060  27.701  1.00  0.00     0.035 C 
BRANCH  15  16
ATOM     16  C   UNL     1      14.880  21.069  26.167  1.00  0.00     0.079 C 
BRANCH  16  17
ATOM     17  C   UNL     1      15.812  22.113  25.603  1.00  0.00     0.130 C 
ATOM     18  O   UNL     1      15.353  23.158  25.169  1.00  0.00    -0.300 OA
ATOM     19  C   UNL     1      17.297  21.901  25.574  1.00  0.00     0.087 C 
ENDBRANCH  16  17
ENDBRANCH  15  16
ENDBRANCH  13  15
ENDBRANCH  11  12
ENDBRANCH   1  11
TORSDOF 9
ENDMDL
MODEL 3
REMARK VINA RESULT:    -5.966      6.219      9.130
REMARK INTER + INTRA:          -9.793
REMARK INTER:                  -7.726
REMARK INTRA:                  -2.066
REMARK UNBOUND:                -0.689
REMARK SMILES CC(=O)CCC=C(C)CCC=C(C)CCC=C(C)C
REMARK SMILES IDX 10 1 11 2 12 3 13 4 14 5 15 6 16 7 18 8 17 9 19 10 9 11 7 12
REMARK SMILES IDX 6 13 8 14 5 15 4 16 2 17 3 18 1 19
REMARK H PARENT
REMARK Flexibility Score: inf
ROOT
ATOM      1  C   UNL     1      17.836  26.480  28.350  1.00  0.00     0.032 C 
ENDROOT
BRANCH   1   2
ATOM      2  C   UNL     1      18.554  25.433  27.532  1.00  0.00    -0.028 C 
ATOM      3  C   UNL     1      19.838  25.051  27.715  1.00  0.00    -0.077 C 
ATOM      4  C   UNL     1      20.428  24.050  26.755  1.00  0.00     0.039 C 
BRANCH   3   5
ATOM      5  C   UNL     1      20.695  25.557  28.863  1.00  0.00     0.034 C 
BRANCH   5   6
ATOM      6  C   UNL     1      21.825  26.474  28.372  1.00  0.00     0.032 C 
BRANCH   6   7
ATOM      7  C   UNL     1      21.910  27.744  29.185  1.00  0.00    -0.028 C 
ATOM      8  C   UNL     1      22.977  29.688  30.243  1.00  0.00     0.039 C 
ATOM      9  C   UNL     1      23.038  28.467  29.360  1.00  0.00    -0.080 C 
ATOM     10  C   UNL     1      24.339  28.100  28.687  1.00  0.00     0.039 C 
ENDBRANCH   6   7
ENDBRANCH   5   6
ENDBRANCH   3   5
ENDBRANCH   1   2
BRANCH   1  11
ATOM     11  C   UNL     1      18.144  27.898  27.847  1.00  0.00     0.034 C 
BRANCH  11  12
ATOM     12  C   UNL     1      18.534  28.827  28.980  1.00  0.00    -0.077 C 
ATOM     13  C   UNL     1      19.124  30.008  28.693  1.00  0.00    -0.028 C 
ATOM     14  C   UNL     1      18.255  28.411  30.404  1.00  0.00     0.039 C 
BRANCH  13  15
ATOM     15  C   UNL     1      19.554  30.994  29.754  1.00  0.00     0.035 C 
BRANCH  15  16
ATOM     16  C   UNL     1      18.778  32.315  29.662  1.00  0.00     0.079 C 
BRANCH  16  17
ATOM     17  C   UNL     1      17.333  32.141  30.061  1.00  0.00     0.130 C 
ATOM     18  O   UNL     1      17.061  31.807  31.203  1.00  0.00    -0.300 OA
ATOM     19  C   UNL     1      16.220  32.384  29.086  1.00  0.00     0.087 C 
ENDBRANCH  16  17
ENDBRANCH  15  16
ENDBRANCH  13  15
ENDBRANCH  11  12
ENDBRANCH   1  11
TORSDOF 9
ENDMDL
MODEL 4
REMARK VINA RESULT:    -5.897      7.717     10.684
REMARK INTER + INTRA:          -9.688
REMARK INTER:                  -7.226
REMARK INTRA:                  -2.463
REMARK UNBOUND:                -0.689
REMARK SMILES CC(=O)CCC=C(C)CCC=C(C)CCC=C(C)C
REMARK SMILES IDX 10 1 11 2 12 3 13 4 14 5 15 6 16 7 18 8 17 9 19 10 9 11 7 12
REMARK SMILES IDX 6 13 8 14 5 15 4 16 2 17 3 18 1 19
REMARK H PARENT
REMARK Flexibility Score: inf
ROOT
ATOM      1  C   UNL     1      17.219  32.582  28.778  1.00  0.00     0.032 C 
ENDROOT
BRANCH   1   2
ATOM      2  C   UNL     1      18.479  33.162  29.375  1.00  0.00    -0.028 C 
ATOM      3  C   UNL     1      19.365  32.477  30.134  1.00  0.00    -0.077 C 
ATOM      4  C   UNL     1      20.530  33.230  30.723  1.00  0.00     0.039 C 
BRANCH   3   5
ATOM      5  C   UNL     1      19.255  30.983  30.387  1.00  0.00     0.034 C 
BRANCH   5   6
ATOM      6  C   UNL     1      20.019  30.168  29.333  1.00  0.00     0.032 C 
BRANCH   6   7
ATOM      7  C   UNL     1      19.086  29.353  28.469  1.00  0.00    -0.028 C 
ATOM      8  C   UNL     1      18.182  27.343  27.385  1.00  0.00     0.039 C 
ATOM      9  C   UNL     1      19.153  28.011  28.324  1.00  0.00    -0.080 C 
ATOM     10  C   UNL     1      20.151  27.170  29.085  1.00  0.00     0.039 C 
ENDBRANCH   6   7
ENDBRANCH   5   6
ENDBRANCH   3   5
ENDBRANCH   1   2
BRANCH   1  11
ATOM     11  C   UNL     1      16.008  32.792  29.700  1.00  0.00     0.034 C 
BRANCH  11  12
ATOM     12  C   UNL     1      15.459  31.479  30.219  1.00  0.00    -0.077 C 
ATOM     13  C   UNL     1      15.660  30.349  29.505  1.00  0.00    -0.028 C 
ATOM     14  C   UNL     1      14.699  31.461  31.524  1.00  0.00     0.039 C 
BRANCH  13  15
ATOM     15  C   UNL     1      15.145  28.997  29.940  1.00  0.00     0.035 C 
BRANCH  15  16
ATOM     16  C   UNL     1      16.257  28.119  30.529  1.00  0.00     0.079 C 
BRANCH  16  17
ATOM     17  C   UNL     1      16.259  28.160  32.037  1.00  0.00     0.130 C 
ATOM     18  O   UNL     1      15.421  27.523  32.657  1.00  0.00    -0.300 OA
ATOM     19  C   UNL     1      17.278  28.957  32.795  1.00  0.00     0.087 C 
ENDBRANCH  16  17
ENDBRANCH  15  16
ENDBRANCH  13  15
ENDBRANCH  11  12
ENDBRANCH   1  11
TORSDOF 9
ENDMDL
MODEL 5
REMARK VINA RESULT:    -5.831      4.704      9.737
REMARK INTER + INTRA:          -9.588
REMARK INTER:                  -7.192
REMARK INTRA:                  -2.396
REMARK UNBOUND:                -0.689
REMARK SMILES CC(=O)CCC=C(C)CCC=C(C)CCC=C(C)C
REMARK SMILES IDX 10 1 11 2 12 3 13 4 14 5 15 6 16 7 18 8 17 9 19 10 9 11 7 12
REMARK SMILES IDX 6 13 8 14 5 15 4 16 2 17 3 18 1 19
REMARK H PARENT
REMARK Flexibility Score: inf
ROOT
ATOM      1  C   UNL     1      15.140  30.640  30.396  1.00  0.00     0.032 C 
ENDROOT
BRANCH   1   2
ATOM      2  C   UNL     1      15.850  31.804  29.745  1.00  0.00    -0.028 C 
ATOM      3  C   UNL     1      17.185  32.016  29.781  1.00  0.00    -0.077 C 
ATOM      4  C   UNL     1      17.724  33.274  29.150  1.00  0.00     0.039 C 
BRANCH   3   5
ATOM      5  C   UNL     1      18.163  31.028  30.395  1.00  0.00     0.034 C 
BRANCH   5   6
ATOM      6  C   UNL     1      19.182  30.518  29.365  1.00  0.00     0.032 C 
BRANCH   6   7
ATOM      7  C   UNL     1      18.561  29.540  28.397  1.00  0.00    -0.028 C 
ATOM      8  C   UNL     1      18.121  27.362  27.348  1.00  0.00     0.039 C 
ATOM      9  C   UNL     1      18.773  28.205  28.414  1.00  0.00    -0.080 C 
ATOM     10  C   UNL     1      19.622  27.542  29.473  1.00  0.00     0.039 C 
ENDBRANCH   6   7
ENDBRANCH   5   6
ENDBRANCH   3   5
ENDBRANCH   1   2
BRANCH   1  11
ATOM     11  C   UNL     1      14.907  29.492  29.402  1.00  0.00     0.034 C 
BRANCH  11  12
ATOM     12  C   UNL     1      15.309  28.152  29.983  1.00  0.00    -0.077 C 
ATOM     13  C   UNL     1      14.800  27.020  29.448  1.00  0.00    -0.028 C 
ATOM     14  C   UNL     1      16.268  28.110  31.148  1.00  0.00     0.039 C 
BRANCH  13  15
ATOM     15  C   UNL     1      15.136  25.641  29.964  1.00  0.00     0.035 C 
BRANCH  15  16
ATOM     16  C   UNL     1      15.960  24.831  28.954  1.00  0.00     0.079 C 
BRANCH  16  17
ATOM     17  C   UNL     1      15.077  24.038  28.023  1.00  0.00     0.130 C 
ATOM     18  O   UNL     1      15.138  24.238  26.820  1.00  0.00    -0.300 OA
ATOM     19  C   UNL     1      14.131  22.996  28.543  1.00  0.00     0.087 C 
ENDBRANCH  16  17
ENDBRANCH  15  16
ENDBRANCH  13  15
ENDBRANCH  11  12
ENDBRANCH   1  11
TORSDOF 9
ENDMDL
MODEL 6
REMARK VINA RESULT:    -5.799      6.225     10.076
REMARK INTER + INTRA:          -9.539
REMARK INTER:                  -7.084
REMARK INTRA:                  -2.456
REMARK UNBOUND:                -0.689
REMARK SMILES CC(=O)CCC=C(C)CCC=C(C)CCC=C(C)C
REMARK SMILES IDX 10 1 11 2 12 3 13 4 14 5 15 6 16 7 18 8 17 9 19 10 9 11 7 12
REMARK SMILES IDX 6 13 8 14 5 15 4 16 2 17 3 18 1 19
REMARK H PARENT
REMARK Flexibility Score: inf
ROOT
ATOM      1  C   UNL     1      19.222  30.817  30.776  1.00  0.00     0.032 C 
ENDROOT
BRANCH   1   2
ATOM      2  C   UNL     1      18.354  31.519  29.758  1.00  0.00    -0.028 C 
ATOM      3  C   UNL     1      17.170  32.115  30.026  1.00  0.00    -0.077 C 
ATOM      4  C   UNL     1      16.390  32.699  28.877  1.00  0.00     0.039 C 
BRANCH   3   5
ATOM      5  C   UNL     1      16.615  32.253  31.433  1.00  0.00     0.034 C 
BRANCH   5   6
ATOM      6  C   UNL     1      15.273  31.523  31.592  1.00  0.00     0.032 C 
BRANCH   6   7
ATOM      7  C   UNL     1      15.464  30.046  31.838  1.00  0.00    -0.028 C 
ATOM      8  C   UNL     1      15.381  27.640  31.348  1.00  0.00     0.039 C 
ATOM      9  C   UNL     1      15.186  29.077  30.938  1.00  0.00    -0.080 C 
ATOM     10  C   UNL     1      14.709  29.394  29.540  1.00  0.00     0.039 C 
ENDBRANCH   6   7
ENDBRANCH   5   6
ENDBRANCH   3   5
ENDBRANCH   1   2
BRANCH   1  11
ATOM     11  C   UNL     1      18.908  29.315  30.845  1.00  0.00     0.034 C 
BRANCH  11  12
ATOM     12  C   UNL     1      19.165  28.623  29.521  1.00  0.00    -0.077 C 
ATOM     13  C   UNL     1      18.142  28.008  28.887  1.00  0.00    -0.028 C 
ATOM     14  C   UNL     1      20.558  28.635  28.940  1.00  0.00     0.039 C 
BRANCH  13  15
ATOM     15  C   UNL     1      18.303  27.288  27.569  1.00  0.00     0.035 C 
BRANCH  15  16
ATOM     16  C   UNL     1      18.174  25.767  27.723  1.00  0.00     0.079 C 
BRANCH  16  17
ATOM     17  C   UNL     1      19.523  25.104  27.854  1.00  0.00     0.130 C 
ATOM     18  O   UNL     1      20.121  25.162  28.917  1.00  0.00    -0.300 OA
ATOM     19  C   UNL     1      20.144  24.363  26.707  1.00  0.00     0.087 C 
ENDBRANCH  16  17
ENDBRANCH  15  16
ENDBRANCH  13  15
ENDBRANCH  11  12
ENDBRANCH   1  11
TORSDOF 9
ENDMDL
MODEL 7
REMARK VINA RESULT:    -5.738      7.415      9.885
REMARK INTER + INTRA:          -9.446
REMARK INTER:                  -7.401
REMARK INTRA:                  -2.044
REMARK UNBOUND:                -0.689
REMARK SMILES CC(=O)CCC=C(C)CCC=C(C)CCC=C(C)C
REMARK SMILES IDX 10 1 11 2 12 3 13 4 14 5 15 6 16 7 18 8 17 9 19 10 9 11 7 12
REMARK SMILES IDX 6 13 8 14 5 15 4 16 2 17 3 18 1 19
REMARK H PARENT
REMARK Flexibility Score: inf
ROOT
ATOM      1  C   UNL     1      15.295  28.079  30.292  1.00  0.00     0.032 C 
ENDROOT
BRANCH   1   2
ATOM      2  C   UNL     1      16.100  27.388  29.216  1.00  0.00    -0.028 C 
ATOM      3  C   UNL     1      17.360  27.720  28.856  1.00  0.00    -0.077 C 
ATOM      4  C   UNL     1      17.990  26.982  27.703  1.00  0.00     0.039 C 
BRANCH   3   5
ATOM      5  C   UNL     1      18.177  28.774  29.584  1.00  0.00     0.034 C 
BRANCH   5   6
ATOM      6  C   UNL     1      19.153  29.493  28.641  1.00  0.00     0.032 C 
BRANCH   6   7
ATOM      7  C   UNL     1      20.462  29.811  29.322  1.00  0.00    -0.028 C 
ATOM      8  C   UNL     1      22.755  29.421  30.114  1.00  0.00     0.039 C 
ATOM      9  C   UNL     1      21.532  28.986  29.348  1.00  0.00    -0.080 C 
ATOM     10  C   UNL     1      21.542  27.662  28.621  1.00  0.00     0.039 C 
ENDBRANCH   6   7
ENDBRANCH   5   6
ENDBRANCH   3   5
ENDBRANCH   1   2
BRANCH   1  11
ATOM     11  C   UNL     1      14.410  29.191  29.709  1.00  0.00     0.034 C 
BRANCH  11  12
ATOM     12  C   UNL     1      14.890  30.568  30.122  1.00  0.00    -0.077 C 
ATOM     13  C   UNL     1      15.734  31.245  29.312  1.00  0.00    -0.028 C 
ATOM     14  C   UNL     1      14.414  31.155  31.429  1.00  0.00     0.039 C 
BRANCH  13  15
ATOM     15  C   UNL     1      16.270  32.618  29.641  1.00  0.00     0.035 C 
BRANCH  15  16
ATOM     16  C   UNL     1      17.544  32.945  28.852  1.00  0.00     0.079 C 
BRANCH  16  17
ATOM     17  C   UNL     1      18.741  33.088  29.760  1.00  0.00     0.130 C 
ATOM     18  O   UNL     1      19.751  33.633  29.342  1.00  0.00    -0.300 OA
ATOM     19  C   UNL     1      18.713  32.586  31.173  1.00  0.00     0.087 C 
ENDBRANCH  16  17
ENDBRANCH  15  16
ENDBRANCH  13  15
ENDBRANCH  11  12
ENDBRANCH   1  11
TORSDOF 9
ENDMDL
MODEL 8
REMARK VINA RESULT:    -5.731      8.556     10.946
REMARK INTER + INTRA:          -9.435
REMARK INTER:                  -7.390
REMARK INTRA:                  -2.046
REMARK UNBOUND:                -0.689
REMARK SMILES CC(=O)CCC=C(C)CCC=C(C)CCC=C(C)C
REMARK SMILES IDX 10 1 11 2 12 3 13 4 14 5 15 6 16 7 18 8 17 9 19 10 9 11 7 12
REMARK SMILES IDX 6 13 8 14 5 15 4 16 2 17 3 18 1 19
REMARK H PARENT
REMARK Flexibility Score: inf
ROOT
ATOM      1  C   UNL     1      18.014  28.321  28.894  1.00  0.00     0.032 C 
ENDROOT
BRANCH   1   2
ATOM      2  C   UNL     1      17.426  28.414  30.283  1.00  0.00    -0.028 C 
ATOM      3  C   UNL     1      16.339  29.146  30.618  1.00  0.00    -0.077 C 
ATOM      4  C   UNL     1      15.934  29.196  32.068  1.00  0.00     0.039 C 
BRANCH   3   5
ATOM      5  C   UNL     1      15.493  29.886  29.596  1.00  0.00     0.034 C 
BRANCH   5   6
ATOM      6  C   UNL     1      15.350  31.375  29.942  1.00  0.00     0.032 C 
BRANCH   6   7
ATOM      7  C   UNL     1      16.441  32.206  29.310  1.00  0.00    -0.028 C 
ATOM      8  C   UNL     1      18.493  33.553  29.214  1.00  0.00     0.039 C 
ATOM      9  C   UNL     1      17.513  32.695  29.972  1.00  0.00    -0.080 C 
ATOM     10  C   UNL     1      17.761  32.391  31.431  1.00  0.00     0.039 C 
ENDBRANCH   6   7
ENDBRANCH   5   6
ENDBRANCH   3   5
ENDBRANCH   1   2
BRANCH   1  11
ATOM     11  C   UNL     1      18.841  29.568  28.546  1.00  0.00     0.034 C 
BRANCH  11  12
ATOM     12  C   UNL     1      20.265  29.461  29.053  1.00  0.00    -0.077 C 
ATOM     13  C   UNL     1      20.974  28.339  28.799  1.00  0.00    -0.028 C 
ATOM     14  C   UNL     1      20.859  30.610  29.831  1.00  0.00     0.039 C 
BRANCH  13  15
ATOM     15  C   UNL     1      22.396  28.140  29.269  1.00  0.00     0.035 C 
BRANCH  15  16
ATOM     16  C   UNL     1      23.327  27.715  28.125  1.00  0.00     0.079 C 
BRANCH  16  17
ATOM     17  C   UNL     1      24.749  28.156  28.372  1.00  0.00     0.130 C 
ATOM     18  O   UNL     1      25.645  27.717  27.668  1.00  0.00    -0.300 OA
ATOM     19  C   UNL     1      25.086  29.134  29.457  1.00  0.00     0.087 C 
ENDBRANCH  16  17
ENDBRANCH  15  16
ENDBRANCH  13  15
ENDBRANCH  11  12
ENDBRANCH   1  11
TORSDOF 9
ENDMDL
MODEL 9
REMARK VINA RESULT:    -5.702      6.097      9.511
REMARK INTER + INTRA:          -9.391
REMARK INTER:                  -7.376
REMARK INTRA:                  -2.015
REMARK UNBOUND:                -0.689
REMARK SMILES CC(=O)CCC=C(C)CCC=C(C)CCC=C(C)C
REMARK SMILES IDX 10 1 11 2 12 3 13 4 14 5 15 6 16 7 18 8 17 9 19 10 9 11 7 12
REMARK SMILES IDX 6 13 8 14 5 15 4 16 2 17 3 18 1 19
REMARK H PARENT
REMARK Flexibility Score: inf
ROOT
ATOM      1  C   UNL     1      17.513  32.150  29.005  1.00  0.00     0.032 C 
ENDROOT
BRANCH   1   2
ATOM      2  C   UNL     1      18.289  31.459  30.101  1.00  0.00    -0.028 C 
ATOM      3  C   UNL     1      18.962  30.295  29.960  1.00  0.00    -0.077 C 
ATOM      4  C   UNL     1      19.615  29.697  31.179  1.00  0.00     0.039 C 
BRANCH   3   5
ATOM      5  C   UNL     1      19.117  29.587  28.625  1.00  0.00     0.034 C 
BRANCH   5   6
ATOM      6  C   UNL     1      18.292  28.292  28.565  1.00  0.00     0.032 C 
BRANCH   6   7
ATOM      7  C   UNL     1      19.100  27.136  28.025  1.00  0.00    -0.028 C 
ATOM      8  C   UNL     1      19.549  24.836  27.290  1.00  0.00     0.039 C 
ATOM      9  C   UNL     1      18.605  25.903  27.782  1.00  0.00    -0.080 C 
ATOM     10  C   UNL     1      17.142  25.574  27.970  1.00  0.00     0.039 C 
ENDBRANCH   6   7
ENDBRANCH   5   6
ENDBRANCH   3   5
ENDBRANCH   1   2
BRANCH   1  11
ATOM     11  C   UNL     1      16.132  32.612  29.495  1.00  0.00     0.034 C 
BRANCH  11  12
ATOM     12  C   UNL     1      15.355  31.483  30.142  1.00  0.00    -0.077 C 
ATOM     13  C   UNL     1      15.031  30.398  29.406  1.00  0.00    -0.028 C 
ATOM     14  C   UNL     1      14.960  31.597  31.595  1.00  0.00     0.039 C 
BRANCH  13  15
ATOM     15  C   UNL     1      14.254  29.228  29.962  1.00  0.00     0.035 C 
BRANCH  15  16
ATOM     16  C   UNL     1      15.034  27.911  29.850  1.00  0.00     0.079 C 
BRANCH  16  17
ATOM     17  C   UNL     1      15.481  27.411  31.202  1.00  0.00     0.130 C 
ATOM     18  O   UNL     1      15.080  26.331  31.606  1.00  0.00    -0.300 OA
ATOM     19  C   UNL     1      16.418  28.209  32.058  1.00  0.00     0.087 C 
ENDBRANCH  16  17
ENDBRANCH  15  16
ENDBRANCH  13  15
ENDBRANCH  11  12
ENDBRANCH   1  11
TORSDOF 9
ENDMDL
