MODEL 1
REMARK VINA RESULT:    -6.317      0.000      0.000
REMARK INTER + INTRA:          -7.100
REMARK INTER:                  -6.871
REMARK INTRA:                  -0.228
REMARK UNBOUND:                -0.228
REMARK SMILES O=C([O-])c1ccccc1O
REMARK SMILES IDX 4 1 9 2 5 3 8 4 6 5 7 6 2 7 1 8 3 9 10 10
REMARK H PARENT 10 11
REMARK Flexibility Score: inf
ROOT
ATOM      1  C   UNL     1     -19.322  -8.736  10.187  1.00  0.00     0.039 A 
ATOM      2  C   UNL     1     -20.384  -8.449  11.076  1.00  0.00     0.124 A 
ATOM      3  C   UNL     1     -18.095  -8.064  10.356  1.00  0.00     0.014 A 
ATOM      4  C   UNL     1     -20.203  -7.509  12.102  1.00  0.00     0.047 A 
ATOM      5  C   UNL     1     -17.929  -7.130  11.382  1.00  0.00     0.001 A 
ATOM      6  C   UNL     1     -18.981  -6.854  12.254  1.00  0.00     0.004 A 
ENDROOT
BRANCH   1   7
ATOM      7  C   UNL     1     -19.470  -9.724   9.086  1.00  0.00     0.075 C 
ATOM      8  O   UNL     1     -20.299  -9.521   8.158  1.00  0.00    -0.545 OA
ATOM      9  O   UNL     1     -18.705 -10.883   9.053  1.00  0.00    -0.545 OA
ENDBRANCH   1   7
BRANCH   2  10
ATOM     10  O   UNL     1     -21.617  -9.089  10.947  1.00  0.00    -0.507 OA
ATOM     11  H   UNL     1     -22.193  -9.305  11.753  1.00  0.00     0.293 HD
ENDBRANCH   2  10
TORSDOF 2
ENDMDL
MODEL 2
REMARK VINA RESULT:    -6.014      2.103      3.186
REMARK INTER + INTRA:          -6.770
REMARK INTER:                  -6.559
REMARK INTRA:                  -0.211
REMARK UNBOUND:                -0.228
REMARK SMILES O=C([O-])c1ccccc1O
REMARK SMILES IDX 4 1 9 2 5 3 8 4 6 5 7 6 2 7 1 8 3 9 10 10
REMARK H PARENT 10 11
REMARK Flexibility Score: inf
ROOT
ATOM      1  C   UNL     1     -19.458  -9.159  12.035  1.00  0.00     0.039 A 
ATOM      2  C   UNL     1     -18.289  -8.713  11.376  1.00  0.00     0.124 A 
ATOM      3  C   UNL     1     -20.431  -8.209  12.406  1.00  0.00     0.014 A 
ATOM      4  C   UNL     1     -18.116  -7.347  11.104  1.00  0.00     0.047 A 
ATOM      5  C   UNL     1     -20.246  -6.853  12.129  1.00  0.00     0.001 A 
ATOM      6  C   UNL     1     -19.091  -6.422  11.479  1.00  0.00     0.004 A 
ENDROOT
BRANCH   1   7
ATOM      7  C   UNL     1     -19.682 -10.595  12.344  1.00  0.00     0.075 C 
ATOM      8  O   UNL     1     -18.955 -11.184  13.189  1.00  0.00    -0.545 OA
ATOM      9  O   UNL     1     -20.689 -11.317  11.715  1.00  0.00    -0.545 OA
ENDBRANCH   1   7
BRANCH   2  10
ATOM     10  O   UNL     1     -17.298  -9.616  10.990  1.00  0.00    -0.507 OA
ATOM     11  H   UNL     1     -16.979  -9.680  10.030  1.00  0.00     0.293 HD
ENDBRANCH   2  10
TORSDOF 2
ENDMDL
MODEL 3
REMARK VINA RESULT:    -5.803      1.437      1.653
REMARK INTER + INTRA:          -6.540
REMARK INTER:                  -6.349
REMARK INTRA:                  -0.191
REMARK UNBOUND:                -0.228
REMARK SMILES O=C([O-])c1ccccc1O
REMARK SMILES IDX 4 1 9 2 5 3 8 4 6 5 7 6 2 7 1 8 3 9 10 10
REMARK H PARENT 10 11
REMARK Flexibility Score: inf
ROOT
ATOM      1  C   UNL     1     -19.088  -9.362  10.841  1.00  0.00     0.039 A 
ATOM      2  C   UNL     1     -19.537  -8.931  12.111  1.00  0.00     0.124 A 
ATOM      3  C   UNL     1     -18.273  -8.500  10.081  1.00  0.00     0.014 A 
ATOM      4  C   UNL     1     -19.167  -7.664  12.591  1.00  0.00     0.047 A 
ATOM      5  C   UNL     1     -17.912  -7.243  10.570  1.00  0.00     0.001 A 
ATOM      6  C   UNL     1     -18.358  -6.825  11.823  1.00  0.00     0.004 A 
ENDROOT
BRANCH   1   7
ATOM      7  C   UNL     1     -19.456 -10.694  10.293  1.00  0.00     0.075 C 
ATOM      8  O   UNL     1     -18.778 -11.209   9.364  1.00  0.00    -0.545 OA
ATOM      9  O   UNL     1     -20.547 -11.398  10.790  1.00  0.00    -0.545 OA
ENDBRANCH   1   7
BRANCH   2  10
ATOM     10  O   UNL     1     -20.346  -9.748  12.899  1.00  0.00    -0.507 OA
ATOM     11  H   UNL     1     -20.148 -10.734  13.024  1.00  0.00     0.293 HD
ENDBRANCH   2  10
TORSDOF 2
ENDMDL
MODEL 4
REMARK VINA RESULT:    -5.579      1.443      2.400
REMARK INTER + INTRA:          -6.297
REMARK INTER:                  -6.120
REMARK INTRA:                  -0.177
REMARK UNBOUND:                -0.228
REMARK SMILES O=C([O-])c1ccccc1O
REMARK SMILES IDX 4 1 9 2 5 3 8 4 6 5 7 6 2 7 1 8 3 9 10 10
REMARK H PARENT 10 11
REMARK Flexibility Score: inf
ROOT
ATOM      1  C   UNL     1     -19.801  -9.337  11.145  1.00  0.00     0.039 A 
ATOM      2  C   UNL     1     -19.020  -8.424  10.397  1.00  0.00     0.124 A 
ATOM      3  C   UNL     1     -20.457  -8.878  12.304  1.00  0.00     0.014 A 
ATOM      4  C   UNL     1     -18.910  -7.090  10.818  1.00  0.00     0.047 A 
ATOM      5  C   UNL     1     -20.339  -7.547  12.711  1.00  0.00     0.001 A 
ATOM      6  C   UNL     1     -19.568  -6.654  11.969  1.00  0.00     0.004 A 
ENDROOT
BRANCH   1   7
ATOM      7  C   UNL     1     -19.943 -10.760  10.737  1.00  0.00     0.075 C 
ATOM      8  O   UNL     1     -20.872 -11.467  11.212  1.00  0.00    -0.545 OA
ATOM      9  O   UNL     1     -19.063 -11.338   9.829  1.00  0.00    -0.545 OA
ENDBRANCH   1   7
BRANCH   2  10
ATOM     10  O   UNL     1     -18.352  -8.832   9.243  1.00  0.00    -0.507 OA
ATOM     11  H   UNL     1     -18.376  -9.794   8.924  1.00  0.00     0.293 HD
ENDBRANCH   2  10
TORSDOF 2
ENDMDL
MODEL 5
REMARK VINA RESULT:    -5.532      2.389      3.493
REMARK INTER + INTRA:          -6.246
REMARK INTER:                  -5.998
REMARK INTRA:                  -0.248
REMARK UNBOUND:                -0.228
REMARK SMILES O=C([O-])c1ccccc1O
REMARK SMILES IDX 4 1 9 2 5 3 8 4 6 5 7 6 2 7 1 8 3 9 10 10
REMARK H PARENT 10 11
REMARK Flexibility Score: inf
ROOT
ATOM      1  C   UNL     1     -19.244  -8.639  10.851  1.00  0.00     0.039 A 
ATOM      2  C   UNL     1     -20.114  -9.365  11.700  1.00  0.00     0.124 A 
ATOM      3  C   UNL     1     -18.705  -9.285   9.721  1.00  0.00     0.014 A 
ATOM      4  C   UNL     1     -20.423 -10.702  11.406  1.00  0.00     0.047 A 
ATOM      5  C   UNL     1     -19.022 -10.616   9.441  1.00  0.00     0.001 A 
ATOM      6  C   UNL     1     -19.880 -11.324  10.281  1.00  0.00     0.004 A 
ENDROOT
BRANCH   1   7
ATOM      7  C   UNL     1     -18.889  -7.222  11.125  1.00  0.00     0.075 C 
ATOM      8  O   UNL     1     -17.721  -6.805  10.900  1.00  0.00    -0.545 OA
ATOM      9  O   UNL     1     -19.829  -6.331  11.629  1.00  0.00    -0.545 OA
ENDBRANCH   1   7
BRANCH   2  10
ATOM     10  O   UNL     1     -20.672  -8.768  12.830  1.00  0.00    -0.507 OA
ATOM     11  H   UNL     1     -20.096  -8.404  13.581  1.00  0.00     0.293 HD
ENDBRANCH   2  10
TORSDOF 2
ENDMDL
MODEL 6
REMARK VINA RESULT:    -5.469      2.321      4.033
REMARK INTER + INTRA:          -6.177
REMARK INTER:                  -5.932
REMARK INTRA:                  -0.245
REMARK UNBOUND:                -0.228
REMARK SMILES O=C([O-])c1ccccc1O
REMARK SMILES IDX 4 1 9 2 5 3 8 4 6 5 7 6 2 7 1 8 3 9 10 10
REMARK H PARENT 10 11
REMARK Flexibility Score: inf
ROOT
ATOM      1  C   UNL     1     -19.483  -8.750  11.529  1.00  0.00     0.039 A 
ATOM      2  C   UNL     1     -18.783  -9.045  10.335  1.00  0.00     0.124 A 
ATOM      3  C   UNL     1     -20.316  -9.739  12.089  1.00  0.00     0.014 A 
ATOM      4  C   UNL     1     -18.927 -10.304   9.732  1.00  0.00     0.047 A 
ATOM      5  C   UNL     1     -20.450 -10.988  11.478  1.00  0.00     0.001 A 
ATOM      6  C   UNL     1     -19.757 -11.271  10.302  1.00  0.00     0.004 A 
ENDROOT
BRANCH   1   7
ATOM      7  C   UNL     1     -19.361  -7.429  12.200  1.00  0.00     0.075 C 
ATOM      8  O   UNL     1     -20.360  -6.907  12.762  1.00  0.00    -0.545 OA
ATOM      9  O   UNL     1     -18.151  -6.745  12.225  1.00  0.00    -0.545 OA
ENDBRANCH   1   7
BRANCH   2  10
ATOM     10  O   UNL     1     -17.947  -8.098   9.744  1.00  0.00    -0.507 OA
ATOM     11  H   UNL     1     -18.187  -7.113   9.722  1.00  0.00     0.293 HD
ENDBRANCH   2  10
TORSDOF 2
ENDMDL
MODEL 7
REMARK VINA RESULT:    -5.339      2.361      3.573
REMARK INTER + INTRA:          -6.036
REMARK INTER:                  -5.784
REMARK INTRA:                  -0.251
REMARK UNBOUND:                -0.228
REMARK SMILES O=C([O-])c1ccccc1O
REMARK SMILES IDX 4 1 9 2 5 3 8 4 6 5 7 6 2 7 1 8 3 9 10 10
REMARK H PARENT 10 11
REMARK Flexibility Score: inf
ROOT
ATOM      1  C   UNL     1     -19.276  -8.602  11.140  1.00  0.00     0.039 A 
ATOM      2  C   UNL     1     -19.874  -9.756  11.699  1.00  0.00     0.124 A 
ATOM      3  C   UNL     1     -18.752  -8.675   9.833  1.00  0.00     0.014 A 
ATOM      4  C   UNL     1     -19.936 -10.944  10.953  1.00  0.00     0.047 A 
ATOM      5  C   UNL     1     -18.821  -9.863   9.102  1.00  0.00     0.001 A 
ATOM      6  C   UNL     1     -19.412 -10.996   9.660  1.00  0.00     0.004 A 
ENDROOT
BRANCH   1   7
ATOM      7  C   UNL     1     -19.187  -7.325  11.894  1.00  0.00     0.075 C 
ATOM      8  O   UNL     1     -20.213  -6.839  12.443  1.00  0.00    -0.545 OA
ATOM      9  O   UNL     1     -17.983  -6.642  12.012  1.00  0.00    -0.545 OA
ENDBRANCH   1   7
BRANCH   2  10
ATOM     10  O   UNL     1     -20.405  -9.733  12.988  1.00  0.00    -0.507 OA
ATOM     11  H   UNL     1     -21.385  -9.537  13.158  1.00  0.00     0.293 HD
ENDBRANCH   2  10
TORSDOF 2
ENDMDL
MODEL 8
REMARK VINA RESULT:    -3.424      2.364      3.351
REMARK INTER + INTRA:          -3.953
REMARK INTER:                  -3.863
REMARK INTRA:                  -0.090
REMARK UNBOUND:                -0.228
REMARK SMILES O=C([O-])c1ccccc1O
REMARK SMILES IDX 4 1 9 2 5 3 8 4 6 5 7 6 2 7 1 8 3 9 10 10
REMARK H PARENT 10 11
REMARK Flexibility Score: inf
ROOT
ATOM      1  C   UNL     1     -19.612  -9.872  10.450  1.00  0.00     0.039 A 
ATOM      2  C   UNL     1     -18.684  -9.958  11.515  1.00  0.00     0.124 A 
ATOM      3  C   UNL     1     -20.854 -10.526  10.578  1.00  0.00     0.014 A 
ATOM      4  C   UNL     1     -19.010 -10.686  12.670  1.00  0.00     0.047 A 
ATOM      5  C   UNL     1     -21.165 -11.247  11.734  1.00  0.00     0.001 A 
ATOM      6  C   UNL     1     -20.245 -11.327  12.778  1.00  0.00     0.004 A 
ENDROOT
BRANCH   1   7
ATOM      7  C   UNL     1     -19.308  -9.113   9.209  1.00  0.00     0.075 C 
ATOM      8  O   UNL     1     -18.252  -8.430   9.124  1.00  0.00    -0.545 OA
ATOM      9  O   UNL     1     -20.173  -9.139   8.122  1.00  0.00    -0.545 OA
ENDBRANCH   1   7
BRANCH   2  10
ATOM     10  O   UNL     1     -17.443  -9.328  11.435  1.00  0.00    -0.507 OA
ATOM     11  H   UNL     1     -17.054  -9.027  10.549  1.00  0.00     0.293 HD
ENDBRANCH   2  10
TORSDOF 2
ENDMDL
MODEL 9
REMARK VINA RESULT:    -3.395     16.280     17.536
REMARK INTER + INTRA:          -3.921
REMARK INTER:                  -3.805
REMARK INTRA:                  -0.116
REMARK UNBOUND:                -0.228
REMARK SMILES O=C([O-])c1ccccc1O
REMARK SMILES IDX 4 1 9 2 5 3 8 4 6 5 7 6 2 7 1 8 3 9 10 10
REMARK H PARENT 10 11
REMARK Flexibility Score: inf
ROOT
ATOM      1  C   UNL     1     -18.495   4.853  21.077  1.00  0.00     0.039 A 
ATOM      2  C   UNL     1     -19.552   5.201  21.951  1.00  0.00     0.124 A 
ATOM      3  C   UNL     1     -18.238   3.489  20.833  1.00  0.00     0.014 A 
ATOM      4  C   UNL     1     -20.320   4.194  22.556  1.00  0.00     0.047 A 
ATOM      5  C   UNL     1     -19.011   2.497  21.442  1.00  0.00     0.001 A 
ATOM      6  C   UNL     1     -20.051   2.849  22.301  1.00  0.00     0.004 A 
ENDROOT
BRANCH   1   7
ATOM      7  C   UNL     1     -17.655   5.886  20.416  1.00  0.00     0.075 C 
ATOM      8  O   UNL     1     -16.684   5.546  19.689  1.00  0.00    -0.545 OA
ATOM      9  O   UNL     1     -17.920   7.241  20.582  1.00  0.00    -0.545 OA
ENDBRANCH   1   7
BRANCH   2  10
ATOM     10  O   UNL     1     -19.844   6.537  22.223  1.00  0.00    -0.507 OA
ATOM     11  H   UNL     1     -19.487   7.290  21.646  1.00  0.00     0.293 HD
ENDBRANCH   2  10
TORSDOF 2
ENDMDL
