MODEL 1
REMARK VINA RESULT:    -3.273      0.000      0.000
REMARK INTER + INTRA:          -3.718
REMARK INTER:                  -3.655
REMARK INTRA:                  -0.063
REMARK UNBOUND:                -0.063
REMARK SMILES CCCC(=O)[O-]
REMARK SMILES IDX 3 1 4 2 5 3 6 4 2 5 1 6
REMARK H PARENT
REMARK Flexibility Score: inf
ROOT
ATOM      1  C   UNL     1      26.271  12.575  33.753  1.00  0.00     0.052 C 
ENDROOT
BRANCH   1   2
ATOM      2  C   UNL     1      26.538  11.508  34.766  1.00  0.00     0.041 C 
ATOM      3  O   UNL     1      25.605  11.075  35.492  1.00  0.00    -0.550 OA
ATOM      4  O   UNL     1      27.808  10.955  34.874  1.00  0.00    -0.550 OA
ENDBRANCH   1   2
BRANCH   1   5
ATOM      5  C   UNL     1      27.365  13.645  33.800  1.00  0.00     0.003 C 
ATOM      6  C   UNL     1      27.303  14.440  35.101  1.00  0.00     0.004 C 
ENDBRANCH   1   5
TORSDOF 2
ENDMDL
MODEL 2
REMARK VINA RESULT:    -3.231      2.948      3.725
REMARK INTER + INTRA:          -3.671
REMARK INTER:                  -3.633
REMARK INTRA:                  -0.038
REMARK UNBOUND:                -0.063
REMARK SMILES CCCC(=O)[O-]
REMARK SMILES IDX 3 1 4 2 5 3 6 4 2 5 1 6
REMARK H PARENT
REMARK Flexibility Score: inf
ROOT
ATOM      1  C   UNL     1      27.738  12.779  32.825  1.00  0.00     0.052 C 
ENDROOT
BRANCH   1   2
ATOM      2  C   UNL     1      28.172  12.255  31.494  1.00  0.00     0.041 C 
ATOM      3  O   UNL     1      28.934  12.939  30.761  1.00  0.00    -0.550 OA
ATOM      4  O   UNL     1      27.777  10.989  31.082  1.00  0.00    -0.550 OA
ENDBRANCH   1   2
BRANCH   1   5
ATOM      5  C   UNL     1      28.298  11.908  33.953  1.00  0.00     0.003 C 
ATOM      6  C   UNL     1      27.185  11.148  34.667  1.00  0.00     0.004 C 
ENDBRANCH   1   5
TORSDOF 2
ENDMDL
MODEL 3
REMARK VINA RESULT:    -3.200      2.054      3.157
REMARK INTER + INTRA:          -3.637
REMARK INTER:                  -3.618
REMARK INTRA:                  -0.018
REMARK UNBOUND:                -0.063
REMARK SMILES CCCC(=O)[O-]
REMARK SMILES IDX 3 1 4 2 5 3 6 4 2 5 1 6
REMARK H PARENT
REMARK Flexibility Score: inf
ROOT
ATOM      1  C   UNL     1      25.458  12.376  35.789  1.00  0.00     0.052 C 
ENDROOT
BRANCH   1   2
ATOM      2  C   UNL     1      26.824  12.143  35.227  1.00  0.00     0.041 C 
ATOM      3  O   UNL     1      27.635  13.099  35.115  1.00  0.00    -0.550 OA
ATOM      4  O   UNL     1      27.221  10.860  34.874  1.00  0.00    -0.550 OA
ENDBRANCH   1   2
BRANCH   1   5
ATOM      5  C   UNL     1      24.702  11.053  35.928  1.00  0.00     0.003 C 
ATOM      6  C   UNL     1      23.229  11.218  35.564  1.00  0.00     0.004 C 
ENDBRANCH   1   5
TORSDOF 2
ENDMDL
MODEL 4
REMARK VINA RESULT:    -3.198      2.222      2.463
REMARK INTER + INTRA:          -3.635
REMARK INTER:                  -3.626
REMARK INTRA:                  -0.009
REMARK UNBOUND:                -0.063
REMARK SMILES CCCC(=O)[O-]
REMARK SMILES IDX 3 1 4 2 5 3 6 4 2 5 1 6
REMARK H PARENT
REMARK Flexibility Score: inf
ROOT
ATOM      1  C   UNL     1      25.904  11.465  34.435  1.00  0.00     0.052 C 
ENDROOT
BRANCH   1   2
ATOM      2  C   UNL     1      25.115  11.579  35.700  1.00  0.00     0.041 C 
ATOM      3  O   UNL     1      24.602  10.554  36.221  1.00  0.00    -0.550 OA
ATOM      4  O   UNL     1      24.987  12.809  36.331  1.00  0.00    -0.550 OA
ENDBRANCH   1   2
BRANCH   1   5
ATOM      5  C   UNL     1      27.371  11.156  34.743  1.00  0.00     0.003 C 
ATOM      6  C   UNL     1      28.303  11.888  33.782  1.00  0.00     0.004 C 
ENDBRANCH   1   5
TORSDOF 2
ENDMDL
MODEL 5
REMARK VINA RESULT:    -3.191      2.274      2.910
REMARK INTER + INTRA:          -3.627
REMARK INTER:                  -3.619
REMARK INTRA:                  -0.008
REMARK UNBOUND:                -0.063
REMARK SMILES CCCC(=O)[O-]
REMARK SMILES IDX 3 1 4 2 5 3 6 4 2 5 1 6
REMARK H PARENT
REMARK Flexibility Score: inf
ROOT
ATOM      1  C   UNL     1      27.262  13.399  33.313  1.00  0.00     0.052 C 
ENDROOT
BRANCH   1   2
ATOM      2  C   UNL     1      27.512  13.498  34.784  1.00  0.00     0.041 C 
ATOM      3  O   UNL     1      27.683  12.456  35.470  1.00  0.00    -0.550 OA
ATOM      4  O   UNL     1      27.607  14.744  35.391  1.00  0.00    -0.550 OA
ENDBRANCH   1   2
BRANCH   1   5
ATOM      5  C   UNL     1      28.155  12.324  32.688  1.00  0.00     0.003 C 
ATOM      6  C   UNL     1      28.463  12.644  31.229  1.00  0.00     0.004 C 
ENDBRANCH   1   5
TORSDOF 2
ENDMDL
MODEL 6
REMARK VINA RESULT:    -3.175      2.119      2.980
REMARK INTER + INTRA:          -3.609
REMARK INTER:                  -3.590
REMARK INTRA:                  -0.019
REMARK UNBOUND:                -0.063
REMARK SMILES CCCC(=O)[O-]
REMARK SMILES IDX 3 1 4 2 5 3 6 4 2 5 1 6
REMARK H PARENT
REMARK Flexibility Score: inf
ROOT
ATOM      1  C   UNL     1      26.969  11.066  34.810  1.00  0.00     0.052 C 
ENDROOT
BRANCH   1   2
ATOM      2  C   UNL     1      27.885  12.178  34.409  1.00  0.00     0.041 C 
ATOM      3  O   UNL     1      28.462  12.152  33.290  1.00  0.00    -0.550 OA
ATOM      4  O   UNL     1      28.063  13.269  35.250  1.00  0.00    -0.550 OA
ENDBRANCH   1   2
BRANCH   1   5
ATOM      5  C   UNL     1      25.507  11.486  34.636  1.00  0.00     0.003 C 
ATOM      6  C   UNL     1      24.679  11.123  35.865  1.00  0.00     0.004 C 
ENDBRANCH   1   5
TORSDOF 2
ENDMDL
MODEL 7
REMARK VINA RESULT:    -3.155      2.348      2.586
REMARK INTER + INTRA:          -3.586
REMARK INTER:                  -3.523
REMARK INTRA:                  -0.064
REMARK UNBOUND:                -0.063
REMARK SMILES CCCC(=O)[O-]
REMARK SMILES IDX 3 1 4 2 5 3 6 4 2 5 1 6
REMARK H PARENT
REMARK Flexibility Score: inf
ROOT
ATOM      1  C   UNL     1      28.347  11.992  33.952  1.00  0.00     0.052 C 
ENDROOT
BRANCH   1   2
ATOM      2  C   UNL     1      27.778  12.172  32.580  1.00  0.00     0.041 C 
ATOM      3  O   UNL     1      26.574  11.883  32.350  1.00  0.00    -0.550 OA
ATOM      4  O   UNL     1      28.563  12.706  31.567  1.00  0.00    -0.550 OA
ENDBRANCH   1   2
BRANCH   1   5
ATOM      5  C   UNL     1      27.423  12.614  35.002  1.00  0.00     0.003 C 
ATOM      6  C   UNL     1      27.475  14.138  34.947  1.00  0.00     0.004 C 
ENDBRANCH   1   5
TORSDOF 2
ENDMDL
MODEL 8
REMARK VINA RESULT:    -3.132      2.063      2.855
REMARK INTER + INTRA:          -3.561
REMARK INTER:                  -3.553
REMARK INTRA:                  -0.008
REMARK UNBOUND:                -0.063
REMARK SMILES CCCC(=O)[O-]
REMARK SMILES IDX 3 1 4 2 5 3 6 4 2 5 1 6
REMARK H PARENT
REMARK Flexibility Score: inf
ROOT
ATOM      1  C   UNL     1      25.381  11.164  35.526  1.00  0.00     0.052 C 
ENDROOT
BRANCH   1   2
ATOM      2  C   UNL     1      26.651  11.513  34.817  1.00  0.00     0.041 C 
ATOM      3  O   UNL     1      26.837  11.138  33.630  1.00  0.00    -0.550 OA
ATOM      4  O   UNL     1      27.608  12.295  35.450  1.00  0.00    -0.550 OA
ENDBRANCH   1   2
BRANCH   1   5
ATOM      5  C   UNL     1      24.611  12.432  35.903  1.00  0.00     0.003 C 
ATOM      6  C   UNL     1      23.125  12.289  35.587  1.00  0.00     0.004 C 
ENDBRANCH   1   5
TORSDOF 2
ENDMDL
MODEL 9
REMARK VINA RESULT:    -3.001      2.524      3.015
REMARK INTER + INTRA:          -3.415
REMARK INTER:                  -3.381
REMARK INTRA:                  -0.034
REMARK UNBOUND:                -0.063
REMARK SMILES CCCC(=O)[O-]
REMARK SMILES IDX 3 1 4 2 5 3 6 4 2 5 1 6
REMARK H PARENT
REMARK Flexibility Score: inf
ROOT
ATOM      1  C   UNL     1      27.307  13.303  33.391  1.00  0.00     0.052 C 
ENDROOT
BRANCH   1   2
ATOM      2  C   UNL     1      26.256  12.961  32.383  1.00  0.00     0.041 C 
ATOM      3  O   UNL     1      25.143  12.506  32.757  1.00  0.00    -0.550 OA
ATOM      4  O   UNL     1      26.485  13.193  31.034  1.00  0.00    -0.550 OA
ENDBRANCH   1   2
BRANCH   1   5
ATOM      5  C   UNL     1      28.234  12.107  33.625  1.00  0.00     0.003 C 
ATOM      6  C   UNL     1      27.732  11.238  34.775  1.00  0.00     0.004 C 
ENDBRANCH   1   5
TORSDOF 2
ENDMDL
