MODEL 1
REMARK VINA RESULT:    -3.789      0.000      0.000
REMARK INTER + INTRA:         -13.467
REMARK INTER:                  -9.549
REMARK INTRA:                  -3.917
REMARK UNBOUND:                -3.917
REMARK SMILES CCCCCCCCCCCCCCCCCCCCCCCCCCCC(=O)[O-]
REMARK SMILES IDX 15 1 16 2 17 3 18 4 19 5 20 6 21 7 22 8 23 9 24 10 25 11
REMARK SMILES IDX 26 12 27 13 28 14 29 15 30 16 14 17 13 18 12 19 11 20 10 21
REMARK SMILES IDX 9 22 8 23 7 24 6 25 5 26 4 27 3 28 2 29 1 30
REMARK H PARENT
REMARK Flexibility Score: inf
ROOT
ATOM      1  C   UNL     1       1.432  43.177   8.777  1.00  0.00     0.000 C 
ENDROOT
BRANCH   1   2
ATOM      2  C   UNL     1       1.091  44.620   8.396  1.00  0.00     0.000 C 
BRANCH   2   3
ATOM      3  C   UNL     1       0.136  44.679   7.194  1.00  0.00     0.000 C 
BRANCH   3   4
ATOM      4  C   UNL     1      -0.738  45.953   7.181  1.00  0.00     0.000 C 
BRANCH   4   5
ATOM      5  C   UNL     1      -0.795  46.700   8.529  1.00  0.00     0.000 C 
BRANCH   5   6
ATOM      6  C   UNL     1      -0.382  48.182   8.482  1.00  0.00     0.000 C 
BRANCH   6   7
ATOM      7  C   UNL     1       1.102  48.431   8.840  1.00  0.00     0.000 C 
BRANCH   7   8
ATOM      8  C   UNL     1       2.032  48.212   7.640  1.00  0.00     0.000 C 
BRANCH   8   9
ATOM      9  C   UNL     1       3.412  47.703   8.076  1.00  0.00     0.000 C 
BRANCH   9  10
ATOM     10  C   UNL     1       3.414  47.178   9.525  1.00  0.00     0.000 C 
BRANCH  10  11
ATOM     11  C   UNL     1       4.811  47.013  10.165  1.00  0.00     0.000 C 
BRANCH  11  12
ATOM     12  C   UNL     1       5.985  46.947   9.168  1.00  0.00     0.006 C 
BRANCH  12  13
ATOM     13  C   UNL     1       7.138  47.911   9.489  1.00  0.00     0.053 C 
BRANCH  13  14
ATOM     14  C   UNL     1       6.701  49.343   9.435  1.00  0.00     0.041 C 
ATOM     15  O   UNL     1       6.238  49.823   8.367  1.00  0.00    -0.550 OA
ATOM     16  O   UNL     1       6.826  50.154  10.555  1.00  0.00    -0.550 OA
ENDBRANCH  13  14
ENDBRANCH  12  13
ENDBRANCH  11  12
ENDBRANCH  10  11
ENDBRANCH   9  10
ENDBRANCH   8   9
ENDBRANCH   7   8
ENDBRANCH   6   7
ENDBRANCH   5   6
ENDBRANCH   4   5
ENDBRANCH   3   4
ENDBRANCH   2   3
ENDBRANCH   1   2
BRANCH   1  17
ATOM     17  C   UNL     1       2.918  42.890   8.518  1.00  0.00     0.000 C 
BRANCH  17  18
ATOM     18  C   UNL     1       3.855  43.702   9.428  1.00  0.00     0.000 C 
BRANCH  18  19
ATOM     19  C   UNL     1       4.194  42.991  10.756  1.00  0.00     0.000 C 
BRANCH  19  20
ATOM     20  C   UNL     1       4.453  43.992  11.894  1.00  0.00     0.000 C 
BRANCH  20  21
ATOM     21  C   UNL     1       3.181  44.341  12.684  1.00  0.00     0.000 C 
BRANCH  21  22
ATOM     22  C   UNL     1       1.960  44.655  11.793  1.00  0.00    -0.000 C 
BRANCH  22  23
ATOM     23  C   UNL     1       0.738  43.786  12.142  1.00  0.00    -0.000 C 
BRANCH  23  24
ATOM     24  C   UNL     1       1.128  42.363  12.583  1.00  0.00    -0.000 C 
BRANCH  24  25
ATOM     25  C   UNL     1       0.233  41.756  13.685  1.00  0.00    -0.000 C 
BRANCH  25  26
ATOM     26  C   UNL     1       0.716  40.380  14.191  1.00  0.00    -0.000 C 
BRANCH  26  27
ATOM     27  C   UNL     1       1.183  39.468  13.042  1.00  0.00    -0.000 C 
BRANCH  27  28
ATOM     28  C   UNL     1       2.604  38.921  13.260  1.00  0.00    -0.000 C 
BRANCH  28  29
ATOM     29  C   UNL     1       3.660  39.599  12.359  1.00  0.00    -0.003 C 
ATOM     30  C   UNL     1       4.743  40.308  13.171  1.00  0.00     0.004 C 
ENDBRANCH  28  29
ENDBRANCH  27  28
ENDBRANCH  26  27
ENDBRANCH  25  26
ENDBRANCH  24  25
ENDBRANCH  23  24
ENDBRANCH  22  23
ENDBRANCH  21  22
ENDBRANCH  20  21
ENDBRANCH  19  20
ENDBRANCH  18  19
ENDBRANCH  17  18
ENDBRANCH   1  17
TORSDOF 26
ENDMDL
MODEL 2
REMARK VINA RESULT:    -3.633      0.942      2.274
REMARK INTER + INTRA:         -13.072
REMARK INTER:                  -9.431
REMARK INTRA:                  -3.642
REMARK UNBOUND:                -3.917
REMARK SMILES CCCCCCCCCCCCCCCCCCCCCCCCCCCC(=O)[O-]
REMARK SMILES IDX 15 1 16 2 17 3 18 4 19 5 20 6 21 7 22 8 23 9 24 10 25 11
REMARK SMILES IDX 26 12 27 13 28 14 29 15 30 16 14 17 13 18 12 19 11 20 10 21
REMARK SMILES IDX 9 22 8 23 7 24 6 25 5 26 4 27 3 28 2 29 1 30
REMARK H PARENT
REMARK Flexibility Score: inf
ROOT
ATOM      1  C   UNL     1       3.300  42.254  10.254  1.00  0.00     0.000 C 
ENDROOT
BRANCH   1   2
ATOM      2  C   UNL     1       3.140  43.184   9.049  1.00  0.00     0.000 C 
BRANCH   2   3
ATOM      3  C   UNL     1       1.724  43.109   8.459  1.00  0.00     0.000 C 
BRANCH   3   4
ATOM      4  C   UNL     1       1.019  44.483   8.407  1.00  0.00     0.000 C 
BRANCH   4   5
ATOM      5  C   UNL     1       0.065  44.664   7.208  1.00  0.00     0.000 C 
BRANCH   5   6
ATOM      6  C   UNL     1      -0.757  45.965   7.207  1.00  0.00     0.000 C 
BRANCH   6   7
ATOM      7  C   UNL     1      -1.064  46.514   8.620  1.00  0.00     0.000 C 
BRANCH   7   8
ATOM      8  C   UNL     1      -0.043  47.567   9.068  1.00  0.00     0.000 C 
BRANCH   8   9
ATOM      9  C   UNL     1       0.559  48.319   7.874  1.00  0.00     0.000 C 
BRANCH   9  10
ATOM     10  C   UNL     1       2.099  48.269   7.863  1.00  0.00     0.000 C 
BRANCH  10  11
ATOM     11  C   UNL     1       2.739  47.388   8.959  1.00  0.00     0.000 C 
BRANCH  11  12
ATOM     12  C   UNL     1       4.154  46.867   8.639  1.00  0.00     0.006 C 
BRANCH  12  13
ATOM     13  C   UNL     1       5.172  47.075   9.773  1.00  0.00     0.053 C 
BRANCH  13  14
ATOM     14  C   UNL     1       6.302  47.965   9.353  1.00  0.00     0.041 C 
ATOM     15  O   UNL     1       6.083  48.956   8.610  1.00  0.00    -0.550 OA
ATOM     16  O   UNL     1       7.599  47.686   9.764  1.00  0.00    -0.550 OA
ENDBRANCH  13  14
ENDBRANCH  12  13
ENDBRANCH  11  12
ENDBRANCH  10  11
ENDBRANCH   9  10
ENDBRANCH   8   9
ENDBRANCH   7   8
ENDBRANCH   6   7
ENDBRANCH   5   6
ENDBRANCH   4   5
ENDBRANCH   3   4
ENDBRANCH   2   3
ENDBRANCH   1   2
BRANCH   1  17
ATOM     17  C   UNL     1       4.388  42.784  11.200  1.00  0.00     0.000 C 
BRANCH  17  18
ATOM     18  C   UNL     1       4.141  44.233  11.650  1.00  0.00     0.000 C 
BRANCH  18  19
ATOM     19  C   UNL     1       2.845  44.412  12.472  1.00  0.00     0.000 C 
BRANCH  19  20
ATOM     20  C   UNL     1       1.732  45.080  11.651  1.00  0.00     0.000 C 
BRANCH  20  21
ATOM     21  C   UNL     1       0.430  44.262  11.632  1.00  0.00     0.000 C 
BRANCH  21  22
ATOM     22  C   UNL     1       0.417  43.086  12.632  1.00  0.00    -0.000 C 
BRANCH  22  23
ATOM     23  C   UNL     1      -1.011  42.639  12.996  1.00  0.00    -0.000 C 
BRANCH  23  24
ATOM     24  C   UNL     1      -1.048  41.708  14.221  1.00  0.00    -0.000 C 
BRANCH  24  25
ATOM     25  C   UNL     1       0.297  41.036  14.569  1.00  0.00    -0.000 C 
BRANCH  25  26
ATOM     26  C   UNL     1       0.619  39.800  13.701  1.00  0.00    -0.000 C 
BRANCH  26  27
ATOM     27  C   UNL     1       1.955  39.947  12.952  1.00  0.00    -0.000 C 
BRANCH  27  28
ATOM     28  C   UNL     1       2.691  38.606  12.785  1.00  0.00    -0.000 C 
BRANCH  28  29
ATOM     29  C   UNL     1       4.216  38.770  12.597  1.00  0.00    -0.003 C 
ATOM     30  C   UNL     1       4.755  40.012  13.303  1.00  0.00     0.004 C 
ENDBRANCH  28  29
ENDBRANCH  27  28
ENDBRANCH  26  27
ENDBRANCH  25  26
ENDBRANCH  24  25
ENDBRANCH  23  24
ENDBRANCH  22  23
ENDBRANCH  21  22
ENDBRANCH  20  21
ENDBRANCH  19  20
ENDBRANCH  18  19
ENDBRANCH  17  18
ENDBRANCH   1  17
TORSDOF 26
ENDMDL
MODEL 3
REMARK VINA RESULT:    -3.551      1.343      3.237
REMARK INTER + INTRA:         -12.866
REMARK INTER:                  -9.085
REMARK INTRA:                  -3.781
REMARK UNBOUND:                -3.917
REMARK SMILES CCCCCCCCCCCCCCCCCCCCCCCCCCCC(=O)[O-]
REMARK SMILES IDX 15 1 16 2 17 3 18 4 19 5 20 6 21 7 22 8 23 9 24 10 25 11
REMARK SMILES IDX 26 12 27 13 28 14 29 15 30 16 14 17 13 18 12 19 11 20 10 21
REMARK SMILES IDX 9 22 8 23 7 24 6 25 5 26 4 27 3 28 2 29 1 30
REMARK H PARENT
REMARK Flexibility Score: inf
ROOT
ATOM      1  C   UNL     1       3.449  45.777  11.312  1.00  0.00     0.000 C 
ENDROOT
BRANCH   1   2
ATOM      2  C   UNL     1       2.212  46.093  10.468  1.00  0.00     0.000 C 
BRANCH   2   3
ATOM      3  C   UNL     1       1.001  45.252  10.900  1.00  0.00     0.000 C 
BRANCH   3   4
ATOM      4  C   UNL     1       0.369  44.461   9.733  1.00  0.00     0.000 C 
BRANCH   4   5
ATOM      5  C   UNL     1       0.573  45.101   8.345  1.00  0.00     0.000 C 
BRANCH   5   6
ATOM      6  C   UNL     1      -0.707  45.602   7.652  1.00  0.00     0.000 C 
BRANCH   6   7
ATOM      7  C   UNL     1      -0.703  47.119   7.348  1.00  0.00     0.000 C 
BRANCH   7   8
ATOM      8  C   UNL     1      -0.472  47.962   8.608  1.00  0.00     0.000 C 
BRANCH   8   9
ATOM      9  C   UNL     1       0.716  48.917   8.443  1.00  0.00     0.000 C 
BRANCH   9  10
ATOM     10  C   UNL     1       1.826  48.327   7.550  1.00  0.00     0.000 C 
BRANCH  10  11
ATOM     11  C   UNL     1       3.142  49.135   7.512  1.00  0.00     0.000 C 
BRANCH  11  12
ATOM     12  C   UNL     1       4.430  48.289   7.484  1.00  0.00     0.006 C 
BRANCH  12  13
ATOM     13  C   UNL     1       5.003  47.968   8.873  1.00  0.00     0.053 C 
BRANCH  13  14
ATOM     14  C   UNL     1       6.346  48.600   9.084  1.00  0.00     0.041 C 
ATOM     15  O   UNL     1       7.272  47.948   9.633  1.00  0.00    -0.550 OA
ATOM     16  O   UNL     1       6.567  49.914   8.696  1.00  0.00    -0.550 OA
ENDBRANCH  13  14
ENDBRANCH  12  13
ENDBRANCH  11  12
ENDBRANCH  10  11
ENDBRANCH   9  10
ENDBRANCH   8   9
ENDBRANCH   7   8
ENDBRANCH   6   7
ENDBRANCH   5   6
ENDBRANCH   4   5
ENDBRANCH   3   4
ENDBRANCH   2   3
ENDBRANCH   1   2
BRANCH   1  17
ATOM     17  C   UNL     1       4.552  45.161  10.438  1.00  0.00     0.000 C 
BRANCH  17  18
ATOM     18  C   UNL     1       4.000  44.333   9.266  1.00  0.00     0.000 C 
BRANCH  18  19
ATOM     19  C   UNL     1       4.155  42.809   9.459  1.00  0.00     0.000 C 
BRANCH  19  20
ATOM     20  C   UNL     1       2.852  42.155   9.946  1.00  0.00     0.000 C 
BRANCH  20  21
ATOM     21  C   UNL     1       2.790  42.015  11.476  1.00  0.00     0.000 C 
BRANCH  21  22
ATOM     22  C   UNL     1       4.175  41.980  12.157  1.00  0.00    -0.000 C 
BRANCH  22  23
ATOM     23  C   UNL     1       4.710  40.546  12.328  1.00  0.00    -0.000 C 
BRANCH  23  24
ATOM     24  C   UNL     1       3.862  39.707  13.301  1.00  0.00    -0.000 C 
BRANCH  24  25
ATOM     25  C   UNL     1       3.009  38.605  12.636  1.00  0.00    -0.000 C 
BRANCH  25  26
ATOM     26  C   UNL     1       1.504  38.696  12.970  1.00  0.00    -0.000 C 
BRANCH  26  27
ATOM     27  C   UNL     1       1.158  39.977  13.750  1.00  0.00    -0.000 C 
BRANCH  27  28
ATOM     28  C   UNL     1      -0.356  40.151  13.961  1.00  0.00    -0.000 C 
BRANCH  28  29
ATOM     29  C   UNL     1      -0.733  41.527  14.554  1.00  0.00    -0.003 C 
ATOM     30  C   UNL     1      -0.524  41.581  16.066  1.00  0.00     0.004 C 
ENDBRANCH  28  29
ENDBRANCH  27  28
ENDBRANCH  26  27
ENDBRANCH  25  26
ENDBRANCH  24  25
ENDBRANCH  23  24
ENDBRANCH  22  23
ENDBRANCH  21  22
ENDBRANCH  20  21
ENDBRANCH  19  20
ENDBRANCH  18  19
ENDBRANCH  17  18
ENDBRANCH   1  17
TORSDOF 26
ENDMDL
MODEL 4
REMARK VINA RESULT:    -3.452      4.081      8.704
REMARK INTER + INTRA:         -12.617
REMARK INTER:                  -9.843
REMARK INTRA:                  -2.774
REMARK UNBOUND:                -3.917
REMARK SMILES CCCCCCCCCCCCCCCCCCCCCCCCCCCC(=O)[O-]
REMARK SMILES IDX 15 1 16 2 17 3 18 4 19 5 20 6 21 7 22 8 23 9 24 10 25 11
REMARK SMILES IDX 26 12 27 13 28 14 29 15 30 16 14 17 13 18 12 19 11 20 10 21
REMARK SMILES IDX 9 22 8 23 7 24 6 25 5 26 4 27 3 28 2 29 1 30
REMARK H PARENT
REMARK Flexibility Score: inf
ROOT
ATOM      1  C   UNL     1       3.127  43.406   9.007  1.00  0.00     0.000 C 
ENDROOT
BRANCH   1   2
ATOM      2  C   UNL     1       3.512  42.907  10.402  1.00  0.00     0.000 C 
BRANCH   2   3
ATOM      3  C   UNL     1       3.434  44.030  11.448  1.00  0.00     0.000 C 
BRANCH   3   4
ATOM      4  C   UNL     1       2.295  43.822  12.472  1.00  0.00     0.000 C 
BRANCH   4   5
ATOM      5  C   UNL     1       0.923  43.509  11.842  1.00  0.00     0.000 C 
BRANCH   5   6
ATOM      6  C   UNL     1      -0.262  43.472  12.823  1.00  0.00     0.000 C 
BRANCH   6   7
ATOM      7  C   UNL     1      -0.696  42.043  13.228  1.00  0.00     0.000 C 
BRANCH   7   8
ATOM      8  C   UNL     1       0.292  41.392  14.204  1.00  0.00     0.000 C 
BRANCH   8   9
ATOM      9  C   UNL     1       0.983  40.172  13.584  1.00  0.00     0.000 C 
BRANCH   9  10
ATOM     10  C   UNL     1       2.340  40.526  12.945  1.00  0.00     0.000 C 
BRANCH  10  11
ATOM     11  C   UNL     1       3.128  39.332  12.362  1.00  0.00     0.000 C 
BRANCH  11  12
ATOM     12  C   UNL     1       2.663  37.942  12.844  1.00  0.00     0.006 C 
BRANCH  12  13
ATOM     13  C   UNL     1       2.369  36.949  11.709  1.00  0.00     0.053 C 
BRANCH  13  14
ATOM     14  C   UNL     1       0.981  36.391  11.800  1.00  0.00     0.041 C 
ATOM     15  O   UNL     1       0.701  35.299  11.240  1.00  0.00    -0.550 OA
ATOM     16  O   UNL     1      -0.007  37.088  12.482  1.00  0.00    -0.550 OA
ENDBRANCH  13  14
ENDBRANCH  12  13
ENDBRANCH  11  12
ENDBRANCH  10  11
ENDBRANCH   9  10
ENDBRANCH   8   9
ENDBRANCH   7   8
ENDBRANCH   6   7
ENDBRANCH   5   6
ENDBRANCH   4   5
ENDBRANCH   3   4
ENDBRANCH   2   3
ENDBRANCH   1   2
BRANCH   1  17
ATOM     17  C   UNL     1       1.618  43.240   8.775  1.00  0.00     0.000 C 
BRANCH  17  18
ATOM     18  C   UNL     1       0.903  44.569   8.485  1.00  0.00     0.000 C 
BRANCH  18  19
ATOM     19  C   UNL     1      -0.012  44.520   7.242  1.00  0.00     0.000 C 
BRANCH  19  20
ATOM     20  C   UNL     1      -0.596  45.901   6.903  1.00  0.00     0.000 C 
BRANCH  20  21
ATOM     21  C   UNL     1      -0.910  46.740   8.152  1.00  0.00     0.000 C 
BRANCH  21  22
ATOM     22  C   UNL     1      -0.287  48.153   8.128  1.00  0.00    -0.000 C 
BRANCH  22  23
ATOM     23  C   UNL     1       1.116  48.188   8.760  1.00  0.00    -0.000 C 
BRANCH  23  24
ATOM     24  C   UNL     1       2.222  48.505   7.737  1.00  0.00    -0.000 C 
BRANCH  24  25
ATOM     25  C   UNL     1       3.553  47.757   7.964  1.00  0.00    -0.000 C 
BRANCH  25  26
ATOM     26  C   UNL     1       3.670  47.106   9.359  1.00  0.00    -0.000 C 
BRANCH  26  27
ATOM     27  C   UNL     1       5.087  46.573   9.634  1.00  0.00    -0.000 C 
BRANCH  27  28
ATOM     28  C   UNL     1       6.182  47.446   8.998  1.00  0.00    -0.000 C 
BRANCH  28  29
ATOM     29  C   UNL     1       6.431  48.764   9.766  1.00  0.00    -0.003 C 
ATOM     30  C   UNL     1       6.705  49.936   8.826  1.00  0.00     0.004 C 
ENDBRANCH  28  29
ENDBRANCH  27  28
ENDBRANCH  26  27
ENDBRANCH  25  26
ENDBRANCH  24  25
ENDBRANCH  23  24
ENDBRANCH  22  23
ENDBRANCH  21  22
ENDBRANCH  20  21
ENDBRANCH  19  20
ENDBRANCH  18  19
ENDBRANCH  17  18
ENDBRANCH   1  17
TORSDOF 26
ENDMDL
MODEL 5
REMARK VINA RESULT:    -3.378      1.062      6.270
REMARK INTER + INTRA:         -12.431
REMARK INTER:                  -8.938
REMARK INTRA:                  -3.493
REMARK UNBOUND:                -3.917
REMARK SMILES CCCCCCCCCCCCCCCCCCCCCCCCCCCC(=O)[O-]
REMARK SMILES IDX 15 1 16 2 17 3 18 4 19 5 20 6 21 7 22 8 23 9 24 10 25 11
REMARK SMILES IDX 26 12 27 13 28 14 29 15 30 16 14 17 13 18 12 19 11 20 10 21
REMARK SMILES IDX 9 22 8 23 7 24 6 25 5 26 4 27 3 28 2 29 1 30
REMARK H PARENT
REMARK Flexibility Score: inf
ROOT
ATOM      1  C   UNL     1       1.368  38.826  13.263  1.00  0.00     0.000 C 
ENDROOT
BRANCH   1   2
ATOM      2  C   UNL     1       2.656  38.798  12.436  1.00  0.00     0.000 C 
BRANCH   2   3
ATOM      3  C   UNL     1       3.868  39.260  13.260  1.00  0.00     0.000 C 
BRANCH   3   4
ATOM      4  C   UNL     1       4.540  40.527  12.684  1.00  0.00     0.000 C 
BRANCH   4   5
ATOM      5  C   UNL     1       3.638  41.356  11.748  1.00  0.00     0.000 C 
BRANCH   5   6
ATOM      6  C   UNL     1       4.240  42.684  11.255  1.00  0.00     0.000 C 
BRANCH   6   7
ATOM      7  C   UNL     1       4.380  43.758  12.360  1.00  0.00     0.000 C 
BRANCH   7   8
ATOM      8  C   UNL     1       4.036  45.163  11.850  1.00  0.00     0.000 C 
BRANCH   8   9
ATOM      9  C   UNL     1       4.091  45.241  10.320  1.00  0.00     0.000 C 
BRANCH   9  10
ATOM     10  C   UNL     1       3.888  46.676   9.796  1.00  0.00     0.000 C 
BRANCH  10  11
ATOM     11  C   UNL     1       5.024  47.220   8.901  1.00  0.00     0.000 C 
BRANCH  11  12
ATOM     12  C   UNL     1       6.382  47.410   9.608  1.00  0.00     0.006 C 
BRANCH  12  13
ATOM     13  C   UNL     1       7.255  48.521   9.004  1.00  0.00     0.053 C 
BRANCH  13  14
ATOM     14  C   UNL     1       6.775  49.885   9.396  1.00  0.00     0.041 C 
ATOM     15  O   UNL     1       6.313  50.668   8.526  1.00  0.00    -0.550 OA
ATOM     16  O   UNL     1       6.859  50.300  10.718  1.00  0.00    -0.550 OA
ENDBRANCH  13  14
ENDBRANCH  12  13
ENDBRANCH  11  12
ENDBRANCH  10  11
ENDBRANCH   9  10
ENDBRANCH   8   9
ENDBRANCH   7   8
ENDBRANCH   6   7
ENDBRANCH   5   6
ENDBRANCH   4   5
ENDBRANCH   3   4
ENDBRANCH   2   3
ENDBRANCH   1   2
BRANCH   1  17
ATOM     17  C   UNL     1       1.126  40.231  13.835  1.00  0.00     0.000 C 
BRANCH  17  18
ATOM     18  C   UNL     1      -0.355  40.642  13.815  1.00  0.00     0.000 C 
BRANCH  18  19
ATOM     19  C   UNL     1      -0.583  42.106  13.377  1.00  0.00     0.000 C 
BRANCH  19  20
ATOM     20  C   UNL     1       0.731  42.799  12.983  1.00  0.00     0.000 C 
BRANCH  20  21
ATOM     21  C   UNL     1       0.690  43.398  11.567  1.00  0.00     0.000 C 
BRANCH  21  22
ATOM     22  C   UNL     1       0.225  44.869  11.525  1.00  0.00    -0.000 C 
BRANCH  22  23
ATOM     23  C   UNL     1       0.439  45.513  10.143  1.00  0.00    -0.000 C 
BRANCH  23  24
ATOM     24  C   UNL     1       0.955  44.512   9.094  1.00  0.00    -0.000 C 
BRANCH  24  25
ATOM     25  C   UNL     1       0.176  44.506   7.761  1.00  0.00    -0.000 C 
BRANCH  25  26
ATOM     26  C   UNL     1      -0.929  45.581   7.682  1.00  0.00    -0.000 C 
BRANCH  26  27
ATOM     27  C   UNL     1      -0.442  46.865   6.987  1.00  0.00    -0.000 C 
BRANCH  27  28
ATOM     28  C   UNL     1      -0.603  48.114   7.869  1.00  0.00    -0.000 C 
BRANCH  28  29
ATOM     29  C   UNL     1       0.697  48.513   8.603  1.00  0.00    -0.003 C 
ATOM     30  C   UNL     1       1.887  48.618   7.651  1.00  0.00     0.004 C 
ENDBRANCH  28  29
ENDBRANCH  27  28
ENDBRANCH  26  27
ENDBRANCH  25  26
ENDBRANCH  24  25
ENDBRANCH  23  24
ENDBRANCH  22  23
ENDBRANCH  21  22
ENDBRANCH  20  21
ENDBRANCH  19  20
ENDBRANCH  18  19
ENDBRANCH  17  18
ENDBRANCH   1  17
TORSDOF 26
ENDMDL
MODEL 6
REMARK VINA RESULT:    -3.319      2.957      7.897
REMARK INTER + INTRA:         -12.280
REMARK INTER:                  -8.768
REMARK INTRA:                  -3.512
REMARK UNBOUND:                -3.917
REMARK SMILES CCCCCCCCCCCCCCCCCCCCCCCCCCCC(=O)[O-]
REMARK SMILES IDX 15 1 16 2 17 3 18 4 19 5 20 6 21 7 22 8 23 9 24 10 25 11
REMARK SMILES IDX 26 12 27 13 28 14 29 15 30 16 14 17 13 18 12 19 11 20 10 21
REMARK SMILES IDX 9 22 8 23 7 24 6 25 5 26 4 27 3 28 2 29 1 30
REMARK H PARENT
REMARK Flexibility Score: inf
ROOT
ATOM      1  C   UNL     1       2.619  42.518   9.025  1.00  0.00     0.000 C 
ENDROOT
BRANCH   1   2
ATOM      2  C   UNL     1       3.702  43.538   9.388  1.00  0.00     0.000 C 
BRANCH   2   3
ATOM      3  C   UNL     1       4.472  43.123  10.650  1.00  0.00     0.000 C 
BRANCH   3   4
ATOM      4  C   UNL     1       4.474  44.216  11.742  1.00  0.00     0.000 C 
BRANCH   4   5
ATOM      5  C   UNL     1       3.151  44.335  12.525  1.00  0.00     0.000 C 
BRANCH   5   6
ATOM      6  C   UNL     1       1.946  44.842  11.714  1.00  0.00     0.000 C 
BRANCH   6   7
ATOM      7  C   UNL     1       0.605  44.172  12.099  1.00  0.00     0.000 C 
BRANCH   7   8
ATOM      8  C   UNL     1       0.765  42.670  12.371  1.00  0.00     0.000 C 
BRANCH   8   9
ATOM      9  C   UNL     1      -0.254  42.169  13.402  1.00  0.00     0.000 C 
BRANCH   9  10
ATOM     10  C   UNL     1       0.308  41.034  14.280  1.00  0.00     0.000 C 
BRANCH  10  11
ATOM     11  C   UNL     1       0.240  39.622  13.658  1.00  0.00     0.000 C 
BRANCH  11  12
ATOM     12  C   UNL     1       1.602  39.004  13.281  1.00  0.00     0.006 C 
BRANCH  12  13
ATOM     13  C   UNL     1       2.567  39.982  12.593  1.00  0.00     0.053 C 
BRANCH  13  14
ATOM     14  C   UNL     1       3.998  39.577  12.777  1.00  0.00     0.041 C 
ATOM     15  O   UNL     1       4.372  38.417  12.465  1.00  0.00    -0.550 OA
ATOM     16  O   UNL     1       4.913  40.473  13.314  1.00  0.00    -0.550 OA
ENDBRANCH  13  14
ENDBRANCH  12  13
ENDBRANCH  11  12
ENDBRANCH  10  11
ENDBRANCH   9  10
ENDBRANCH   8   9
ENDBRANCH   7   8
ENDBRANCH   6   7
ENDBRANCH   5   6
ENDBRANCH   4   5
ENDBRANCH   3   4
ENDBRANCH   2   3
ENDBRANCH   1   2
BRANCH   1  17
ATOM     17  C   UNL     1       1.289  43.227   8.733  1.00  0.00     0.000 C 
BRANCH  17  18
ATOM     18  C   UNL     1       1.473  44.651   8.182  1.00  0.00     0.000 C 
BRANCH  18  19
ATOM     19  C   UNL     1       0.154  45.313   7.729  1.00  0.00     0.000 C 
BRANCH  19  20
ATOM     20  C   UNL     1      -0.382  46.302   8.777  1.00  0.00     0.000 C 
BRANCH  20  21
ATOM     21  C   UNL     1      -0.325  47.764   8.304  1.00  0.00     0.000 C 
BRANCH  21  22
ATOM     22  C   UNL     1       0.946  48.516   8.753  1.00  0.00    -0.000 C 
BRANCH  22  23
ATOM     23  C   UNL     1       2.045  48.509   7.675  1.00  0.00    -0.000 C 
BRANCH  23  24
ATOM     24  C   UNL     1       3.305  47.741   8.115  1.00  0.00    -0.000 C 
BRANCH  24  25
ATOM     25  C   UNL     1       3.273  47.217   9.567  1.00  0.00    -0.000 C 
BRANCH  25  26
ATOM     26  C   UNL     1       4.671  47.055  10.202  1.00  0.00    -0.000 C 
BRANCH  26  27
ATOM     27  C   UNL     1       5.796  47.106   9.152  1.00  0.00    -0.000 C 
BRANCH  27  28
ATOM     28  C   UNL     1       6.852  48.179   9.467  1.00  0.00    -0.000 C 
BRANCH  28  29
ATOM     29  C   UNL     1       6.564  49.535   8.785  1.00  0.00    -0.003 C 
ATOM     30  C   UNL     1       6.829  50.717   9.716  1.00  0.00     0.004 C 
ENDBRANCH  28  29
ENDBRANCH  27  28
ENDBRANCH  26  27
ENDBRANCH  25  26
ENDBRANCH  24  25
ENDBRANCH  23  24
ENDBRANCH  22  23
ENDBRANCH  21  22
ENDBRANCH  20  21
ENDBRANCH  19  20
ENDBRANCH  18  19
ENDBRANCH  17  18
ENDBRANCH   1  17
TORSDOF 26
ENDMDL
MODEL 7
REMARK VINA RESULT:    -3.257      1.198      3.828
REMARK INTER + INTRA:         -12.125
REMARK INTER:                  -8.423
REMARK INTRA:                  -3.702
REMARK UNBOUND:                -3.917
REMARK SMILES CCCCCCCCCCCCCCCCCCCCCCCCCCCC(=O)[O-]
REMARK SMILES IDX 15 1 16 2 17 3 18 4 19 5 20 6 21 7 22 8 23 9 24 10 25 11
REMARK SMILES IDX 26 12 27 13 28 14 29 15 30 16 14 17 13 18 12 19 11 20 10 21
REMARK SMILES IDX 9 22 8 23 7 24 6 25 5 26 4 27 3 28 2 29 1 30
REMARK H PARENT
REMARK Flexibility Score: inf
ROOT
ATOM      1  C   UNL     1       0.452  44.176  11.633  1.00  0.00     0.000 C 
ENDROOT
BRANCH   1   2
ATOM      2  C   UNL     1       0.426  45.285  10.578  1.00  0.00     0.000 C 
BRANCH   2   3
ATOM      3  C   UNL     1       0.788  44.751   9.184  1.00  0.00     0.000 C 
BRANCH   3   4
ATOM      4  C   UNL     1      -0.343  44.952   8.149  1.00  0.00     0.000 C 
BRANCH   4   5
ATOM      5  C   UNL     1      -0.000  45.942   7.017  1.00  0.00     0.000 C 
BRANCH   5   6
ATOM      6  C   UNL     1      -0.785  47.265   7.036  1.00  0.00     0.000 C 
BRANCH   6   7
ATOM      7  C   UNL     1      -0.853  47.934   8.430  1.00  0.00     0.000 C 
BRANCH   7   8
ATOM      8  C   UNL     1       0.507  48.488   8.874  1.00  0.00     0.000 C 
BRANCH   8   9
ATOM      9  C   UNL     1       1.323  49.009   7.685  1.00  0.00     0.000 C 
BRANCH   9  10
ATOM     10  C   UNL     1       2.715  48.354   7.595  1.00  0.00     0.000 C 
BRANCH  10  11
ATOM     11  C   UNL     1       3.112  47.479   8.805  1.00  0.00     0.000 C 
BRANCH  11  12
ATOM     12  C   UNL     1       4.493  46.801   8.700  1.00  0.00     0.006 C 
BRANCH  12  13
ATOM     13  C   UNL     1       5.462  47.168   9.836  1.00  0.00     0.053 C 
BRANCH  13  14
ATOM     14  C   UNL     1       6.607  48.002   9.346  1.00  0.00     0.041 C 
ATOM     15  O   UNL     1       6.394  49.137   8.845  1.00  0.00    -0.550 OA
ATOM     16  O   UNL     1       7.905  47.517   9.421  1.00  0.00    -0.550 OA
ENDBRANCH  13  14
ENDBRANCH  12  13
ENDBRANCH  11  12
ENDBRANCH  10  11
ENDBRANCH   9  10
ENDBRANCH   8   9
ENDBRANCH   7   8
ENDBRANCH   6   7
ENDBRANCH   5   6
ENDBRANCH   4   5
ENDBRANCH   3   4
ENDBRANCH   2   3
ENDBRANCH   1   2
BRANCH   1  17
ATOM     17  C   UNL     1      -0.912  44.066  12.330  1.00  0.00     0.000 C 
BRANCH  17  18
ATOM     18  C   UNL     1      -1.099  42.737  13.081  1.00  0.00     0.000 C 
BRANCH  18  19
ATOM     19  C   UNL     1       0.227  41.998  13.366  1.00  0.00     0.000 C 
BRANCH  19  20
ATOM     20  C   UNL     1      -0.009  40.616  13.996  1.00  0.00     0.000 C 
BRANCH  20  21
ATOM     21  C   UNL     1       1.256  39.742  14.011  1.00  0.00     0.000 C 
BRANCH  21  22
ATOM     22  C   UNL     1       1.384  38.808  12.788  1.00  0.00    -0.000 C 
BRANCH  22  23
ATOM     23  C   UNL     1       2.821  38.293  12.591  1.00  0.00    -0.000 C 
BRANCH  23  24
ATOM     24  C   UNL     1       3.868  39.156  13.320  1.00  0.00    -0.000 C 
BRANCH  24  25
ATOM     25  C   UNL     1       4.548  40.231  12.446  1.00  0.00    -0.000 C 
BRANCH  25  26
ATOM     26  C   UNL     1       3.822  41.593  12.458  1.00  0.00    -0.000 C 
BRANCH  26  27
ATOM     27  C   UNL     1       3.133  41.897  11.115  1.00  0.00    -0.000 C 
BRANCH  27  28
ATOM     28  C   UNL     1       3.825  43.030  10.338  1.00  0.00    -0.000 C 
BRANCH  28  29
ATOM     29  C   UNL     1       4.607  44.003  11.249  1.00  0.00    -0.003 C 
ATOM     30  C   UNL     1       3.708  45.086  11.844  1.00  0.00     0.004 C 
ENDBRANCH  28  29
ENDBRANCH  27  28
ENDBRANCH  26  27
ENDBRANCH  25  26
ENDBRANCH  24  25
ENDBRANCH  23  24
ENDBRANCH  22  23
ENDBRANCH  21  22
ENDBRANCH  20  21
ENDBRANCH  19  20
ENDBRANCH  18  19
ENDBRANCH  17  18
ENDBRANCH   1  17
TORSDOF 26
ENDMDL
MODEL 8
REMARK VINA RESULT:    -2.859      1.338      3.422
REMARK INTER + INTRA:         -11.122
REMARK INTER:                  -8.327
REMARK INTRA:                  -2.794
REMARK UNBOUND:                -3.917
REMARK SMILES CCCCCCCCCCCCCCCCCCCCCCCCCCCC(=O)[O-]
REMARK SMILES IDX 15 1 16 2 17 3 18 4 19 5 20 6 21 7 22 8 23 9 24 10 25 11
REMARK SMILES IDX 26 12 27 13 28 14 29 15 30 16 14 17 13 18 12 19 11 20 10 21
REMARK SMILES IDX 9 22 8 23 7 24 6 25 5 26 4 27 3 28 2 29 1 30
REMARK H PARENT
REMARK Flexibility Score: inf
ROOT
ATOM      1  C   UNL     1       4.175  44.039  11.462  1.00  0.00     0.000 C 
ENDROOT
BRANCH   1   2
ATOM      2  C   UNL     1       3.810  44.228   9.988  1.00  0.00     0.000 C 
BRANCH   2   3
ATOM      3  C   UNL     1       3.247  42.937   9.373  1.00  0.00     0.000 C 
BRANCH   3   4
ATOM      4  C   UNL     1       2.284  43.201   8.194  1.00  0.00     0.000 C 
BRANCH   4   5
ATOM      5  C   UNL     1       1.163  44.215   8.502  1.00  0.00     0.000 C 
BRANCH   5   6
ATOM      6  C   UNL     1       0.136  44.428   7.376  1.00  0.00     0.000 C 
BRANCH   6   7
ATOM      7  C   UNL     1      -0.462  45.854   7.334  1.00  0.00     0.000 C 
BRANCH   7   8
ATOM      8  C   UNL     1      -0.374  46.559   8.694  1.00  0.00     0.000 C 
BRANCH   8   9
ATOM      9  C   UNL     1       0.251  47.954   8.571  1.00  0.00     0.000 C 
BRANCH   9  10
ATOM     10  C   UNL     1       1.713  47.989   9.057  1.00  0.00     0.000 C 
BRANCH  10  11
ATOM     11  C   UNL     1       2.754  47.440   8.056  1.00  0.00     0.000 C 
BRANCH  11  12
ATOM     12  C   UNL     1       4.150  48.089   8.140  1.00  0.00     0.006 C 
BRANCH  12  13
ATOM     13  C   UNL     1       5.090  47.432   9.163  1.00  0.00     0.053 C 
BRANCH  13  14
ATOM     14  C   UNL     1       6.419  48.121   9.226  1.00  0.00     0.041 C 
ATOM     15  O   UNL     1       7.455  47.471   9.520  1.00  0.00    -0.550 OA
ATOM     16  O   UNL     1       6.509  49.485   8.981  1.00  0.00    -0.550 OA
ENDBRANCH  13  14
ENDBRANCH  12  13
ENDBRANCH  11  12
ENDBRANCH  10  11
ENDBRANCH   9  10
ENDBRANCH   8   9
ENDBRANCH   7   8
ENDBRANCH   6   7
ENDBRANCH   5   6
ENDBRANCH   4   5
ENDBRANCH   3   4
ENDBRANCH   2   3
ENDBRANCH   1   2
BRANCH   1  17
ATOM     17  C   UNL     1       2.959  44.318  12.357  1.00  0.00     0.000 C 
BRANCH  17  18
ATOM     18  C   UNL     1       1.866  45.136  11.650  1.00  0.00     0.000 C 
BRANCH  18  19
ATOM     19  C   UNL     1       0.515  44.395  11.539  1.00  0.00     0.000 C 
BRANCH  19  20
ATOM     20  C   UNL     1       0.453  43.171  12.466  1.00  0.00     0.000 C 
BRANCH  20  21
ATOM     21  C   UNL     1      -0.979  42.832  12.914  1.00  0.00     0.000 C 
BRANCH  21  22
ATOM     22  C   UNL     1      -1.077  41.557  13.779  1.00  0.00    -0.000 C 
BRANCH  22  23
ATOM     23  C   UNL     1       0.192  41.318  14.618  1.00  0.00    -0.000 C 
BRANCH  23  24
ATOM     24  C   UNL     1       0.981  40.076  14.162  1.00  0.00    -0.000 C 
BRANCH  24  25
ATOM     25  C   UNL     1       1.746  40.245  12.832  1.00  0.00    -0.000 C 
BRANCH  25  26
ATOM     26  C   UNL     1       3.221  39.793  12.901  1.00  0.00    -0.000 C 
BRANCH  26  27
ATOM     27  C   UNL     1       3.367  38.265  12.794  1.00  0.00    -0.000 C 
BRANCH  27  28
ATOM     28  C   UNL     1       2.655  37.688  11.559  1.00  0.00    -0.000 C 
BRANCH  28  29
ATOM     29  C   UNL     1       2.192  36.226  11.752  1.00  0.00    -0.003 C 
ATOM     30  C   UNL     1       0.670  36.105  11.807  1.00  0.00     0.004 C 
ENDBRANCH  28  29
ENDBRANCH  27  28
ENDBRANCH  26  27
ENDBRANCH  25  26
ENDBRANCH  24  25
ENDBRANCH  23  24
ENDBRANCH  22  23
ENDBRANCH  21  22
ENDBRANCH  20  21
ENDBRANCH  19  20
ENDBRANCH  18  19
ENDBRANCH  17  18
ENDBRANCH   1  17
TORSDOF 26
ENDMDL
MODEL 9
REMARK VINA RESULT:    -2.784      3.154      7.952
REMARK INTER + INTRA:         -10.933
REMARK INTER:                  -8.502
REMARK INTRA:                  -2.431
REMARK UNBOUND:                -3.917
REMARK SMILES CCCCCCCCCCCCCCCCCCCCCCCCCCCC(=O)[O-]
REMARK SMILES IDX 15 1 16 2 17 3 18 4 19 5 20 6 21 7 22 8 23 9 24 10 25 11
REMARK SMILES IDX 26 12 27 13 28 14 29 15 30 16 14 17 13 18 12 19 11 20 10 21
REMARK SMILES IDX 9 22 8 23 7 24 6 25 5 26 4 27 3 28 2 29 1 30
REMARK H PARENT
REMARK Flexibility Score: inf
ROOT
ATOM      1  C   UNL     1       4.119  43.284  11.660  1.00  0.00     0.000 C 
ENDROOT
BRANCH   1   2
ATOM      2  C   UNL     1       3.661  42.923  10.244  1.00  0.00     0.000 C 
BRANCH   2   3
ATOM      3  C   UNL     1       2.138  42.738  10.172  1.00  0.00     0.000 C 
BRANCH   3   4
ATOM      4  C   UNL     1       1.370  44.079  10.117  1.00  0.00     0.000 C 
BRANCH   4   5
ATOM      5  C   UNL     1       0.471  44.347  11.340  1.00  0.00     0.000 C 
BRANCH   5   6
ATOM      6  C   UNL     1       0.567  43.309  12.473  1.00  0.00     0.000 C 
BRANCH   6   7
ATOM      7  C   UNL     1      -0.769  42.595  12.784  1.00  0.00     0.000 C 
BRANCH   7   8
ATOM      8  C   UNL     1      -1.030  42.486  14.293  1.00  0.00     0.000 C 
BRANCH   8   9
ATOM      9  C   UNL     1      -0.953  41.033  14.778  1.00  0.00     0.000 C 
BRANCH   9  10
ATOM     10  C   UNL     1      -1.054  40.020  13.622  1.00  0.00     0.000 C 
BRANCH  10  11
ATOM     11  C   UNL     1       0.229  39.203  13.346  1.00  0.00     0.000 C 
BRANCH  11  12
ATOM     12  C   UNL     1       1.546  39.894  13.752  1.00  0.00     0.006 C 
BRANCH  12  13
ATOM     13  C   UNL     1       2.521  40.125  12.587  1.00  0.00     0.053 C 
BRANCH  13  14
ATOM     14  C   UNL     1       3.869  39.529  12.859  1.00  0.00     0.041 C 
ATOM     15  O   UNL     1       4.077  38.307  12.637  1.00  0.00    -0.550 OA
ATOM     16  O   UNL     1       4.887  40.316  13.379  1.00  0.00    -0.550 OA
ENDBRANCH  13  14
ENDBRANCH  12  13
ENDBRANCH  11  12
ENDBRANCH  10  11
ENDBRANCH   9  10
ENDBRANCH   8   9
ENDBRANCH   7   8
ENDBRANCH   6   7
ENDBRANCH   5   6
ENDBRANCH   4   5
ENDBRANCH   3   4
ENDBRANCH   2   3
ENDBRANCH   1   2
BRANCH   1  17
ATOM     17  C   UNL     1       4.630  44.732  11.707  1.00  0.00     0.000 C 
BRANCH  17  18
ATOM     18  C   UNL     1       4.029  45.618  10.603  1.00  0.00     0.000 C 
BRANCH  18  19
ATOM     19  C   UNL     1       4.738  46.982  10.453  1.00  0.00     0.000 C 
BRANCH  19  20
ATOM     20  C   UNL     1       6.067  46.859   9.692  1.00  0.00     0.000 C 
BRANCH  20  21
ATOM     21  C   UNL     1       6.595  48.213   9.189  1.00  0.00     0.000 C 
BRANCH  21  22
ATOM     22  C   UNL     1       5.567  49.017   8.364  1.00  0.00    -0.000 C 
BRANCH  22  23
ATOM     23  C   UNL     1       4.369  48.158   7.921  1.00  0.00    -0.000 C 
BRANCH  23  24
ATOM     24  C   UNL     1       3.298  48.973   7.172  1.00  0.00    -0.000 C 
BRANCH  24  25
ATOM     25  C   UNL     1       1.858  48.795   7.700  1.00  0.00    -0.000 C 
BRANCH  25  26
ATOM     26  C   UNL     1       1.500  47.334   8.049  1.00  0.00    -0.000 C 
BRANCH  26  27
ATOM     27  C   UNL     1       0.299  47.243   9.007  1.00  0.00    -0.000 C 
BRANCH  27  28
ATOM     28  C   UNL     1      -0.896  46.497   8.390  1.00  0.00    -0.000 C 
BRANCH  28  29
ATOM     29  C   UNL     1      -0.702  46.173   6.891  1.00  0.00    -0.003 C 
ATOM     30  C   UNL     1      -0.362  44.702   6.658  1.00  0.00     0.004 C 
ENDBRANCH  28  29
ENDBRANCH  27  28
ENDBRANCH  26  27
ENDBRANCH  25  26
ENDBRANCH  24  25
ENDBRANCH  23  24
ENDBRANCH  22  23
ENDBRANCH  21  22
ENDBRANCH  20  21
ENDBRANCH  19  20
ENDBRANCH  18  19
ENDBRANCH  17  18
ENDBRANCH   1  17
TORSDOF 26
ENDMDL
