MODEL 1
REMARK VINA RESULT:    -4.341      0.000      0.000
REMARK INTER + INTRA:          -4.341
REMARK INTER:                  -4.341
REMARK INTRA:                   0.000
REMARK UNBOUND:                 0.000
REMARK SMILES O=c1ccc2ccccc2o1
REMARK SMILES IDX 7 1 8 2 9 3 10 4 5 5 6 6 4 7 3 8 2 9 1 10 11 11
REMARK H PARENT
REMARK Flexibility Score: inf
ROOT
ATOM      1  C   UNL     1      17.925 129.376  57.370  1.00  0.00     0.001 A 
ATOM      2  C   UNL     1      18.919 130.098  56.701  1.00  0.00     0.004 A 
ATOM      3  C   UNL     1      18.995 130.064  55.305  1.00  0.00     0.048 A 
ATOM      4  C   UNL     1      18.076 129.307  54.571  1.00  0.00     0.138 A 
ATOM      5  C   UNL     1      17.072 128.576  55.245  1.00  0.00     0.018 A 
ATOM      6  C   UNL     1      17.001 128.614  56.646  1.00  0.00     0.012 A 
ATOM      7  C   UNL     1      16.168 127.828  54.486  1.00  0.00     0.019 A 
ATOM      8  C   UNL     1      16.281 127.824  53.096  1.00  0.00     0.094 A 
ATOM      9  C   UNL     1      17.301 128.571  52.496  1.00  0.00     0.336 A 
ATOM     10  O   UNL     1      17.420 128.579  51.243  1.00  0.00    -0.246 OA
ATOM     11  O   UNL     1      18.149 129.274  53.243  1.00  0.00    -0.423 OA
ENDROOT
TORSDOF 0
ENDMDL
MODEL 2
REMARK VINA RESULT:    -4.173      1.470      3.663
REMARK INTER + INTRA:          -4.173
REMARK INTER:                  -4.173
REMARK INTRA:                   0.000
REMARK UNBOUND:                 0.000
REMARK SMILES O=c1ccc2ccccc2o1
REMARK SMILES IDX 7 1 8 2 9 3 10 4 5 5 6 6 4 7 3 8 2 9 1 10 11 11
REMARK H PARENT
REMARK Flexibility Score: inf
ROOT
ATOM      1  C   UNL     1      16.229 127.419  54.226  1.00  0.00     0.001 A 
ATOM      2  C   UNL     1      16.656 127.978  53.017  1.00  0.00     0.004 A 
ATOM      3  C   UNL     1      17.631 128.981  53.012  1.00  0.00     0.048 A 
ATOM      4  C   UNL     1      18.184 129.427  54.216  1.00  0.00     0.138 A 
ATOM      5  C   UNL     1      17.753 128.863  55.438  1.00  0.00     0.018 A 
ATOM      6  C   UNL     1      16.774 127.858  55.437  1.00  0.00     0.012 A 
ATOM      7  C   UNL     1      18.323 129.330  56.626  1.00  0.00     0.019 A 
ATOM      8  C   UNL     1      19.293 130.330  56.573  1.00  0.00     0.094 A 
ATOM      9  C   UNL     1      19.671 130.843  55.327  1.00  0.00     0.336 A 
ATOM     10  O   UNL     1      20.544 131.747  55.258  1.00  0.00    -0.246 OA
ATOM     11  O   UNL     1      19.112 130.381  54.211  1.00  0.00    -0.423 OA
ENDROOT
TORSDOF 0
ENDMDL
MODEL 3
REMARK VINA RESULT:    -4.072      2.285      2.905
REMARK INTER + INTRA:          -4.072
REMARK INTER:                  -4.072
REMARK INTRA:                   0.000
REMARK UNBOUND:                 0.000
REMARK SMILES O=c1ccc2ccccc2o1
REMARK SMILES IDX 7 1 8 2 9 3 10 4 5 5 6 6 4 7 3 8 2 9 1 10 11 11
REMARK H PARENT
REMARK Flexibility Score: inf
ROOT
ATOM      1  C   UNL     1      15.072 128.816  55.562  1.00  0.00     0.001 A 
ATOM      2  C   UNL     1      15.927 127.714  55.450  1.00  0.00     0.004 A 
ATOM      3  C   UNL     1      16.627 127.484  54.261  1.00  0.00     0.048 A 
ATOM      4  C   UNL     1      16.476 128.357  53.179  1.00  0.00     0.138 A 
ATOM      5  C   UNL     1      15.612 129.470  53.290  1.00  0.00     0.018 A 
ATOM      6  C   UNL     1      14.912 129.695  54.485  1.00  0.00     0.012 A 
ATOM      7  C   UNL     1      15.480 130.324  52.191  1.00  0.00     0.019 A 
ATOM      8  C   UNL     1      16.198 130.057  51.027  1.00  0.00     0.094 A 
ATOM      9  C   UNL     1      17.034 128.935  50.987  1.00  0.00     0.336 A 
ATOM     10  O   UNL     1      17.690 128.677  49.945  1.00  0.00    -0.246 OA
ATOM     11  O   UNL     1      17.141 128.138  52.047  1.00  0.00    -0.423 OA
ENDROOT
TORSDOF 0
ENDMDL
MODEL 4
REMARK VINA RESULT:    -4.055      2.018      4.337
REMARK INTER + INTRA:          -4.055
REMARK INTER:                  -4.055
REMARK INTRA:                   0.000
REMARK UNBOUND:                 0.000
REMARK SMILES O=c1ccc2ccccc2o1
REMARK SMILES IDX 7 1 8 2 9 3 10 4 5 5 6 6 4 7 3 8 2 9 1 10 11 11
REMARK H PARENT
REMARK Flexibility Score: inf
ROOT
ATOM      1  C   UNL     1      16.870 128.256  52.569  1.00  0.00     0.001 A 
ATOM      2  C   UNL     1      16.272 127.463  53.555  1.00  0.00     0.004 A 
ATOM      3  C   UNL     1      16.585 127.663  54.903  1.00  0.00     0.048 A 
ATOM      4  C   UNL     1      17.497 128.657  55.271  1.00  0.00     0.138 A 
ATOM      5  C   UNL     1      18.102 129.457  54.277  1.00  0.00     0.018 A 
ATOM      6  C   UNL     1      17.785 129.252  52.926  1.00  0.00     0.012 A 
ATOM      7  C   UNL     1      19.011 130.442  54.675  1.00  0.00     0.019 A 
ATOM      8  C   UNL     1      19.292 130.606  56.030  1.00  0.00     0.094 A 
ATOM      9  C   UNL     1      18.655 129.776  56.960  1.00  0.00     0.336 A 
ATOM     10  O   UNL     1      18.897 129.908  58.188  1.00  0.00    -0.246 OA
ATOM     11  O   UNL     1      17.795 128.846  56.554  1.00  0.00    -0.423 OA
ENDROOT
TORSDOF 0
ENDMDL
MODEL 5
REMARK VINA RESULT:    -4.008      2.820      4.892
REMARK INTER + INTRA:          -4.008
REMARK INTER:                  -4.008
REMARK INTRA:                   0.000
REMARK UNBOUND:                 0.000
REMARK SMILES O=c1ccc2ccccc2o1
REMARK SMILES IDX 7 1 8 2 9 3 10 4 5 5 6 6 4 7 3 8 2 9 1 10 11 11
REMARK H PARENT
REMARK Flexibility Score: inf
ROOT
ATOM      1  C   UNL     1      17.360 127.885  54.236  1.00  0.00     0.001 A 
ATOM      2  C   UNL     1      16.153 127.515  54.839  1.00  0.00     0.004 A 
ATOM      3  C   UNL     1      15.878 127.901  56.155  1.00  0.00     0.048 A 
ATOM      4  C   UNL     1      16.809 128.658  56.873  1.00  0.00     0.138 A 
ATOM      5  C   UNL     1      18.028 129.031  56.265  1.00  0.00     0.018 A 
ATOM      6  C   UNL     1      18.299 128.641  54.945  1.00  0.00     0.012 A 
ATOM      7  C   UNL     1      18.940 129.787  57.008  1.00  0.00     0.019 A 
ATOM      8  C   UNL     1      18.623 130.149  58.316  1.00  0.00     0.094 A 
ATOM      9  C   UNL     1      17.396 129.743  58.854  1.00  0.00     0.336 A 
ATOM     10  O   UNL     1      17.092 130.060  60.034  1.00  0.00    -0.246 OA
ATOM     11  O   UNL     1      16.547 129.024  58.125  1.00  0.00    -0.423 OA
ENDROOT
TORSDOF 0
ENDMDL
MODEL 6
REMARK VINA RESULT:    -3.981      2.489      4.384
REMARK INTER + INTRA:          -3.981
REMARK INTER:                  -3.981
REMARK INTRA:                   0.000
REMARK UNBOUND:                 0.000
REMARK SMILES O=c1ccc2ccccc2o1
REMARK SMILES IDX 7 1 8 2 9 3 10 4 5 5 6 6 4 7 3 8 2 9 1 10 11 11
REMARK H PARENT
REMARK Flexibility Score: inf
ROOT
ATOM      1  C   UNL     1      16.315 127.640  54.419  1.00  0.00     0.001 A 
ATOM      2  C   UNL     1      17.615 128.055  54.107  1.00  0.00     0.004 A 
ATOM      3  C   UNL     1      18.388 128.725  55.061  1.00  0.00     0.048 A 
ATOM      4  C   UNL     1      17.864 128.981  56.332  1.00  0.00     0.138 A 
ATOM      5  C   UNL     1      16.552 128.563  56.648  1.00  0.00     0.018 A 
ATOM      6  C   UNL     1      15.782 127.893  55.687  1.00  0.00     0.012 A 
ATOM      7  C   UNL     1      16.055 128.835  57.927  1.00  0.00     0.019 A 
ATOM      8  C   UNL     1      16.861 129.504  58.846  1.00  0.00     0.094 A 
ATOM      9  C   UNL     1      18.151 129.889  58.464  1.00  0.00     0.336 A 
ATOM     10  O   UNL     1      18.894 130.495  59.279  1.00  0.00    -0.246 OA
ATOM     11  O   UNL     1      18.599 129.619  57.240  1.00  0.00    -0.423 OA
ENDROOT
TORSDOF 0
ENDMDL
MODEL 7
REMARK VINA RESULT:    -3.937      8.961     10.624
REMARK INTER + INTRA:          -3.937
REMARK INTER:                  -3.937
REMARK INTRA:                   0.000
REMARK UNBOUND:                 0.000
REMARK SMILES O=c1ccc2ccccc2o1
REMARK SMILES IDX 7 1 8 2 9 3 10 4 5 5 6 6 4 7 3 8 2 9 1 10 11 11
REMARK H PARENT
REMARK Flexibility Score: inf
ROOT
ATOM      1  C   UNL     1      14.855 126.630  66.409  1.00  0.00     0.001 A 
ATOM      2  C   UNL     1      14.734 125.972  65.181  1.00  0.00     0.004 A 
ATOM      3  C   UNL     1      15.609 126.272  64.132  1.00  0.00     0.048 A 
ATOM      4  C   UNL     1      16.611 127.231  64.309  1.00  0.00     0.138 A 
ATOM      5  C   UNL     1      16.734 127.897  65.549  1.00  0.00     0.018 A 
ATOM      6  C   UNL     1      15.852 127.592  66.596  1.00  0.00     0.012 A 
ATOM      7  C   UNL     1      17.744 128.852  65.696  1.00  0.00     0.019 A 
ATOM      8  C   UNL     1      18.595 129.119  64.624  1.00  0.00     0.094 A 
ATOM      9  C   UNL     1      18.414 128.421  63.424  1.00  0.00     0.336 A 
ATOM     10  O   UNL     1      19.171 128.648  62.445  1.00  0.00    -0.246 OA
ATOM     11  O   UNL     1      17.444 127.517  63.311  1.00  0.00    -0.423 OA
ENDROOT
TORSDOF 0
ENDMDL
MODEL 8
REMARK VINA RESULT:    -3.913      1.851      2.877
REMARK INTER + INTRA:          -3.913
REMARK INTER:                  -3.913
REMARK INTRA:                   0.000
REMARK UNBOUND:                 0.000
REMARK SMILES O=c1ccc2ccccc2o1
REMARK SMILES IDX 7 1 8 2 9 3 10 4 5 5 6 6 4 7 3 8 2 9 1 10 11 11
REMARK H PARENT
REMARK Flexibility Score: inf
ROOT
ATOM      1  C   UNL     1      16.481 129.358  58.841  1.00  0.00     0.001 A 
ATOM      2  C   UNL     1      15.238 128.775  58.572  1.00  0.00     0.004 A 
ATOM      3  C   UNL     1      14.966 128.249  57.305  1.00  0.00     0.048 A 
ATOM      4  C   UNL     1      15.938 128.303  56.301  1.00  0.00     0.138 A 
ATOM      5  C   UNL     1      17.194 128.893  56.571  1.00  0.00     0.018 A 
ATOM      6  C   UNL     1      17.459 129.419  57.844  1.00  0.00     0.012 A 
ATOM      7  C   UNL     1      18.145 128.934  55.547  1.00  0.00     0.019 A 
ATOM      8  C   UNL     1      17.831 128.397  54.300  1.00  0.00     0.094 A 
ATOM      9  C   UNL     1      16.567 127.829  54.104  1.00  0.00     0.336 A 
ATOM     10  O   UNL     1      16.265 127.339  52.985  1.00  0.00    -0.246 OA
ATOM     11  O   UNL     1      15.680 127.803  55.095  1.00  0.00    -0.423 OA
ENDROOT
TORSDOF 0
ENDMDL
MODEL 9
REMARK VINA RESULT:    -3.873      2.311      3.409
REMARK INTER + INTRA:          -3.873
REMARK INTER:                  -3.873
REMARK INTRA:                   0.000
REMARK UNBOUND:                 0.000
REMARK SMILES O=c1ccc2ccccc2o1
REMARK SMILES IDX 7 1 8 2 9 3 10 4 5 5 6 6 4 7 3 8 2 9 1 10 11 11
REMARK H PARENT
REMARK Flexibility Score: inf
ROOT
ATOM      1  C   UNL     1      15.083 128.622  58.531  1.00  0.00     0.001 A 
ATOM      2  C   UNL     1      15.953 129.366  59.336  1.00  0.00     0.004 A 
ATOM      3  C   UNL     1      17.215 129.731  58.857  1.00  0.00     0.048 A 
ATOM      4  C   UNL     1      17.613 129.354  57.570  1.00  0.00     0.138 A 
ATOM      5  C   UNL     1      16.735 128.601  56.757  1.00  0.00     0.018 A 
ATOM      6  C   UNL     1      15.471 128.238  57.244  1.00  0.00     0.012 A 
ATOM      7  C   UNL     1      17.160 128.238  55.476  1.00  0.00     0.019 A 
ATOM      8  C   UNL     1      18.426 128.624  55.039  1.00  0.00     0.094 A 
ATOM      9  C   UNL     1      19.243 129.368  55.899  1.00  0.00     0.336 A 
ATOM     10  O   UNL     1      20.389 129.726  55.524  1.00  0.00    -0.246 OA
ATOM     11  O   UNL     1      18.814 129.701  57.114  1.00  0.00    -0.423 OA
ENDROOT
TORSDOF 0
ENDMDL
