MODEL 1
REMARK VINA RESULT:    -4.107      0.000      0.000
REMARK INTER + INTRA:          -9.118
REMARK INTER:                  -7.468
REMARK INTRA:                  -1.649
REMARK UNBOUND:                -1.649
REMARK SMILES CCCCCCCCCCCCCCCC(=O)[O-]
REMARK SMILES IDX 9 1 10 2 11 3 12 4 13 5 14 6 15 7 16 8 17 9 18 10 8 11 7 12
REMARK SMILES IDX 6 13 5 14 4 15 3 16 2 17 1 18
REMARK H PARENT
REMARK Flexibility Score: inf
ROOT
ATOM      1  C   UNL     1      28.022  -2.028  36.021  1.00  0.00     0.000 C 
ENDROOT
BRANCH   1   2
ATOM      2  C   UNL     1      28.681  -3.402  35.784  1.00  0.00     0.000 C 
BRANCH   2   3
ATOM      3  C   UNL     1      28.368  -4.051  34.421  1.00  0.00     0.000 C 
BRANCH   3   4
ATOM      4  C   UNL     1      28.865  -5.499  34.266  1.00  0.00     0.000 C 
BRANCH   4   5
ATOM      5  C   UNL     1      30.185  -5.594  33.481  1.00  0.00     0.000 C 
BRANCH   5   6
ATOM      6  C   UNL     1      30.536  -4.289  32.747  1.00  0.00     0.006 C 
BRANCH   6   7
ATOM      7  C   UNL     1      31.966  -3.786  33.003  1.00  0.00     0.053 C 
BRANCH   7   8
ATOM      8  C   UNL     1      32.075  -3.030  34.291  1.00  0.00     0.041 C 
ATOM      9  O   UNL     1      31.392  -1.988  34.474  1.00  0.00    -0.550 OA
ATOM     10  O   UNL     1      32.908  -3.492  35.302  1.00  0.00    -0.550 OA
ENDBRANCH   7   8
ENDBRANCH   6   7
ENDBRANCH   5   6
ENDBRANCH   4   5
ENDBRANCH   3   4
ENDBRANCH   2   3
ENDBRANCH   1   2
BRANCH   1  11
ATOM     11  C   UNL     1      27.159  -1.932  37.292  1.00  0.00     0.000 C 
BRANCH  11  12
ATOM     12  C   UNL     1      26.578  -0.527  37.511  1.00  0.00    -0.000 C 
BRANCH  12  13
ATOM     13  C   UNL     1      26.983   0.419  36.373  1.00  0.00    -0.000 C 
BRANCH  13  14
ATOM     14  C   UNL     1      25.799   0.819  35.477  1.00  0.00    -0.000 C 
BRANCH  14  15
ATOM     15  C   UNL     1      26.115   0.758  33.968  1.00  0.00    -0.000 C 
BRANCH  15  16
ATOM     16  C   UNL     1      25.189  -0.217  33.219  1.00  0.00    -0.000 C 
BRANCH  16  17
ATOM     17  C   UNL     1      25.426  -1.682  33.619  1.00  0.00    -0.003 C 
ATOM     18  C   UNL     1      24.192  -2.331  34.241  1.00  0.00     0.004 C 
ENDBRANCH  16  17
ENDBRANCH  15  16
ENDBRANCH  14  15
ENDBRANCH  13  14
ENDBRANCH  12  13
ENDBRANCH  11  12
ENDBRANCH   1  11
TORSDOF 14
ENDMDL
MODEL 2
REMARK VINA RESULT:    -3.933      1.752      2.543
REMARK INTER + INTRA:          -8.802
REMARK INTER:                  -7.664
REMARK INTRA:                  -1.138
REMARK UNBOUND:                -1.649
REMARK SMILES CCCCCCCCCCCCCCCC(=O)[O-]
REMARK SMILES IDX 9 1 10 2 11 3 12 4 13 5 14 6 15 7 16 8 17 9 18 10 8 11 7 12
REMARK SMILES IDX 6 13 5 14 4 15 3 16 2 17 1 18
REMARK H PARENT
REMARK Flexibility Score: inf
ROOT
ATOM      1  C   UNL     1      27.313  -1.336  36.113  1.00  0.00     0.000 C 
ENDROOT
BRANCH   1   2
ATOM      2  C   UNL     1      28.232  -2.493  36.555  1.00  0.00     0.000 C 
BRANCH   2   3
ATOM      3  C   UNL     1      28.982  -3.206  35.413  1.00  0.00     0.000 C 
BRANCH   3   4
ATOM      4  C   UNL     1      28.093  -4.052  34.485  1.00  0.00     0.000 C 
BRANCH   4   5
ATOM      5  C   UNL     1      28.822  -5.285  33.924  1.00  0.00     0.000 C 
BRANCH   5   6
ATOM      6  C   UNL     1      30.353  -5.177  34.043  1.00  0.00     0.006 C 
BRANCH   6   7
ATOM      7  C   UNL     1      31.071  -4.908  32.711  1.00  0.00     0.053 C 
BRANCH   7   8
ATOM      8  C   UNL     1      32.561  -4.935  32.860  1.00  0.00     0.041 C 
ATOM      9  O   UNL     1      33.084  -4.931  34.005  1.00  0.00    -0.550 OA
ATOM     10  O   UNL     1      33.372  -4.998  31.734  1.00  0.00    -0.550 OA
ENDBRANCH   7   8
ENDBRANCH   6   7
ENDBRANCH   5   6
ENDBRANCH   4   5
ENDBRANCH   3   4
ENDBRANCH   2   3
ENDBRANCH   1   2
BRANCH   1  11
ATOM     11  C   UNL     1      26.018  -1.185  36.931  1.00  0.00     0.000 C 
BRANCH  11  12
ATOM     12  C   UNL     1      24.768  -1.617  36.151  1.00  0.00    -0.000 C 
BRANCH  12  13
ATOM     13  C   UNL     1      23.572  -0.717  36.488  1.00  0.00    -0.000 C 
BRANCH  13  14
ATOM     14  C   UNL     1      22.608  -0.532  35.304  1.00  0.00    -0.000 C 
BRANCH  14  15
ATOM     15  C   UNL     1      23.262   0.123  34.070  1.00  0.00    -0.000 C 
BRANCH  15  16
ATOM     16  C   UNL     1      24.073   1.378  34.440  1.00  0.00    -0.000 C 
BRANCH  16  17
ATOM     17  C   UNL     1      25.485   1.369  33.836  1.00  0.00    -0.003 C 
ATOM     18  C   UNL     1      25.580   0.524  32.567  1.00  0.00     0.004 C 
ENDBRANCH  16  17
ENDBRANCH  15  16
ENDBRANCH  14  15
ENDBRANCH  13  14
ENDBRANCH  12  13
ENDBRANCH  11  12
ENDBRANCH   1  11
TORSDOF 14
ENDMDL
MODEL 3
REMARK VINA RESULT:    -3.870      1.966      4.559
REMARK INTER + INTRA:          -8.686
REMARK INTER:                  -6.669
REMARK INTRA:                  -2.017
REMARK UNBOUND:                -1.649
REMARK SMILES CCCCCCCCCCCCCCCC(=O)[O-]
REMARK SMILES IDX 9 1 10 2 11 3 12 4 13 5 14 6 15 7 16 8 17 9 18 10 8 11 7 12
REMARK SMILES IDX 6 13 5 14 4 15 3 16 2 17 1 18
REMARK H PARENT
REMARK Flexibility Score: inf
ROOT
ATOM      1  C   UNL     1      24.659   1.938  36.304  1.00  0.00     0.000 C 
ENDROOT
BRANCH   1   2
ATOM      2  C   UNL     1      25.247   1.747  37.717  1.00  0.00     0.000 C 
BRANCH   2   3
ATOM      3  C   UNL     1      26.627   1.061  37.764  1.00  0.00     0.000 C 
BRANCH   3   4
ATOM      4  C   UNL     1      26.619  -0.432  37.391  1.00  0.00     0.000 C 
BRANCH   4   5
ATOM      5  C   UNL     1      27.665  -0.783  36.318  1.00  0.00     0.000 C 
BRANCH   5   6
ATOM      6  C   UNL     1      27.663  -2.278  35.953  1.00  0.00     0.006 C 
BRANCH   6   7
ATOM      7  C   UNL     1      29.060  -2.920  35.923  1.00  0.00     0.053 C 
BRANCH   7   8
ATOM      8  C   UNL     1      29.147  -4.032  34.923  1.00  0.00     0.041 C 
ATOM      9  O   UNL     1      28.398  -4.033  33.910  1.00  0.00    -0.550 OA
ATOM     10  O   UNL     1      30.075  -5.051  35.094  1.00  0.00    -0.550 OA
ENDBRANCH   7   8
ENDBRANCH   6   7
ENDBRANCH   5   6
ENDBRANCH   4   5
ENDBRANCH   3   4
ENDBRANCH   2   3
ENDBRANCH   1   2
BRANCH   1  11
ATOM     11  C   UNL     1      23.212   1.442  36.131  1.00  0.00     0.000 C 
BRANCH  11  12
ATOM     12  C   UNL     1      23.067  -0.067  36.377  1.00  0.00    -0.000 C 
BRANCH  12  13
ATOM     13  C   UNL     1      22.195  -0.719  35.296  1.00  0.00    -0.000 C 
BRANCH  13  14
ATOM     14  C   UNL     1      22.965  -1.738  34.439  1.00  0.00    -0.000 C 
BRANCH  14  15
ATOM     15  C   UNL     1      24.490  -1.716  34.672  1.00  0.00    -0.000 C 
BRANCH  15  16
ATOM     16  C   UNL     1      25.264  -1.304  33.408  1.00  0.00    -0.000 C 
BRANCH  16  17
ATOM     17  C   UNL     1      25.654   0.182  33.411  1.00  0.00    -0.003 C 
ATOM     18  C   UNL     1      24.895   0.994  32.363  1.00  0.00     0.004 C 
ENDBRANCH  16  17
ENDBRANCH  15  16
ENDBRANCH  14  15
ENDBRANCH  13  14
ENDBRANCH  12  13
ENDBRANCH  11  12
ENDBRANCH   1  11
TORSDOF 14
ENDMDL
MODEL 4
REMARK VINA RESULT:    -3.849      4.284      6.438
REMARK INTER + INTRA:          -8.648
REMARK INTER:                  -6.155
REMARK INTRA:                  -2.494
REMARK UNBOUND:                -1.649
REMARK SMILES CCCCCCCCCCCCCCCC(=O)[O-]
REMARK SMILES IDX 9 1 10 2 11 3 12 4 13 5 14 6 15 7 16 8 17 9 18 10 8 11 7 12
REMARK SMILES IDX 6 13 5 14 4 15 3 16 2 17 1 18
REMARK H PARENT
REMARK Flexibility Score: inf
ROOT
ATOM      1  C   UNL     1      24.573   2.237  33.904  1.00  0.00     0.000 C 
ENDROOT
BRANCH   1   2
ATOM      2  C   UNL     1      25.850   1.419  33.626  1.00  0.00     0.000 C 
BRANCH   2   3
ATOM      3  C   UNL     1      26.937   1.511  34.714  1.00  0.00     0.000 C 
BRANCH   3   4
ATOM      4  C   UNL     1      27.058   0.268  35.614  1.00  0.00     0.000 C 
BRANCH   4   5
ATOM      5  C   UNL     1      26.429   0.475  37.002  1.00  0.00     0.000 C 
BRANCH   5   6
ATOM      6  C   UNL     1      26.254   1.961  37.361  1.00  0.00     0.006 C 
BRANCH   6   7
ATOM      7  C   UNL     1      25.971   2.222  38.849  1.00  0.00     0.053 C 
BRANCH   7   8
ATOM      8  C   UNL     1      27.078   1.728  39.728  1.00  0.00     0.041 C 
ATOM      9  O   UNL     1      28.150   2.381  39.824  1.00  0.00    -0.550 OA
ATOM     10  O   UNL     1      26.915   0.562  40.465  1.00  0.00    -0.550 OA
ENDBRANCH   7   8
ENDBRANCH   6   7
ENDBRANCH   5   6
ENDBRANCH   4   5
ENDBRANCH   3   4
ENDBRANCH   2   3
ENDBRANCH   1   2
BRANCH   1  11
ATOM     11  C   UNL     1      23.311   1.741  33.175  1.00  0.00     0.000 C 
BRANCH  11  12
ATOM     12  C   UNL     1      22.180   1.355  34.139  1.00  0.00    -0.000 C 
BRANCH  12  13
ATOM     13  C   UNL     1      22.603   1.575  35.598  1.00  0.00    -0.000 C 
BRANCH  13  14
ATOM     14  C   UNL     1      22.682   0.267  36.403  1.00  0.00    -0.000 C 
BRANCH  14  15
ATOM     15  C   UNL     1      22.642  -1.002  35.527  1.00  0.00    -0.000 C 
BRANCH  15  16
ATOM     16  C   UNL     1      24.024  -1.668  35.405  1.00  0.00    -0.000 C 
BRANCH  16  17
ATOM     17  C   UNL     1      24.375  -2.042  33.958  1.00  0.00    -0.003 C 
ATOM     18  C   UNL     1      25.760  -2.674  33.829  1.00  0.00     0.004 C 
ENDBRANCH  16  17
ENDBRANCH  15  16
ENDBRANCH  14  15
ENDBRANCH  13  14
ENDBRANCH  12  13
ENDBRANCH  11  12
ENDBRANCH   1  11
TORSDOF 14
ENDMDL
MODEL 5
REMARK VINA RESULT:    -3.822     10.263     13.085
REMARK INTER + INTRA:          -8.599
REMARK INTER:                  -6.600
REMARK INTRA:                  -2.000
REMARK UNBOUND:                -1.649
REMARK SMILES CCCCCCCCCCCCCCCC(=O)[O-]
REMARK SMILES IDX 9 1 10 2 11 3 12 4 13 5 14 6 15 7 16 8 17 9 18 10 8 11 7 12
REMARK SMILES IDX 6 13 5 14 4 15 3 16 2 17 1 18
REMARK H PARENT
REMARK Flexibility Score: inf
ROOT
ATOM      1  C   UNL     1      19.899   6.925  44.925  1.00  0.00     0.000 C 
ENDROOT
BRANCH   1   2
ATOM      2  C   UNL     1      21.414   6.729  44.714  1.00  0.00     0.000 C 
BRANCH   2   3
ATOM      3  C   UNL     1      21.971   7.302  43.397  1.00  0.00     0.000 C 
BRANCH   3   4
ATOM      4  C   UNL     1      22.602   6.262  42.455  1.00  0.00     0.000 C 
BRANCH   4   5
ATOM      5  C   UNL     1      22.346   4.815  42.910  1.00  0.00     0.000 C 
BRANCH   5   6
ATOM      6  C   UNL     1      22.899   3.774  41.920  1.00  0.00     0.006 C 
BRANCH   6   7
ATOM      7  C   UNL     1      24.348   3.345  42.199  1.00  0.00     0.053 C 
BRANCH   7   8
ATOM      8  C   UNL     1      24.421   2.004  42.861  1.00  0.00     0.041 C 
ATOM      9  O   UNL     1      23.534   1.653  43.682  1.00  0.00    -0.550 OA
ATOM     10  O   UNL     1      25.452   1.128  42.546  1.00  0.00    -0.550 OA
ENDBRANCH   7   8
ENDBRANCH   6   7
ENDBRANCH   5   6
ENDBRANCH   4   5
ENDBRANCH   3   4
ENDBRANCH   2   3
ENDBRANCH   1   2
BRANCH   1  11
ATOM     11  C   UNL     1      19.047   5.657  44.739  1.00  0.00     0.000 C 
BRANCH  11  12
ATOM     12  C   UNL     1      18.140   5.726  43.501  1.00  0.00    -0.000 C 
BRANCH  12  13
ATOM     13  C   UNL     1      18.212   7.112  42.845  1.00  0.00    -0.000 C 
BRANCH  13  14
ATOM     14  C   UNL     1      18.408   7.043  41.321  1.00  0.00    -0.000 C 
BRANCH  14  15
ATOM     15  C   UNL     1      19.207   5.808  40.855  1.00  0.00    -0.000 C 
BRANCH  15  16
ATOM     16  C   UNL     1      20.269   6.167  39.800  1.00  0.00    -0.000 C 
BRANCH  16  17
ATOM     17  C   UNL     1      20.748   4.944  39.004  1.00  0.00    -0.003 C 
ATOM     18  C   UNL     1      19.886   4.665  37.773  1.00  0.00     0.004 C 
ENDBRANCH  16  17
ENDBRANCH  15  16
ENDBRANCH  14  15
ENDBRANCH  13  14
ENDBRANCH  12  13
ENDBRANCH  11  12
ENDBRANCH   1  11
TORSDOF 14
ENDMDL
MODEL 6
REMARK VINA RESULT:    -3.819      4.445      7.468
REMARK INTER + INTRA:          -8.594
REMARK INTER:                  -6.327
REMARK INTRA:                  -2.267
REMARK UNBOUND:                -1.649
REMARK SMILES CCCCCCCCCCCCCCCC(=O)[O-]
REMARK SMILES IDX 9 1 10 2 11 3 12 4 13 5 14 6 15 7 16 8 17 9 18 10 8 11 7 12
REMARK SMILES IDX 6 13 5 14 4 15 3 16 2 17 1 18
REMARK H PARENT
REMARK Flexibility Score: inf
ROOT
ATOM      1  C   UNL     1      25.541  -0.949  33.397  1.00  0.00     0.000 C 
ENDROOT
BRANCH   1   2
ATOM      2  C   UNL     1      24.318  -1.730  33.919  1.00  0.00     0.000 C 
BRANCH   2   3
ATOM      3  C   UNL     1      23.741  -1.225  35.256  1.00  0.00     0.000 C 
BRANCH   3   4
ATOM      4  C   UNL     1      22.278  -0.753  35.191  1.00  0.00     0.000 C 
BRANCH   4   5
ATOM      5  C   UNL     1      22.118   0.594  34.465  1.00  0.00     0.000 C 
BRANCH   5   6
ATOM      6  C   UNL     1      22.520   1.793  35.342  1.00  0.00     0.006 C 
BRANCH   6   7
ATOM      7  C   UNL     1      21.629   1.996  36.579  1.00  0.00     0.053 C 
BRANCH   7   8
ATOM      8  C   UNL     1      22.264   1.460  37.824  1.00  0.00     0.041 C 
ATOM      9  O   UNL     1      23.482   1.678  38.059  1.00  0.00    -0.550 OA
ATOM     10  O   UNL     1      21.505   0.745  38.741  1.00  0.00    -0.550 OA
ENDBRANCH   7   8
ENDBRANCH   6   7
ENDBRANCH   5   6
ENDBRANCH   4   5
ENDBRANCH   3   4
ENDBRANCH   2   3
ENDBRANCH   1   2
BRANCH   1  11
ATOM     11  C   UNL     1      25.208   0.262  32.507  1.00  0.00     0.000 C 
BRANCH  11  12
ATOM     12  C   UNL     1      25.539   1.603  33.180  1.00  0.00    -0.000 C 
BRANCH  12  13
ATOM     13  C   UNL     1      26.706   1.450  34.164  1.00  0.00    -0.000 C 
BRANCH  13  14
ATOM     14  C   UNL     1      26.264   1.533  35.635  1.00  0.00    -0.000 C 
BRANCH  14  15
ATOM     15  C   UNL     1      27.247   0.859  36.615  1.00  0.00    -0.000 C 
BRANCH  15  16
ATOM     16  C   UNL     1      26.529  -0.075  37.606  1.00  0.00    -0.000 C 
BRANCH  16  17
ATOM     17  C   UNL     1      26.702  -1.559  37.251  1.00  0.00    -0.003 C 
ATOM     18  C   UNL     1      27.847  -1.802  36.268  1.00  0.00     0.004 C 
ENDBRANCH  16  17
ENDBRANCH  15  16
ENDBRANCH  14  15
ENDBRANCH  13  14
ENDBRANCH  12  13
ENDBRANCH  11  12
ENDBRANCH   1  11
TORSDOF 14
ENDMDL
MODEL 7
REMARK VINA RESULT:    -3.786      2.581      5.308
REMARK INTER + INTRA:          -8.533
REMARK INTER:                  -5.996
REMARK INTRA:                  -2.538
REMARK UNBOUND:                -1.649
REMARK SMILES CCCCCCCCCCCCCCCC(=O)[O-]
REMARK SMILES IDX 9 1 10 2 11 3 12 4 13 5 14 6 15 7 16 8 17 9 18 10 8 11 7 12
REMARK SMILES IDX 6 13 5 14 4 15 3 16 2 17 1 18
REMARK H PARENT
REMARK Flexibility Score: inf
ROOT
ATOM      1  C   UNL     1      23.619   1.700  36.741  1.00  0.00     0.000 C 
ENDROOT
BRANCH   1   2
ATOM      2  C   UNL     1      24.579   2.514  35.850  1.00  0.00     0.000 C 
BRANCH   2   3
ATOM      3  C   UNL     1      26.036   2.012  35.829  1.00  0.00     0.000 C 
BRANCH   3   4
ATOM      4  C   UNL     1      26.703   1.905  37.211  1.00  0.00     0.000 C 
BRANCH   4   5
ATOM      5  C   UNL     1      26.968   0.450  37.634  1.00  0.00     0.000 C 
BRANCH   5   6
ATOM      6  C   UNL     1      27.339  -0.456  36.446  1.00  0.00     0.006 C 
BRANCH   6   7
ATOM      7  C   UNL     1      27.457  -1.946  36.803  1.00  0.00     0.053 C 
BRANCH   7   8
ATOM      8  C   UNL     1      28.156  -2.728  35.734  1.00  0.00     0.041 C 
ATOM      9  O   UNL     1      29.393  -2.950  35.818  1.00  0.00    -0.550 OA
ATOM     10  O   UNL     1      27.438  -3.237  34.660  1.00  0.00    -0.550 OA
ENDBRANCH   7   8
ENDBRANCH   6   7
ENDBRANCH   5   6
ENDBRANCH   4   5
ENDBRANCH   3   4
ENDBRANCH   2   3
ENDBRANCH   1   2
BRANCH   1  11
ATOM     11  C   UNL     1      22.637   0.792  35.979  1.00  0.00     0.000 C 
BRANCH  11  12
ATOM     12  C   UNL     1      22.827  -0.696  36.307  1.00  0.00    -0.000 C 
BRANCH  12  13
ATOM     13  C   UNL     1      23.984  -1.295  35.495  1.00  0.00    -0.000 C 
BRANCH  13  14
ATOM     14  C   UNL     1      23.943  -0.896  34.010  1.00  0.00    -0.000 C 
BRANCH  14  15
ATOM     15  C   UNL     1      25.338  -0.771  33.364  1.00  0.00    -0.000 C 
BRANCH  15  16
ATOM     16  C   UNL     1      25.469   0.499  32.504  1.00  0.00    -0.000 C 
BRANCH  16  17
ATOM     17  C   UNL     1      24.184   1.342  32.496  1.00  0.00    -0.003 C 
ATOM     18  C   UNL     1      24.436   2.799  32.110  1.00  0.00     0.004 C 
ENDBRANCH  16  17
ENDBRANCH  15  16
ENDBRANCH  14  15
ENDBRANCH  13  14
ENDBRANCH  12  13
ENDBRANCH  11  12
ENDBRANCH   1  11
TORSDOF 14
ENDMDL
MODEL 8
REMARK VINA RESULT:    -3.731      2.685      5.487
REMARK INTER + INTRA:          -8.435
REMARK INTER:                  -5.978
REMARK INTRA:                  -2.457
REMARK UNBOUND:                -1.649
REMARK SMILES CCCCCCCCCCCCCCCC(=O)[O-]
REMARK SMILES IDX 9 1 10 2 11 3 12 4 13 5 14 6 15 7 16 8 17 9 18 10 8 11 7 12
REMARK SMILES IDX 6 13 5 14 4 15 3 16 2 17 1 18
REMARK H PARENT
REMARK Flexibility Score: inf
ROOT
ATOM      1  C   UNL     1      24.543  -1.298  33.821  1.00  0.00     0.000 C 
ENDROOT
BRANCH   1   2
ATOM      2  C   UNL     1      23.320  -0.549  34.386  1.00  0.00     0.000 C 
BRANCH   2   3
ATOM      3  C   UNL     1      23.301  -0.388  35.919  1.00  0.00     0.000 C 
BRANCH   3   4
ATOM      4  C   UNL     1      24.516  -0.990  36.647  1.00  0.00     0.000 C 
BRANCH   4   5
ATOM      5  C   UNL     1      25.564   0.069  37.032  1.00  0.00     0.000 C 
BRANCH   5   6
ATOM      6  C   UNL     1      26.996  -0.345  36.650  1.00  0.00     0.006 C 
BRANCH   6   7
ATOM      7  C   UNL     1      27.281  -1.847  36.810  1.00  0.00     0.053 C 
BRANCH   7   8
ATOM      8  C   UNL     1      28.002  -2.413  35.626  1.00  0.00     0.041 C 
ATOM      9  O   UNL     1      29.217  -2.143  35.436  1.00  0.00    -0.550 OA
ATOM     10  O   UNL     1      27.341  -3.262  34.748  1.00  0.00    -0.550 OA
ENDBRANCH   7   8
ENDBRANCH   6   7
ENDBRANCH   5   6
ENDBRANCH   4   5
ENDBRANCH   3   4
ENDBRANCH   2   3
ENDBRANCH   1   2
BRANCH   1  11
ATOM     11  C   UNL     1      25.565  -0.413  33.085  1.00  0.00     0.000 C 
BRANCH  11  12
ATOM     12  C   UNL     1      25.002   0.968  32.720  1.00  0.00    -0.000 C 
BRANCH  12  13
ATOM     13  C   UNL     1      25.555   2.052  33.656  1.00  0.00    -0.000 C 
BRANCH  13  14
ATOM     14  C   UNL     1      24.459   2.969  34.224  1.00  0.00    -0.000 C 
BRANCH  14  15
ATOM     15  C   UNL     1      24.572   3.200  35.745  1.00  0.00    -0.000 C 
BRANCH  15  16
ATOM     16  C   UNL     1      23.197   3.408  36.405  1.00  0.00    -0.000 C 
BRANCH  16  17
ATOM     17  C   UNL     1      23.181   2.990  37.883  1.00  0.00    -0.003 C 
ATOM     18  C   UNL     1      22.011   2.069  38.224  1.00  0.00     0.004 C 
ENDBRANCH  16  17
ENDBRANCH  15  16
ENDBRANCH  14  15
ENDBRANCH  13  14
ENDBRANCH  12  13
ENDBRANCH  11  12
ENDBRANCH   1  11
TORSDOF 14
ENDMDL
MODEL 9
REMARK VINA RESULT:    -3.686      2.087      4.192
REMARK INTER + INTRA:          -8.351
REMARK INTER:                  -6.379
REMARK INTRA:                  -1.972
REMARK UNBOUND:                -1.649
REMARK SMILES CCCCCCCCCCCCCCCC(=O)[O-]
REMARK SMILES IDX 9 1 10 2 11 3 12 4 13 5 14 6 15 7 16 8 17 9 18 10 8 11 7 12
REMARK SMILES IDX 6 13 5 14 4 15 3 16 2 17 1 18
REMARK H PARENT
REMARK Flexibility Score: inf
ROOT
ATOM      1  C   UNL     1      23.553  -1.716  34.899  1.00  0.00     0.000 C 
ENDROOT
BRANCH   1   2
ATOM      2  C   UNL     1      24.948  -1.866  34.260  1.00  0.00     0.000 C 
BRANCH   2   3
ATOM      3  C   UNL     1      26.067  -1.046  34.931  1.00  0.00     0.000 C 
BRANCH   3   4
ATOM      4  C   UNL     1      26.111  -1.147  36.466  1.00  0.00     0.000 C 
BRANCH   4   5
ATOM      5  C   UNL     1      27.346  -1.909  36.976  1.00  0.00     0.000 C 
BRANCH   5   6
ATOM      6  C   UNL     1      28.367  -2.202  35.863  1.00  0.00     0.006 C 
BRANCH   6   7
ATOM      7  C   UNL     1      29.282  -3.404  36.147  1.00  0.00     0.053 C 
BRANCH   7   8
ATOM      8  C   UNL     1      29.486  -4.256  34.932  1.00  0.00     0.041 C 
ATOM      9  O   UNL     1      30.081  -5.362  35.026  1.00  0.00    -0.550 OA
ATOM     10  O   UNL     1      28.993  -3.843  33.701  1.00  0.00    -0.550 OA
ENDBRANCH   7   8
ENDBRANCH   6   7
ENDBRANCH   5   6
ENDBRANCH   4   5
ENDBRANCH   3   4
ENDBRANCH   2   3
ENDBRANCH   1   2
BRANCH   1  11
ATOM     11  C   UNL     1      22.874  -0.354  34.665  1.00  0.00     0.000 C 
BRANCH  11  12
ATOM     12  C   UNL     1      22.406   0.310  35.968  1.00  0.00    -0.000 C 
BRANCH  12  13
ATOM     13  C   UNL     1      23.370   1.426  36.393  1.00  0.00    -0.000 C 
BRANCH  13  14
ATOM     14  C   UNL     1      23.624   2.455  35.279  1.00  0.00    -0.000 C 
BRANCH  14  15
ATOM     15  C   UNL     1      25.077   2.969  35.231  1.00  0.00    -0.000 C 
BRANCH  15  16
ATOM     16  C   UNL     1      25.882   2.331  34.085  1.00  0.00    -0.000 C 
BRANCH  16  17
ATOM     17  C   UNL     1      25.149   2.402  32.737  1.00  0.00    -0.003 C 
ATOM     18  C   UNL     1      25.209   1.087  31.962  1.00  0.00     0.004 C 
ENDBRANCH  16  17
ENDBRANCH  15  16
ENDBRANCH  14  15
ENDBRANCH  13  14
ENDBRANCH  12  13
ENDBRANCH  11  12
ENDBRANCH   1  11
TORSDOF 14
ENDMDL
