MODEL 1
REMARK VINA RESULT:    -3.265      0.000      0.000
REMARK INTER + INTRA:          -4.688
REMARK INTER:                  -4.410
REMARK INTRA:                  -0.277
REMARK UNBOUND:                -0.277
REMARK SMILES CCCCCCCC(=O)[O-]
REMARK SMILES IDX 5 1 6 2 7 3 8 4 9 5 10 6 4 7 3 8 2 9 1 10
REMARK H PARENT
REMARK Flexibility Score: inf
ROOT
ATOM      1  C   UNL     1       8.373 -19.879  14.141  1.00  0.00     0.000 C 
ENDROOT
BRANCH   1   2
ATOM      2  C   UNL     1       8.988 -19.434  12.805  1.00  0.00     0.006 C 
BRANCH   2   3
ATOM      3  C   UNL     1       7.958 -19.516  11.675  1.00  0.00     0.053 C 
BRANCH   3   4
ATOM      4  C   UNL     1       8.428 -20.449  10.604  1.00  0.00     0.041 C 
ATOM      5  O   UNL     1       8.280 -20.148   9.390  1.00  0.00    -0.550 OA
ATOM      6  O   UNL     1       8.984 -21.676  10.946  1.00  0.00    -0.550 OA
ENDBRANCH   3   4
ENDBRANCH   2   3
ENDBRANCH   1   2
BRANCH   1   7
ATOM      7  C   UNL     1       8.710 -21.338  14.489  1.00  0.00     0.000 C 
BRANCH   7   8
ATOM      8  C   UNL     1       7.560 -22.051  15.222  1.00  0.00    -0.000 C 
BRANCH   8   9
ATOM      9  C   UNL     1       7.542 -21.744  16.728  1.00  0.00    -0.003 C 
ATOM     10  C   UNL     1       6.151 -21.370  17.237  1.00  0.00     0.004 C 
ENDBRANCH   8   9
ENDBRANCH   7   8
ENDBRANCH   1   7
TORSDOF 6
ENDMDL
MODEL 2
REMARK VINA RESULT:    -3.258     18.765     19.976
REMARK INTER + INTRA:          -4.678
REMARK INTER:                  -4.524
REMARK INTRA:                  -0.154
REMARK UNBOUND:                -0.277
REMARK SMILES CCCCCCCC(=O)[O-]
REMARK SMILES IDX 5 1 6 2 7 3 8 4 9 5 10 6 4 7 3 8 2 9 1 10
REMARK H PARENT
REMARK Flexibility Score: inf
ROOT
ATOM      1  C   UNL     1     -10.133 -20.061  19.223  1.00  0.00     0.000 C 
ENDROOT
BRANCH   1   2
ATOM      2  C   UNL     1     -10.847 -19.105  20.190  1.00  0.00     0.006 C 
BRANCH   2   3
ATOM      3  C   UNL     1      -9.875 -18.054  20.736  1.00  0.00     0.053 C 
BRANCH   3   4
ATOM      4  C   UNL     1      -9.551 -18.336  22.170  1.00  0.00     0.041 C 
ATOM      5  O   UNL     1      -8.900 -17.498  22.849  1.00  0.00    -0.550 OA
ATOM      6  O   UNL     1      -9.923 -19.546  22.741  1.00  0.00    -0.550 OA
ENDBRANCH   3   4
ENDBRANCH   2   3
ENDBRANCH   1   2
BRANCH   1   7
ATOM      7  C   UNL     1     -11.056 -20.563  18.100  1.00  0.00     0.000 C 
BRANCH   7   8
ATOM      8  C   UNL     1     -10.285 -20.920  16.817  1.00  0.00    -0.000 C 
BRANCH   8   9
ATOM      9  C   UNL     1     -10.733 -20.081  15.610  1.00  0.00    -0.003 C 
ATOM     10  C   UNL     1      -9.729 -20.123  14.458  1.00  0.00     0.004 C 
ENDBRANCH   8   9
ENDBRANCH   7   8
ENDBRANCH   1   7
TORSDOF 6
ENDMDL
MODEL 3
REMARK VINA RESULT:    -3.096      1.903      2.237
REMARK INTER + INTRA:          -4.460
REMARK INTER:                  -4.029
REMARK INTRA:                  -0.431
REMARK UNBOUND:                -0.277
REMARK SMILES CCCCCCCC(=O)[O-]
REMARK SMILES IDX 5 1 6 2 7 3 8 4 9 5 10 6 4 7 3 8 2 9 1 10
REMARK H PARENT
REMARK Flexibility Score: inf
ROOT
ATOM      1  C   UNL     1       6.522 -22.046  12.670  1.00  0.00     0.000 C 
ENDROOT
BRANCH   1   2
ATOM      2  C   UNL     1       8.014 -22.118  12.308  1.00  0.00     0.006 C 
BRANCH   2   3
ATOM      3  C   UNL     1       8.399 -20.988  11.349  1.00  0.00     0.053 C 
BRANCH   3   4
ATOM      4  C   UNL     1       8.172 -19.655  11.991  1.00  0.00     0.041 C 
ATOM      5  O   UNL     1       7.467 -18.786  11.415  1.00  0.00    -0.550 OA
ATOM      6  O   UNL     1       8.782 -19.355  13.203  1.00  0.00    -0.550 OA
ENDBRANCH   3   4
ENDBRANCH   2   3
ENDBRANCH   1   2
BRANCH   1   7
ATOM      7  C   UNL     1       6.231 -22.577  14.083  1.00  0.00     0.000 C 
BRANCH   7   8
ATOM      8  C   UNL     1       7.438 -22.439  15.026  1.00  0.00    -0.000 C 
BRANCH   8   9
ATOM      9  C   UNL     1       7.346 -21.195  15.923  1.00  0.00    -0.003 C 
ATOM     10  C   UNL     1       6.452 -21.412  17.143  1.00  0.00     0.004 C 
ENDBRANCH   8   9
ENDBRANCH   7   8
ENDBRANCH   1   7
TORSDOF 6
ENDMDL
MODEL 4
REMARK VINA RESULT:    -2.935     19.491     20.280
REMARK INTER + INTRA:          -4.242
REMARK INTER:                  -3.618
REMARK INTRA:                  -0.624
REMARK UNBOUND:                -0.277
REMARK SMILES CCCCCCCC(=O)[O-]
REMARK SMILES IDX 5 1 6 2 7 3 8 4 9 5 10 6 4 7 3 8 2 9 1 10
REMARK H PARENT
REMARK Flexibility Score: inf
ROOT
ATOM      1  C   UNL     1     -10.068 -20.276  19.526  1.00  0.00     0.000 C 
ENDROOT
BRANCH   1   2
ATOM      2  C   UNL     1     -10.604 -21.523  20.247  1.00  0.00     0.006 C 
BRANCH   2   3
ATOM      3  C   UNL     1      -9.539 -22.120  21.171  1.00  0.00     0.053 C 
BRANCH   3   4
ATOM      4  C   UNL     1      -9.588 -21.469  22.518  1.00  0.00     0.041 C 
ATOM      5  O   UNL     1      -8.536 -21.337  23.197  1.00  0.00    -0.550 OA
ATOM      6  O   UNL     1     -10.805 -21.055  23.045  1.00  0.00    -0.550 OA
ENDBRANCH   3   4
ENDBRANCH   2   3
ENDBRANCH   1   2
BRANCH   1   7
ATOM      7  C   UNL     1     -11.061 -19.103  19.559  1.00  0.00     0.000 C 
BRANCH   7   8
ATOM      8  C   UNL     1     -10.973 -18.290  20.862  1.00  0.00    -0.000 C 
BRANCH   8   9
ATOM      9  C   UNL     1      -9.543 -17.815  21.164  1.00  0.00    -0.003 C 
ATOM     10  C   UNL     1      -9.221 -17.826  22.658  1.00  0.00     0.004 C 
ENDBRANCH   8   9
ENDBRANCH   7   8
ENDBRANCH   1   7
TORSDOF 6
ENDMDL
MODEL 5
REMARK VINA RESULT:    -2.924     19.373     20.014
REMARK INTER + INTRA:          -4.227
REMARK INTER:                  -3.708
REMARK INTRA:                  -0.519
REMARK UNBOUND:                -0.277
REMARK SMILES CCCCCCCC(=O)[O-]
REMARK SMILES IDX 5 1 6 2 7 3 8 4 9 5 10 6 4 7 3 8 2 9 1 10
REMARK H PARENT
REMARK Flexibility Score: inf
ROOT
ATOM      1  C   UNL     1      -9.962 -20.222  19.444  1.00  0.00     0.000 C 
ENDROOT
BRANCH   1   2
ATOM      2  C   UNL     1     -10.713 -19.261  20.378  1.00  0.00     0.006 C 
BRANCH   2   3
ATOM      3  C   UNL     1      -9.808 -18.109  20.820  1.00  0.00     0.053 C 
BRANCH   3   4
ATOM      4  C   UNL     1      -9.709 -18.063  22.313  1.00  0.00     0.041 C 
ATOM      5  O   UNL     1      -8.693 -17.567  22.867  1.00  0.00    -0.550 OA
ATOM      6  O   UNL     1     -10.718 -18.615  23.093  1.00  0.00    -0.550 OA
ENDBRANCH   3   4
ENDBRANCH   2   3
ENDBRANCH   1   2
BRANCH   1   7
ATOM      7  C   UNL     1     -10.288 -21.698  19.728  1.00  0.00     0.000 C 
BRANCH   7   8
ATOM      8  C   UNL     1     -10.366 -22.006  21.233  1.00  0.00    -0.000 C 
BRANCH   8   9
ATOM      9  C   UNL     1      -9.004 -22.401  21.825  1.00  0.00    -0.003 C 
ATOM     10  C   UNL     1      -8.689 -21.661  23.124  1.00  0.00     0.004 C 
ENDBRANCH   8   9
ENDBRANCH   7   8
ENDBRANCH   1   7
TORSDOF 6
ENDMDL
MODEL 6
REMARK VINA RESULT:    -2.900      1.021      1.789
REMARK INTER + INTRA:          -4.195
REMARK INTER:                  -3.980
REMARK INTRA:                  -0.214
REMARK UNBOUND:                -0.277
REMARK SMILES CCCCCCCC(=O)[O-]
REMARK SMILES IDX 5 1 6 2 7 3 8 4 9 5 10 6 4 7 3 8 2 9 1 10
REMARK H PARENT
REMARK Flexibility Score: inf
ROOT
ATOM      1  C   UNL     1       8.660 -19.295  12.709  1.00  0.00     0.000 C 
ENDROOT
BRANCH   1   2
ATOM      2  C   UNL     1       8.040 -20.234  11.662  1.00  0.00     0.006 C 
BRANCH   2   3
ATOM      3  C   UNL     1       9.071 -20.627  10.601  1.00  0.00     0.053 C 
BRANCH   3   4
ATOM      4  C   UNL     1       8.398 -20.903   9.293  1.00  0.00     0.041 C 
ATOM      5  O   UNL     1       7.699 -21.941   9.147  1.00  0.00    -0.550 OA
ATOM      6  O   UNL     1       8.584 -20.041   8.220  1.00  0.00    -0.550 OA
ENDBRANCH   3   4
ENDBRANCH   2   3
ENDBRANCH   1   2
BRANCH   1   7
ATOM      7  C   UNL     1       8.548 -19.849  14.139  1.00  0.00     0.000 C 
BRANCH   7   8
ATOM      8  C   UNL     1       7.805 -21.194  14.195  1.00  0.00    -0.000 C 
BRANCH   8   9
ATOM      9  C   UNL     1       8.023 -21.932  15.526  1.00  0.00    -0.003 C 
ATOM     10  C   UNL     1       7.129 -21.402  16.647  1.00  0.00     0.004 C 
ENDBRANCH   8   9
ENDBRANCH   7   8
ENDBRANCH   1   7
TORSDOF 6
ENDMDL
MODEL 7
REMARK VINA RESULT:    -2.841     19.248     20.527
REMARK INTER + INTRA:          -4.114
REMARK INTER:                  -3.577
REMARK INTRA:                  -0.537
REMARK UNBOUND:                -0.277
REMARK SMILES CCCCCCCC(=O)[O-]
REMARK SMILES IDX 5 1 6 2 7 3 8 4 9 5 10 6 4 7 3 8 2 9 1 10
REMARK H PARENT
REMARK Flexibility Score: inf
ROOT
ATOM      1  C   UNL     1      -9.662 -18.099  20.971  1.00  0.00     0.000 C 
ENDROOT
BRANCH   1   2
ATOM      2  C   UNL     1      -9.835 -18.340  22.479  1.00  0.00     0.006 C 
BRANCH   2   3
ATOM      3  C   UNL     1     -10.843 -19.462  22.741  1.00  0.00     0.053 C 
BRANCH   3   4
ATOM      4  C   UNL     1     -10.170 -20.797  22.678  1.00  0.00     0.041 C 
ATOM      5  O   UNL     1     -10.806 -21.811  22.285  1.00  0.00    -0.550 OA
ATOM      6  O   UNL     1      -8.854 -20.932  23.103  1.00  0.00    -0.550 OA
ENDBRANCH   3   4
ENDBRANCH   2   3
ENDBRANCH   1   2
BRANCH   1   7
ATOM      7  C   UNL     1     -11.002 -17.886  20.249  1.00  0.00     0.000 C 
BRANCH   7   8
ATOM      8  C   UNL     1     -11.087 -18.659  18.921  1.00  0.00    -0.000 C 
BRANCH   8   9
ATOM      9  C   UNL     1     -11.125 -20.181  19.127  1.00  0.00    -0.003 C 
ATOM     10  C   UNL     1      -9.863 -20.877  18.618  1.00  0.00     0.004 C 
ENDBRANCH   8   9
ENDBRANCH   7   8
ENDBRANCH   1   7
TORSDOF 6
ENDMDL
MODEL 8
REMARK VINA RESULT:    -2.806     18.314     19.083
REMARK INTER + INTRA:          -4.067
REMARK INTER:                  -3.826
REMARK INTRA:                  -0.241
REMARK UNBOUND:                -0.277
REMARK SMILES CCCCCCCC(=O)[O-]
REMARK SMILES IDX 5 1 6 2 7 3 8 4 9 5 10 6 4 7 3 8 2 9 1 10
REMARK H PARENT
REMARK Flexibility Score: inf
ROOT
ATOM      1  C   UNL     1      -9.805 -20.618  18.642  1.00  0.00     0.000 C 
ENDROOT
BRANCH   1   2
ATOM      2  C   UNL     1     -10.614 -21.093  17.425  1.00  0.00     0.006 C 
BRANCH   2   3
ATOM      3  C   UNL     1     -10.849 -19.942  16.442  1.00  0.00     0.053 C 
BRANCH   3   4
ATOM      4  C   UNL     1     -10.327 -20.297  15.085  1.00  0.00     0.041 C 
ATOM      5  O   UNL     1     -11.123 -20.467  14.124  1.00  0.00    -0.550 OA
ATOM      6  O   UNL     1      -8.965 -20.492  14.894  1.00  0.00    -0.550 OA
ENDBRANCH   3   4
ENDBRANCH   2   3
ENDBRANCH   1   2
BRANCH   1   7
ATOM      7  C   UNL     1     -10.700 -20.126  19.791  1.00  0.00     0.000 C 
BRANCH   7   8
ATOM      8  C   UNL     1     -10.718 -18.592  19.911  1.00  0.00    -0.000 C 
BRANCH   8   9
ATOM      9  C   UNL     1      -9.715 -18.072  20.953  1.00  0.00    -0.003 C 
ATOM     10  C   UNL     1      -9.933 -18.682  22.337  1.00  0.00     0.004 C 
ENDBRANCH   8   9
ENDBRANCH   7   8
ENDBRANCH   1   7
TORSDOF 6
ENDMDL
MODEL 9
REMARK VINA RESULT:    -2.805     16.159     18.057
REMARK INTER + INTRA:          -4.066
REMARK INTER:                  -3.565
REMARK INTRA:                  -0.501
REMARK UNBOUND:                -0.277
REMARK SMILES CCCCCCCC(=O)[O-]
REMARK SMILES IDX 5 1 6 2 7 3 8 4 9 5 10 6 4 7 3 8 2 9 1 10
REMARK H PARENT
REMARK Flexibility Score: inf
ROOT
ATOM      1  C   UNL     1     -10.758 -21.979  17.709  1.00  0.00     0.000 C 
ENDROOT
BRANCH   1   2
ATOM      2  C   UNL     1      -9.472 -22.820  17.735  1.00  0.00     0.006 C 
BRANCH   2   3
ATOM      3  C   UNL     1      -8.284 -21.987  18.225  1.00  0.00     0.053 C 
BRANCH   3   4
ATOM      4  C   UNL     1      -7.068 -22.273  17.401  1.00  0.00     0.041 C 
ATOM      5  O   UNL     1      -7.124 -22.208  16.145  1.00  0.00    -0.550 OA
ATOM      6  O   UNL     1      -5.885 -22.661  18.019  1.00  0.00    -0.550 OA
ENDBRANCH   3   4
ENDBRANCH   2   3
ENDBRANCH   1   2
BRANCH   1   7
ATOM      7  C   UNL     1     -10.476 -20.468  17.717  1.00  0.00     0.000 C 
BRANCH   7   8
ATOM      8  C   UNL     1     -11.125 -19.739  16.527  1.00  0.00    -0.000 C 
BRANCH   8   9
ATOM      9  C   UNL     1     -10.939 -20.495  15.202  1.00  0.00    -0.003 C 
ATOM     10  C   UNL     1      -9.633 -20.132  14.495  1.00  0.00     0.004 C 
ENDBRANCH   8   9
ENDBRANCH   7   8
ENDBRANCH   1   7
TORSDOF 6
ENDMDL
