MODEL 1
REMARK VINA RESULT:    -4.425      0.000      0.000
REMARK INTER + INTRA:          -7.647
REMARK INTER:                  -7.012
REMARK INTRA:                  -0.635
REMARK UNBOUND:                -0.635
REMARK SMILES CCCCCCCCCCCC(=O)[O-]
REMARK SMILES IDX 7 1 8 2 9 3 10 4 11 5 12 6 13 7 14 8 6 9 5 10 4 11 3 12 2 13
REMARK SMILES IDX 1 14
REMARK H PARENT
REMARK Flexibility Score: inf
ROOT
ATOM      1  C   UNL     1    -120.516 -34.684 -56.078  1.00  0.00     0.000 C 
ENDROOT
BRANCH   1   2
ATOM      2  C   UNL     1    -121.810 -33.868 -56.177  1.00  0.00     0.000 C 
BRANCH   2   3
ATOM      3  C   UNL     1    -122.728 -34.423 -57.274  1.00  0.00     0.000 C 
BRANCH   3   4
ATOM      4  C   UNL     1    -122.561 -33.639 -58.581  1.00  0.00     0.006 C 
BRANCH   4   5
ATOM      5  C   UNL     1    -123.045 -32.195 -58.422  1.00  0.00     0.053 C 
BRANCH   5   6
ATOM      6  C   UNL     1    -122.415 -31.315 -59.455  1.00  0.00     0.041 C 
ATOM      7  O   UNL     1    -122.029 -31.799 -60.551  1.00  0.00    -0.550 OA
ATOM      8  O   UNL     1    -122.299 -29.950 -59.227  1.00  0.00    -0.550 OA
ENDBRANCH   5   6
ENDBRANCH   4   5
ENDBRANCH   3   4
ENDBRANCH   2   3
ENDBRANCH   1   2
BRANCH   1   9
ATOM      9  C   UNL     1    -120.624 -35.986 -56.889  1.00  0.00     0.000 C 
BRANCH   9  10
ATOM     10  C   UNL     1    -119.757 -37.117 -56.314  1.00  0.00    -0.000 C 
BRANCH  10  11
ATOM     11  C   UNL     1    -118.449 -36.600 -55.690  1.00  0.00    -0.000 C 
BRANCH  11  12
ATOM     12  C   UNL     1    -117.193 -37.165 -56.379  1.00  0.00    -0.000 C 
BRANCH  12  13
ATOM     13  C   UNL     1    -116.101 -36.126 -56.693  1.00  0.00    -0.003 C 
ATOM     14  C   UNL     1    -116.664 -34.801 -57.206  1.00  0.00     0.004 C 
ENDBRANCH  12  13
ENDBRANCH  11  12
ENDBRANCH  10  11
ENDBRANCH   9  10
ENDBRANCH   1   9
TORSDOF 10
ENDMDL
MODEL 2
REMARK VINA RESULT:    -4.346      3.602      6.242
REMARK INTER + INTRA:          -7.522
REMARK INTER:                  -6.611
REMARK INTRA:                  -0.911
REMARK UNBOUND:                -0.635
REMARK SMILES CCCCCCCCCCCC(=O)[O-]
REMARK SMILES IDX 7 1 8 2 9 3 10 4 11 5 12 6 13 7 14 8 6 9 5 10 4 11 3 12 2 13
REMARK SMILES IDX 1 14
REMARK H PARENT
REMARK Flexibility Score: inf
ROOT
ATOM      1  C   UNL     1    -120.339 -34.612 -55.515  1.00  0.00     0.000 C 
ENDROOT
BRANCH   1   2
ATOM      2  C   UNL     1    -119.636 -35.402 -56.626  1.00  0.00     0.000 C 
BRANCH   2   3
ATOM      3  C   UNL     1    -119.036 -36.704 -56.081  1.00  0.00     0.000 C 
BRANCH   3   4
ATOM      4  C   UNL     1    -117.534 -36.784 -56.376  1.00  0.00     0.006 C 
BRANCH   4   5
ATOM      5  C   UNL     1    -116.979 -35.415 -56.784  1.00  0.00     0.053 C 
BRANCH   5   6
ATOM      6  C   UNL     1    -115.529 -35.521 -57.133  1.00  0.00     0.041 C 
ATOM      7  O   UNL     1    -114.740 -36.152 -56.382  1.00  0.00    -0.550 OA
ATOM      8  O   UNL     1    -115.056 -34.963 -58.314  1.00  0.00    -0.550 OA
ENDBRANCH   5   6
ENDBRANCH   4   5
ENDBRANCH   3   4
ENDBRANCH   2   3
ENDBRANCH   1   2
BRANCH   1   9
ATOM      9  C   UNL     1    -121.621 -33.948 -56.041  1.00  0.00     0.000 C 
BRANCH   9  10
ATOM     10  C   UNL     1    -121.794 -34.112 -57.560  1.00  0.00    -0.000 C 
BRANCH  10  11
ATOM     11  C   UNL     1    -123.125 -34.789 -57.933  1.00  0.00    -0.000 C 
BRANCH  11  12
ATOM     12  C   UNL     1    -123.014 -36.322 -58.017  1.00  0.00    -0.000 C 
BRANCH  12  13
ATOM     13  C   UNL     1    -123.124 -37.056 -56.668  1.00  0.00    -0.003 C 
ATOM     14  C   UNL     1    -122.749 -38.534 -56.757  1.00  0.00     0.004 C 
ENDBRANCH  12  13
ENDBRANCH  11  12
ENDBRANCH  10  11
ENDBRANCH   9  10
ENDBRANCH   1   9
TORSDOF 10
ENDMDL
MODEL 3
REMARK VINA RESULT:    -4.216     13.724     15.405
REMARK INTER + INTRA:          -7.315
REMARK INTER:                  -6.020
REMARK INTRA:                  -1.295
REMARK UNBOUND:                -0.635
REMARK SMILES CCCCCCCCCCCC(=O)[O-]
REMARK SMILES IDX 7 1 8 2 9 3 10 4 11 5 12 6 13 7 14 8 6 9 5 10 4 11 3 12 2 13
REMARK SMILES IDX 1 14
REMARK H PARENT
REMARK Flexibility Score: inf
ROOT
ATOM      1  C   UNL     1    -113.739 -41.186 -65.728  1.00  0.00     0.000 C 
ENDROOT
BRANCH   1   2
ATOM      2  C   UNL     1    -113.945 -41.152 -67.247  1.00  0.00     0.000 C 
BRANCH   2   3
ATOM      3  C   UNL     1    -113.602 -42.506 -67.880  1.00  0.00     0.000 C 
BRANCH   3   4
ATOM      4  C   UNL     1    -112.297 -42.426 -68.680  1.00  0.00     0.006 C 
BRANCH   4   5
ATOM      5  C   UNL     1    -112.293 -43.439 -69.829  1.00  0.00     0.053 C 
BRANCH   5   6
ATOM      6  C   UNL     1    -113.139 -42.950 -70.961  1.00  0.00     0.041 C 
ATOM      7  O   UNL     1    -113.961 -43.724 -71.519  1.00  0.00    -0.550 OA
ATOM      8  O   UNL     1    -113.057 -41.625 -71.368  1.00  0.00    -0.550 OA
ENDBRANCH   5   6
ENDBRANCH   4   5
ENDBRANCH   3   4
ENDBRANCH   2   3
ENDBRANCH   1   2
BRANCH   1   9
ATOM      9  C   UNL     1    -113.444 -42.616 -65.247  1.00  0.00     0.000 C 
BRANCH   9  10
ATOM     10  C   UNL     1    -112.655 -42.647 -63.928  1.00  0.00    -0.000 C 
BRANCH  10  11
ATOM     11  C   UNL     1    -111.317 -43.397 -64.057  1.00  0.00    -0.000 C 
BRANCH  11  12
ATOM     12  C   UNL     1    -110.590 -43.099 -65.380  1.00  0.00    -0.000 C 
BRANCH  12  13
ATOM     13  C   UNL     1    -109.626 -41.899 -65.336  1.00  0.00    -0.003 C 
ATOM     14  C   UNL     1    -110.182 -40.658 -66.033  1.00  0.00     0.004 C 
ENDBRANCH  12  13
ENDBRANCH  11  12
ENDBRANCH  10  11
ENDBRANCH   9  10
ENDBRANCH   1   9
TORSDOF 10
ENDMDL
MODEL 4
REMARK VINA RESULT:    -4.179     13.599     15.875
REMARK INTER + INTRA:          -7.257
REMARK INTER:                  -5.629
REMARK INTRA:                  -1.628
REMARK UNBOUND:                -0.635
REMARK SMILES CCCCCCCCCCCC(=O)[O-]
REMARK SMILES IDX 7 1 8 2 9 3 10 4 11 5 12 6 13 7 14 8 6 9 5 10 4 11 3 12 2 13
REMARK SMILES IDX 1 14
REMARK H PARENT
REMARK Flexibility Score: inf
ROOT
ATOM      1  C   UNL     1    -113.679 -41.005 -65.409  1.00  0.00     0.000 C 
ENDROOT
BRANCH   1   2
ATOM      2  C   UNL     1    -112.242 -41.536 -65.353  1.00  0.00     0.000 C 
BRANCH   2   3
ATOM      3  C   UNL     1    -111.244 -40.477 -65.839  1.00  0.00     0.000 C 
BRANCH   3   4
ATOM      4  C   UNL     1    -109.906 -41.117 -66.227  1.00  0.00     0.006 C 
BRANCH   4   5
ATOM      5  C   UNL     1    -109.847 -42.581 -65.782  1.00  0.00     0.053 C 
BRANCH   5   6
ATOM      6  C   UNL     1    -108.660 -42.814 -64.903  1.00  0.00     0.041 C 
ATOM      7  O   UNL     1    -108.087 -43.935 -64.893  1.00  0.00    -0.550 OA
ATOM      8  O   UNL     1    -108.153 -41.777 -64.130  1.00  0.00    -0.550 OA
ENDBRANCH   5   6
ENDBRANCH   4   5
ENDBRANCH   3   4
ENDBRANCH   2   3
ENDBRANCH   1   2
BRANCH   1   9
ATOM      9  C   UNL     1    -114.545 -41.863 -66.346  1.00  0.00     0.000 C 
BRANCH   9  10
ATOM     10  C   UNL     1    -113.769 -43.041 -66.957  1.00  0.00    -0.000 C 
BRANCH  10  11
ATOM     11  C   UNL     1    -113.552 -42.883 -68.472  1.00  0.00    -0.000 C 
BRANCH  11  12
ATOM     12  C   UNL     1    -112.065 -42.759 -68.854  1.00  0.00    -0.000 C 
BRANCH  12  13
ATOM     13  C   UNL     1    -111.694 -41.473 -69.613  1.00  0.00    -0.003 C 
ATOM     14  C   UNL     1    -112.564 -40.277 -69.228  1.00  0.00     0.004 C 
ENDBRANCH  12  13
ENDBRANCH  11  12
ENDBRANCH  10  11
ENDBRANCH   9  10
ENDBRANCH   1   9
TORSDOF 10
ENDMDL
MODEL 5
REMARK VINA RESULT:    -4.131     13.613     15.955
REMARK INTER + INTRA:          -7.181
REMARK INTER:                  -5.807
REMARK INTRA:                  -1.374
REMARK UNBOUND:                -0.635
REMARK SMILES CCCCCCCCCCCC(=O)[O-]
REMARK SMILES IDX 7 1 8 2 9 3 10 4 11 5 12 6 13 7 14 8 6 9 5 10 4 11 3 12 2 13
REMARK SMILES IDX 1 14
REMARK H PARENT
REMARK Flexibility Score: inf
ROOT
ATOM      1  C   UNL     1    -113.406 -41.766 -64.664  1.00  0.00     0.000 C 
ENDROOT
BRANCH   1   2
ATOM      2  C   UNL     1    -112.297 -42.794 -64.409  1.00  0.00     0.000 C 
BRANCH   2   3
ATOM      3  C   UNL     1    -111.034 -42.451 -65.209  1.00  0.00     0.000 C 
BRANCH   3   4
ATOM      4  C   UNL     1    -110.105 -43.665 -65.319  1.00  0.00     0.006 C 
BRANCH   4   5
ATOM      5  C   UNL     1    -108.642 -43.258 -65.120  1.00  0.00     0.053 C 
BRANCH   5   6
ATOM      6  C   UNL     1    -108.447 -42.648 -63.768  1.00  0.00     0.041 C 
ATOM      7  O   UNL     1    -107.962 -41.491 -63.658  1.00  0.00    -0.550 OA
ATOM      8  O   UNL     1    -108.847 -43.337 -62.631  1.00  0.00    -0.550 OA
ENDBRANCH   5   6
ENDBRANCH   4   5
ENDBRANCH   3   4
ENDBRANCH   2   3
ENDBRANCH   1   2
BRANCH   1   9
ATOM      9  C   UNL     1    -113.097 -40.924 -65.912  1.00  0.00     0.000 C 
BRANCH   9  10
ATOM     10  C   UNL     1    -114.008 -41.269 -67.101  1.00  0.00    -0.000 C 
BRANCH  10  11
ATOM     11  C   UNL     1    -113.215 -41.670 -68.357  1.00  0.00    -0.000 C 
BRANCH  11  12
ATOM     12  C   UNL     1    -112.985 -43.188 -68.460  1.00  0.00    -0.000 C 
BRANCH  12  13
ATOM     13  C   UNL     1    -111.540 -43.606 -68.789  1.00  0.00    -0.003 C 
ATOM     14  C   UNL     1    -110.573 -42.424 -68.847  1.00  0.00     0.004 C 
ENDBRANCH  12  13
ENDBRANCH  11  12
ENDBRANCH  10  11
ENDBRANCH   9  10
ENDBRANCH   1   9
TORSDOF 10
ENDMDL
MODEL 6
REMARK VINA RESULT:    -4.091     15.459     17.459
REMARK INTER + INTRA:          -7.117
REMARK INTER:                  -5.437
REMARK INTRA:                  -1.681
REMARK UNBOUND:                -0.635
REMARK SMILES CCCCCCCCCCCC(=O)[O-]
REMARK SMILES IDX 7 1 8 2 9 3 10 4 11 5 12 6 13 7 14 8 6 9 5 10 4 11 3 12 2 13
REMARK SMILES IDX 1 14
REMARK H PARENT
REMARK Flexibility Score: inf
ROOT
ATOM      1  C   UNL     1    -105.462 -25.767 -57.691  1.00  0.00     0.000 C 
ENDROOT
BRANCH   1   2
ATOM      2  C   UNL     1    -106.507 -26.733 -58.261  1.00  0.00     0.000 C 
BRANCH   2   3
ATOM      3  C   UNL     1    -105.855 -28.045 -58.716  1.00  0.00     0.000 C 
BRANCH   3   4
ATOM      4  C   UNL     1    -106.238 -28.378 -60.163  1.00  0.00     0.006 C 
BRANCH   4   5
ATOM      5  C   UNL     1    -107.371 -27.472 -60.654  1.00  0.00     0.053 C 
BRANCH   5   6
ATOM      6  C   UNL     1    -107.536 -27.597 -62.136  1.00  0.00     0.041 C 
ATOM      7  O   UNL     1    -107.720 -26.572 -62.842  1.00  0.00    -0.550 OA
ATOM      8  O   UNL     1    -107.438 -28.842 -62.743  1.00  0.00    -0.550 OA
ENDBRANCH   5   6
ENDBRANCH   4   5
ENDBRANCH   3   4
ENDBRANCH   2   3
ENDBRANCH   1   2
BRANCH   1   9
ATOM      9  C   UNL     1    -104.038 -26.278 -57.961  1.00  0.00     0.000 C 
BRANCH   9  10
ATOM     10  C   UNL     1    -103.042 -25.141 -58.242  1.00  0.00    -0.000 C 
BRANCH  10  11
ATOM     11  C   UNL     1    -102.991 -24.756 -59.731  1.00  0.00    -0.000 C 
BRANCH  11  12
ATOM     12  C   UNL     1    -103.381 -25.917 -60.663  1.00  0.00    -0.000 C 
BRANCH  12  13
ATOM     13  C   UNL     1    -104.366 -25.546 -61.787  1.00  0.00    -0.003 C 
ATOM     14  C   UNL     1    -105.314 -24.411 -61.402  1.00  0.00     0.004 C 
ENDBRANCH  12  13
ENDBRANCH  11  12
ENDBRANCH  10  11
ENDBRANCH   9  10
ENDBRANCH   1   9
TORSDOF 10
ENDMDL
MODEL 7
REMARK VINA RESULT:    -4.067     13.164     14.790
REMARK INTER + INTRA:          -7.080
REMARK INTER:                  -5.813
REMARK INTRA:                  -1.266
REMARK UNBOUND:                -0.635
REMARK SMILES CCCCCCCCCCCC(=O)[O-]
REMARK SMILES IDX 7 1 8 2 9 3 10 4 11 5 12 6 13 7 14 8 6 9 5 10 4 11 3 12 2 13
REMARK SMILES IDX 1 14
REMARK H PARENT
REMARK Flexibility Score: inf
ROOT
ATOM      1  C   UNL     1    -110.768 -43.004 -65.938  1.00  0.00     0.000 C 
ENDROOT
BRANCH   1   2
ATOM      2  C   UNL     1    -111.242 -42.676 -64.517  1.00  0.00     0.000 C 
BRANCH   2   3
ATOM      3  C   UNL     1    -112.772 -42.711 -64.424  1.00  0.00     0.000 C 
BRANCH   3   4
ATOM      4  C   UNL     1    -113.389 -41.430 -64.998  1.00  0.00     0.006 C 
BRANCH   4   5
ATOM      5  C   UNL     1    -114.428 -41.753 -66.075  1.00  0.00     0.053 C 
BRANCH   5   6
ATOM      6  C   UNL     1    -113.799 -41.735 -67.432  1.00  0.00     0.041 C 
ATOM      7  O   UNL     1    -113.238 -40.691 -67.857  1.00  0.00    -0.550 OA
ATOM      8  O   UNL     1    -113.788 -42.887 -68.208  1.00  0.00    -0.550 OA
ENDBRANCH   5   6
ENDBRANCH   4   5
ENDBRANCH   3   4
ENDBRANCH   2   3
ENDBRANCH   1   2
BRANCH   1   9
ATOM      9  C   UNL     1    -109.644 -42.052 -66.375  1.00  0.00     0.000 C 
BRANCH   9  10
ATOM     10  C   UNL     1    -110.004 -40.572 -66.163  1.00  0.00    -0.000 C 
BRANCH  10  11
ATOM     11  C   UNL     1    -108.892 -39.791 -65.442  1.00  0.00    -0.000 C 
BRANCH  11  12
ATOM     12  C   UNL     1    -107.690 -40.674 -65.061  1.00  0.00    -0.000 C 
BRANCH  12  13
ATOM     13  C   UNL     1    -107.449 -40.827 -63.548  1.00  0.00    -0.003 C 
ATOM     14  C   UNL     1    -107.838 -42.205 -63.015  1.00  0.00     0.004 C 
ENDBRANCH  12  13
ENDBRANCH  11  12
ENDBRANCH  10  11
ENDBRANCH   9  10
ENDBRANCH   1   9
TORSDOF 10
ENDMDL
MODEL 8
REMARK VINA RESULT:    -4.040     13.737     15.112
REMARK INTER + INTRA:          -7.036
REMARK INTER:                  -6.173
REMARK INTRA:                  -0.863
REMARK UNBOUND:                -0.635
REMARK SMILES CCCCCCCCCCCC(=O)[O-]
REMARK SMILES IDX 7 1 8 2 9 3 10 4 11 5 12 6 13 7 14 8 6 9 5 10 4 11 3 12 2 13
REMARK SMILES IDX 1 14
REMARK H PARENT
REMARK Flexibility Score: inf
ROOT
ATOM      1  C   UNL     1    -111.661 -40.808 -65.722  1.00  0.00     0.000 C 
ENDROOT
BRANCH   1   2
ATOM      2  C   UNL     1    -112.707 -41.748 -65.111  1.00  0.00     0.000 C 
BRANCH   2   3
ATOM      3  C   UNL     1    -114.093 -41.499 -65.719  1.00  0.00     0.000 C 
BRANCH   3   4
ATOM      4  C   UNL     1    -114.045 -41.568 -67.250  1.00  0.00     0.006 C 
BRANCH   4   5
ATOM      5  C   UNL     1    -113.739 -42.991 -67.727  1.00  0.00     0.053 C 
BRANCH   5   6
ATOM      6  C   UNL     1    -112.898 -42.960 -68.963  1.00  0.00     0.041 C 
ATOM      7  O   UNL     1    -113.343 -43.427 -70.044  1.00  0.00    -0.550 OA
ATOM      8  O   UNL     1    -111.642 -42.369 -68.934  1.00  0.00    -0.550 OA
ENDBRANCH   5   6
ENDBRANCH   4   5
ENDBRANCH   3   4
ENDBRANCH   2   3
ENDBRANCH   1   2
BRANCH   1   9
ATOM      9  C   UNL     1    -110.281 -41.483 -65.774  1.00  0.00     0.000 C 
BRANCH   9  10
ATOM     10  C   UNL     1    -110.248 -42.824 -65.023  1.00  0.00    -0.000 C 
BRANCH  10  11
ATOM     11  C   UNL     1    -108.985 -42.987 -64.159  1.00  0.00    -0.000 C 
BRANCH  11  12
ATOM     12  C   UNL     1    -107.995 -41.819 -64.321  1.00  0.00    -0.000 C 
BRANCH  12  13
ATOM     13  C   UNL     1    -107.497 -41.201 -63.002  1.00  0.00    -0.003 C 
ATOM     14  C   UNL     1    -107.426 -42.210 -61.857  1.00  0.00     0.004 C 
ENDBRANCH  12  13
ENDBRANCH  11  12
ENDBRANCH  10  11
ENDBRANCH   9  10
ENDBRANCH   1   9
TORSDOF 10
ENDMDL
MODEL 9
REMARK VINA RESULT:    -4.029     15.380     17.248
REMARK INTER + INTRA:          -7.019
REMARK INTER:                  -5.577
REMARK INTRA:                  -1.442
REMARK UNBOUND:                -0.635
REMARK SMILES CCCCCCCCCCCC(=O)[O-]
REMARK SMILES IDX 7 1 8 2 9 3 10 4 11 5 12 6 13 7 14 8 6 9 5 10 4 11 3 12 2 13
REMARK SMILES IDX 1 14
REMARK H PARENT
REMARK Flexibility Score: inf
ROOT
ATOM      1  C   UNL     1    -106.635 -28.561 -59.892  1.00  0.00     0.000 C 
ENDROOT
BRANCH   1   2
ATOM      2  C   UNL     1    -107.444 -27.399 -59.301  1.00  0.00     0.000 C 
BRANCH   2   3
ATOM      3  C   UNL     1    -107.704 -26.317 -60.356  1.00  0.00     0.000 C 
BRANCH   3   4
ATOM      4  C   UNL     1    -106.499 -25.379 -60.493  1.00  0.00     0.006 C 
BRANCH   4   5
ATOM      5  C   UNL     1    -106.274 -24.982 -61.955  1.00  0.00     0.053 C 
BRANCH   5   6
ATOM      6  C   UNL     1    -106.105 -26.199 -62.808  1.00  0.00     0.041 C 
ATOM      7  O   UNL     1    -106.972 -26.493 -63.673  1.00  0.00    -0.550 OA
ATOM      8  O   UNL     1    -104.966 -26.983 -62.683  1.00  0.00    -0.550 OA
ENDBRANCH   5   6
ENDBRANCH   4   5
ENDBRANCH   3   4
ENDBRANCH   2   3
ENDBRANCH   1   2
BRANCH   1   9
ATOM      9  C   UNL     1    -105.391 -28.853 -59.039  1.00  0.00     0.000 C 
BRANCH   9  10
ATOM     10  C   UNL     1    -104.079 -28.651 -59.815  1.00  0.00    -0.000 C 
BRANCH  10  11
ATOM     11  C   UNL     1    -103.074 -27.766 -59.058  1.00  0.00    -0.000 C 
BRANCH  11  12
ATOM     12  C   UNL     1    -103.024 -26.324 -59.594  1.00  0.00    -0.000 C 
BRANCH  12  13
ATOM     13  C   UNL     1    -103.250 -25.229 -58.536  1.00  0.00    -0.003 C 
ATOM     14  C   UNL     1    -104.304 -25.608 -57.497  1.00  0.00     0.004 C 
ENDBRANCH  12  13
ENDBRANCH  11  12
ENDBRANCH  10  11
ENDBRANCH   9  10
ENDBRANCH   1   9
TORSDOF 10
ENDMDL
