MODEL 1
REMARK VINA RESULT:    -3.051      0.000      0.000
REMARK INTER + INTRA:          -5.128
REMARK INTER:                  -4.478
REMARK INTRA:                  -0.650
REMARK UNBOUND:                -0.650
REMARK SMILES Cc1cc2c(C(C)C)c(O)c(O)c(C=O)c2c(O)c1-c1c(C)cc2c(C(C)C)c(O)c(O)c(C=O)c2c1O
REMARK SMILES IDX 1 1 2 2 3 3 4 4 16 5 13 6 11 7 9 8 5 9 17 10 19 11 20 12
REMARK SMILES IDX 37 13 21 14 36 15 23 16 22 17 24 18 33 19 25 20 31 21 29 22
REMARK SMILES IDX 38 23 34 25 35 26 26 27 27 28 28 29 32 30 30 32 18 34 6 36
REMARK SMILES IDX 7 37 8 38 14 39 15 40 10 41 12 43
REMARK H PARENT 38 24 32 31 30 33 18 35 10 42 12 44
REMARK Flexibility Score: inf
ROOT
ATOM      1  C   UNL     1      45.700  25.125  55.326  1.00  0.00     0.045 C 
ATOM      2  C   UNL     1      45.312  23.672  55.195  1.00  0.00    -0.039 A 
ATOM      3  C   UNL     1      43.965  23.329  55.073  1.00  0.00     0.013 A 
ATOM      4  C   UNL     1      43.544  21.990  54.915  1.00  0.00    -0.006 A 
ATOM      5  C   UNL     1      44.528  20.955  54.936  1.00  0.00     0.039 A 
ATOM      6  C   UNL     1      44.105  19.600  54.799  1.00  0.00     0.072 A 
ATOM      7  C   UNL     1      42.734  19.286  54.833  1.00  0.00     0.169 A 
ATOM      8  C   UNL     1      41.773  20.309  54.912  1.00  0.00     0.162 A 
ATOM      9  C   UNL     1      42.160  21.661  54.780  1.00  0.00     0.008 A 
ATOM     10  C   UNL     1      45.897  21.305  55.140  1.00  0.00     0.132 A 
ATOM     11  C   UNL     1      46.282  22.658  55.236  1.00  0.00     0.031 A 
ENDROOT
BRANCH  11  12
ATOM     12  C   UNL     1      47.714  23.017  55.422  1.00  0.00     0.031 A 
ATOM     13  C   UNL     1      48.585  23.056  54.312  1.00  0.00     0.132 A 
ATOM     14  C   UNL     1      48.198  23.322  56.705  1.00  0.00    -0.039 A 
ATOM     15  C   UNL     1      49.946  23.447  54.478  1.00  0.00     0.039 A 
ATOM     16  C   UNL     1      49.560  23.575  56.884  1.00  0.00     0.013 A 
ATOM     17  C   UNL     1      47.282  23.318  57.906  1.00  0.00     0.045 C 
ATOM     18  C   UNL     1      50.464  23.577  55.799  1.00  0.00    -0.006 A 
ATOM     19  C   UNL     1      50.812  23.683  53.371  1.00  0.00     0.072 A 
ATOM     20  C   UNL     1      51.867  23.738  56.006  1.00  0.00     0.008 A 
ATOM     21  C   UNL     1      52.170  23.979  53.588  1.00  0.00     0.169 A 
ATOM     22  C   UNL     1      52.687  24.043  54.897  1.00  0.00     0.162 A 
BRANCH  13  23
ATOM     23  O   UNL     1      48.110  22.667  53.054  1.00  0.00    -0.507 OA
ATOM     24  H   UNL     1      48.694  22.276  52.327  1.00  0.00     0.293 HD
ENDBRANCH  13  23
BRANCH  19  25
ATOM     25  C   UNL     1      50.303  23.766  51.981  1.00  0.00     0.264 C 
ATOM     26  O   UNL     1      50.428  22.796  51.185  1.00  0.00    -0.298 OA
ENDBRANCH  19  25
BRANCH  20  27
ATOM     27  C   UNL     1      52.493  23.601  57.405  1.00  0.00     0.017 C 
ATOM     28  C   UNL     1      52.640  24.970  58.078  1.00  0.00     0.012 C 
ATOM     29  C   UNL     1      53.824  22.825  57.416  1.00  0.00     0.012 C 
ENDBRANCH  20  27
BRANCH  21  30
ATOM     30  O   UNL     1      52.985  24.213  52.474  1.00  0.00    -0.504 OA
ATOM     31  H   UNL     1      52.695  24.711  51.644  1.00  0.00     0.293 HD
ENDBRANCH  21  30
BRANCH  22  32
ATOM     32  O   UNL     1      54.005  24.449  55.127  1.00  0.00    -0.504 OA
ATOM     33  H   UNL     1      54.712  23.884  55.576  1.00  0.00     0.293 HD
ENDBRANCH  22  32
ENDBRANCH  11  12
BRANCH  10  34
ATOM     34  O   UNL     1      46.867  20.306  55.288  1.00  0.00    -0.507 OA
ATOM     35  H   UNL     1      47.821  20.481  55.575  1.00  0.00     0.293 HD
ENDBRANCH  10  34
BRANCH   9  36
ATOM     36  C   UNL     1      41.087  22.741  54.551  1.00  0.00     0.017 C 
ATOM     37  C   UNL     1      40.643  23.363  55.880  1.00  0.00     0.012 C 
ATOM     38  C   UNL     1      39.876  22.253  53.732  1.00  0.00     0.012 C 
ENDBRANCH   9  36
BRANCH   6  39
ATOM     39  C   UNL     1      45.060  18.498  54.533  1.00  0.00     0.264 C 
ATOM     40  O   UNL     1      45.019  17.846  53.456  1.00  0.00    -0.298 OA
ENDBRANCH   6  39
BRANCH   8  41
ATOM     41  O   UNL     1      40.427  20.003  55.132  1.00  0.00    -0.504 OA
ATOM     42  H   UNL     1      39.890  20.345  55.916  1.00  0.00     0.293 HD
ENDBRANCH   8  41
BRANCH   7  43
ATOM     43  O   UNL     1      42.347  17.944  54.736  1.00  0.00    -0.504 OA
ATOM     44  H   UNL     1      41.594  17.614  54.150  1.00  0.00     0.293 HD
ENDBRANCH   7  43
TORSDOF 11
ENDMDL
MODEL 2
REMARK VINA RESULT:    -2.849      1.781      9.031
REMARK INTER + INTRA:          -4.831
REMARK INTER:                  -6.005
REMARK INTRA:                   1.174
REMARK UNBOUND:                -0.650
REMARK SMILES Cc1cc2c(C(C)C)c(O)c(O)c(C=O)c2c(O)c1-c1c(C)cc2c(C(C)C)c(O)c(O)c(C=O)c2c1O
REMARK SMILES IDX 1 1 2 2 3 3 4 4 16 5 13 6 11 7 9 8 5 9 17 10 19 11 20 12
REMARK SMILES IDX 37 13 21 14 36 15 23 16 22 17 24 18 33 19 25 20 31 21 29 22
REMARK SMILES IDX 38 23 34 25 35 26 26 27 27 28 28 29 32 30 30 32 18 34 6 36
REMARK SMILES IDX 7 37 8 38 14 39 15 40 10 41 12 43
REMARK H PARENT 38 24 32 31 30 33 18 35 10 42 12 44
REMARK Flexibility Score: inf
ROOT
ATOM      1  C   UNL     1      47.817  22.148  52.126  1.00  0.00     0.045 C 
ATOM      2  C   UNL     1      48.708  22.366  53.326  1.00  0.00    -0.039 A 
ATOM      3  C   UNL     1      50.093  22.288  53.175  1.00  0.00     0.013 A 
ATOM      4  C   UNL     1      50.978  22.516  54.252  1.00  0.00    -0.006 A 
ATOM      5  C   UNL     1      50.430  22.779  55.545  1.00  0.00     0.039 A 
ATOM      6  C   UNL     1      51.320  22.987  56.640  1.00  0.00     0.072 A 
ATOM      7  C   UNL     1      52.697  22.748  56.480  1.00  0.00     0.169 A 
ATOM      8  C   UNL     1      53.215  22.393  55.223  1.00  0.00     0.162 A 
ATOM      9  C   UNL     1      52.394  22.443  54.075  1.00  0.00     0.008 A 
ATOM     10  C   UNL     1      49.012  22.779  55.710  1.00  0.00     0.132 A 
ATOM     11  C   UNL     1      48.163  22.605  54.597  1.00  0.00     0.031 A 
ENDROOT
BRANCH  11  12
ATOM     12  C   UNL     1      46.686  22.633  54.772  1.00  0.00     0.031 A 
ATOM     13  C   UNL     1      45.935  21.445  54.646  1.00  0.00     0.132 A 
ATOM     14  C   UNL     1      46.039  23.844  55.067  1.00  0.00    -0.039 A 
ATOM     15  C   UNL     1      44.525  21.458  54.860  1.00  0.00     0.039 A 
ATOM     16  C   UNL     1      44.645  23.878  55.145  1.00  0.00     0.013 A 
ATOM     17  C   UNL     1      46.821  25.125  55.238  1.00  0.00     0.045 C 
ATOM     18  C   UNL     1      43.863  22.714  54.979  1.00  0.00    -0.006 A 
ATOM     19  C   UNL     1      43.753  20.262  54.930  1.00  0.00     0.072 A 
ATOM     20  C   UNL     1      42.437  22.777  54.962  1.00  0.00     0.008 A 
ATOM     21  C   UNL     1      42.353  20.331  55.053  1.00  0.00     0.169 A 
ATOM     22  C   UNL     1      41.702  21.579  55.106  1.00  0.00     0.162 A 
BRANCH  13  23
ATOM     23  O   UNL     1      46.581  20.262  54.268  1.00  0.00    -0.507 OA
ATOM     24  H   UNL     1      46.202  19.337  54.426  1.00  0.00     0.293 HD
ENDBRANCH  13  23
BRANCH  19  25
ATOM     25  C   UNL     1      44.386  18.924  55.017  1.00  0.00     0.264 C 
ATOM     26  O   UNL     1      44.398  18.146  54.026  1.00  0.00    -0.298 OA
ENDBRANCH  19  25
BRANCH  20  27
ATOM     27  C   UNL     1      41.694  24.116  54.806  1.00  0.00     0.017 C 
ATOM     28  C   UNL     1      42.153  25.125  55.864  1.00  0.00     0.012 C 
ATOM     29  C   UNL     1      40.160  23.976  54.791  1.00  0.00     0.012 C 
ENDBRANCH  20  27
BRANCH  21  30
ATOM     30  O   UNL     1      41.633  19.133  55.127  1.00  0.00    -0.504 OA
ATOM     31  H   UNL     1      40.631  19.058  55.021  1.00  0.00     0.293 HD
ENDBRANCH  21  30
BRANCH  22  32
ATOM     32  O   UNL     1      40.327  21.659  55.344  1.00  0.00    -0.504 OA
ATOM     33  H   UNL     1      39.731  20.870  55.550  1.00  0.00     0.293 HD
ENDBRANCH  22  32
ENDBRANCH  11  12
BRANCH  10  34
ATOM     34  O   UNL     1      48.449  22.911  56.985  1.00  0.00    -0.507 OA
ATOM     35  H   UNL     1      47.526  22.581  57.233  1.00  0.00     0.293 HD
ENDBRANCH  10  34
BRANCH   9  36
ATOM     36  C   UNL     1      53.033  22.362  52.677  1.00  0.00     0.017 C 
ATOM     37  C   UNL     1      52.958  23.715  51.961  1.00  0.00     0.012 C 
ATOM     38  C   UNL     1      52.463  21.234  51.796  1.00  0.00     0.012 C 
ENDBRANCH   9  36
BRANCH   6  39
ATOM     39  C   UNL     1      50.859  23.532  57.939  1.00  0.00     0.264 C 
ATOM     40  O   UNL     1      50.630  24.763  58.085  1.00  0.00    -0.298 OA
ENDBRANCH   6  39
BRANCH   8  41
ATOM     41  O   UNL     1      54.543  21.977  55.094  1.00  0.00    -0.504 OA
ATOM     42  H   UNL     1      54.852  21.262  54.450  1.00  0.00     0.293 HD
ENDBRANCH   8  41
BRANCH   7  43
ATOM     43  O   UNL     1      53.543  22.922  57.582  1.00  0.00    -0.504 OA
ATOM     44  H   UNL     1      54.213  23.674  57.668  1.00  0.00     0.293 HD
ENDBRANCH   7  43
TORSDOF 11
ENDMDL
MODEL 3
REMARK VINA RESULT:    -2.649      1.447      8.943
REMARK INTER + INTRA:          -4.537
REMARK INTER:                  -5.666
REMARK INTRA:                   1.129
REMARK UNBOUND:                -0.650
REMARK SMILES Cc1cc2c(C(C)C)c(O)c(O)c(C=O)c2c(O)c1-c1c(C)cc2c(C(C)C)c(O)c(O)c(C=O)c2c1O
REMARK SMILES IDX 1 1 2 2 3 3 4 4 16 5 13 6 11 7 9 8 5 9 17 10 19 11 20 12
REMARK SMILES IDX 37 13 21 14 36 15 23 16 22 17 24 18 33 19 25 20 31 21 29 22
REMARK SMILES IDX 38 23 34 25 35 26 26 27 27 28 28 29 32 30 30 32 18 34 6 36
REMARK SMILES IDX 7 37 8 38 14 39 15 40 10 41 12 43
REMARK H PARENT 38 24 32 31 30 33 18 35 10 42 12 44
REMARK Flexibility Score: inf
ROOT
ATOM      1  C   UNL     1      48.173  23.224  57.180  1.00  0.00     0.045 C 
ATOM      2  C   UNL     1      48.788  22.880  55.845  1.00  0.00    -0.039 A 
ATOM      3  C   UNL     1      50.176  22.896  55.704  1.00  0.00     0.013 A 
ATOM      4  C   UNL     1      50.810  22.552  54.490  1.00  0.00    -0.006 A 
ATOM      5  C   UNL     1      49.998  22.233  53.359  1.00  0.00     0.039 A 
ATOM      6  C   UNL     1      50.634  21.906  52.125  1.00  0.00     0.072 A 
ATOM      7  C   UNL     1      52.022  22.083  51.983  1.00  0.00     0.169 A 
ATOM      8  C   UNL     1      52.801  22.494  53.077  1.00  0.00     0.162 A 
ATOM      9  C   UNL     1      52.234  22.563  54.369  1.00  0.00     0.008 A 
ATOM     10  C   UNL     1      48.577  22.295  53.486  1.00  0.00     0.132 A 
ATOM     11  C   UNL     1      47.984  22.586  54.732  1.00  0.00     0.031 A 
ENDROOT
BRANCH  11  12
ATOM     12  C   UNL     1      46.503  22.623  54.865  1.00  0.00     0.031 A 
ATOM     13  C   UNL     1      45.751  21.434  54.747  1.00  0.00     0.132 A 
ATOM     14  C   UNL     1      45.852  23.843  55.113  1.00  0.00    -0.039 A 
ATOM     15  C   UNL     1      44.336  21.457  54.922  1.00  0.00     0.039 A 
ATOM     16  C   UNL     1      44.457  23.883  55.152  1.00  0.00     0.013 A 
ATOM     17  C   UNL     1      46.634  25.125  55.274  1.00  0.00     0.045 C 
ATOM     18  C   UNL     1      43.676  22.717  54.992  1.00  0.00    -0.006 A 
ATOM     19  C   UNL     1      43.558  20.265  55.000  1.00  0.00     0.072 A 
ATOM     20  C   UNL     1      42.250  22.784  54.934  1.00  0.00     0.008 A 
ATOM     21  C   UNL     1      42.155  20.342  55.083  1.00  0.00     0.169 A 
ATOM     22  C   UNL     1      41.507  21.593  55.087  1.00  0.00     0.162 A 
BRANCH  13  23
ATOM     23  O   UNL     1      46.402  20.241  54.416  1.00  0.00    -0.507 OA
ATOM     24  H   UNL     1      46.568  19.488  55.071  1.00  0.00     0.293 HD
ENDBRANCH  13  23
BRANCH  19  25
ATOM     25  C   UNL     1      44.183  18.928  55.136  1.00  0.00     0.264 C 
ATOM     26  O   UNL     1      44.144  18.093  54.193  1.00  0.00    -0.298 OA
ENDBRANCH  19  25
BRANCH  20  27
ATOM     27  C   UNL     1      41.517  24.121  54.726  1.00  0.00     0.017 C 
ATOM     28  C   UNL     1      41.876  25.123  55.828  1.00  0.00     0.012 C 
ATOM     29  C   UNL     1      39.991  23.975  54.575  1.00  0.00     0.012 C 
ENDBRANCH  20  27
BRANCH  21  30
ATOM     30  O   UNL     1      41.428  19.148  55.166  1.00  0.00    -0.504 OA
ATOM     31  H   UNL     1      41.766  18.299  55.596  1.00  0.00     0.293 HD
ENDBRANCH  21  30
BRANCH  22  32
ATOM     32  O   UNL     1      40.127  21.683  55.285  1.00  0.00    -0.504 OA
ATOM     33  H   UNL     1      39.428  21.419  54.604  1.00  0.00     0.293 HD
ENDBRANCH  22  32
ENDBRANCH  11  12
BRANCH  10  34
ATOM     34  O   UNL     1      47.758  22.107  52.367  1.00  0.00    -0.507 OA
ATOM     35  H   UNL     1      47.860  22.617  51.499  1.00  0.00     0.293 HD
ENDBRANCH  10  34
BRANCH   9  36
ATOM     36  C   UNL     1      53.151  22.703  55.597  1.00  0.00     0.017 C 
ATOM     37  C   UNL     1      53.516  24.171  55.845  1.00  0.00     0.012 C 
ATOM     38  C   UNL     1      54.411  21.818  55.538  1.00  0.00     0.012 C 
ENDBRANCH   9  36
BRANCH   6  39
ATOM     39  C   UNL     1      49.895  21.300  50.992  1.00  0.00     0.264 C 
ATOM     40  O   UNL     1      50.194  20.156  50.556  1.00  0.00    -0.298 OA
ENDBRANCH   6  39
BRANCH   8  41
ATOM     41  O   UNL     1      54.142  22.848  52.902  1.00  0.00    -0.504 OA
ATOM     42  H   UNL     1      54.456  23.782  52.677  1.00  0.00     0.293 HD
ENDBRANCH   8  41
BRANCH   7  43
ATOM     43  O   UNL     1      52.615  21.793  50.748  1.00  0.00    -0.504 OA
ATOM     44  H   UNL     1      53.555  22.063  50.495  1.00  0.00     0.293 HD
ENDBRANCH   7  43
TORSDOF 11
ENDMDL
MODEL 4
REMARK VINA RESULT:    -1.345      2.671      5.055
REMARK INTER + INTRA:          -2.623
REMARK INTER:                  -2.775
REMARK INTRA:                   0.152
REMARK UNBOUND:                -0.650
REMARK SMILES Cc1cc2c(C(C)C)c(O)c(O)c(C=O)c2c(O)c1-c1c(C)cc2c(C(C)C)c(O)c(O)c(C=O)c2c1O
REMARK SMILES IDX 1 1 2 2 3 3 4 4 16 5 13 6 11 7 9 8 5 9 17 10 19 11 20 12
REMARK SMILES IDX 37 13 21 14 36 15 23 16 22 17 24 18 33 19 25 20 31 21 29 22
REMARK SMILES IDX 38 23 34 25 35 26 26 27 27 28 28 29 32 30 30 32 18 34 6 36
REMARK SMILES IDX 7 37 8 38 14 39 15 40 10 41 12 43
REMARK H PARENT 38 24 32 31 30 33 18 35 10 42 12 44
REMARK Flexibility Score: inf
ROOT
ATOM      1  C   UNL     1      51.304  20.435  54.239  1.00  0.00     0.045 C 
ATOM      2  C   UNL     1      50.222  21.376  54.713  1.00  0.00    -0.039 A 
ATOM      3  C   UNL     1      48.883  21.026  54.540  1.00  0.00     0.013 A 
ATOM      4  C   UNL     1      47.829  21.850  54.993  1.00  0.00    -0.006 A 
ATOM      5  C   UNL     1      48.150  23.105  55.596  1.00  0.00     0.039 A 
ATOM      6  C   UNL     1      47.088  23.949  56.034  1.00  0.00     0.072 A 
ATOM      7  C   UNL     1      45.758  23.633  55.704  1.00  0.00     0.169 A 
ATOM      8  C   UNL     1      45.460  22.441  55.021  1.00  0.00     0.162 A 
ATOM      9  C   UNL     1      46.463  21.468  54.817  1.00  0.00     0.008 A 
ATOM     10  C   UNL     1      49.520  23.494  55.699  1.00  0.00     0.132 A 
ATOM     11  C   UNL     1      50.545  22.617  55.287  1.00  0.00     0.031 A 
ENDROOT
BRANCH  11  12
ATOM     12  C   UNL     1      51.971  23.017  55.422  1.00  0.00     0.031 A 
ATOM     13  C   UNL     1      52.728  23.340  54.276  1.00  0.00     0.132 A 
ATOM     14  C   UNL     1      52.563  23.079  56.694  1.00  0.00    -0.039 A 
ATOM     15  C   UNL     1      54.080  23.771  54.403  1.00  0.00     0.039 A 
ATOM     16  C   UNL     1      53.924  23.373  56.805  1.00  0.00     0.013 A 
ATOM     17  C   UNL     1      51.769  22.769  57.941  1.00  0.00     0.045 C 
ATOM     18  C   UNL     1      54.718  23.656  55.672  1.00  0.00    -0.006 A 
ATOM     19  C   UNL     1      54.825  24.286  53.302  1.00  0.00     0.072 A 
ATOM     20  C   UNL     1      56.127  23.857  55.788  1.00  0.00     0.008 A 
ATOM     21  C   UNL     1      56.184  24.614  53.460  1.00  0.00     0.169 A 
ATOM     22  C   UNL     1      56.822  24.436  54.703  1.00  0.00     0.162 A 
BRANCH  13  23
ATOM     23  O   UNL     1      52.150  23.192  53.009  1.00  0.00    -0.507 OA
ATOM     24  H   UNL     1      52.000  22.299  52.558  1.00  0.00     0.293 HD
ENDBRANCH  13  23
BRANCH  19  25
ATOM     25  C   UNL     1      54.181  24.623  52.010  1.00  0.00     0.264 C 
ATOM     26  O   UNL     1      54.191  23.810  51.047  1.00  0.00    -0.298 OA
ENDBRANCH  19  25
BRANCH  20  27
ATOM     27  C   UNL     1      56.890  23.472  57.068  1.00  0.00     0.017 C 
ATOM     28  C   UNL     1      57.901  24.557  57.453  1.00  0.00     0.012 C 
ATOM     29  C   UNL     1      57.556  22.084  56.999  1.00  0.00     0.012 C 
ENDBRANCH  20  27
BRANCH  21  30
ATOM     30  O   UNL     1      56.877  25.124  52.355  1.00  0.00    -0.504 OA
ATOM     31  H   UNL     1      57.479  24.580  51.754  1.00  0.00     0.293 HD
ENDBRANCH  21  30
BRANCH  22  32
ATOM     32  O   UNL     1      58.137  24.866  54.901  1.00  0.00    -0.504 OA
ATOM     33  H   UNL     1      58.419  25.569  55.569  1.00  0.00     0.293 HD
ENDBRANCH  22  32
ENDBRANCH  11  12
BRANCH  10  34
ATOM     34  O   UNL     1      49.859  24.767  56.172  1.00  0.00    -0.507 OA
ATOM     35  H   UNL     1      49.230  25.559  56.165  1.00  0.00     0.293 HD
ENDBRANCH  10  34
BRANCH   9  36
ATOM     36  C   UNL     1      46.070  20.052  54.360  1.00  0.00     0.017 C 
ATOM     37  C   UNL     1      46.007  19.966  52.831  1.00  0.00     0.012 C 
ATOM     38  C   UNL     1      44.769  19.529  55.001  1.00  0.00     0.012 C 
ENDBRANCH   9  36
BRANCH   6  39
ATOM     39  C   UNL     1      47.322  25.123  56.908  1.00  0.00     0.264 C 
ATOM     40  O   UNL     1      47.616  24.982  58.125  1.00  0.00    -0.298 OA
ENDBRANCH   6  39
BRANCH   8  41
ATOM     41  O   UNL     1      44.173  22.206  54.529  1.00  0.00    -0.504 OA
ATOM     42  H   UNL     1      43.932  22.214  53.548  1.00  0.00     0.293 HD
ENDBRANCH   8  41
BRANCH   7  43
ATOM     43  O   UNL     1      44.737  24.500  56.112  1.00  0.00    -0.504 OA
ATOM     44  H   UNL     1      44.585  25.419  55.721  1.00  0.00     0.293 HD
ENDBRANCH   7  43
TORSDOF 11
ENDMDL
MODEL 5
REMARK VINA RESULT:    -1.003      2.090      2.694
REMARK INTER + INTRA:          -2.121
REMARK INTER:                  -1.826
REMARK INTRA:                  -0.295
REMARK UNBOUND:                -0.650
REMARK SMILES Cc1cc2c(C(C)C)c(O)c(O)c(C=O)c2c(O)c1-c1c(C)cc2c(C(C)C)c(O)c(O)c(C=O)c2c1O
REMARK SMILES IDX 1 1 2 2 3 3 4 4 16 5 13 6 11 7 9 8 5 9 17 10 19 11 20 12
REMARK SMILES IDX 37 13 21 14 36 15 23 16 22 17 24 18 33 19 25 20 31 21 29 22
REMARK SMILES IDX 38 23 34 25 35 26 26 27 27 28 28 29 32 30 30 32 18 34 6 36
REMARK SMILES IDX 7 37 8 38 14 39 15 40 10 41 12 43
REMARK H PARENT 38 24 32 31 30 33 18 35 10 42 12 44
REMARK Flexibility Score: inf
ROOT
ATOM      1  C   UNL     1      47.182  24.887  54.305  1.00  0.00     0.045 C 
ATOM      2  C   UNL     1      46.261  23.695  54.404  1.00  0.00    -0.039 A 
ATOM      3  C   UNL     1      44.916  23.891  54.718  1.00  0.00     0.013 A 
ATOM      4  C   UNL     1      44.000  22.818  54.791  1.00  0.00    -0.006 A 
ATOM      5  C   UNL     1      44.483  21.489  54.591  1.00  0.00     0.039 A 
ATOM      6  C   UNL     1      43.566  20.402  54.687  1.00  0.00     0.072 A 
ATOM      7  C   UNL     1      42.258  20.626  55.155  1.00  0.00     0.169 A 
ATOM      8  C   UNL     1      41.821  21.930  55.444  1.00  0.00     0.162 A 
ATOM      9  C   UNL     1      42.623  23.041  55.103  1.00  0.00     0.008 A 
ATOM     10  C   UNL     1      45.875  21.287  54.348  1.00  0.00     0.132 A 
ATOM     11  C   UNL     1      46.747  22.389  54.225  1.00  0.00     0.031 A 
ENDROOT
BRANCH  11  12
ATOM     12  C   UNL     1      48.191  22.173  53.945  1.00  0.00     0.031 A 
ATOM     13  C   UNL     1      48.609  21.747  52.666  1.00  0.00     0.132 A 
ATOM     14  C   UNL     1      49.141  22.399  54.954  1.00  0.00    -0.039 A 
ATOM     15  C   UNL     1      49.996  21.586  52.378  1.00  0.00     0.039 A 
ATOM     16  C   UNL     1      50.486  22.113  54.709  1.00  0.00     0.013 A 
ATOM     17  C   UNL     1      48.725  22.885  56.322  1.00  0.00     0.045 C 
ATOM     18  C   UNL     1      50.929  21.642  53.454  1.00  0.00    -0.006 A 
ATOM     19  C   UNL     1      50.479  21.342  51.060  1.00  0.00     0.072 A 
ATOM     20  C   UNL     1      52.288  21.259  53.245  1.00  0.00     0.008 A 
ATOM     21  C   UNL     1      51.848  21.101  50.841  1.00  0.00     0.169 A 
ATOM     22  C   UNL     1      52.753  21.096  51.921  1.00  0.00     0.162 A 
BRANCH  13  23
ATOM     23  O   UNL     1      47.647  21.444  51.696  1.00  0.00    -0.507 OA
ATOM     24  H   UNL     1      46.970  20.698  51.786  1.00  0.00     0.293 HD
ENDBRANCH  13  23
BRANCH  19  25
ATOM     25  C   UNL     1      49.604  21.468  49.869  1.00  0.00     0.264 C 
ATOM     26  O   UNL     1      49.064  20.455  49.350  1.00  0.00    -0.298 OA
ENDBRANCH  19  25
BRANCH  20  27
ATOM     27  C   UNL     1      53.251  21.039  54.426  1.00  0.00     0.017 C 
ATOM     28  C   UNL     1      52.902  19.755  55.187  1.00  0.00     0.012 C 
ATOM     29  C   UNL     1      53.352  22.246  55.377  1.00  0.00     0.012 C 
ENDBRANCH  20  27
BRANCH  21  30
ATOM     30  O   UNL     1      52.282  20.874  49.530  1.00  0.00    -0.504 OA
ATOM     31  H   UNL     1      52.335  19.966  49.092  1.00  0.00     0.293 HD
ENDBRANCH  21  30
BRANCH  22  32
ATOM     32  O   UNL     1      54.128  20.973  51.702  1.00  0.00    -0.504 OA
ATOM     33  H   UNL     1      54.719  20.273  52.128  1.00  0.00     0.293 HD
ENDBRANCH  22  32
ENDBRANCH  11  12
BRANCH  10  34
ATOM     34  O   UNL     1      46.398  19.991  54.270  1.00  0.00    -0.507 OA
ATOM     35  H   UNL     1      45.957  19.177  54.678  1.00  0.00     0.293 HD
ENDBRANCH  10  34
BRANCH   9  36
ATOM     36  C   UNL     1      42.016  24.455  55.130  1.00  0.00     0.017 C 
ATOM     37  C   UNL     1      42.244  25.125  56.489  1.00  0.00     0.012 C 
ATOM     38  C   UNL     1      40.529  24.502  54.728  1.00  0.00     0.012 C 
ENDBRANCH   9  36
BRANCH   6  39
ATOM     39  C   UNL     1      43.910  19.035  54.228  1.00  0.00     0.264 C 
ATOM     40  O   UNL     1      43.937  18.065  55.031  1.00  0.00    -0.298 OA
ENDBRANCH   6  39
BRANCH   8  41
ATOM     41  O   UNL     1      40.595  22.143  56.080  1.00  0.00    -0.504 OA
ATOM     42  H   UNL     1      40.499  22.405  57.051  1.00  0.00     0.293 HD
ENDBRANCH   8  41
BRANCH   7  43
ATOM     43  O   UNL     1      41.390  19.534  55.277  1.00  0.00    -0.504 OA
ATOM     44  H   UNL     1      40.813  19.358  56.087  1.00  0.00     0.293 HD
ENDBRANCH   7  43
TORSDOF 11
ENDMDL
MODEL 6
REMARK VINA RESULT:    -0.844      2.932      6.015
REMARK INTER + INTRA:          -1.889
REMARK INTER:                  -4.806
REMARK INTRA:                   2.917
REMARK UNBOUND:                -0.650
REMARK SMILES Cc1cc2c(C(C)C)c(O)c(O)c(C=O)c2c(O)c1-c1c(C)cc2c(C(C)C)c(O)c(O)c(C=O)c2c1O
REMARK SMILES IDX 1 1 2 2 3 3 4 4 16 5 13 6 11 7 9 8 5 9 17 10 19 11 20 12
REMARK SMILES IDX 37 13 21 14 36 15 23 16 22 17 24 18 33 19 25 20 31 21 29 22
REMARK SMILES IDX 38 23 34 25 35 26 26 27 27 28 28 29 32 30 30 32 18 34 6 36
REMARK SMILES IDX 7 37 8 38 14 39 15 40 10 41 12 43
REMARK H PARENT 38 24 32 31 30 33 18 35 10 42 12 44
REMARK Flexibility Score: inf
ROOT
ATOM      1  C   UNL     1      51.262  20.592  53.122  1.00  0.00     0.045 C 
ATOM      2  C   UNL     1      50.337  21.510  53.885  1.00  0.00    -0.039 A 
ATOM      3  C   UNL     1      48.983  21.189  53.987  1.00  0.00     0.013 A 
ATOM      4  C   UNL     1      48.076  21.991  54.714  1.00  0.00    -0.006 A 
ATOM      5  C   UNL     1      48.554  23.195  55.315  1.00  0.00     0.039 A 
ATOM      6  C   UNL     1      47.637  24.019  56.031  1.00  0.00     0.072 A 
ATOM      7  C   UNL     1      46.259  23.742  55.981  1.00  0.00     0.169 A 
ATOM      8  C   UNL     1      45.787  22.606  55.302  1.00  0.00     0.162 A 
ATOM      9  C   UNL     1      46.694  21.638  54.817  1.00  0.00     0.008 A 
ATOM     10  C   UNL     1      49.924  23.560  55.140  1.00  0.00     0.132 A 
ATOM     11  C   UNL     1      50.810  22.702  54.456  1.00  0.00     0.031 A 
ENDROOT
BRANCH  11  12
ATOM     12  C   UNL     1      52.241  23.075  54.300  1.00  0.00     0.031 A 
ATOM     13  C   UNL     1      53.065  23.214  55.438  1.00  0.00     0.132 A 
ATOM     14  C   UNL     1      52.775  23.284  53.018  1.00  0.00    -0.039 A 
ATOM     15  C   UNL     1      54.449  23.523  55.292  1.00  0.00     0.039 A 
ATOM     16  C   UNL     1      54.097  23.717  52.885  1.00  0.00     0.013 A 
ATOM     17  C   UNL     1      51.925  23.112  51.782  1.00  0.00     0.045 C 
ATOM     18  C   UNL     1      54.932  23.908  54.008  1.00  0.00    -0.006 A 
ATOM     19  C   UNL     1      55.359  23.489  56.388  1.00  0.00     0.072 A 
ATOM     20  C   UNL     1      56.248  24.445  53.867  1.00  0.00     0.008 A 
ATOM     21  C   UNL     1      56.696  23.890  56.210  1.00  0.00     0.169 A 
ATOM     22  C   UNL     1      57.148  24.329  54.950  1.00  0.00     0.162 A 
BRANCH  13  23
ATOM     23  O   UNL     1      52.501  23.086  56.713  1.00  0.00    -0.507 OA
ATOM     24  H   UNL     1      52.318  22.198  57.162  1.00  0.00     0.293 HD
ENDBRANCH  13  23
BRANCH  19  25
ATOM     25  C   UNL     1      54.984  22.910  57.701  1.00  0.00     0.264 C 
ATOM     26  O   UNL     1      55.527  21.855  58.124  1.00  0.00    -0.298 OA
ENDBRANCH  19  25
BRANCH  20  27
ATOM     27  C   UNL     1      56.703  25.125  52.564  1.00  0.00     0.017 C 
ATOM     28  C   UNL     1      55.799  24.728  51.392  1.00  0.00     0.012 C 
ATOM     29  C   UNL     1      58.189  24.895  52.230  1.00  0.00     0.012 C 
ENDBRANCH  20  27
BRANCH  21  30
ATOM     30  O   UNL     1      57.559  23.833  57.311  1.00  0.00    -0.504 OA
ATOM     31  H   UNL     1      57.401  24.306  58.189  1.00  0.00     0.293 HD
ENDBRANCH  21  30
BRANCH  22  32
ATOM     32  O   UNL     1      58.498  24.618  54.735  1.00  0.00    -0.504 OA
ATOM     33  H   UNL     1      58.880  24.977  53.871  1.00  0.00     0.293 HD
ENDBRANCH  22  32
ENDBRANCH  11  12
BRANCH  10  34
ATOM     34  O   UNL     1      50.393  24.792  55.611  1.00  0.00    -0.507 OA
ATOM     35  H   UNL     1      51.332  24.947  55.953  1.00  0.00     0.293 HD
ENDBRANCH  10  34
BRANCH   9  36
ATOM     36  C   UNL     1      46.173  20.263  54.364  1.00  0.00     0.017 C 
ATOM     37  C   UNL     1      46.166  20.155  52.836  1.00  0.00     0.012 C 
ATOM     38  C   UNL     1      44.798  19.893  54.955  1.00  0.00     0.012 C 
ENDBRANCH   9  36
BRANCH   6  39
ATOM     39  C   UNL     1      48.088  25.125  56.909  1.00  0.00     0.264 C 
ATOM     40  O   UNL     1      48.538  24.898  58.064  1.00  0.00    -0.298 OA
ENDBRANCH   6  39
BRANCH   8  41
ATOM     41  O   UNL     1      44.418  22.422  55.091  1.00  0.00    -0.504 OA
ATOM     42  H   UNL     1      43.885  22.907  54.383  1.00  0.00     0.293 HD
ENDBRANCH   8  41
BRANCH   7  43
ATOM     43  O   UNL     1      45.376  24.590  56.661  1.00  0.00    -0.504 OA
ATOM     44  H   UNL     1      44.858  25.338  56.221  1.00  0.00     0.293 HD
ENDBRANCH   7  43
TORSDOF 11
ENDMDL
