MODEL 1
REMARK VINA RESULT:    -5.023      0.000      0.000
REMARK INTER + INTRA:          -8.124
REMARK INTER:                  -7.372
REMARK INTRA:                  -0.752
REMARK UNBOUND:                -0.752
REMARK SMILES O=C([O-])CCCCCCCC(=O)[O-]
REMARK SMILES IDX 7 1 6 2 5 3 4 4 2 5 1 6 3 7 8 8 9 9 10 10 11 11 12 12 13 13
REMARK H PARENT
REMARK Flexibility Score: inf
ROOT
ATOM      1  C   UNL     1     218.953  -6.430  25.016  1.00  0.00     0.000 C 
ENDROOT
BRANCH   1   2
ATOM      2  C   UNL     1     217.827  -7.474  24.962  1.00  0.00     0.000 C 
BRANCH   2   3
ATOM      3  C   UNL     1     218.138  -8.726  25.800  1.00  0.00     0.006 C 
BRANCH   3   4
ATOM      4  C   UNL     1     217.272  -8.807  27.064  1.00  0.00     0.053 C 
BRANCH   4   5
ATOM      5  C   UNL     1     218.063  -8.500  28.298  1.00  0.00     0.041 C 
ATOM      6  O   UNL     1     218.241  -9.385  29.174  1.00  0.00    -0.550 OA
ATOM      7  O   UNL     1     218.575  -7.223  28.495  1.00  0.00    -0.550 OA
ENDBRANCH   4   5
ENDBRANCH   3   4
ENDBRANCH   2   3
ENDBRANCH   1   2
BRANCH   1   8
ATOM      8  C   UNL     1     220.350  -7.067  25.008  1.00  0.00     0.000 C 
BRANCH   8   9
ATOM      9  C   UNL     1     220.947  -7.065  23.595  1.00  0.00     0.006 C 
BRANCH   9  10
ATOM     10  C   UNL     1     221.631  -8.399  23.285  1.00  0.00     0.053 C 
BRANCH  10  11
ATOM     11  C   UNL     1     220.625  -9.507  23.246  1.00  0.00     0.041 C 
ATOM     12  O   UNL     1     219.664  -9.462  22.435  1.00  0.00    -0.550 OA
ATOM     13  O   UNL     1     220.722 -10.566  24.140  1.00  0.00    -0.550 OA
ENDBRANCH  10  11
ENDBRANCH   9  10
ENDBRANCH   8   9
ENDBRANCH   1   8
TORSDOF 8
ENDMDL
MODEL 2
REMARK VINA RESULT:    -5.017      2.145      3.586
REMARK INTER + INTRA:          -8.115
REMARK INTER:                  -7.280
REMARK INTRA:                  -0.835
REMARK UNBOUND:                -0.752
REMARK SMILES O=C([O-])CCCCCCCC(=O)[O-]
REMARK SMILES IDX 7 1 6 2 5 3 4 4 2 5 1 6 3 7 8 8 9 9 10 10 11 11 12 12 13 13
REMARK H PARENT
REMARK Flexibility Score: inf
ROOT
ATOM      1  C   UNL     1     221.615  -8.343  22.813  1.00  0.00     0.000 C 
ENDROOT
BRANCH   1   2
ATOM      2  C   UNL     1     221.120  -7.039  23.459  1.00  0.00     0.000 C 
BRANCH   2   3
ATOM      3  C   UNL     1     220.404  -7.276  24.800  1.00  0.00     0.006 C 
BRANCH   3   4
ATOM      4  C   UNL     1     219.159  -6.394  24.955  1.00  0.00     0.053 C 
BRANCH   4   5
ATOM      5  C   UNL     1     217.898  -7.170  24.725  1.00  0.00     0.041 C 
ATOM      6  O   UNL     1     217.255  -7.031  23.653  1.00  0.00    -0.550 OA
ATOM      7  O   UNL     1     217.416  -8.021  25.712  1.00  0.00    -0.550 OA
ENDBRANCH   4   5
ENDBRANCH   3   4
ENDBRANCH   2   3
ENDBRANCH   1   2
BRANCH   1   8
ATOM      8  C   UNL     1     221.071  -8.542  21.391  1.00  0.00     0.000 C 
BRANCH   8   9
ATOM      9  C   UNL     1     219.542  -8.432  21.368  1.00  0.00     0.006 C 
BRANCH   9  10
ATOM     10  C   UNL     1     218.893  -9.815  21.263  1.00  0.00     0.053 C 
BRANCH  10  11
ATOM     11  C   UNL     1     218.291 -10.212  22.574  1.00  0.00     0.041 C 
ATOM     12  O   UNL     1     217.041 -10.243  22.715  1.00  0.00    -0.550 OA
ATOM     13  O   UNL     1     219.113 -10.500  23.657  1.00  0.00    -0.550 OA
ENDBRANCH  10  11
ENDBRANCH   9  10
ENDBRANCH   8   9
ENDBRANCH   1   8
TORSDOF 8
ENDMDL
MODEL 3
REMARK VINA RESULT:    -4.967      0.873      4.795
REMARK INTER + INTRA:          -8.041
REMARK INTER:                  -7.269
REMARK INTRA:                  -0.772
REMARK UNBOUND:                -0.752
REMARK SMILES O=C([O-])CCCCCCCC(=O)[O-]
REMARK SMILES IDX 7 1 6 2 5 3 4 4 2 5 1 6 3 7 8 8 9 9 10 10 11 11 12 12 13 13
REMARK H PARENT
REMARK Flexibility Score: inf
ROOT
ATOM      1  C   UNL     1     219.654  -6.515  24.911  1.00  0.00     0.000 C 
ENDROOT
BRANCH   1   2
ATOM      2  C   UNL     1     220.841  -6.846  23.993  1.00  0.00     0.000 C 
BRANCH   2   3
ATOM      3  C   UNL     1     220.450  -7.769  22.826  1.00  0.00     0.006 C 
BRANCH   3   4
ATOM      4  C   UNL     1     221.207  -9.102  22.862  1.00  0.00     0.053 C 
BRANCH   4   5
ATOM      5  C   UNL     1     220.636 -10.036  23.884  1.00  0.00     0.041 C 
ATOM      6  O   UNL     1     221.291 -10.324  24.919  1.00  0.00    -0.550 OA
ATOM      7  O   UNL     1     219.390 -10.616  23.676  1.00  0.00    -0.550 OA
ENDBRANCH   4   5
ENDBRANCH   3   4
ENDBRANCH   2   3
ENDBRANCH   1   2
BRANCH   1   8
ATOM      8  C   UNL     1     218.344  -7.163  24.440  1.00  0.00     0.000 C 
BRANCH   8   9
ATOM      9  C   UNL     1     217.517  -7.660  25.632  1.00  0.00     0.006 C 
BRANCH   9  10
ATOM     10  C   UNL     1     218.281  -8.722  26.427  1.00  0.00     0.053 C 
BRANCH  10  11
ATOM     11  C   UNL     1     218.255  -8.402  27.888  1.00  0.00     0.041 C 
ATOM     12  O   UNL     1     218.082  -9.317  28.735  1.00  0.00    -0.550 OA
ATOM     13  O   UNL     1     218.374  -7.084  28.313  1.00  0.00    -0.550 OA
ENDBRANCH  10  11
ENDBRANCH   9  10
ENDBRANCH   8   9
ENDBRANCH   1   8
TORSDOF 8
ENDMDL
MODEL 4
REMARK VINA RESULT:    -4.928      1.768      4.574
REMARK INTER + INTRA:          -7.984
REMARK INTER:                  -7.165
REMARK INTRA:                  -0.819
REMARK UNBOUND:                -0.752
REMARK SMILES O=C([O-])CCCCCCCC(=O)[O-]
REMARK SMILES IDX 7 1 6 2 5 3 4 4 2 5 1 6 3 7 8 8 9 9 10 10 11 11 12 12 13 13
REMARK H PARENT
REMARK Flexibility Score: inf
ROOT
ATOM      1  C   UNL     1     221.417  -7.824  23.990  1.00  0.00     0.000 C 
ENDROOT
BRANCH   1   2
ATOM      2  C   UNL     1     221.485  -8.454  22.590  1.00  0.00     0.000 C 
BRANCH   2   3
ATOM      3  C   UNL     1     220.233  -8.160  21.746  1.00  0.00     0.006 C 
BRANCH   3   4
ATOM      4  C   UNL     1     219.385  -9.416  21.511  1.00  0.00     0.053 C 
BRANCH   4   5
ATOM      5  C   UNL     1     218.481  -9.698  22.671  1.00  0.00     0.041 C 
ATOM      6  O   UNL     1     218.842 -10.489  23.580  1.00  0.00    -0.550 OA
ATOM      7  O   UNL     1     217.222  -9.111  22.730  1.00  0.00    -0.550 OA
ENDBRANCH   4   5
ENDBRANCH   3   4
ENDBRANCH   2   3
ENDBRANCH   1   2
BRANCH   1   8
ATOM      8  C   UNL     1     220.511  -6.585  24.037  1.00  0.00     0.000 C 
BRANCH   8   9
ATOM      9  C   UNL     1     219.817  -6.463  25.399  1.00  0.00     0.006 C 
BRANCH   9  10
ATOM     10  C   UNL     1     218.415  -7.078  25.357  1.00  0.00     0.053 C 
BRANCH  10  11
ATOM     11  C   UNL     1     218.315  -8.221  26.318  1.00  0.00     0.041 C 
ATOM     12  O   UNL     1     219.330  -8.918  26.582  1.00  0.00    -0.550 OA
ATOM     13  O   UNL     1     217.090  -8.548  26.885  1.00  0.00    -0.550 OA
ENDBRANCH  10  11
ENDBRANCH   9  10
ENDBRANCH   8   9
ENDBRANCH   1   8
TORSDOF 8
ENDMDL
MODEL 5
REMARK VINA RESULT:    -4.922      1.080      5.351
REMARK INTER + INTRA:          -7.976
REMARK INTER:                  -7.241
REMARK INTRA:                  -0.735
REMARK UNBOUND:                -0.752
REMARK SMILES O=C([O-])CCCCCCCC(=O)[O-]
REMARK SMILES IDX 7 1 6 2 5 3 4 4 2 5 1 6 3 7 8 8 9 9 10 10 11 11 12 12 13 13
REMARK H PARENT
REMARK Flexibility Score: inf
ROOT
ATOM      1  C   UNL     1     217.713  -7.613  25.066  1.00  0.00     0.000 C 
ENDROOT
BRANCH   1   2
ATOM      2  C   UNL     1     218.857  -6.588  25.097  1.00  0.00     0.000 C 
BRANCH   2   3
ATOM      3  C   UNL     1     220.246  -7.247  25.023  1.00  0.00     0.006 C 
BRANCH   3   4
ATOM      4  C   UNL     1     220.907  -7.053  23.653  1.00  0.00     0.053 C 
BRANCH   4   5
ATOM      5  C   UNL     1     221.243  -8.363  23.010  1.00  0.00     0.041 C 
ATOM      6  O   UNL     1     222.257  -8.466  22.272  1.00  0.00    -0.550 OA
ATOM      7  O   UNL     1     220.415  -9.463  23.199  1.00  0.00    -0.550 OA
ENDBRANCH   4   5
ENDBRANCH   3   4
ENDBRANCH   2   3
ENDBRANCH   1   2
BRANCH   1   8
ATOM      8  C   UNL     1     218.021  -8.868  25.896  1.00  0.00     0.000 C 
BRANCH   8   9
ATOM      9  C   UNL     1     217.274  -8.838  27.235  1.00  0.00     0.006 C 
BRANCH   9  10
ATOM     10  C   UNL     1     218.242  -9.019  28.408  1.00  0.00     0.053 C 
BRANCH  10  11
ATOM     11  C   UNL     1     218.974  -7.744  28.684  1.00  0.00     0.041 C 
ATOM     12  O   UNL     1     218.339  -6.704  29.003  1.00  0.00    -0.550 OA
ATOM     13  O   UNL     1     220.355  -7.690  28.541  1.00  0.00    -0.550 OA
ENDBRANCH  10  11
ENDBRANCH   9  10
ENDBRANCH   8   9
ENDBRANCH   1   8
TORSDOF 8
ENDMDL
MODEL 6
REMARK VINA RESULT:    -4.920      1.352      4.991
REMARK INTER + INTRA:          -7.973
REMARK INTER:                  -7.433
REMARK INTRA:                  -0.540
REMARK UNBOUND:                -0.752
REMARK SMILES O=C([O-])CCCCCCCC(=O)[O-]
REMARK SMILES IDX 7 1 6 2 5 3 4 4 2 5 1 6 3 7 8 8 9 9 10 10 11 11 12 12 13 13
REMARK H PARENT
REMARK Flexibility Score: inf
ROOT
ATOM      1  C   UNL     1     218.601  -6.833  24.861  1.00  0.00     0.000 C 
ENDROOT
BRANCH   1   2
ATOM      2  C   UNL     1     217.525  -7.303  23.869  1.00  0.00     0.000 C 
BRANCH   2   3
ATOM      3  C   UNL     1     218.099  -8.182  22.745  1.00  0.00     0.006 C 
BRANCH   3   4
ATOM      4  C   UNL     1     219.590  -8.481  22.946  1.00  0.00     0.053 C 
BRANCH   4   5
ATOM      5  C   UNL     1     219.813  -9.877  23.442  1.00  0.00     0.041 C 
ATOM      6  O   UNL     1     220.895 -10.185  24.005  1.00  0.00    -0.550 OA
ATOM      7  O   UNL     1     218.836 -10.847  23.250  1.00  0.00    -0.550 OA
ENDBRANCH   4   5
ENDBRANCH   3   4
ENDBRANCH   2   3
ENDBRANCH   1   2
BRANCH   1   8
ATOM      8  C   UNL     1     218.298  -7.257  26.305  1.00  0.00     0.000 C 
BRANCH   8   9
ATOM      9  C   UNL     1     217.894  -8.735  26.371  1.00  0.00     0.006 C 
BRANCH   9  10
ATOM     10  C   UNL     1     217.221  -9.062  27.707  1.00  0.00     0.053 C 
BRANCH  10  11
ATOM     11  C   UNL     1     218.191  -8.901  28.835  1.00  0.00     0.041 C 
ATOM     12  O   UNL     1     217.869  -8.246  29.860  1.00  0.00    -0.550 OA
ATOM     13  O   UNL     1     219.470  -9.435  28.733  1.00  0.00    -0.550 OA
ENDBRANCH  10  11
ENDBRANCH   9  10
ENDBRANCH   8   9
ENDBRANCH   1   8
TORSDOF 8
ENDMDL
MODEL 7
REMARK VINA RESULT:    -4.917      1.134      4.581
REMARK INTER + INTRA:          -7.968
REMARK INTER:                  -7.210
REMARK INTRA:                  -0.758
REMARK UNBOUND:                -0.752
REMARK SMILES O=C([O-])CCCCCCCC(=O)[O-]
REMARK SMILES IDX 7 1 6 2 5 3 4 4 2 5 1 6 3 7 8 8 9 9 10 10 11 11 12 12 13 13
REMARK H PARENT
REMARK Flexibility Score: inf
ROOT
ATOM      1  C   UNL     1     219.277  -6.447  24.994  1.00  0.00     0.000 C 
ENDROOT
BRANCH   1   2
ATOM      2  C   UNL     1     220.516  -7.005  24.277  1.00  0.00     0.000 C 
BRANCH   2   3
ATOM      3  C   UNL     1     220.161  -7.786  23.000  1.00  0.00     0.006 C 
BRANCH   3   4
ATOM      4  C   UNL     1     220.905  -9.124  22.913  1.00  0.00     0.053 C 
BRANCH   4   5
ATOM      5  C   UNL     1     220.394 -10.108  23.919  1.00  0.00     0.041 C 
ATOM      6  O   UNL     1     219.199 -10.500  23.874  1.00  0.00    -0.550 OA
ATOM      7  O   UNL     1     221.230 -10.568  24.929  1.00  0.00    -0.550 OA
ENDBRANCH   4   5
ENDBRANCH   3   4
ENDBRANCH   2   3
ENDBRANCH   1   2
BRANCH   1   8
ATOM      8  C   UNL     1     217.998  -7.226  24.658  1.00  0.00     0.000 C 
BRANCH   8   9
ATOM      9  C   UNL     1     217.492  -8.005  25.878  1.00  0.00     0.006 C 
BRANCH   9  10
ATOM     10  C   UNL     1     218.211  -7.556  27.154  1.00  0.00     0.053 C 
BRANCH  10  11
ATOM     11  C   UNL     1     218.808  -8.732  27.859  1.00  0.00     0.041 C 
ATOM     12  O   UNL     1     219.989  -9.088  27.610  1.00  0.00    -0.550 OA
ATOM     13  O   UNL     1     218.043  -9.466  28.757  1.00  0.00    -0.550 OA
ENDBRANCH  10  11
ENDBRANCH   9  10
ENDBRANCH   8   9
ENDBRANCH   1   8
TORSDOF 8
ENDMDL
MODEL 8
REMARK VINA RESULT:    -4.901      2.166      4.698
REMARK INTER + INTRA:          -7.945
REMARK INTER:                  -7.044
REMARK INTRA:                  -0.901
REMARK UNBOUND:                -0.752
REMARK SMILES O=C([O-])CCCCCCCC(=O)[O-]
REMARK SMILES IDX 7 1 6 2 5 3 4 4 2 5 1 6 3 7 8 8 9 9 10 10 11 11 12 12 13 13
REMARK H PARENT
REMARK Flexibility Score: inf
ROOT
ATOM      1  C   UNL     1     218.633  -8.718  21.616  1.00  0.00     0.000 C 
ENDROOT
BRANCH   1   2
ATOM      2  C   UNL     1     220.126  -9.023  21.424  1.00  0.00     0.000 C 
BRANCH   2   3
ATOM      3  C   UNL     1     221.030  -8.128  22.290  1.00  0.00     0.006 C 
BRANCH   3   4
ATOM      4  C   UNL     1     222.050  -8.942  23.097  1.00  0.00     0.053 C 
BRANCH   4   5
ATOM      5  C   UNL     1     221.473  -9.424  24.392  1.00  0.00     0.041 C 
ATOM      6  O   UNL     1     221.530  -8.700  25.420  1.00  0.00    -0.550 OA
ATOM      7  O   UNL     1     220.902 -10.688  24.471  1.00  0.00    -0.550 OA
ENDBRANCH   4   5
ENDBRANCH   3   4
ENDBRANCH   2   3
ENDBRANCH   1   2
BRANCH   1   8
ATOM      8  C   UNL     1     217.953  -9.684  22.597  1.00  0.00     0.000 C 
BRANCH   8   9
ATOM      9  C   UNL     1     217.813  -9.048  23.985  1.00  0.00     0.006 C 
BRANCH   9  10
ATOM     10  C   UNL     1     217.753  -7.521  23.887  1.00  0.00     0.053 C 
BRANCH  10  11
ATOM     11  C   UNL     1     218.459  -6.893  25.048  1.00  0.00     0.041 C 
ATOM     12  O   UNL     1     219.414  -6.097  24.853  1.00  0.00    -0.550 OA
ATOM     13  O   UNL     1     218.094  -7.227  26.346  1.00  0.00    -0.550 OA
ENDBRANCH  10  11
ENDBRANCH   9  10
ENDBRANCH   8   9
ENDBRANCH   1   8
TORSDOF 8
ENDMDL
MODEL 9
REMARK VINA RESULT:    -4.878      1.642      2.225
REMARK INTER + INTRA:          -7.912
REMARK INTER:                  -7.349
REMARK INTRA:                  -0.563
REMARK UNBOUND:                -0.752
REMARK SMILES O=C([O-])CCCCCCCC(=O)[O-]
REMARK SMILES IDX 7 1 6 2 5 3 4 4 2 5 1 6 3 7 8 8 9 9 10 10 11 11 12 12 13 13
REMARK H PARENT
REMARK Flexibility Score: inf
ROOT
ATOM      1  C   UNL     1     218.168  -7.281  26.103  1.00  0.00     0.000 C 
ENDROOT
BRANCH   1   2
ATOM      2  C   UNL     1     217.621  -8.714  26.201  1.00  0.00     0.000 C 
BRANCH   2   3
ATOM      3  C   UNL     1     217.210  -9.096  27.633  1.00  0.00     0.006 C 
BRANCH   3   4
ATOM      4  C   UNL     1     218.124  -8.459  28.688  1.00  0.00     0.053 C 
BRANCH   4   5
ATOM      5  C   UNL     1     219.206  -9.399  29.123  1.00  0.00     0.041 C 
ATOM      6  O   UNL     1     220.280  -9.476  28.471  1.00  0.00    -0.550 OA
ATOM      7  O   UNL     1     219.013 -10.217  30.230  1.00  0.00    -0.550 OA
ENDBRANCH   4   5
ENDBRANCH   3   4
ENDBRANCH   2   3
ENDBRANCH   1   2
BRANCH   1   8
ATOM      8  C   UNL     1     218.507  -6.875  24.662  1.00  0.00     0.000 C 
BRANCH   8   9
ATOM      9  C   UNL     1     217.719  -7.719  23.653  1.00  0.00     0.006 C 
BRANCH   9  10
ATOM     10  C   UNL     1     218.631  -8.234  22.536  1.00  0.00     0.053 C 
BRANCH  10  11
ATOM     11  C   UNL     1     219.426  -9.410  23.009  1.00  0.00     0.041 C 
ATOM     12  O   UNL     1     220.684  -9.361  23.022  1.00  0.00    -0.550 OA
ATOM     13  O   UNL     1     218.779 -10.579  23.390  1.00  0.00    -0.550 OA
ENDBRANCH  10  11
ENDBRANCH   9  10
ENDBRANCH   8   9
ENDBRANCH   1   8
TORSDOF 8
ENDMDL
