MODEL 1
REMARK VINA RESULT:    -5.763      0.000      0.000
REMARK INTER + INTRA:         -13.545
REMARK INTER:                 -12.502
REMARK INTRA:                  -1.043
REMARK UNBOUND:                -1.043
REMARK SMILES CCCCCCCCCCCCCCCCCCCCCC(=O)[O-]
REMARK SMILES IDX 12 1 11 2 10 3 9 4 8 5 7 6 6 7 5 8 4 9 3 10 2 11 1 12 13 13
REMARK SMILES IDX 14 14 15 15 16 16 17 17 18 18 19 19 20 20 21 21 22 22 23 23
REMARK SMILES IDX 24 24
REMARK H PARENT
REMARK Flexibility Score: inf
ROOT
ATOM      1  C   UNL     1      27.729  41.356  32.544  1.00  0.00     0.000 C 
ENDROOT
BRANCH   1   2
ATOM      2  C   UNL     1      28.101  39.908  32.176  1.00  0.00     0.000 C 
BRANCH   2   3
ATOM      3  C   UNL     1      27.546  38.878  33.172  1.00  0.00     0.000 C 
BRANCH   3   4
ATOM      4  C   UNL     1      27.321  37.519  32.491  1.00  0.00    -0.000 C 
BRANCH   4   5
ATOM      5  C   UNL     1      27.549  36.335  33.445  1.00  0.00    -0.000 C 
BRANCH   5   6
ATOM      6  C   UNL     1      28.240  35.147  32.759  1.00  0.00    -0.000 C 
BRANCH   6   7
ATOM      7  C   UNL     1      28.441  35.418  31.263  1.00  0.00    -0.000 C 
BRANCH   7   8
ATOM      8  C   UNL     1      28.576  34.104  30.477  1.00  0.00    -0.000 C 
BRANCH   8   9
ATOM      9  C   UNL     1      27.365  33.821  29.570  1.00  0.00    -0.000 C 
BRANCH   9  10
ATOM     10  C   UNL     1      26.195  33.092  30.257  1.00  0.00    -0.000 C 
BRANCH  10  11
ATOM     11  C   UNL     1      24.829  33.713  29.930  1.00  0.00    -0.003 C 
ATOM     12  C   UNL     1      23.920  32.704  29.236  1.00  0.00     0.004 C 
ENDBRANCH  10  11
ENDBRANCH   9  10
ENDBRANCH   8   9
ENDBRANCH   7   8
ENDBRANCH   6   7
ENDBRANCH   5   6
ENDBRANCH   4   5
ENDBRANCH   3   4
ENDBRANCH   2   3
ENDBRANCH   1   2
BRANCH   1  13
ATOM     13  C   UNL     1      27.698  41.660  34.056  1.00  0.00     0.000 C 
BRANCH  13  14
ATOM     14  C   UNL     1      27.822  43.149  34.422  1.00  0.00     0.000 C 
BRANCH  14  15
ATOM     15  C   UNL     1      26.998  43.529  35.662  1.00  0.00     0.000 C 
BRANCH  15  16
ATOM     16  C   UNL     1      25.572  42.965  35.566  1.00  0.00     0.000 C 
BRANCH  16  17
ATOM     17  C   UNL     1      24.557  43.771  36.391  1.00  0.00     0.000 C 
BRANCH  17  18
ATOM     18  C   UNL     1      23.372  44.276  35.549  1.00  0.00     0.000 C 
BRANCH  18  19
ATOM     19  C   UNL     1      22.631  45.445  36.226  1.00  0.00     0.000 C 
BRANCH  19  20
ATOM     20  C   UNL     1      21.162  45.137  36.576  1.00  0.00     0.006 C 
BRANCH  20  21
ATOM     21  C   UNL     1      20.284  44.964  35.329  1.00  0.00     0.053 C 
BRANCH  21  22
ATOM     22  C   UNL     1      20.234  46.237  34.545  1.00  0.00     0.041 C 
ATOM     23  O   UNL     1      20.418  46.222  33.299  1.00  0.00    -0.550 OA
ATOM     24  O   UNL     1      20.034  47.447  35.197  1.00  0.00    -0.550 OA
ENDBRANCH  21  22
ENDBRANCH  20  21
ENDBRANCH  19  20
ENDBRANCH  18  19
ENDBRANCH  17  18
ENDBRANCH  16  17
ENDBRANCH  15  16
ENDBRANCH  14  15
ENDBRANCH  13  14
ENDBRANCH   1  13
TORSDOF 20
ENDMDL
MODEL 2
REMARK VINA RESULT:    -5.616      4.716     11.502
REMARK INTER + INTRA:         -13.225
REMARK INTER:                 -12.408
REMARK INTRA:                  -0.817
REMARK UNBOUND:                -1.043
REMARK SMILES CCCCCCCCCCCCCCCCCCCCCC(=O)[O-]
REMARK SMILES IDX 12 1 11 2 10 3 9 4 8 5 7 6 6 7 5 8 4 9 3 10 2 11 1 12 13 13
REMARK SMILES IDX 14 14 15 15 16 16 17 17 18 18 19 19 20 20 21 21 22 22 23 23
REMARK SMILES IDX 24 24
REMARK H PARENT
REMARK Flexibility Score: inf
ROOT
ATOM      1  C   UNL     1      27.082  37.703  32.138  1.00  0.00     0.000 C 
ENDROOT
BRANCH   1   2
ATOM      2  C   UNL     1      27.425  38.061  33.595  1.00  0.00     0.000 C 
BRANCH   2   3
ATOM      3  C   UNL     1      28.175  39.396  33.720  1.00  0.00     0.000 C 
BRANCH   3   4
ATOM      4  C   UNL     1      27.201  40.550  34.010  1.00  0.00    -0.000 C 
BRANCH   4   5
ATOM      5  C   UNL     1      27.833  41.930  33.766  1.00  0.00    -0.000 C 
BRANCH   5   6
ATOM      6  C   UNL     1      27.962  42.757  35.055  1.00  0.00    -0.000 C 
BRANCH   6   7
ATOM      7  C   UNL     1      26.771  43.710  35.217  1.00  0.00    -0.000 C 
BRANCH   7   8
ATOM      8  C   UNL     1      25.513  42.949  35.663  1.00  0.00    -0.000 C 
BRANCH   8   9
ATOM      9  C   UNL     1      24.380  43.882  36.126  1.00  0.00    -0.000 C 
BRANCH   9  10
ATOM     10  C   UNL     1      23.103  43.829  35.266  1.00  0.00    -0.000 C 
BRANCH  10  11
ATOM     11  C   UNL     1      22.102  44.941  35.613  1.00  0.00    -0.003 C 
ATOM     12  C   UNL     1      22.487  45.639  36.914  1.00  0.00     0.004 C 
ENDBRANCH  10  11
ENDBRANCH   9  10
ENDBRANCH   8   9
ENDBRANCH   7   8
ENDBRANCH   6   7
ENDBRANCH   5   6
ENDBRANCH   4   5
ENDBRANCH   3   4
ENDBRANCH   2   3
ENDBRANCH   1   2
BRANCH   1  13
ATOM     13  C   UNL     1      27.888  36.529  31.545  1.00  0.00     0.000 C 
BRANCH  13  14
ATOM     14  C   UNL     1      28.105  35.341  32.499  1.00  0.00     0.000 C 
BRANCH  14  15
ATOM     15  C   UNL     1      28.034  33.983  31.786  1.00  0.00     0.000 C 
BRANCH  15  16
ATOM     16  C   UNL     1      26.740  33.863  30.964  1.00  0.00     0.000 C 
BRANCH  16  17
ATOM     17  C   UNL     1      26.993  33.400  29.521  1.00  0.00     0.000 C 
BRANCH  17  18
ATOM     18  C   UNL     1      25.817  32.595  28.939  1.00  0.00     0.000 C 
BRANCH  18  19
ATOM     19  C   UNL     1      24.468  32.993  29.569  1.00  0.00     0.000 C 
BRANCH  19  20
ATOM     20  C   UNL     1      23.242  32.396  28.853  1.00  0.00     0.006 C 
BRANCH  20  21
ATOM     21  C   UNL     1      22.996  30.929  29.231  1.00  0.00     0.053 C 
BRANCH  21  22
ATOM     22  C   UNL     1      21.606  30.749  29.751  1.00  0.00     0.041 C 
ATOM     23  O   UNL     1      20.949  29.714  29.462  1.00  0.00    -0.550 OA
ATOM     24  O   UNL     1      21.015  31.748  30.514  1.00  0.00    -0.550 OA
ENDBRANCH  21  22
ENDBRANCH  20  21
ENDBRANCH  19  20
ENDBRANCH  18  19
ENDBRANCH  17  18
ENDBRANCH  16  17
ENDBRANCH  15  16
ENDBRANCH  14  15
ENDBRANCH  13  14
ENDBRANCH   1  13
TORSDOF 20
ENDMDL
MODEL 3
REMARK VINA RESULT:    -5.551      4.827     11.143
REMARK INTER + INTRA:         -13.085
REMARK INTER:                 -11.693
REMARK INTRA:                  -1.392
REMARK UNBOUND:                -1.043
REMARK SMILES CCCCCCCCCCCCCCCCCCCCCC(=O)[O-]
REMARK SMILES IDX 12 1 11 2 10 3 9 4 8 5 7 6 6 7 5 8 4 9 3 10 2 11 1 12 13 13
REMARK SMILES IDX 14 14 15 15 16 16 17 17 18 18 19 19 20 20 21 21 22 22 23 23
REMARK SMILES IDX 24 24
REMARK H PARENT
REMARK Flexibility Score: inf
ROOT
ATOM      1  C   UNL     1      25.817  43.666  36.232  1.00  0.00     0.000 C 
ENDROOT
BRANCH   1   2
ATOM      2  C   UNL     1      24.848  42.587  35.716  1.00  0.00     0.000 C 
BRANCH   2   3
ATOM      3  C   UNL     1      23.560  43.177  35.121  1.00  0.00     0.000 C 
BRANCH   3   4
ATOM      4  C   UNL     1      23.192  44.502  35.807  1.00  0.00    -0.000 C 
BRANCH   4   5
ATOM      5  C   UNL     1      21.771  44.974  35.457  1.00  0.00    -0.000 C 
BRANCH   5   6
ATOM      6  C   UNL     1      20.777  44.759  36.608  1.00  0.00    -0.000 C 
BRANCH   6   7
ATOM      7  C   UNL     1      19.452  45.480  36.330  1.00  0.00    -0.000 C 
BRANCH   7   8
ATOM      8  C   UNL     1      18.334  44.477  36.010  1.00  0.00    -0.000 C 
BRANCH   8   9
ATOM      9  C   UNL     1      18.117  44.281  34.499  1.00  0.00    -0.000 C 
BRANCH   9  10
ATOM     10  C   UNL     1      18.265  45.559  33.652  1.00  0.00    -0.000 C 
BRANCH  10  11
ATOM     11  C   UNL     1      19.517  45.545  32.763  1.00  0.00    -0.003 C 
ATOM     12  C   UNL     1      20.126  46.939  32.651  1.00  0.00     0.004 C 
ENDBRANCH  10  11
ENDBRANCH   9  10
ENDBRANCH   8   9
ENDBRANCH   7   8
ENDBRANCH   6   7
ENDBRANCH   5   6
ENDBRANCH   4   5
ENDBRANCH   3   4
ENDBRANCH   2   3
ENDBRANCH   1   2
BRANCH   1  13
ATOM     13  C   UNL     1      27.251  43.581  35.671  1.00  0.00     0.000 C 
BRANCH  13  14
ATOM     14  C   UNL     1      27.392  42.786  34.362  1.00  0.00     0.000 C 
BRANCH  14  15
ATOM     15  C   UNL     1      28.029  41.403  34.569  1.00  0.00     0.000 C 
BRANCH  15  16
ATOM     16  C   UNL     1      27.478  40.389  33.554  1.00  0.00     0.000 C 
BRANCH  16  17
ATOM     17  C   UNL     1      26.893  39.135  34.223  1.00  0.00     0.000 C 
BRANCH  17  18
ATOM     18  C   UNL     1      27.493  37.830  33.669  1.00  0.00     0.000 C 
BRANCH  18  19
ATOM     19  C   UNL     1      27.376  37.738  32.136  1.00  0.00     0.000 C 
BRANCH  19  20
ATOM     20  C   UNL     1      27.037  36.328  31.617  1.00  0.00     0.006 C 
BRANCH  20  21
ATOM     21  C   UNL     1      28.260  35.401  31.589  1.00  0.00     0.053 C 
BRANCH  21  22
ATOM     22  C   UNL     1      27.870  34.010  31.978  1.00  0.00     0.041 C 
ATOM     23  O   UNL     1      28.253  33.529  33.077  1.00  0.00    -0.550 OA
ATOM     24  O   UNL     1      27.127  33.226  31.104  1.00  0.00    -0.550 OA
ENDBRANCH  21  22
ENDBRANCH  20  21
ENDBRANCH  19  20
ENDBRANCH  18  19
ENDBRANCH  17  18
ENDBRANCH  16  17
ENDBRANCH  15  16
ENDBRANCH  14  15
ENDBRANCH  13  14
ENDBRANCH   1  13
TORSDOF 20
ENDMDL
MODEL 4
REMARK VINA RESULT:    -5.544      1.262      2.333
REMARK INTER + INTRA:         -13.070
REMARK INTER:                 -12.018
REMARK INTRA:                  -1.052
REMARK UNBOUND:                -1.043
REMARK SMILES CCCCCCCCCCCCCCCCCCCCCC(=O)[O-]
REMARK SMILES IDX 12 1 11 2 10 3 9 4 8 5 7 6 6 7 5 8 4 9 3 10 2 11 1 12 13 13
REMARK SMILES IDX 14 14 15 15 16 16 17 17 18 18 19 19 20 20 21 21 22 22 23 23
REMARK SMILES IDX 24 24
REMARK H PARENT
REMARK Flexibility Score: inf
ROOT
ATOM      1  C   UNL     1      26.386  42.100  34.430  1.00  0.00     0.000 C 
ENDROOT
BRANCH   1   2
ATOM      2  C   UNL     1      27.583  41.372  33.793  1.00  0.00     0.000 C 
BRANCH   2   3
ATOM      3  C   UNL     1      27.501  39.845  33.942  1.00  0.00     0.000 C 
BRANCH   3   4
ATOM      4  C   UNL     1      27.888  39.142  32.632  1.00  0.00    -0.000 C 
BRANCH   4   5
ATOM      5  C   UNL     1      27.022  37.903  32.349  1.00  0.00    -0.000 C 
BRANCH   5   6
ATOM      6  C   UNL     1      27.829  36.741  31.751  1.00  0.00    -0.000 C 
BRANCH   6   7
ATOM      7  C   UNL     1      27.982  35.601  32.766  1.00  0.00    -0.000 C 
BRANCH   7   8
ATOM      8  C   UNL     1      28.682  34.388  32.132  1.00  0.00    -0.000 C 
BRANCH   8   9
ATOM      9  C   UNL     1      27.697  33.297  31.676  1.00  0.00    -0.000 C 
BRANCH   9  10
ATOM     10  C   UNL     1      27.217  33.424  30.218  1.00  0.00    -0.000 C 
BRANCH  10  11
ATOM     11  C   UNL     1      25.882  34.173  30.092  1.00  0.00    -0.003 C 
ATOM     12  C   UNL     1      24.720  33.198  29.926  1.00  0.00     0.004 C 
ENDBRANCH  10  11
ENDBRANCH   9  10
ENDBRANCH   8   9
ENDBRANCH   7   8
ENDBRANCH   6   7
ENDBRANCH   5   6
ENDBRANCH   4   5
ENDBRANCH   3   4
ENDBRANCH   2   3
ENDBRANCH   1   2
BRANCH   1  13
ATOM     13  C   UNL     1      26.754  43.215  35.431  1.00  0.00     0.000 C 
BRANCH  13  14
ATOM     14  C   UNL     1      25.589  43.719  36.300  1.00  0.00     0.000 C 
BRANCH  14  15
ATOM     15  C   UNL     1      24.233  43.641  35.583  1.00  0.00     0.000 C 
BRANCH  15  16
ATOM     16  C   UNL     1      23.205  44.567  36.253  1.00  0.00     0.000 C 
BRANCH  16  17
ATOM     17  C   UNL     1      21.919  44.725  35.427  1.00  0.00     0.000 C 
BRANCH  17  18
ATOM     18  C   UNL     1      20.823  45.507  36.174  1.00  0.00     0.000 C 
BRANCH  18  19
ATOM     19  C   UNL     1      20.667  46.944  35.643  1.00  0.00     0.000 C 
BRANCH  19  20
ATOM     20  C   UNL     1      21.127  47.127  34.184  1.00  0.00     0.006 C 
BRANCH  20  21
ATOM     21  C   UNL     1      19.958  47.101  33.191  1.00  0.00     0.053 C 
BRANCH  21  22
ATOM     22  C   UNL     1      19.790  45.730  32.617  1.00  0.00     0.041 C 
ATOM     23  O   UNL     1      20.669  45.250  31.853  1.00  0.00    -0.550 OA
ATOM     24  O   UNL     1      18.639  45.001  32.885  1.00  0.00    -0.550 OA
ENDBRANCH  21  22
ENDBRANCH  20  21
ENDBRANCH  19  20
ENDBRANCH  18  19
ENDBRANCH  17  18
ENDBRANCH  16  17
ENDBRANCH  15  16
ENDBRANCH  14  15
ENDBRANCH  13  14
ENDBRANCH   1  13
TORSDOF 20
ENDMDL
MODEL 5
REMARK VINA RESULT:    -5.538      4.207     11.007
REMARK INTER + INTRA:         -13.057
REMARK INTER:                 -11.156
REMARK INTRA:                  -1.902
REMARK UNBOUND:                -1.043
REMARK SMILES CCCCCCCCCCCCCCCCCCCCCC(=O)[O-]
REMARK SMILES IDX 12 1 11 2 10 3 9 4 8 5 7 6 6 7 5 8 4 9 3 10 2 11 1 12 13 13
REMARK SMILES IDX 14 14 15 15 16 16 17 17 18 18 19 19 20 20 21 21 22 22 23 23
REMARK SMILES IDX 24 24
REMARK H PARENT
REMARK Flexibility Score: inf
ROOT
ATOM      1  C   UNL     1      23.006  43.887  35.296  1.00  0.00     0.000 C 
ENDROOT
BRANCH   1   2
ATOM      2  C   UNL     1      21.871  44.699  35.944  1.00  0.00     0.000 C 
BRANCH   2   3
ATOM      3  C   UNL     1      21.901  46.184  35.554  1.00  0.00     0.000 C 
BRANCH   3   4
ATOM      4  C   UNL     1      20.531  46.842  35.781  1.00  0.00    -0.000 C 
BRANCH   4   5
ATOM      5  C   UNL     1      20.068  47.674  34.575  1.00  0.00    -0.000 C 
BRANCH   5   6
ATOM      6  C   UNL     1      20.648  47.164  33.246  1.00  0.00    -0.000 C 
BRANCH   6   7
ATOM      7  C   UNL     1      19.645  46.256  32.523  1.00  0.00    -0.000 C 
BRANCH   7   8
ATOM      8  C   UNL     1      18.200  46.633  32.884  1.00  0.00    -0.000 C 
BRANCH   8   9
ATOM      9  C   UNL     1      17.316  45.408  33.178  1.00  0.00    -0.000 C 
BRANCH   9  10
ATOM     10  C   UNL     1      18.045  44.228  33.849  1.00  0.00    -0.000 C 
BRANCH  10  11
ATOM     11  C   UNL     1      17.932  44.249  35.380  1.00  0.00    -0.003 C 
ATOM     12  C   UNL     1      16.696  45.024  35.829  1.00  0.00     0.004 C 
ENDBRANCH  10  11
ENDBRANCH   9  10
ENDBRANCH   8   9
ENDBRANCH   7   8
ENDBRANCH   6   7
ENDBRANCH   5   6
ENDBRANCH   4   5
ENDBRANCH   3   4
ENDBRANCH   2   3
ENDBRANCH   1   2
BRANCH   1  13
ATOM     13  C   UNL     1      24.293  43.771  36.139  1.00  0.00     0.000 C 
BRANCH  13  14
ATOM     14  C   UNL     1      25.428  42.963  35.486  1.00  0.00     0.000 C 
BRANCH  14  15
ATOM     15  C   UNL     1      26.817  43.560  35.755  1.00  0.00     0.000 C 
BRANCH  15  16
ATOM     16  C   UNL     1      27.918  42.695  35.120  1.00  0.00     0.000 C 
BRANCH  16  17
ATOM     17  C   UNL     1      27.835  42.657  33.586  1.00  0.00     0.000 C 
BRANCH  17  18
ATOM     18  C   UNL     1      27.486  41.260  33.043  1.00  0.00     0.000 C 
BRANCH  18  19
ATOM     19  C   UNL     1      27.685  40.157  34.099  1.00  0.00     0.000 C 
BRANCH  19  20
ATOM     20  C   UNL     1      27.175  38.771  33.661  1.00  0.00     0.006 C 
BRANCH  20  21
ATOM     21  C   UNL     1      27.772  38.321  32.320  1.00  0.00     0.053 C 
BRANCH  21  22
ATOM     22  C   UNL     1      27.353  36.920  32.006  1.00  0.00     0.041 C 
ATOM     23  O   UNL     1      26.230  36.697  31.480  1.00  0.00    -0.550 OA
ATOM     24  O   UNL     1      28.180  35.855  32.340  1.00  0.00    -0.550 OA
ENDBRANCH  21  22
ENDBRANCH  20  21
ENDBRANCH  19  20
ENDBRANCH  18  19
ENDBRANCH  17  18
ENDBRANCH  16  17
ENDBRANCH  15  16
ENDBRANCH  14  15
ENDBRANCH  13  14
ENDBRANCH   1  13
TORSDOF 20
ENDMDL
MODEL 6
REMARK VINA RESULT:    -5.466      4.175     11.224
REMARK INTER + INTRA:         -12.901
REMARK INTER:                 -11.167
REMARK INTRA:                  -1.734
REMARK UNBOUND:                -1.043
REMARK SMILES CCCCCCCCCCCCCCCCCCCCCC(=O)[O-]
REMARK SMILES IDX 12 1 11 2 10 3 9 4 8 5 7 6 6 7 5 8 4 9 3 10 2 11 1 12 13 13
REMARK SMILES IDX 14 14 15 15 16 16 17 17 18 18 19 19 20 20 21 21 22 22 23 23
REMARK SMILES IDX 24 24
REMARK H PARENT
REMARK Flexibility Score: inf
ROOT
ATOM      1  C   UNL     1      24.831  42.879  35.873  1.00  0.00     0.000 C 
ENDROOT
BRANCH   1   2
ATOM      2  C   UNL     1      24.083  44.195  35.599  1.00  0.00     0.000 C 
BRANCH   2   3
ATOM      3  C   UNL     1      22.589  43.984  35.312  1.00  0.00     0.000 C 
BRANCH   3   4
ATOM      4  C   UNL     1      21.722  44.864  36.227  1.00  0.00    -0.000 C 
BRANCH   4   5
ATOM      5  C   UNL     1      21.978  46.365  36.017  1.00  0.00    -0.000 C 
BRANCH   5   6
ATOM      6  C   UNL     1      20.791  47.081  35.354  1.00  0.00    -0.000 C 
BRANCH   6   7
ATOM      7  C   UNL     1      21.018  47.239  33.846  1.00  0.00    -0.000 C 
BRANCH   7   8
ATOM      8  C   UNL     1      19.739  46.915  33.059  1.00  0.00    -0.000 C 
BRANCH   8   9
ATOM      9  C   UNL     1      19.393  45.415  33.065  1.00  0.00    -0.000 C 
BRANCH   9  10
ATOM     10  C   UNL     1      18.005  45.072  33.637  1.00  0.00    -0.000 C 
BRANCH  10  11
ATOM     11  C   UNL     1      18.074  44.115  34.836  1.00  0.00    -0.003 C 
ATOM     12  C   UNL     1      17.934  44.873  36.152  1.00  0.00     0.004 C 
ENDBRANCH  10  11
ENDBRANCH   9  10
ENDBRANCH   8   9
ENDBRANCH   7   8
ENDBRANCH   6   7
ENDBRANCH   5   6
ENDBRANCH   4   5
ENDBRANCH   3   4
ENDBRANCH   2   3
ENDBRANCH   1   2
BRANCH   1  13
ATOM     13  C   UNL     1      26.222  42.767  35.216  1.00  0.00     0.000 C 
BRANCH  13  14
ATOM     14  C   UNL     1      26.453  41.484  34.399  1.00  0.00     0.000 C 
BRANCH  14  15
ATOM     15  C   UNL     1      27.512  41.659  33.300  1.00  0.00     0.000 C 
BRANCH  15  16
ATOM     16  C   UNL     1      27.965  40.296  32.753  1.00  0.00     0.000 C 
BRANCH  16  17
ATOM     17  C   UNL     1      28.166  39.248  33.858  1.00  0.00     0.000 C 
BRANCH  17  18
ATOM     18  C   UNL     1      27.619  37.862  33.471  1.00  0.00     0.000 C 
BRANCH  18  19
ATOM     19  C   UNL     1      27.313  37.755  31.965  1.00  0.00     0.000 C 
BRANCH  19  20
ATOM     20  C   UNL     1      27.948  36.529  31.282  1.00  0.00     0.006 C 
BRANCH  20  21
ATOM     21  C   UNL     1      27.323  35.206  31.748  1.00  0.00     0.053 C 
BRANCH  21  22
ATOM     22  C   UNL     1      26.505  34.601  30.652  1.00  0.00     0.041 C 
ATOM     23  O   UNL     1      25.384  35.091  30.353  1.00  0.00    -0.550 OA
ATOM     24  O   UNL     1      26.957  33.464  29.995  1.00  0.00    -0.550 OA
ENDBRANCH  21  22
ENDBRANCH  20  21
ENDBRANCH  19  20
ENDBRANCH  18  19
ENDBRANCH  17  18
ENDBRANCH  16  17
ENDBRANCH  15  16
ENDBRANCH  14  15
ENDBRANCH  13  14
ENDBRANCH   1  13
TORSDOF 20
ENDMDL
MODEL 7
REMARK VINA RESULT:    -5.462      4.640     11.148
REMARK INTER + INTRA:         -12.891
REMARK INTER:                 -11.774
REMARK INTRA:                  -1.117
REMARK UNBOUND:                -1.043
REMARK SMILES CCCCCCCCCCCCCCCCCCCCCC(=O)[O-]
REMARK SMILES IDX 12 1 11 2 10 3 9 4 8 5 7 6 6 7 5 8 4 9 3 10 2 11 1 12 13 13
REMARK SMILES IDX 14 14 15 15 16 16 17 17 18 18 19 19 20 20 21 21 22 22 23 23
REMARK SMILES IDX 24 24
REMARK H PARENT
REMARK Flexibility Score: inf
ROOT
ATOM      1  C   UNL     1      27.861  36.559  31.077  1.00  0.00     0.000 C 
ENDROOT
BRANCH   1   2
ATOM      2  C   UNL     1      27.164  37.449  32.122  1.00  0.00     0.000 C 
BRANCH   2   3
ATOM      3  C   UNL     1      27.400  36.973  33.564  1.00  0.00     0.000 C 
BRANCH   3   4
ATOM      4  C   UNL     1      27.317  38.146  34.552  1.00  0.00    -0.000 C 
BRANCH   4   5
ATOM      5  C   UNL     1      27.915  39.443  33.982  1.00  0.00    -0.000 C 
BRANCH   5   6
ATOM      6  C   UNL     1      26.958  40.639  34.103  1.00  0.00    -0.000 C 
BRANCH   6   7
ATOM      7  C   UNL     1      27.662  41.946  33.717  1.00  0.00    -0.000 C 
BRANCH   7   8
ATOM      8  C   UNL     1      28.016  42.771  34.964  1.00  0.00    -0.000 C 
BRANCH   8   9
ATOM      9  C   UNL     1      27.010  43.902  35.241  1.00  0.00    -0.000 C 
BRANCH   9  10
ATOM     10  C   UNL     1      25.880  43.539  36.223  1.00  0.00    -0.000 C 
BRANCH  10  11
ATOM     11  C   UNL     1      24.552  43.229  35.516  1.00  0.00    -0.003 C 
ATOM     12  C   UNL     1      23.496  44.279  35.848  1.00  0.00     0.004 C 
ENDBRANCH  10  11
ENDBRANCH   9  10
ENDBRANCH   8   9
ENDBRANCH   7   8
ENDBRANCH   6   7
ENDBRANCH   5   6
ENDBRANCH   4   5
ENDBRANCH   3   4
ENDBRANCH   2   3
ENDBRANCH   1   2
BRANCH   1  13
ATOM     13  C   UNL     1      28.504  35.273  31.636  1.00  0.00     0.000 C 
BRANCH  13  14
ATOM     14  C   UNL     1      28.469  34.063  30.685  1.00  0.00     0.000 C 
BRANCH  14  15
ATOM     15  C   UNL     1      27.310  34.129  29.679  1.00  0.00     0.000 C 
BRANCH  15  16
ATOM     16  C   UNL     1      26.274  33.030  29.963  1.00  0.00     0.000 C 
BRANCH  16  17
ATOM     17  C   UNL     1      24.827  33.537  29.864  1.00  0.00     0.000 C 
BRANCH  17  18
ATOM     18  C   UNL     1      23.967  32.699  28.900  1.00  0.00     0.000 C 
BRANCH  18  19
ATOM     19  C   UNL     1      22.620  32.290  29.525  1.00  0.00     0.000 C 
BRANCH  19  20
ATOM     20  C   UNL     1      21.620  31.687  28.519  1.00  0.00     0.006 C 
BRANCH  20  21
ATOM     21  C   UNL     1      20.257  31.382  29.155  1.00  0.00     0.053 C 
BRANCH  21  22
ATOM     22  C   UNL     1      19.156  32.001  28.354  1.00  0.00     0.041 C 
ATOM     23  O   UNL     1      18.476  32.945  28.834  1.00  0.00    -0.550 OA
ATOM     24  O   UNL     1      18.847  31.500  27.095  1.00  0.00    -0.550 OA
ENDBRANCH  21  22
ENDBRANCH  20  21
ENDBRANCH  19  20
ENDBRANCH  18  19
ENDBRANCH  17  18
ENDBRANCH  16  17
ENDBRANCH  15  16
ENDBRANCH  14  15
ENDBRANCH  13  14
ENDBRANCH   1  13
TORSDOF 20
ENDMDL
MODEL 8
REMARK VINA RESULT:    -5.442      4.617     11.664
REMARK INTER + INTRA:         -12.848
REMARK INTER:                 -12.087
REMARK INTRA:                  -0.761
REMARK UNBOUND:                -1.043
REMARK SMILES CCCCCCCCCCCCCCCCCCCCCC(=O)[O-]
REMARK SMILES IDX 12 1 11 2 10 3 9 4 8 5 7 6 6 7 5 8 4 9 3 10 2 11 1 12 13 13
REMARK SMILES IDX 14 14 15 15 16 16 17 17 18 18 19 19 20 20 21 21 22 22 23 23
REMARK SMILES IDX 24 24
REMARK H PARENT
REMARK Flexibility Score: inf
ROOT
ATOM      1  C   UNL     1      27.837  40.352  33.610  1.00  0.00     0.000 C 
ENDROOT
BRANCH   1   2
ATOM      2  C   UNL     1      26.948  41.385  34.324  1.00  0.00     0.000 C 
BRANCH   2   3
ATOM      3  C   UNL     1      27.638  42.747  34.499  1.00  0.00     0.000 C 
BRANCH   3   4
ATOM      4  C   UNL     1      26.803  43.677  35.393  1.00  0.00    -0.000 C 
BRANCH   4   5
ATOM      5  C   UNL     1      25.466  43.047  35.815  1.00  0.00    -0.000 C 
BRANCH   5   6
ATOM      6  C   UNL     1      24.381  44.097  36.103  1.00  0.00    -0.000 C 
BRANCH   6   7
ATOM      7  C   UNL     1      23.095  43.784  35.329  1.00  0.00    -0.000 C 
BRANCH   7   8
ATOM      8  C   UNL     1      22.149  44.994  35.319  1.00  0.00    -0.000 C 
BRANCH   8   9
ATOM      9  C   UNL     1      21.461  45.229  36.676  1.00  0.00    -0.000 C 
BRANCH   9  10
ATOM     10  C   UNL     1      19.970  44.847  36.723  1.00  0.00    -0.000 C 
BRANCH  10  11
ATOM     11  C   UNL     1      19.472  44.555  38.146  1.00  0.00    -0.003 C 
ATOM     12  C   UNL     1      18.037  44.037  38.130  1.00  0.00     0.004 C 
ENDBRANCH  10  11
ENDBRANCH   9  10
ENDBRANCH   8   9
ENDBRANCH   7   8
ENDBRANCH   6   7
ENDBRANCH   5   6
ENDBRANCH   4   5
ENDBRANCH   3   4
ENDBRANCH   2   3
ENDBRANCH   1   2
BRANCH   1  13
ATOM     13  C   UNL     1      27.311  38.902  33.640  1.00  0.00     0.000 C 
BRANCH  13  14
ATOM     14  C   UNL     1      27.507  38.112  32.335  1.00  0.00     0.000 C 
BRANCH  14  15
ATOM     15  C   UNL     1      27.633  36.599  32.567  1.00  0.00     0.000 C 
BRANCH  15  16
ATOM     16  C   UNL     1      28.041  35.878  31.272  1.00  0.00     0.000 C 
BRANCH  16  17
ATOM     17  C   UNL     1      28.597  34.468  31.527  1.00  0.00     0.000 C 
BRANCH  17  18
ATOM     18  C   UNL     1      27.744  33.365  30.875  1.00  0.00     0.000 C 
BRANCH  18  19
ATOM     19  C   UNL     1      26.673  33.938  29.928  1.00  0.00     0.000 C 
BRANCH  19  20
ATOM     20  C   UNL     1      25.352  33.145  29.922  1.00  0.00     0.006 C 
BRANCH  20  21
ATOM     21  C   UNL     1      25.181  32.296  28.655  1.00  0.00     0.053 C 
BRANCH  21  22
ATOM     22  C   UNL     1      23.752  32.294  28.217  1.00  0.00     0.041 C 
ATOM     23  O   UNL     1      23.464  32.306  26.990  1.00  0.00    -0.550 OA
ATOM     24  O   UNL     1      22.735  32.332  29.162  1.00  0.00    -0.550 OA
ENDBRANCH  21  22
ENDBRANCH  20  21
ENDBRANCH  19  20
ENDBRANCH  18  19
ENDBRANCH  17  18
ENDBRANCH  16  17
ENDBRANCH  15  16
ENDBRANCH  14  15
ENDBRANCH  13  14
ENDBRANCH   1  13
TORSDOF 20
ENDMDL
MODEL 9
REMARK VINA RESULT:    -5.428      4.401     11.484
REMARK INTER + INTRA:         -12.819
REMARK INTER:                 -10.621
REMARK INTRA:                  -2.198
REMARK UNBOUND:                -1.043
REMARK SMILES CCCCCCCCCCCCCCCCCCCCCC(=O)[O-]
REMARK SMILES IDX 12 1 11 2 10 3 9 4 8 5 7 6 6 7 5 8 4 9 3 10 2 11 1 12 13 13
REMARK SMILES IDX 14 14 15 15 16 16 17 17 18 18 19 19 20 20 21 21 22 22 23 23
REMARK SMILES IDX 24 24
REMARK H PARENT
REMARK Flexibility Score: inf
ROOT
ATOM      1  C   UNL     1      23.245  43.822  35.143  1.00  0.00     0.000 C 
ENDROOT
BRANCH   1   2
ATOM      2  C   UNL     1      22.090  44.540  35.864  1.00  0.00     0.000 C 
BRANCH   2   3
ATOM      3  C   UNL     1      22.577  45.572  36.892  1.00  0.00     0.000 C 
BRANCH   3   4
ATOM      4  C   UNL     1      21.547  45.759  38.016  1.00  0.00    -0.000 C 
BRANCH   4   5
ATOM      5  C   UNL     1      20.210  45.062  37.714  1.00  0.00    -0.000 C 
BRANCH   5   6
ATOM      6  C   UNL     1      19.013  46.023  37.783  1.00  0.00    -0.000 C 
BRANCH   6   7
ATOM      7  C   UNL     1      19.472  47.481  37.659  1.00  0.00    -0.000 C 
BRANCH   7   8
ATOM      8  C   UNL     1      19.137  48.049  36.271  1.00  0.00    -0.000 C 
BRANCH   8   9
ATOM      9  C   UNL     1      20.389  48.399  35.447  1.00  0.00    -0.000 C 
BRANCH   9  10
ATOM     10  C   UNL     1      20.678  47.449  34.270  1.00  0.00    -0.000 C 
BRANCH  10  11
ATOM     11  C   UNL     1      19.536  46.456  34.009  1.00  0.00    -0.003 C 
ATOM     12  C   UNL     1      19.839  45.577  32.800  1.00  0.00     0.004 C 
ENDBRANCH  10  11
ENDBRANCH   9  10
ENDBRANCH   8   9
ENDBRANCH   7   8
ENDBRANCH   6   7
ENDBRANCH   5   6
ENDBRANCH   4   5
ENDBRANCH   3   4
ENDBRANCH   2   3
ENDBRANCH   1   2
BRANCH   1  13
ATOM     13  C   UNL     1      24.511  43.598  35.996  1.00  0.00     0.000 C 
BRANCH  13  14
ATOM     14  C   UNL     1      25.447  42.486  35.490  1.00  0.00     0.000 C 
BRANCH  14  15
ATOM     15  C   UNL     1      26.857  42.998  35.162  1.00  0.00     0.000 C 
BRANCH  15  16
ATOM     16  C   UNL     1      27.703  41.893  34.509  1.00  0.00     0.000 C 
BRANCH  16  17
ATOM     17  C   UNL     1      27.618  41.906  32.975  1.00  0.00     0.000 C 
BRANCH  17  18
ATOM     18  C   UNL     1      27.977  40.548  32.347  1.00  0.00     0.000 C 
BRANCH  18  19
ATOM     19  C   UNL     1      28.188  39.451  33.408  1.00  0.00     0.000 C 
BRANCH  19  20
ATOM     20  C   UNL     1      27.132  38.329  33.368  1.00  0.00     0.006 C 
BRANCH  20  21
ATOM     21  C   UNL     1      27.453  37.257  32.318  1.00  0.00     0.053 C 
BRANCH  21  22
ATOM     22  C   UNL     1      27.420  35.895  32.935  1.00  0.00     0.041 C 
ATOM     23  O   UNL     1      27.320  35.767  34.184  1.00  0.00    -0.550 OA
ATOM     24  O   UNL     1      27.551  34.767  32.136  1.00  0.00    -0.550 OA
ENDBRANCH  21  22
ENDBRANCH  20  21
ENDBRANCH  19  20
ENDBRANCH  18  19
ENDBRANCH  17  18
ENDBRANCH  16  17
ENDBRANCH  15  16
ENDBRANCH  14  15
ENDBRANCH  13  14
ENDBRANCH   1  13
TORSDOF 20
ENDMDL
