MODEL 1
REMARK VINA RESULT:    -4.615      0.000      0.000
REMARK INTER + INTRA:         -15.478
REMARK INTER:                 -12.170
REMARK INTRA:                  -3.308
REMARK UNBOUND:                -3.308
REMARK SMILES CCCCCCCCCCCCCCCCCCCCCCCCCCCCCC(=O)[O-]
REMARK SMILES IDX 16 1 17 2 18 3 19 4 20 5 21 6 22 7 23 8 24 9 25 10 26 11
REMARK SMILES IDX 27 12 28 13 29 14 30 15 31 16 32 17 15 18 14 19 13 20 12 21
REMARK SMILES IDX 11 22 10 23 9 24 8 25 7 26 6 27 5 28 4 29 3 30 2 31 1 32
REMARK H PARENT
REMARK Flexibility Score: inf
ROOT
ATOM      1  C   UNL     1      23.629   1.646  11.900  1.00  0.00     0.000 C 
ENDROOT
BRANCH   1   2
ATOM      2  C   UNL     1      23.842   1.118  13.332  1.00  0.00     0.000 C 
BRANCH   2   3
ATOM      3  C   UNL     1      23.059   1.867  14.429  1.00  0.00     0.000 C 
BRANCH   3   4
ATOM      4  C   UNL     1      23.895   2.136  15.694  1.00  0.00     0.000 C 
BRANCH   4   5
ATOM      5  C   UNL     1      23.517   1.201  16.863  1.00  0.00     0.000 C 
BRANCH   5   6
ATOM      6  C   UNL     1      22.564   0.063  16.457  1.00  0.00     0.000 C 
BRANCH   6   7
ATOM      7  C   UNL     1      22.436  -1.026  17.537  1.00  0.00     0.000 C 
BRANCH   7   8
ATOM      8  C   UNL     1      23.392  -0.792  18.725  1.00  0.00     0.000 C 
BRANCH   8   9
ATOM      9  C   UNL     1      24.436  -1.907  18.913  1.00  0.00     0.000 C 
BRANCH   9  10
ATOM     10  C   UNL     1      25.236  -2.206  17.637  1.00  0.00     0.000 C 
BRANCH  10  11
ATOM     11  C   UNL     1      25.303  -3.717  17.366  1.00  0.00     0.000 C 
BRANCH  11  12
ATOM     12  C   UNL     1      25.041  -4.569  18.622  1.00  0.00     0.000 C 
BRANCH  12  13
ATOM     13  C   UNL     1      24.242  -5.867  18.382  1.00  0.00     0.006 C 
BRANCH  13  14
ATOM     14  C   UNL     1      23.053  -5.722  17.420  1.00  0.00     0.053 C 
BRANCH  14  15
ATOM     15  C   UNL     1      22.584  -7.045  16.895  1.00  0.00     0.041 C 
ATOM     16  O   UNL     1      21.609  -7.632  17.433  1.00  0.00    -0.550 OA
ATOM     17  O   UNL     1      23.219  -7.628  15.806  1.00  0.00    -0.550 OA
ENDBRANCH  14  15
ENDBRANCH  13  14
ENDBRANCH  12  13
ENDBRANCH  11  12
ENDBRANCH  10  11
ENDBRANCH   9  10
ENDBRANCH   8   9
ENDBRANCH   7   8
ENDBRANCH   6   7
ENDBRANCH   5   6
ENDBRANCH   4   5
ENDBRANCH   3   4
ENDBRANCH   2   3
ENDBRANCH   1   2
BRANCH   1  18
ATOM     18  C   UNL     1      24.563   0.991  10.867  1.00  0.00     0.000 C 
BRANCH  18  19
ATOM     19  C   UNL     1      25.117  -0.373  11.334  1.00  0.00     0.000 C 
BRANCH  19  20
ATOM     20  C   UNL     1      26.274  -0.926  10.478  1.00  0.00     0.000 C 
BRANCH  20  21
ATOM     21  C   UNL     1      27.455   0.034  10.251  1.00  0.00     0.000 C 
BRANCH  21  22
ATOM     22  C   UNL     1      28.826  -0.644  10.045  1.00  0.00     0.000 C 
BRANCH  22  23
ATOM     23  C   UNL     1      29.118  -1.097   8.602  1.00  0.00     0.000 C 
BRANCH  23  24
ATOM     24  C   UNL     1      28.947  -2.607   8.353  1.00  0.00    -0.000 C 
BRANCH  24  25
ATOM     25  C   UNL     1      28.357  -2.915   6.968  1.00  0.00    -0.000 C 
BRANCH  25  26
ATOM     26  C   UNL     1      27.511  -1.745   6.453  1.00  0.00    -0.000 C 
BRANCH  26  27
ATOM     27  C   UNL     1      26.015  -2.092   6.497  1.00  0.00    -0.000 C 
BRANCH  27  28
ATOM     28  C   UNL     1      25.147  -0.954   7.061  1.00  0.00    -0.000 C 
BRANCH  28  29
ATOM     29  C   UNL     1      25.386   0.427   6.421  1.00  0.00    -0.000 C 
BRANCH  29  30
ATOM     30  C   UNL     1      25.853   1.486   7.437  1.00  0.00    -0.000 C 
BRANCH  30  31
ATOM     31  C   UNL     1      26.794   2.526   6.812  1.00  0.00    -0.003 C 
ATOM     32  C   UNL     1      28.028   1.893   6.167  1.00  0.00     0.004 C 
ENDBRANCH  30  31
ENDBRANCH  29  30
ENDBRANCH  28  29
ENDBRANCH  27  28
ENDBRANCH  26  27
ENDBRANCH  25  26
ENDBRANCH  24  25
ENDBRANCH  23  24
ENDBRANCH  22  23
ENDBRANCH  21  22
ENDBRANCH  20  21
ENDBRANCH  19  20
ENDBRANCH  18  19
ENDBRANCH   1  18
TORSDOF 28
ENDMDL
MODEL 2
REMARK VINA RESULT:    -4.586      6.938      9.819
REMARK INTER + INTRA:         -15.400
REMARK INTER:                 -10.147
REMARK INTRA:                  -5.253
REMARK UNBOUND:                -3.308
REMARK SMILES CCCCCCCCCCCCCCCCCCCCCCCCCCCCCC(=O)[O-]
REMARK SMILES IDX 16 1 17 2 18 3 19 4 20 5 21 6 22 7 23 8 24 9 25 10 26 11
REMARK SMILES IDX 27 12 28 13 29 14 30 15 31 16 32 17 15 18 14 19 13 20 12 21
REMARK SMILES IDX 11 22 10 23 9 24 8 25 7 26 6 27 5 28 4 29 3 30 2 31 1 32
REMARK H PARENT
REMARK Flexibility Score: inf
ROOT
ATOM      1  C   UNL     1      21.528  -2.985  19.041  1.00  0.00     0.000 C 
ENDROOT
BRANCH   1   2
ATOM      2  C   UNL     1      22.135  -4.287  19.599  1.00  0.00     0.000 C 
BRANCH   2   3
ATOM      3  C   UNL     1      21.914  -5.538  18.725  1.00  0.00     0.000 C 
BRANCH   3   4
ATOM      4  C   UNL     1      21.806  -5.217  17.223  1.00  0.00     0.000 C 
BRANCH   4   5
ATOM      5  C   UNL     1      20.895  -6.211  16.470  1.00  0.00     0.000 C 
BRANCH   5   6
ATOM      6  C   UNL     1      20.048  -7.096  17.401  1.00  0.00     0.000 C 
BRANCH   6   7
ATOM      7  C   UNL     1      19.538  -8.374  16.714  1.00  0.00     0.000 C 
BRANCH   7   8
ATOM      8  C   UNL     1      19.817  -9.643  17.547  1.00  0.00     0.000 C 
BRANCH   8   9
ATOM      9  C   UNL     1      20.710 -10.673  16.833  1.00  0.00     0.000 C 
BRANCH   9  10
ATOM     10  C   UNL     1      20.329 -12.125  17.152  1.00  0.00     0.000 C 
BRANCH  10  11
ATOM     11  C   UNL     1      20.721 -13.066  16.001  1.00  0.00     0.000 C 
BRANCH  11  12
ATOM     12  C   UNL     1      21.735 -12.440  15.027  1.00  0.00     0.000 C 
BRANCH  12  13
ATOM     13  C   UNL     1      23.195 -12.907  15.206  1.00  0.00     0.006 C 
BRANCH  13  14
ATOM     14  C   UNL     1      24.138 -11.853  15.806  1.00  0.00     0.053 C 
BRANCH  14  15
ATOM     15  C   UNL     1      25.529 -12.379  15.995  1.00  0.00     0.041 C 
ATOM     16  O   UNL     1      26.331 -11.791  16.765  1.00  0.00    -0.550 OA
ATOM     17  O   UNL     1      25.939 -13.524  15.324  1.00  0.00    -0.550 OA
ENDBRANCH  14  15
ENDBRANCH  13  14
ENDBRANCH  12  13
ENDBRANCH  11  12
ENDBRANCH  10  11
ENDBRANCH   9  10
ENDBRANCH   8   9
ENDBRANCH   7   8
ENDBRANCH   6   7
ENDBRANCH   5   6
ENDBRANCH   4   5
ENDBRANCH   3   4
ENDBRANCH   2   3
ENDBRANCH   1   2
BRANCH   1  18
ATOM     18  C   UNL     1      22.552  -1.842  18.919  1.00  0.00     0.000 C 
BRANCH  18  19
ATOM     19  C   UNL     1      22.826  -1.432  17.456  1.00  0.00     0.000 C 
BRANCH  19  20
ATOM     20  C   UNL     1      23.913  -2.264  16.746  1.00  0.00     0.000 C 
BRANCH  20  21
ATOM     21  C   UNL     1      24.992  -2.872  17.660  1.00  0.00     0.000 C 
BRANCH  21  22
ATOM     22  C   UNL     1      25.597  -4.204  17.171  1.00  0.00     0.000 C 
BRANCH  22  23
ATOM     23  C   UNL     1      25.556  -5.354  18.196  1.00  0.00     0.000 C 
BRANCH  23  24
ATOM     24  C   UNL     1      25.367  -6.755  17.587  1.00  0.00    -0.000 C 
BRANCH  24  25
ATOM     25  C   UNL     1      24.950  -6.706  16.108  1.00  0.00    -0.000 C 
BRANCH  25  26
ATOM     26  C   UNL     1      24.129  -7.942  15.723  1.00  0.00    -0.000 C 
BRANCH  26  27
ATOM     27  C   UNL     1      23.697  -7.873  14.251  1.00  0.00    -0.000 C 
BRANCH  27  28
ATOM     28  C   UNL     1      22.787  -9.042  13.832  1.00  0.00    -0.000 C 
BRANCH  28  29
ATOM     29  C   UNL     1      21.285  -8.705  13.757  1.00  0.00    -0.000 C 
BRANCH  29  30
ATOM     30  C   UNL     1      20.528  -9.566  12.730  1.00  0.00    -0.000 C 
BRANCH  30  31
ATOM     31  C   UNL     1      19.372 -10.356  13.362  1.00  0.00    -0.003 C 
ATOM     32  C   UNL     1      18.100  -9.522  13.510  1.00  0.00     0.004 C 
ENDBRANCH  30  31
ENDBRANCH  29  30
ENDBRANCH  28  29
ENDBRANCH  27  28
ENDBRANCH  26  27
ENDBRANCH  25  26
ENDBRANCH  24  25
ENDBRANCH  23  24
ENDBRANCH  22  23
ENDBRANCH  21  22
ENDBRANCH  20  21
ENDBRANCH  19  20
ENDBRANCH  18  19
ENDBRANCH   1  18
TORSDOF 28
ENDMDL
MODEL 3
REMARK VINA RESULT:    -4.585      5.710      8.733
REMARK INTER + INTRA:         -15.399
REMARK INTER:                  -9.626
REMARK INTRA:                  -5.773
REMARK UNBOUND:                -3.308
REMARK SMILES CCCCCCCCCCCCCCCCCCCCCCCCCCCCCC(=O)[O-]
REMARK SMILES IDX 16 1 17 2 18 3 19 4 20 5 21 6 22 7 23 8 24 9 25 10 26 11
REMARK SMILES IDX 27 12 28 13 29 14 30 15 31 16 32 17 15 18 14 19 13 20 12 21
REMARK SMILES IDX 11 22 10 23 9 24 8 25 7 26 6 27 5 28 4 29 3 30 2 31 1 32
REMARK H PARENT
REMARK Flexibility Score: inf
ROOT
ATOM      1  C   UNL     1      26.640  -0.101  10.865  1.00  0.00     0.000 C 
ENDROOT
BRANCH   1   2
ATOM      2  C   UNL     1      26.035  -1.500  10.641  1.00  0.00     0.000 C 
BRANCH   2   3
ATOM      3  C   UNL     1      25.147  -1.636   9.388  1.00  0.00     0.000 C 
BRANCH   3   4
ATOM      4  C   UNL     1      25.507  -2.856   8.520  1.00  0.00     0.000 C 
BRANCH   4   5
ATOM      5  C   UNL     1      24.547  -3.036   7.324  1.00  0.00     0.000 C 
BRANCH   5   6
ATOM      6  C   UNL     1      23.540  -4.184   7.510  1.00  0.00     0.000 C 
BRANCH   6   7
ATOM      7  C   UNL     1      22.205  -3.935   6.788  1.00  0.00     0.000 C 
BRANCH   7   8
ATOM      8  C   UNL     1      22.378  -3.799   5.260  1.00  0.00     0.000 C 
BRANCH   8   9
ATOM      9  C   UNL     1      22.969  -5.050   4.588  1.00  0.00     0.000 C 
BRANCH   9  10
ATOM     10  C   UNL     1      24.152  -4.734   3.661  1.00  0.00     0.000 C 
BRANCH  10  11
ATOM     11  C   UNL     1      25.446  -5.388   4.173  1.00  0.00     0.000 C 
BRANCH  11  12
ATOM     12  C   UNL     1      26.624  -4.402   4.270  1.00  0.00     0.000 C 
BRANCH  12  13
ATOM     13  C   UNL     1      27.553  -4.603   5.486  1.00  0.00     0.006 C 
BRANCH  13  14
ATOM     14  C   UNL     1      27.051  -5.628   6.516  1.00  0.00     0.053 C 
BRANCH  14  15
ATOM     15  C   UNL     1      28.034  -5.842   7.627  1.00  0.00     0.041 C 
ATOM     16  O   UNL     1      28.219  -6.994   8.097  1.00  0.00    -0.550 OA
ATOM     17  O   UNL     1      28.750  -4.769   8.141  1.00  0.00    -0.550 OA
ENDBRANCH  14  15
ENDBRANCH  13  14
ENDBRANCH  12  13
ENDBRANCH  11  12
ENDBRANCH  10  11
ENDBRANCH   9  10
ENDBRANCH   8   9
ENDBRANCH   7   8
ENDBRANCH   6   7
ENDBRANCH   5   6
ENDBRANCH   4   5
ENDBRANCH   3   4
ENDBRANCH   2   3
ENDBRANCH   1   2
BRANCH   1  18
ATOM     18  C   UNL     1      28.150  -0.039  10.571  1.00  0.00     0.000 C 
BRANCH  18  19
ATOM     19  C   UNL     1      28.717  -1.376  10.047  1.00  0.00     0.000 C 
BRANCH  19  20
ATOM     20  C   UNL     1      29.083  -1.378   8.549  1.00  0.00     0.000 C 
BRANCH  20  21
ATOM     21  C   UNL     1      28.492  -0.226   7.716  1.00  0.00     0.000 C 
BRANCH  21  22
ATOM     22  C   UNL     1      27.579  -0.656   6.550  1.00  0.00     0.000 C 
BRANCH  22  23
ATOM     23  C   UNL     1      26.264   0.137   6.424  1.00  0.00     0.000 C 
BRANCH  23  24
ATOM     24  C   UNL     1      26.403   1.511   5.744  1.00  0.00    -0.000 C 
BRANCH  24  25
ATOM     25  C   UNL     1      26.531   2.662   6.755  1.00  0.00    -0.000 C 
BRANCH  25  26
ATOM     26  C   UNL     1      26.118   2.212   8.162  1.00  0.00    -0.000 C 
BRANCH  26  27
ATOM     27  C   UNL     1      24.702   2.706   8.498  1.00  0.00    -0.000 C 
BRANCH  27  28
ATOM     28  C   UNL     1      23.817   1.618   9.131  1.00  0.00    -0.000 C 
BRANCH  28  29
ATOM     29  C   UNL     1      22.487   1.351   8.400  1.00  0.00    -0.000 C 
BRANCH  29  30
ATOM     30  C   UNL     1      22.574   0.177   7.408  1.00  0.00    -0.000 C 
BRANCH  30  31
ATOM     31  C   UNL     1      22.566   0.640   5.944  1.00  0.00    -0.003 C 
ATOM     32  C   UNL     1      21.699  -0.247   5.050  1.00  0.00     0.004 C 
ENDBRANCH  30  31
ENDBRANCH  29  30
ENDBRANCH  28  29
ENDBRANCH  27  28
ENDBRANCH  26  27
ENDBRANCH  25  26
ENDBRANCH  24  25
ENDBRANCH  23  24
ENDBRANCH  22  23
ENDBRANCH  21  22
ENDBRANCH  20  21
ENDBRANCH  19  20
ENDBRANCH  18  19
ENDBRANCH   1  18
TORSDOF 28
ENDMDL
MODEL 4
REMARK VINA RESULT:    -4.580      6.976     10.078
REMARK INTER + INTRA:         -15.384
REMARK INTER:                 -10.197
REMARK INTRA:                  -5.188
REMARK UNBOUND:                -3.308
REMARK SMILES CCCCCCCCCCCCCCCCCCCCCCCCCCCCCC(=O)[O-]
REMARK SMILES IDX 16 1 17 2 18 3 19 4 20 5 21 6 22 7 23 8 24 9 25 10 26 11
REMARK SMILES IDX 27 12 28 13 29 14 30 15 31 16 32 17 15 18 14 19 13 20 12 21
REMARK SMILES IDX 11 22 10 23 9 24 8 25 7 26 6 27 5 28 4 29 3 30 2 31 1 32
REMARK H PARENT
REMARK Flexibility Score: inf
ROOT
ATOM      1  C   UNL     1      25.020  -6.760  16.022  1.00  0.00     0.000 C 
ENDROOT
BRANCH   1   2
ATOM      2  C   UNL     1      25.420  -6.747  17.510  1.00  0.00     0.000 C 
BRANCH   2   3
ATOM      3  C   UNL     1      25.472  -5.350  18.161  1.00  0.00     0.000 C 
BRANCH   3   4
ATOM      4  C   UNL     1      25.195  -4.207  17.167  1.00  0.00     0.000 C 
BRANCH   4   5
ATOM      5  C   UNL     1      25.608  -2.827  17.722  1.00  0.00     0.000 C 
BRANCH   5   6
ATOM      6  C   UNL     1      24.415  -1.950  18.139  1.00  0.00     0.000 C 
BRANCH   6   7
ATOM      7  C   UNL     1      23.426  -1.695  16.988  1.00  0.00     0.000 C 
BRANCH   7   8
ATOM      8  C   UNL     1      22.029  -1.279  17.493  1.00  0.00     0.000 C 
BRANCH   8   9
ATOM      9  C   UNL     1      21.791  -1.578  18.983  1.00  0.00     0.000 C 
BRANCH   9  10
ATOM     10  C   UNL     1      20.489  -2.350  19.243  1.00  0.00     0.000 C 
BRANCH  10  11
ATOM     11  C   UNL     1      20.773  -3.704  19.911  1.00  0.00     0.000 C 
BRANCH  11  12
ATOM     12  C   UNL     1      22.051  -4.382  19.385  1.00  0.00     0.000 C 
BRANCH  12  13
ATOM     13  C   UNL     1      21.828  -5.699  18.612  1.00  0.00     0.006 C 
BRANCH  13  14
ATOM     14  C   UNL     1      21.726  -5.540  17.087  1.00  0.00     0.053 C 
BRANCH  14  15
ATOM     15  C   UNL     1      20.326  -5.735  16.589  1.00  0.00     0.041 C 
ATOM     16  O   UNL     1      19.663  -6.745  16.940  1.00  0.00    -0.550 OA
ATOM     17  O   UNL     1      19.750  -4.798  15.742  1.00  0.00    -0.550 OA
ENDBRANCH  14  15
ENDBRANCH  13  14
ENDBRANCH  12  13
ENDBRANCH  11  12
ENDBRANCH  10  11
ENDBRANCH   9  10
ENDBRANCH   8   9
ENDBRANCH   7   8
ENDBRANCH   6   7
ENDBRANCH   5   6
ENDBRANCH   4   5
ENDBRANCH   3   4
ENDBRANCH   2   3
ENDBRANCH   1   2
BRANCH   1  18
ATOM     18  C   UNL     1      24.358  -8.079  15.583  1.00  0.00     0.000 C 
BRANCH  18  19
ATOM     19  C   UNL     1      23.384  -8.645  16.641  1.00  0.00     0.000 C 
BRANCH  19  20
ATOM     20  C   UNL     1      23.726 -10.064  17.137  1.00  0.00     0.000 C 
BRANCH  20  21
ATOM     21  C   UNL     1      25.141 -10.567  16.799  1.00  0.00     0.000 C 
BRANCH  21  22
ATOM     22  C   UNL     1      25.243 -12.068  16.457  1.00  0.00     0.000 C 
BRANCH  22  23
ATOM     23  C   UNL     1      25.568 -12.380  14.984  1.00  0.00     0.000 C 
BRANCH  23  24
ATOM     24  C   UNL     1      25.747 -11.143  14.086  1.00  0.00    -0.000 C 
BRANCH  24  25
ATOM     25  C   UNL     1      24.726 -11.091  12.939  1.00  0.00    -0.000 C 
BRANCH  25  26
ATOM     26  C   UNL     1      23.322 -10.762  13.460  1.00  0.00    -0.000 C 
BRANCH  26  27
ATOM     27  C   UNL     1      22.262 -11.618  12.752  1.00  0.00    -0.000 C 
BRANCH  27  28
ATOM     28  C   UNL     1      21.323 -12.349  13.728  1.00  0.00    -0.000 C 
BRANCH  28  29
ATOM     29  C   UNL     1      21.844 -12.460  15.174  1.00  0.00    -0.000 C 
BRANCH  29  30
ATOM     30  C   UNL     1      20.746 -12.858  16.177  1.00  0.00    -0.000 C 
BRANCH  30  31
ATOM     31  C   UNL     1      20.511 -11.785  17.251  1.00  0.00    -0.003 C 
ATOM     32  C   UNL     1      20.122 -10.431  16.655  1.00  0.00     0.004 C 
ENDBRANCH  30  31
ENDBRANCH  29  30
ENDBRANCH  28  29
ENDBRANCH  27  28
ENDBRANCH  26  27
ENDBRANCH  25  26
ENDBRANCH  24  25
ENDBRANCH  23  24
ENDBRANCH  22  23
ENDBRANCH  21  22
ENDBRANCH  20  21
ENDBRANCH  19  20
ENDBRANCH  18  19
ENDBRANCH   1  18
TORSDOF 28
ENDMDL
MODEL 5
REMARK VINA RESULT:    -4.559      7.014      9.912
REMARK INTER + INTRA:         -15.331
REMARK INTER:                 -10.196
REMARK INTRA:                  -5.134
REMARK UNBOUND:                -3.308
REMARK SMILES CCCCCCCCCCCCCCCCCCCCCCCCCCCCCC(=O)[O-]
REMARK SMILES IDX 16 1 17 2 18 3 19 4 20 5 21 6 22 7 23 8 24 9 25 10 26 11
REMARK SMILES IDX 27 12 28 13 29 14 30 15 31 16 32 17 15 18 14 19 13 20 12 21
REMARK SMILES IDX 11 22 10 23 9 24 8 25 7 26 6 27 5 28 4 29 3 30 2 31 1 32
REMARK H PARENT
REMARK Flexibility Score: inf
ROOT
ATOM      1  C   UNL     1      21.504  -2.831  19.373  1.00  0.00     0.000 C 
ENDROOT
BRANCH   1   2
ATOM      2  C   UNL     1      22.331  -2.188  18.243  1.00  0.00     0.000 C 
BRANCH   2   3
ATOM      3  C   UNL     1      23.635  -1.502  18.695  1.00  0.00     0.000 C 
BRANCH   3   4
ATOM      4  C   UNL     1      24.902  -2.263  18.263  1.00  0.00     0.000 C 
BRANCH   4   5
ATOM      5  C   UNL     1      24.636  -3.240  17.098  1.00  0.00     0.000 C 
BRANCH   5   6
ATOM      6  C   UNL     1      25.573  -4.461  17.093  1.00  0.00     0.000 C 
BRANCH   6   7
ATOM      7  C   UNL     1      25.231  -5.483  18.191  1.00  0.00     0.000 C 
BRANCH   7   8
ATOM      8  C   UNL     1      24.713  -6.817  17.613  1.00  0.00     0.000 C 
BRANCH   8   9
ATOM      9  C   UNL     1      24.880  -6.941  16.088  1.00  0.00     0.000 C 
BRANCH   9  10
ATOM     10  C   UNL     1      23.786  -7.793  15.429  1.00  0.00     0.000 C 
BRANCH  10  11
ATOM     11  C   UNL     1      23.008  -8.604  16.477  1.00  0.00     0.000 C 
BRANCH  11  12
ATOM     12  C   UNL     1      23.155 -10.126  16.296  1.00  0.00     0.000 C 
BRANCH  12  13
ATOM     13  C   UNL     1      24.510 -10.594  15.725  1.00  0.00     0.006 C 
BRANCH  13  14
ATOM     14  C   UNL     1      24.409 -11.476  14.471  1.00  0.00     0.053 C 
BRANCH  14  15
ATOM     15  C   UNL     1      25.216 -10.933  13.330  1.00  0.00     0.041 C 
ATOM     16  O   UNL     1      25.350 -11.602  12.273  1.00  0.00    -0.550 OA
ATOM     17  O   UNL     1      25.814  -9.684  13.430  1.00  0.00    -0.550 OA
ENDBRANCH  14  15
ENDBRANCH  13  14
ENDBRANCH  12  13
ENDBRANCH  11  12
ENDBRANCH  10  11
ENDBRANCH   9  10
ENDBRANCH   8   9
ENDBRANCH   7   8
ENDBRANCH   6   7
ENDBRANCH   5   6
ENDBRANCH   4   5
ENDBRANCH   3   4
ENDBRANCH   2   3
ENDBRANCH   1   2
BRANCH   1  18
ATOM     18  C   UNL     1      22.008  -4.230  19.773  1.00  0.00     0.000 C 
BRANCH  18  19
ATOM     19  C   UNL     1      20.997  -5.351  19.446  1.00  0.00     0.000 C 
BRANCH  19  20
ATOM     20  C   UNL     1      21.224  -6.047  18.089  1.00  0.00     0.000 C 
BRANCH  20  21
ATOM     21  C   UNL     1      20.314  -5.581  16.939  1.00  0.00     0.000 C 
BRANCH  21  22
ATOM     22  C   UNL     1      20.988  -5.508  15.553  1.00  0.00     0.000 C 
BRANCH  22  23
ATOM     23  C   UNL     1      20.257  -6.269  14.431  1.00  0.00     0.000 C 
BRANCH  23  24
ATOM     24  C   UNL     1      20.827  -6.041  13.020  1.00  0.00    -0.000 C 
BRANCH  24  25
ATOM     25  C   UNL     1      21.773  -7.168  12.574  1.00  0.00    -0.000 C 
BRANCH  25  26
ATOM     26  C   UNL     1      20.990  -8.425  12.180  1.00  0.00    -0.000 C 
BRANCH  26  27
ATOM     27  C   UNL     1      21.511  -9.654  12.940  1.00  0.00    -0.000 C 
BRANCH  27  28
ATOM     28  C   UNL     1      20.403 -10.662  13.293  1.00  0.00    -0.000 C 
BRANCH  28  29
ATOM     29  C   UNL     1      19.883 -10.578  14.742  1.00  0.00    -0.000 C 
BRANCH  29  30
ATOM     30  C   UNL     1      19.366 -11.928  15.272  1.00  0.00    -0.000 C 
BRANCH  30  31
ATOM     31  C   UNL     1      20.377 -12.626  16.193  1.00  0.00    -0.003 C 
ATOM     32  C   UNL     1      21.375 -13.492  15.424  1.00  0.00     0.004 C 
ENDBRANCH  30  31
ENDBRANCH  29  30
ENDBRANCH  28  29
ENDBRANCH  27  28
ENDBRANCH  26  27
ENDBRANCH  25  26
ENDBRANCH  24  25
ENDBRANCH  23  24
ENDBRANCH  22  23
ENDBRANCH  21  22
ENDBRANCH  20  21
ENDBRANCH  19  20
ENDBRANCH  18  19
ENDBRANCH   1  18
TORSDOF 28
ENDMDL
MODEL 6
REMARK VINA RESULT:    -4.539      6.842     10.313
REMARK INTER + INTRA:         -15.277
REMARK INTER:                  -9.731
REMARK INTRA:                  -5.546
REMARK UNBOUND:                -3.308
REMARK SMILES CCCCCCCCCCCCCCCCCCCCCCCCCCCCCC(=O)[O-]
REMARK SMILES IDX 16 1 17 2 18 3 19 4 20 5 21 6 22 7 23 8 24 9 25 10 26 11
REMARK SMILES IDX 27 12 28 13 29 14 30 15 31 16 32 17 15 18 14 19 13 20 12 21
REMARK SMILES IDX 11 22 10 23 9 24 8 25 7 26 6 27 5 28 4 29 3 30 2 31 1 32
REMARK H PARENT
REMARK Flexibility Score: inf
ROOT
ATOM      1  C   UNL     1      25.309  -5.355  18.266  1.00  0.00     0.000 C 
ENDROOT
BRANCH   1   2
ATOM      2  C   UNL     1      25.342  -6.748  17.607  1.00  0.00     0.000 C 
BRANCH   2   3
ATOM      3  C   UNL     1      25.037  -6.764  16.096  1.00  0.00     0.000 C 
BRANCH   3   4
ATOM      4  C   UNL     1      24.366  -8.069  15.627  1.00  0.00     0.000 C 
BRANCH   4   5
ATOM      5  C   UNL     1      23.409  -8.656  16.687  1.00  0.00     0.000 C 
BRANCH   5   6
ATOM      6  C   UNL     1      23.762 -10.095  17.104  1.00  0.00     0.000 C 
BRANCH   6   7
ATOM      7  C   UNL     1      24.977 -10.658  16.347  1.00  0.00     0.000 C 
BRANCH   7   8
ATOM      8  C   UNL     1      24.833 -12.163  16.039  1.00  0.00     0.000 C 
BRANCH   8   9
ATOM      9  C   UNL     1      24.177 -12.460  14.679  1.00  0.00     0.000 C 
BRANCH   9  10
ATOM     10  C   UNL     1      24.483 -11.395  13.616  1.00  0.00     0.000 C 
BRANCH  10  11
ATOM     11  C   UNL     1      23.225 -10.584  13.267  1.00  0.00     0.000 C 
BRANCH  11  12
ATOM     12  C   UNL     1      21.925 -11.240  13.766  1.00  0.00     0.000 C 
BRANCH  12  13
ATOM     13  C   UNL     1      20.954 -10.296  14.506  1.00  0.00     0.006 C 
BRANCH  13  14
ATOM     14  C   UNL     1      19.857 -11.006  15.315  1.00  0.00     0.053 C 
BRANCH  14  15
ATOM     15  C   UNL     1      20.122 -10.963  16.789  1.00  0.00     0.041 C 
ATOM     16  O   UNL     1      20.150  -9.862  17.397  1.00  0.00    -0.550 OA
ATOM     17  O   UNL     1      20.332 -12.141  17.495  1.00  0.00    -0.550 OA
ENDBRANCH  14  15
ENDBRANCH  13  14
ENDBRANCH  12  13
ENDBRANCH  11  12
ENDBRANCH  10  11
ENDBRANCH   9  10
ENDBRANCH   8   9
ENDBRANCH   7   8
ENDBRANCH   6   7
ENDBRANCH   5   6
ENDBRANCH   4   5
ENDBRANCH   3   4
ENDBRANCH   2   3
ENDBRANCH   1   2
BRANCH   1  18
ATOM     18  C   UNL     1      25.830  -4.237  17.346  1.00  0.00     0.000 C 
BRANCH  18  19
ATOM     19  C   UNL     1      24.786  -3.127  17.095  1.00  0.00     0.000 C 
BRANCH  19  20
ATOM     20  C   UNL     1      24.495  -2.229  18.314  1.00  0.00     0.000 C 
BRANCH  20  21
ATOM     21  C   UNL     1      23.619  -0.993  18.039  1.00  0.00     0.000 C 
BRANCH  21  22
ATOM     22  C   UNL     1      22.160  -1.097  18.526  1.00  0.00     0.000 C 
BRANCH  22  23
ATOM     23  C   UNL     1      21.830  -2.369  19.331  1.00  0.00     0.000 C 
BRANCH  23  24
ATOM     24  C   UNL     1      20.347  -2.781  19.309  1.00  0.00    -0.000 C 
BRANCH  24  25
ATOM     25  C   UNL     1      20.150  -4.292  19.502  1.00  0.00    -0.000 C 
BRANCH  25  26
ATOM     26  C   UNL     1      21.484  -5.042  19.407  1.00  0.00    -0.000 C 
BRANCH  26  27
ATOM     27  C   UNL     1      21.538  -5.899  18.133  1.00  0.00    -0.000 C 
BRANCH  27  28
ATOM     28  C   UNL     1      21.887  -5.087  16.873  1.00  0.00    -0.000 C 
BRANCH  28  29
ATOM     29  C   UNL     1      20.873  -5.207  15.719  1.00  0.00    -0.000 C 
BRANCH  29  30
ATOM     30  C   UNL     1      20.947  -6.563  14.993  1.00  0.00    -0.000 C 
BRANCH  30  31
ATOM     31  C   UNL     1      20.805  -6.425  13.470  1.00  0.00    -0.003 C 
ATOM     32  C   UNL     1      21.912  -7.154  12.707  1.00  0.00     0.004 C 
ENDBRANCH  30  31
ENDBRANCH  29  30
ENDBRANCH  28  29
ENDBRANCH  27  28
ENDBRANCH  26  27
ENDBRANCH  25  26
ENDBRANCH  24  25
ENDBRANCH  23  24
ENDBRANCH  22  23
ENDBRANCH  21  22
ENDBRANCH  20  21
ENDBRANCH  19  20
ENDBRANCH  18  19
ENDBRANCH   1  18
TORSDOF 28
ENDMDL
MODEL 7
REMARK VINA RESULT:    -4.532      5.971      9.361
REMARK INTER + INTRA:         -15.258
REMARK INTER:                 -10.321
REMARK INTRA:                  -4.937
REMARK UNBOUND:                -3.308
REMARK SMILES CCCCCCCCCCCCCCCCCCCCCCCCCCCCCC(=O)[O-]
REMARK SMILES IDX 16 1 17 2 18 3 19 4 20 5 21 6 22 7 23 8 24 9 25 10 26 11
REMARK SMILES IDX 27 12 28 13 29 14 30 15 31 16 32 17 15 18 14 19 13 20 12 21
REMARK SMILES IDX 11 22 10 23 9 24 8 25 7 26 6 27 5 28 4 29 3 30 2 31 1 32
REMARK H PARENT
REMARK Flexibility Score: inf
ROOT
ATOM      1  C   UNL     1      26.872   0.839   9.249  1.00  0.00     0.000 C 
ENDROOT
BRANCH   1   2
ATOM      2  C   UNL     1      25.690   1.718   8.795  1.00  0.00     0.000 C 
BRANCH   2   3
ATOM      3  C   UNL     1      26.059   2.869   7.839  1.00  0.00     0.000 C 
BRANCH   3   4
ATOM      4  C   UNL     1      27.346   2.602   7.037  1.00  0.00     0.000 C 
BRANCH   4   5
ATOM      5  C   UNL     1      27.059   2.079   5.614  1.00  0.00     0.000 C 
BRANCH   5   6
ATOM      6  C   UNL     1      27.688   0.704   5.325  1.00  0.00     0.000 C 
BRANCH   6   7
ATOM      7  C   UNL     1      26.858  -0.464   5.884  1.00  0.00     0.000 C 
BRANCH   7   8
ATOM      8  C   UNL     1      27.663  -1.779   5.954  1.00  0.00     0.000 C 
BRANCH   8   9
ATOM      9  C   UNL     1      28.339  -2.023   7.314  1.00  0.00     0.000 C 
BRANCH   9  10
ATOM     10  C   UNL     1      28.993  -3.408   7.423  1.00  0.00     0.000 C 
BRANCH  10  11
ATOM     11  C   UNL     1      27.935  -4.505   7.624  1.00  0.00     0.000 C 
BRANCH  11  12
ATOM     12  C   UNL     1      27.572  -5.242   6.322  1.00  0.00     0.000 C 
BRANCH  12  13
ATOM     13  C   UNL     1      26.069  -5.259   5.973  1.00  0.00     0.006 C 
BRANCH  13  14
ATOM     14  C   UNL     1      25.750  -5.007   4.491  1.00  0.00     0.053 C 
BRANCH  14  15
ATOM     15  C   UNL     1      26.966  -5.124   3.622  1.00  0.00     0.041 C 
ATOM     16  O   UNL     1      27.311  -6.242   3.159  1.00  0.00    -0.550 OA
ATOM     17  O   UNL     1      27.716  -3.995   3.316  1.00  0.00    -0.550 OA
ENDBRANCH  14  15
ENDBRANCH  13  14
ENDBRANCH  12  13
ENDBRANCH  11  12
ENDBRANCH  10  11
ENDBRANCH   9  10
ENDBRANCH   8   9
ENDBRANCH   7   8
ENDBRANCH   6   7
ENDBRANCH   5   6
ENDBRANCH   4   5
ENDBRANCH   3   4
ENDBRANCH   2   3
ENDBRANCH   1   2
BRANCH   1  18
ATOM     18  C   UNL     1      26.540  -0.043  10.465  1.00  0.00     0.000 C 
BRANCH  18  19
ATOM     19  C   UNL     1      26.149  -1.486  10.075  1.00  0.00     0.000 C 
BRANCH  19  20
ATOM     20  C   UNL     1      24.825  -1.605   9.295  1.00  0.00     0.000 C 
BRANCH  20  21
ATOM     21  C   UNL     1      24.775  -2.714   8.228  1.00  0.00     0.000 C 
BRANCH  21  22
ATOM     22  C   UNL     1      23.822  -2.449   7.045  1.00  0.00     0.000 C 
BRANCH  22  23
ATOM     23  C   UNL     1      23.474  -0.967   6.808  1.00  0.00     0.000 C 
BRANCH  23  24
ATOM     24  C   UNL     1      22.140  -0.727   6.077  1.00  0.00    -0.000 C 
BRANCH  24  25
ATOM     25  C   UNL     1      21.655   0.726   6.194  1.00  0.00    -0.000 C 
BRANCH  25  26
ATOM     26  C   UNL     1      22.300   1.431   7.394  1.00  0.00    -0.000 C 
BRANCH  26  27
ATOM     27  C   UNL     1      21.291   2.358   8.089  1.00  0.00    -0.000 C 
BRANCH  27  28
ATOM     28  C   UNL     1      21.953   3.568   8.772  1.00  0.00    -0.000 C 
BRANCH  28  29
ATOM     29  C   UNL     1      22.207   3.406  10.283  1.00  0.00    -0.000 C 
BRANCH  29  30
ATOM     30  C   UNL     1      21.235   2.416  10.951  1.00  0.00    -0.000 C 
BRANCH  30  31
ATOM     31  C   UNL     1      21.961   1.241  11.624  1.00  0.00    -0.003 C 
ATOM     32  C   UNL     1      23.468   1.470  11.743  1.00  0.00     0.004 C 
ENDBRANCH  30  31
ENDBRANCH  29  30
ENDBRANCH  28  29
ENDBRANCH  27  28
ENDBRANCH  26  27
ENDBRANCH  25  26
ENDBRANCH  24  25
ENDBRANCH  23  24
ENDBRANCH  22  23
ENDBRANCH  21  22
ENDBRANCH  20  21
ENDBRANCH  19  20
ENDBRANCH  18  19
ENDBRANCH   1  18
TORSDOF 28
ENDMDL
MODEL 8
REMARK VINA RESULT:    -4.485      7.590     10.930
REMARK INTER + INTRA:         -15.136
REMARK INTER:                  -9.414
REMARK INTRA:                  -5.722
REMARK UNBOUND:                -3.308
REMARK SMILES CCCCCCCCCCCCCCCCCCCCCCCCCCCCCC(=O)[O-]
REMARK SMILES IDX 16 1 17 2 18 3 19 4 20 5 21 6 22 7 23 8 24 9 25 10 26 11
REMARK SMILES IDX 27 12 28 13 29 14 30 15 31 16 32 17 15 18 14 19 13 20 12 21
REMARK SMILES IDX 11 22 10 23 9 24 8 25 7 26 6 27 5 28 4 29 3 30 2 31 1 32
REMARK H PARENT
REMARK Flexibility Score: inf
ROOT
ATOM      1  C   UNL     1      25.634  -6.359  17.834  1.00  0.00     0.000 C 
ENDROOT
BRANCH   1   2
ATOM      2  C   UNL     1      24.988  -6.662  16.469  1.00  0.00     0.000 C 
BRANCH   2   3
ATOM      3  C   UNL     1      24.245  -8.011  16.381  1.00  0.00     0.000 C 
BRANCH   3   4
ATOM      4  C   UNL     1      23.419  -8.165  15.091  1.00  0.00     0.000 C 
BRANCH   4   5
ATOM      5  C   UNL     1      22.133  -8.991  15.306  1.00  0.00     0.000 C 
BRANCH   5   6
ATOM      6  C   UNL     1      21.953  -9.483  16.754  1.00  0.00     0.000 C 
BRANCH   6   7
ATOM      7  C   UNL     1      20.536 -10.012  17.035  1.00  0.00     0.000 C 
BRANCH   7   8
ATOM      8  C   UNL     1      20.490 -11.552  17.125  1.00  0.00     0.000 C 
BRANCH   8   9
ATOM      9  C   UNL     1      19.659 -12.216  16.013  1.00  0.00     0.000 C 
BRANCH   9  10
ATOM     10  C   UNL     1      20.225 -11.969  14.608  1.00  0.00     0.000 C 
BRANCH  10  11
ATOM     11  C   UNL     1      21.308 -13.002  14.257  1.00  0.00     0.000 C 
BRANCH  11  12
ATOM     12  C   UNL     1      22.311 -12.494  13.206  1.00  0.00     0.000 C 
BRANCH  12  13
ATOM     13  C   UNL     1      23.779 -12.424  13.675  1.00  0.00     0.006 C 
BRANCH  13  14
ATOM     14  C   UNL     1      23.962 -12.170  15.180  1.00  0.00     0.053 C 
BRANCH  14  15
ATOM     15  C   UNL     1      25.256 -11.477  15.485  1.00  0.00     0.041 C 
ATOM     16  O   UNL     1      25.929 -10.955  14.560  1.00  0.00    -0.550 OA
ATOM     17  O   UNL     1      25.715 -11.403  16.793  1.00  0.00    -0.550 OA
ENDBRANCH  14  15
ENDBRANCH  13  14
ENDBRANCH  12  13
ENDBRANCH  11  12
ENDBRANCH  10  11
ENDBRANCH   9  10
ENDBRANCH   8   9
ENDBRANCH   7   8
ENDBRANCH   6   7
ENDBRANCH   5   6
ENDBRANCH   4   5
ENDBRANCH   3   4
ENDBRANCH   2   3
ENDBRANCH   1   2
BRANCH   1  18
ATOM     18  C   UNL     1      25.872  -4.857  18.073  1.00  0.00     0.000 C 
BRANCH  18  19
ATOM     19  C   UNL     1      24.870  -3.960  17.314  1.00  0.00     0.000 C 
BRANCH  19  20
ATOM     20  C   UNL     1      24.100  -2.961  18.201  1.00  0.00     0.000 C 
BRANCH  20  21
ATOM     21  C   UNL     1      22.619  -3.298  18.455  1.00  0.00     0.000 C 
BRANCH  21  22
ATOM     22  C   UNL     1      22.367  -4.555  19.313  1.00  0.00     0.000 C 
BRANCH  22  23
ATOM     23  C   UNL     1      22.073  -5.840  18.515  1.00  0.00     0.000 C 
BRANCH  23  24
ATOM     24  C   UNL     1      20.585  -6.230  18.446  1.00  0.00    -0.000 C 
BRANCH  24  25
ATOM     25  C   UNL     1      20.036  -6.218  17.011  1.00  0.00    -0.000 C 
BRANCH  25  26
ATOM     26  C   UNL     1      21.002  -5.511  16.053  1.00  0.00    -0.000 C 
BRANCH  26  27
ATOM     27  C   UNL     1      20.617  -5.782  14.591  1.00  0.00    -0.000 C 
BRANCH  27  28
ATOM     28  C   UNL     1      19.156  -6.235  14.424  1.00  0.00    -0.000 C 
BRANCH  28  29
ATOM     29  C   UNL     1      18.972  -7.614  13.761  1.00  0.00    -0.000 C 
BRANCH  29  30
ATOM     30  C   UNL     1      18.283  -8.636  14.684  1.00  0.00    -0.000 C 
BRANCH  30  31
ATOM     31  C   UNL     1      17.414  -9.637  13.909  1.00  0.00    -0.003 C 
ATOM     32  C   UNL     1      15.946  -9.216  13.843  1.00  0.00     0.004 C 
ENDBRANCH  30  31
ENDBRANCH  29  30
ENDBRANCH  28  29
ENDBRANCH  27  28
ENDBRANCH  26  27
ENDBRANCH  25  26
ENDBRANCH  24  25
ENDBRANCH  23  24
ENDBRANCH  22  23
ENDBRANCH  21  22
ENDBRANCH  20  21
ENDBRANCH  19  20
ENDBRANCH  18  19
ENDBRANCH   1  18
TORSDOF 28
ENDMDL
MODEL 9
REMARK VINA RESULT:    -4.470      7.250     10.615
REMARK INTER + INTRA:         -15.095
REMARK INTER:                  -9.402
REMARK INTRA:                  -5.694
REMARK UNBOUND:                -3.308
REMARK SMILES CCCCCCCCCCCCCCCCCCCCCCCCCCCCCC(=O)[O-]
REMARK SMILES IDX 16 1 17 2 18 3 19 4 20 5 21 6 22 7 23 8 24 9 25 10 26 11
REMARK SMILES IDX 27 12 28 13 29 14 30 15 31 16 32 17 15 18 14 19 13 20 12 21
REMARK SMILES IDX 11 22 10 23 9 24 8 25 7 26 6 27 5 28 4 29 3 30 2 31 1 32
REMARK H PARENT
REMARK Flexibility Score: inf
ROOT
ATOM      1  C   UNL     1      25.551  -6.583  17.574  1.00  0.00     0.000 C 
ENDROOT
BRANCH   1   2
ATOM      2  C   UNL     1      25.002  -6.555  16.135  1.00  0.00     0.000 C 
BRANCH   2   3
ATOM      3  C   UNL     1      24.445  -7.899  15.622  1.00  0.00     0.000 C 
BRANCH   3   4
ATOM      4  C   UNL     1      24.059  -8.868  16.754  1.00  0.00     0.000 C 
BRANCH   4   5
ATOM      5  C   UNL     1      23.368 -10.145  16.231  1.00  0.00     0.000 C 
BRANCH   5   6
ATOM      6  C   UNL     1      23.915 -10.630  14.877  1.00  0.00     0.000 C 
BRANCH   6   7
ATOM      7  C   UNL     1      23.095 -11.785  14.277  1.00  0.00     0.000 C 
BRANCH   7   8
ATOM      8  C   UNL     1      22.906 -12.951  15.270  1.00  0.00     0.000 C 
BRANCH   8   9
ATOM      9  C   UNL     1      21.485 -13.539  15.278  1.00  0.00     0.000 C 
BRANCH   9  10
ATOM     10  C   UNL     1      20.551 -12.847  16.281  1.00  0.00     0.000 C 
BRANCH  10  11
ATOM     11  C   UNL     1      19.547 -11.931  15.563  1.00  0.00     0.000 C 
BRANCH  11  12
ATOM     12  C   UNL     1      19.771 -10.438  15.861  1.00  0.00     0.000 C 
BRANCH  12  13
ATOM     13  C   UNL     1      19.489  -9.481  14.684  1.00  0.00     0.006 C 
BRANCH  13  14
ATOM     14  C   UNL     1      19.999  -9.972  13.320  1.00  0.00     0.053 C 
BRANCH  14  15
ATOM     15  C   UNL     1      20.889  -8.968  12.653  1.00  0.00     0.041 C 
ATOM     16  O   UNL     1      21.771  -8.362  13.315  1.00  0.00    -0.550 OA
ATOM     17  O   UNL     1      20.750  -8.704  11.296  1.00  0.00    -0.550 OA
ENDBRANCH  14  15
ENDBRANCH  13  14
ENDBRANCH  12  13
ENDBRANCH  11  12
ENDBRANCH  10  11
ENDBRANCH   9  10
ENDBRANCH   8   9
ENDBRANCH   7   8
ENDBRANCH   6   7
ENDBRANCH   5   6
ENDBRANCH   4   5
ENDBRANCH   3   4
ENDBRANCH   2   3
ENDBRANCH   1   2
BRANCH   1  18
ATOM     18  C   UNL     1      25.752  -5.179  18.174  1.00  0.00     0.000 C 
BRANCH  18  19
ATOM     19  C   UNL     1      25.325  -4.047  17.214  1.00  0.00     0.000 C 
BRANCH  19  20
ATOM     20  C   UNL     1      25.219  -2.654  17.866  1.00  0.00     0.000 C 
BRANCH  20  21
ATOM     21  C   UNL     1      23.849  -1.964  17.749  1.00  0.00     0.000 C 
BRANCH  21  22
ATOM     22  C   UNL     1      22.661  -2.902  17.453  1.00  0.00     0.000 C 
BRANCH  22  23
ATOM     23  C   UNL     1      21.701  -3.131  18.636  1.00  0.00     0.000 C 
BRANCH  23  24
ATOM     24  C   UNL     1      22.015  -4.372  19.491  1.00  0.00    -0.000 C 
BRANCH  24  25
ATOM     25  C   UNL     1      22.237  -5.634  18.642  1.00  0.00    -0.000 C 
BRANCH  25  26
ATOM     26  C   UNL     1      20.908  -6.329  18.325  1.00  0.00    -0.000 C 
BRANCH  26  27
ATOM     27  C   UNL     1      20.921  -6.909  16.902  1.00  0.00    -0.000 C 
BRANCH  27  28
ATOM     28  C   UNL     1      21.442  -5.915  15.849  1.00  0.00    -0.000 C 
BRANCH  28  29
ATOM     29  C   UNL     1      20.378  -4.965  15.266  1.00  0.00    -0.000 C 
BRANCH  29  30
ATOM     30  C   UNL     1      19.095  -5.695  14.832  1.00  0.00    -0.000 C 
BRANCH  30  31
ATOM     31  C   UNL     1      19.009  -5.880  13.309  1.00  0.00    -0.003 C 
ATOM     32  C   UNL     1      17.820  -6.743  12.887  1.00  0.00     0.004 C 
ENDBRANCH  30  31
ENDBRANCH  29  30
ENDBRANCH  28  29
ENDBRANCH  27  28
ENDBRANCH  26  27
ENDBRANCH  25  26
ENDBRANCH  24  25
ENDBRANCH  23  24
ENDBRANCH  22  23
ENDBRANCH  21  22
ENDBRANCH  20  21
ENDBRANCH  19  20
ENDBRANCH  18  19
ENDBRANCH   1  18
TORSDOF 28
ENDMDL
