MODEL 1
REMARK VINA RESULT:    -6.692      0.000      0.000
REMARK INTER + INTRA:          -8.168
REMARK INTER:                  -7.670
REMARK INTRA:                  -0.497
REMARK UNBOUND:                -0.497
REMARK SMILES C=C(C)[C@H]1CC[C@]2(C(=O)[O-])CC[C@]3(C)[C@@H](CC[C@@H]4[C@]5(C)CC[C@H](O)C(C)(C)[C@H]5CC[C@@]43C)[C@H]12
REMARK SMILES IDX 7 1 6 2 33 3 11 4 5 5 15 6 4 7 12 8 16 9 13 10 17 11 31 12
REMARK SMILES IDX 14 13 18 14 30 15 32 16 19 17 29 18 21 19 20 20 28 21 22 22
REMARK SMILES IDX 25 23 23 24 26 25 27 26 8 27 9 28 10 29 2 30 3 31 1 32 24 33
REMARK H PARENT 24 34
REMARK Flexibility Score: inf
ROOT
ATOM      1  C   UNL     1     -16.924   4.005 -33.006  1.00  0.00     0.014 C 
ATOM      2  C   UNL     1     -18.325   4.674 -33.074  1.00  0.00     0.014 C 
ATOM      3  C   UNL     1     -16.723   3.604 -31.506  1.00  0.00     0.012 C 
ATOM      4  C   UNL     1     -16.851   2.789 -33.958  1.00  0.00     0.014 C 
ATOM      5  C   UNL     1     -19.065   4.344 -31.787  1.00  0.00     0.009 C 
ATOM      6  C   UNL     1     -16.292   2.104 -31.237  1.00  0.00     0.000 C 
ATOM      7  C   UNL     1     -18.005   4.033 -30.737  1.00  0.00     0.018 C 
ATOM      8  C   UNL     1     -17.614   1.583 -33.418  1.00  0.00     0.008 C 
ATOM      9  C   UNL     1     -14.773   2.009 -31.247  1.00  0.00     0.005 C 
ATOM     10  C   UNL     1     -16.983   0.967 -32.120  1.00  0.00    -0.024 C 
ATOM     11  C   UNL     1     -14.281   0.660 -30.742  1.00  0.00     0.005 C 
ATOM     12  C   UNL     1     -16.007  -0.312 -32.475  1.00  0.00    -0.024 C 
ATOM     13  C   UNL     1     -18.197   0.471 -31.256  1.00  0.00     0.012 C 
ATOM     14  C   UNL     1     -15.028  -0.628 -31.254  1.00  0.00     0.002 C 
ATOM     15  C   UNL     1     -15.109  -0.120 -33.753  1.00  0.00     0.008 C 
ATOM     16  C   UNL     1     -16.948  -1.527 -32.801  1.00  0.00     0.012 C 
ATOM     17  C   UNL     1     -13.992  -1.834 -31.492  1.00  0.00    -0.026 C 
ATOM     18  C   UNL     1     -14.094  -1.258 -34.017  1.00  0.00     0.005 C 
ATOM     19  C   UNL     1     -13.006  -1.978 -30.273  1.00  0.00     0.010 C 
ATOM     20  C   UNL     1     -14.765  -3.195 -31.562  1.00  0.00     0.012 C 
ATOM     21  C   UNL     1     -13.168  -1.521 -32.802  1.00  0.00     0.003 C 
ATOM     22  C   UNL     1     -11.821  -2.930 -30.529  1.00  0.00     0.033 C 
ATOM     23  C   UNL     1     -11.934  -2.473 -33.090  1.00  0.00    -0.006 C 
ATOM     24  C   UNL     1     -11.035  -2.592 -31.809  1.00  0.00     0.120 C 
ATOM     25  C   UNL     1     -11.060  -1.882 -34.231  1.00  0.00     0.014 C 
ATOM     26  C   UNL     1     -12.352  -3.894 -33.555  1.00  0.00     0.014 C 
ENDROOT
BRANCH   1  27
ATOM     27  C   UNL     1     -15.861   4.989 -33.481  1.00  0.00     0.048 C 
ATOM     28  O   UNL     1     -14.647   4.653 -33.531  1.00  0.00    -0.550 OA
ATOM     29  O   UNL     1     -16.230   6.229 -33.994  1.00  0.00    -0.550 OA
ENDBRANCH   1  27
BRANCH   7  30
ATOM     30  C   UNL     1     -17.775   5.220 -29.795  1.00  0.00    -0.077 C 
ATOM     31  C   UNL     1     -17.259   6.528 -30.340  1.00  0.00     0.039 C 
ATOM     32  C   UNL     1     -18.025   5.135 -28.476  1.00  0.00     0.008 C 
ENDBRANCH   7  30
BRANCH  24  33
ATOM     33  O   UNL     1     -10.232  -1.450 -31.607  1.00  0.00    -0.393 OA
ATOM     34  H   UNL     1      -9.781  -1.226 -32.459  1.00  0.00     0.210 HD
ENDBRANCH  24  33
TORSDOF 3
ENDMDL
MODEL 2
REMARK VINA RESULT:    -6.630      1.420      1.736
REMARK INTER + INTRA:          -8.096
REMARK INTER:                  -7.530
REMARK INTRA:                  -0.566
REMARK UNBOUND:                -0.497
REMARK SMILES C=C(C)[C@H]1CC[C@]2(C(=O)[O-])CC[C@]3(C)[C@@H](CC[C@@H]4[C@]5(C)CC[C@H](O)C(C)(C)[C@H]5CC[C@@]43C)[C@H]12
REMARK SMILES IDX 7 1 6 2 33 3 11 4 5 5 15 6 4 7 12 8 16 9 13 10 17 11 31 12
REMARK SMILES IDX 14 13 18 14 30 15 32 16 19 17 29 18 21 19 20 20 28 21 22 22
REMARK SMILES IDX 25 23 23 24 26 25 27 26 8 27 9 28 10 29 2 30 3 31 1 32 24 33
REMARK H PARENT 24 34
REMARK Flexibility Score: inf
ROOT
ATOM      1  C   UNL     1     -17.442   5.209 -33.655  1.00  0.00     0.014 C 
ATOM      2  C   UNL     1     -18.741   6.056 -33.562  1.00  0.00     0.014 C 
ATOM      3  C   UNL     1     -16.872   5.154 -32.197  1.00  0.00     0.012 C 
ATOM      4  C   UNL     1     -17.743   3.806 -34.227  1.00  0.00     0.014 C 
ATOM      5  C   UNL     1     -19.125   6.166 -32.094  1.00  0.00     0.009 C 
ATOM      6  C   UNL     1     -16.520   3.712 -31.642  1.00  0.00     0.000 C 
ATOM      7  C   UNL     1     -17.849   5.951 -31.288  1.00  0.00     0.018 C 
ATOM      8  C   UNL     1     -18.433   2.900 -33.210  1.00  0.00     0.008 C 
ATOM      9  C   UNL     1     -15.078   3.378 -31.992  1.00  0.00     0.005 C 
ATOM     10  C   UNL     1     -17.526   2.522 -31.986  1.00  0.00    -0.024 C 
ATOM     11  C   UNL     1     -14.589   2.129 -31.273  1.00  0.00     0.005 C 
ATOM     12  C   UNL     1     -16.805   1.057 -32.203  1.00  0.00    -0.024 C 
ATOM     13  C   UNL     1     -18.496   2.446 -30.752  1.00  0.00     0.012 C 
ATOM     14  C   UNL     1     -15.561   0.891 -31.217  1.00  0.00     0.002 C 
ATOM     15  C   UNL     1     -16.280   0.792 -33.663  1.00  0.00     0.008 C 
ATOM     16  C   UNL     1     -17.904  -0.036 -31.948  1.00  0.00     0.012 C 
ATOM     17  C   UNL     1     -14.742  -0.485 -31.361  1.00  0.00    -0.026 C 
ATOM     18  C   UNL     1     -15.483  -0.523 -33.844  1.00  0.00     0.005 C 
ATOM     19  C   UNL     1     -13.476  -0.488 -30.425  1.00  0.00     0.010 C 
ATOM     20  C   UNL     1     -15.624  -1.683 -30.866  1.00  0.00     0.012 C 
ATOM     21  C   UNL     1     -14.286  -0.631 -32.864  1.00  0.00     0.003 C 
ATOM     22  C   UNL     1     -12.498  -1.649 -30.690  1.00  0.00     0.033 C 
ATOM     23  C   UNL     1     -13.270  -1.807 -33.171  1.00  0.00    -0.006 C 
ATOM     24  C   UNL     1     -12.067  -1.757 -32.164  1.00  0.00     0.120 C 
ATOM     25  C   UNL     1     -12.694  -1.653 -34.607  1.00  0.00     0.014 C 
ATOM     26  C   UNL     1     -13.925  -3.213 -33.115  1.00  0.00     0.014 C 
ENDROOT
BRANCH   1  27
ATOM     27  C   UNL     1     -16.466   5.870 -34.623  1.00  0.00     0.048 C 
ATOM     28  O   UNL     1     -15.505   5.219 -35.114  1.00  0.00    -0.550 OA
ATOM     29  O   UNL     1     -16.701   7.162 -35.084  1.00  0.00    -0.550 OA
ENDBRANCH   1  27
BRANCH   7  30
ATOM     30  C   UNL     1     -17.264   7.278 -30.791  1.00  0.00    -0.077 C 
ATOM     31  C   UNL     1     -16.464   8.149 -31.727  1.00  0.00     0.039 C 
ATOM     32  C   UNL     1     -17.445   7.701 -29.527  1.00  0.00     0.008 C 
ENDBRANCH   7  30
BRANCH  24  33
ATOM     33  O   UNL     1     -11.141  -0.742 -32.482  1.00  0.00    -0.393 OA
ATOM     34  H   UNL     1     -11.163  -0.059 -31.766  1.00  0.00     0.210 HD
ENDBRANCH  24  33
TORSDOF 3
ENDMDL
MODEL 3
REMARK VINA RESULT:    -6.546      2.400      7.683
REMARK INTER + INTRA:          -8.000
REMARK INTER:                  -7.348
REMARK INTRA:                  -0.652
REMARK UNBOUND:                -0.497
REMARK SMILES C=C(C)[C@H]1CC[C@]2(C(=O)[O-])CC[C@]3(C)[C@@H](CC[C@@H]4[C@]5(C)CC[C@H](O)C(C)(C)[C@H]5CC[C@@]43C)[C@H]12
REMARK SMILES IDX 7 1 6 2 33 3 11 4 5 5 15 6 4 7 12 8 16 9 13 10 17 11 31 12
REMARK SMILES IDX 14 13 18 14 30 15 32 16 19 17 29 18 21 19 20 20 28 21 22 22
REMARK SMILES IDX 25 23 23 24 26 25 27 26 8 27 9 28 10 29 2 30 3 31 1 32 24 33
REMARK H PARENT 24 34
REMARK Flexibility Score: inf
ROOT
ATOM      1  C   UNL     1     -15.741   0.370 -29.224  1.00  0.00     0.014 C 
ATOM      2  C   UNL     1     -16.042  -1.097 -28.807  1.00  0.00     0.014 C 
ATOM      3  C   UNL     1     -14.977   0.269 -30.588  1.00  0.00     0.012 C 
ATOM      4  C   UNL     1     -17.048   1.186 -29.337  1.00  0.00     0.014 C 
ATOM      5  C   UNL     1     -15.820  -1.985 -30.022  1.00  0.00     0.009 C 
ATOM      6  C   UNL     1     -15.544   1.159 -31.770  1.00  0.00     0.000 C 
ATOM      7  C   UNL     1     -14.860  -1.240 -30.943  1.00  0.00     0.018 C 
ATOM      8  C   UNL     1     -17.843   0.839 -30.592  1.00  0.00     0.008 C 
ATOM      9  C   UNL     1     -14.873   2.524 -31.737  1.00  0.00     0.005 C 
ATOM     10  C   UNL     1     -17.129   1.258 -31.926  1.00  0.00    -0.024 C 
ATOM     11  C   UNL     1     -15.171   3.339 -32.988  1.00  0.00     0.005 C 
ATOM     12  C   UNL     1     -17.674   2.715 -32.467  1.00  0.00    -0.024 C 
ATOM     13  C   UNL     1     -17.501   0.143 -32.969  1.00  0.00     0.012 C 
ATOM     14  C   UNL     1     -16.652   3.341 -33.522  1.00  0.00     0.002 C 
ATOM     15  C   UNL     1     -17.900   3.792 -31.343  1.00  0.00     0.008 C 
ATOM     16  C   UNL     1     -19.090   2.466 -33.101  1.00  0.00     0.012 C 
ATOM     17  C   UNL     1     -17.051   4.789 -34.096  1.00  0.00    -0.026 C 
ATOM     18  C   UNL     1     -18.282   5.203 -31.853  1.00  0.00     0.005 C 
ATOM     19  C   UNL     1     -15.919   5.354 -35.033  1.00  0.00     0.010 C 
ATOM     20  C   UNL     1     -18.320   4.670 -35.007  1.00  0.00     0.012 C 
ATOM     21  C   UNL     1     -17.256   5.763 -32.872  1.00  0.00     0.003 C 
ATOM     22  C   UNL     1     -16.098   6.836 -35.415  1.00  0.00     0.033 C 
ATOM     23  C   UNL     1     -17.430   7.297 -33.226  1.00  0.00    -0.006 C 
ATOM     24  C   UNL     1     -16.287   7.759 -34.197  1.00  0.00     0.120 C 
ATOM     25  C   UNL     1     -17.334   8.157 -31.935  1.00  0.00     0.014 C 
ATOM     26  C   UNL     1     -18.806   7.626 -33.865  1.00  0.00     0.014 C 
ENDROOT
BRANCH   1  27
ATOM     27  C   UNL     1     -14.899   1.047 -28.149  1.00  0.00     0.048 C 
ATOM     28  O   UNL     1     -13.957   1.824 -28.462  1.00  0.00    -0.550 OA
ATOM     29  O   UNL     1     -15.244   0.926 -26.806  1.00  0.00    -0.550 OA
ENDBRANCH   1  27
BRANCH   7  30
ATOM     30  C   UNL     1     -13.429  -1.779 -30.824  1.00  0.00    -0.077 C 
ATOM     31  C   UNL     1     -13.178  -3.265 -30.838  1.00  0.00     0.039 C 
ATOM     32  C   UNL     1     -12.372  -0.955 -30.708  1.00  0.00     0.008 C 
ENDBRANCH   7  30
BRANCH  24  33
ATOM     33  O   UNL     1     -15.060   7.952 -33.530  1.00  0.00    -0.393 OA
ATOM     34  H   UNL     1     -15.210   7.849 -32.556  1.00  0.00     0.210 HD
ENDBRANCH  24  33
TORSDOF 3
ENDMDL
MODEL 4
REMARK VINA RESULT:    -5.862      1.882      2.833
REMARK INTER + INTRA:          -7.216
REMARK INTER:                  -6.509
REMARK INTRA:                  -0.708
REMARK UNBOUND:                -0.497
REMARK SMILES C=C(C)[C@H]1CC[C@]2(C(=O)[O-])CC[C@]3(C)[C@@H](CC[C@@H]4[C@]5(C)CC[C@H](O)C(C)(C)[C@H]5CC[C@@]43C)[C@H]12
REMARK SMILES IDX 7 1 6 2 33 3 11 4 5 5 15 6 4 7 12 8 16 9 13 10 17 11 31 12
REMARK SMILES IDX 14 13 18 14 30 15 32 16 19 17 29 18 21 19 20 20 28 21 22 22
REMARK SMILES IDX 25 23 23 24 26 25 27 26 8 27 9 28 10 29 2 30 3 31 1 32 24 33
REMARK H PARENT 24 34
REMARK Flexibility Score: inf
ROOT
ATOM      1  C   UNL     1     -18.303   2.690 -31.844  1.00  0.00     0.014 C 
ATOM      2  C   UNL     1     -19.125   3.614 -30.903  1.00  0.00     0.014 C 
ATOM      3  C   UNL     1     -16.843   3.257 -31.817  1.00  0.00     0.012 C 
ATOM      4  C   UNL     1     -18.376   1.221 -31.368  1.00  0.00     0.014 C 
ATOM      5  C   UNL     1     -18.146   4.431 -30.075  1.00  0.00     0.009 C 
ATOM      6  C   UNL     1     -15.695   2.209 -31.513  1.00  0.00     0.000 C 
ATOM      7  C   UNL     1     -16.840   4.483 -30.861  1.00  0.00     0.018 C 
ATOM      8  C   UNL     1     -17.519   0.968 -30.131  1.00  0.00     0.008 C 
ATOM      9  C   UNL     1     -15.210   1.602 -32.821  1.00  0.00     0.005 C 
ATOM     10  C   UNL     1     -15.977   1.108 -30.393  1.00  0.00    -0.024 C 
ATOM     11  C   UNL     1     -13.939   0.785 -32.636  1.00  0.00     0.005 C 
ATOM     12  C   UNL     1     -15.283  -0.358 -30.683  1.00  0.00    -0.024 C 
ATOM     13  C   UNL     1     -15.379   1.714 -29.073  1.00  0.00     0.012 C 
ATOM     14  C   UNL     1     -13.864  -0.177 -31.392  1.00  0.00     0.002 C 
ATOM     15  C   UNL     1     -16.135  -1.322 -31.588  1.00  0.00     0.008 C 
ATOM     16  C   UNL     1     -15.156  -1.086 -29.297  1.00  0.00     0.012 C 
ATOM     17  C   UNL     1     -13.099  -1.540 -31.768  1.00  0.00    -0.026 C 
ATOM     18  C   UNL     1     -15.433  -2.647 -31.977  1.00  0.00     0.005 C 
ATOM     19  C   UNL     1     -11.772  -1.241 -32.561  1.00  0.00     0.010 C 
ATOM     20  C   UNL     1     -12.642  -2.273 -30.460  1.00  0.00     0.012 C 
ATOM     21  C   UNL     1     -14.062  -2.413 -32.662  1.00  0.00     0.003 C 
ATOM     22  C   UNL     1     -11.115  -2.488 -33.185  1.00  0.00     0.033 C 
ATOM     23  C   UNL     1     -13.417  -3.696 -33.331  1.00  0.00    -0.006 C 
ATOM     24  C   UNL     1     -12.081  -3.311 -34.058  1.00  0.00     0.120 C 
ATOM     25  C   UNL     1     -14.384  -4.286 -34.395  1.00  0.00     0.014 C 
ATOM     26  C   UNL     1     -13.137  -4.839 -32.318  1.00  0.00     0.014 C 
ENDROOT
BRANCH   1  27
ATOM     27  C   UNL     1     -18.901   2.720 -33.246  1.00  0.00     0.048 C 
ATOM     28  O   UNL     1     -19.090   3.814 -33.842  1.00  0.00    -0.550 OA
ATOM     29  O   UNL     1     -19.121   1.535 -33.942  1.00  0.00    -0.550 OA
ENDBRANCH   1  27
BRANCH   7  30
ATOM     30  C   UNL     1     -16.672   5.819 -31.593  1.00  0.00    -0.077 C 
ATOM     31  C   UNL     1     -16.173   5.844 -33.016  1.00  0.00     0.039 C 
ATOM     32  C   UNL     1     -16.963   6.991 -31.000  1.00  0.00     0.008 C 
ENDBRANCH   7  30
BRANCH  24  33
ATOM     33  O   UNL     1     -12.305  -2.663 -35.290  1.00  0.00    -0.393 OA
ATOM     34  H   UNL     1     -12.054  -1.710 -35.196  1.00  0.00     0.210 HD
ENDBRANCH  24  33
TORSDOF 3
ENDMDL
MODEL 5
REMARK VINA RESULT:    -5.826      1.976      7.849
REMARK INTER + INTRA:          -7.175
REMARK INTER:                  -6.547
REMARK INTRA:                  -0.628
REMARK UNBOUND:                -0.497
REMARK SMILES C=C(C)[C@H]1CC[C@]2(C(=O)[O-])CC[C@]3(C)[C@@H](CC[C@@H]4[C@]5(C)CC[C@H](O)C(C)(C)[C@H]5CC[C@@]43C)[C@H]12
REMARK SMILES IDX 7 1 6 2 33 3 11 4 5 5 15 6 4 7 12 8 16 9 13 10 17 11 31 12
REMARK SMILES IDX 14 13 18 14 30 15 32 16 19 17 29 18 21 19 20 20 28 21 22 22
REMARK SMILES IDX 25 23 23 24 26 25 27 26 8 27 9 28 10 29 2 30 3 31 1 32 24 33
REMARK H PARENT 24 34
REMARK Flexibility Score: inf
ROOT
ATOM      1  C   UNL     1     -14.963  -3.246 -31.608  1.00  0.00     0.014 C 
ATOM      2  C   UNL     1     -14.584  -4.610 -32.249  1.00  0.00     0.014 C 
ATOM      3  C   UNL     1     -13.775  -2.281 -31.944  1.00  0.00     0.012 C 
ATOM      4  C   UNL     1     -16.313  -2.737 -32.162  1.00  0.00     0.014 C 
ATOM      5  C   UNL     1     -13.443  -4.369 -33.224  1.00  0.00     0.009 C 
ATOM      6  C   UNL     1     -14.170  -0.892 -32.597  1.00  0.00     0.000 C 
ATOM      7  C   UNL     1     -12.742  -3.092 -32.777  1.00  0.00     0.018 C 
ATOM      8  C   UNL     1     -16.192  -2.200 -33.586  1.00  0.00     0.008 C 
ATOM      9  C   UNL     1     -14.411   0.129 -31.495  1.00  0.00     0.005 C 
ATOM     10  C   UNL     1     -15.328  -0.895 -33.695  1.00  0.00    -0.024 C 
ATOM     11  C   UNL     1     -14.539   1.543 -32.043  1.00  0.00     0.005 C 
ATOM     12  C   UNL     1     -16.275   0.454 -33.694  1.00  0.00    -0.024 C 
ATOM     13  C   UNL     1     -14.576  -1.001 -35.071  1.00  0.00     0.012 C 
ATOM     14  C   UNL     1     -15.410   1.748 -33.339  1.00  0.00     0.002 C 
ATOM     15  C   UNL     1     -17.481   0.409 -32.685  1.00  0.00     0.008 C 
ATOM     16  C   UNL     1     -16.924   0.557 -35.121  1.00  0.00     0.012 C 
ATOM     17  C   UNL     1     -16.230   3.129 -33.264  1.00  0.00    -0.026 C 
ATOM     18  C   UNL     1     -18.296   1.722 -32.580  1.00  0.00     0.005 C 
ATOM     19  C   UNL     1     -15.301   4.310 -32.795  1.00  0.00     0.010 C 
ATOM     20  C   UNL     1     -16.723   3.534 -34.695  1.00  0.00     0.012 C 
ATOM     21  C   UNL     1     -17.409   2.944 -32.231  1.00  0.00     0.003 C 
ATOM     22  C   UNL     1     -16.057   5.607 -32.446  1.00  0.00     0.033 C 
ATOM     23  C   UNL     1     -18.201   4.259 -31.839  1.00  0.00    -0.006 C 
ATOM     24  C   UNL     1     -17.195   5.392 -31.430  1.00  0.00     0.120 C 
ATOM     25  C   UNL     1     -19.125   3.982 -30.620  1.00  0.00     0.014 C 
ATOM     26  C   UNL     1     -19.124   4.780 -32.973  1.00  0.00     0.014 C 
ENDROOT
BRANCH   1  27
ATOM     27  C   UNL     1     -15.150  -3.418 -30.105  1.00  0.00     0.048 C 
ATOM     28  O   UNL     1     -14.806  -4.486 -29.531  1.00  0.00    -0.550 OA
ATOM     29  O   UNL     1     -15.576  -2.348 -29.323  1.00  0.00    -0.550 OA
ENDBRANCH   1  27
BRANCH   7  30
ATOM     30  C   UNL     1     -11.451  -3.393 -32.008  1.00  0.00    -0.077 C 
ATOM     31  C   UNL     1     -11.481  -3.539 -30.507  1.00  0.00     0.039 C 
ATOM     32  C   UNL     1     -10.271  -3.538 -32.638  1.00  0.00     0.008 C 
ENDBRANCH   7  30
BRANCH  24  33
ATOM     33  O   UNL     1     -16.670   5.205 -30.135  1.00  0.00    -0.393 OA
ATOM     34  H   UNL     1     -16.945   5.969 -29.569  1.00  0.00     0.210 HD
ENDBRANCH  24  33
TORSDOF 3
ENDMDL
MODEL 6
REMARK VINA RESULT:    -5.716      2.047      3.977
REMARK INTER + INTRA:          -7.049
REMARK INTER:                  -6.413
REMARK INTRA:                  -0.636
REMARK UNBOUND:                -0.497
REMARK SMILES C=C(C)[C@H]1CC[C@]2(C(=O)[O-])CC[C@]3(C)[C@@H](CC[C@@H]4[C@]5(C)CC[C@H](O)C(C)(C)[C@H]5CC[C@@]43C)[C@H]12
REMARK SMILES IDX 7 1 6 2 33 3 11 4 5 5 15 6 4 7 12 8 16 9 13 10 17 11 31 12
REMARK SMILES IDX 14 13 18 14 30 15 32 16 19 17 29 18 21 19 20 20 28 21 22 22
REMARK SMILES IDX 25 23 23 24 26 25 27 26 8 27 9 28 10 29 2 30 3 31 1 32 24 33
REMARK H PARENT 24 34
REMARK Flexibility Score: inf
ROOT
ATOM      1  C   UNL     1     -18.034   6.488 -33.439  1.00  0.00     0.014 C 
ATOM      2  C   UNL     1     -18.826   7.788 -33.124  1.00  0.00     0.014 C 
ATOM      3  C   UNL     1     -16.749   6.553 -32.546  1.00  0.00     0.012 C 
ATOM      4  C   UNL     1     -18.895   5.239 -33.147  1.00  0.00     0.014 C 
ATOM      5  C   UNL     1     -18.249   8.391 -31.852  1.00  0.00     0.009 C 
ATOM      6  C   UNL     1     -16.448   5.271 -31.665  1.00  0.00     0.000 C 
ATOM      7  C   UNL     1     -16.822   7.872 -31.726  1.00  0.00     0.018 C 
ATOM      8  C   UNL     1     -19.034   4.965 -31.652  1.00  0.00     0.008 C 
ATOM      9  C   UNL     1     -15.588   4.304 -32.465  1.00  0.00     0.005 C 
ATOM     10  C   UNL     1     -17.687   4.552 -30.960  1.00  0.00    -0.024 C 
ATOM     11  C   UNL     1     -15.045   3.174 -31.601  1.00  0.00     0.005 C 
ATOM     12  C   UNL     1     -17.550   2.915 -30.841  1.00  0.00    -0.024 C 
ATOM     13  C   UNL     1     -17.746   5.176 -29.519  1.00  0.00     0.012 C 
ATOM     14  C   UNL     1     -16.033   2.494 -30.581  1.00  0.00     0.002 C 
ATOM     15  C   UNL     1     -18.043   2.120 -32.106  1.00  0.00     0.008 C 
ATOM     16  C   UNL     1     -18.493   2.463 -29.668  1.00  0.00     0.012 C 
ATOM     17  C   UNL     1     -15.759   0.913 -30.487  1.00  0.00    -0.026 C 
ATOM     18  C   UNL     1     -17.795   0.592 -32.058  1.00  0.00     0.005 C 
ATOM     19  C   UNL     1     -14.219   0.615 -30.345  1.00  0.00     0.010 C 
ATOM     20  C   UNL     1     -16.412   0.336 -29.185  1.00  0.00     0.012 C 
ATOM     21  C   UNL     1     -16.306   0.241 -31.805  1.00  0.00     0.003 C 
ATOM     22  C   UNL     1     -13.846  -0.871 -30.511  1.00  0.00     0.033 C 
ATOM     23  C   UNL     1     -15.931  -1.284 -32.015  1.00  0.00    -0.006 C 
ATOM     24  C   UNL     1     -14.389  -1.492 -31.812  1.00  0.00     0.120 C 
ATOM     25  C   UNL     1     -16.283  -1.725 -33.464  1.00  0.00     0.014 C 
ATOM     26  C   UNL     1     -16.705  -2.242 -31.070  1.00  0.00     0.014 C 
ENDROOT
BRANCH   1  27
ATOM     27  C   UNL     1     -17.694   6.441 -34.925  1.00  0.00     0.048 C 
ATOM     28  O   UNL     1     -16.515   6.220 -35.309  1.00  0.00    -0.550 OA
ATOM     29  O   UNL     1     -18.705   6.506 -35.879  1.00  0.00    -0.550 OA
ENDBRANCH   1  27
BRANCH   7  30
ATOM     30  C   UNL     1     -15.796   8.920 -32.175  1.00  0.00    -0.077 C 
ATOM     31  C   UNL     1     -15.385  10.026 -31.237  1.00  0.00     0.039 C 
ATOM     32  C   UNL     1     -15.239   8.882 -33.399  1.00  0.00     0.008 C 
ENDBRANCH   7  30
BRANCH  24  33
ATOM     33  O   UNL     1     -13.635  -1.053 -32.920  1.00  0.00    -0.393 OA
ATOM     34  H   UNL     1     -12.868  -0.521 -32.589  1.00  0.00     0.210 HD
ENDBRANCH  24  33
TORSDOF 3
ENDMDL
MODEL 7
REMARK VINA RESULT:    -5.425      2.111      7.792
REMARK INTER + INTRA:          -6.715
REMARK INTER:                  -6.070
REMARK INTRA:                  -0.644
REMARK UNBOUND:                -0.497
REMARK SMILES C=C(C)[C@H]1CC[C@]2(C(=O)[O-])CC[C@]3(C)[C@@H](CC[C@@H]4[C@]5(C)CC[C@H](O)C(C)(C)[C@H]5CC[C@@]43C)[C@H]12
REMARK SMILES IDX 7 1 6 2 33 3 11 4 5 5 15 6 4 7 12 8 16 9 13 10 17 11 31 12
REMARK SMILES IDX 14 13 18 14 30 15 32 16 19 17 29 18 21 19 20 20 28 21 22 22
REMARK SMILES IDX 25 23 23 24 26 25 27 26 8 27 9 28 10 29 2 30 3 31 1 32 24 33
REMARK H PARENT 24 34
REMARK Flexibility Score: inf
ROOT
ATOM      1  C   UNL     1     -15.509  -1.269 -30.903  1.00  0.00     0.014 C 
ATOM      2  C   UNL     1     -15.334  -2.756 -31.320  1.00  0.00     0.014 C 
ATOM      3  C   UNL     1     -14.299  -0.510 -31.546  1.00  0.00     0.012 C 
ATOM      4  C   UNL     1     -16.872  -0.724 -31.382  1.00  0.00     0.014 C 
ATOM      5  C   UNL     1     -14.316  -2.811 -32.448  1.00  0.00     0.009 C 
ATOM      6  C   UNL     1     -14.658   0.779 -32.394  1.00  0.00     0.000 C 
ATOM      7  C   UNL     1     -13.457  -1.557 -32.328  1.00  0.00     0.018 C 
ATOM      8  C   UNL     1     -16.896  -0.457 -32.885  1.00  0.00     0.008 C 
ATOM      9  C   UNL     1     -14.664   1.995 -31.480  1.00  0.00     0.005 C 
ATOM     10  C   UNL     1     -15.948   0.711 -33.332  1.00  0.00    -0.024 C 
ATOM     11  C   UNL     1     -14.744   3.299 -32.262  1.00  0.00     0.005 C 
ATOM     12  C   UNL     1     -16.769   2.132 -33.471  1.00  0.00    -0.024 C 
ATOM     13  C   UNL     1     -15.397   0.289 -34.742  1.00  0.00     0.012 C 
ATOM     14  C   UNL     1     -15.760   3.368 -33.463  1.00  0.00     0.002 C 
ATOM     15  C   UNL     1     -17.831   2.392 -32.340  1.00  0.00     0.008 C 
ATOM     16  C   UNL     1     -17.591   2.055 -34.808  1.00  0.00     0.012 C 
ATOM     17  C   UNL     1     -16.443   4.821 -33.551  1.00  0.00    -0.026 C 
ATOM     18  C   UNL     1     -18.512   3.782 -32.386  1.00  0.00     0.005 C 
ATOM     19  C   UNL     1     -15.364   5.960 -33.420  1.00  0.00     0.010 C 
ATOM     20  C   UNL     1     -17.086   5.023 -34.966  1.00  0.00     0.012 C 
ATOM     21  C   UNL     1     -17.486   4.945 -32.374  1.00  0.00     0.003 C 
ATOM     22  C   UNL     1     -15.956   7.371 -33.231  1.00  0.00     0.033 C 
ATOM     23  C   UNL     1     -18.106   6.385 -32.143  1.00  0.00    -0.006 C 
ATOM     24  C   UNL     1     -16.962   7.457 -32.069  1.00  0.00     0.120 C 
ATOM     25  C   UNL     1     -18.880   6.422 -30.795  1.00  0.00     0.014 C 
ATOM     26  C   UNL     1     -19.124   6.797 -33.239  1.00  0.00     0.014 C 
ENDROOT
BRANCH   1  27
ATOM     27  C   UNL     1     -15.508  -1.158 -29.383  1.00  0.00     0.048 C 
ATOM     28  O   UNL     1     -15.050  -0.132 -28.812  1.00  0.00    -0.550 OA
ATOM     29  O   UNL     1     -16.137  -2.128 -28.607  1.00  0.00    -0.550 OA
ENDBRANCH   1  27
BRANCH   7  30
ATOM     30  C   UNL     1     -12.105  -1.858 -31.671  1.00  0.00    -0.077 C 
ATOM     31  C   UNL     1     -11.176  -2.874 -32.284  1.00  0.00     0.039 C 
ATOM     32  C   UNL     1     -11.713  -1.232 -30.547  1.00  0.00     0.008 C 
ENDBRANCH   7  30
BRANCH  24  33
ATOM     33  O   UNL     1     -16.288   7.442 -30.831  1.00  0.00    -0.393 OA
ATOM     34  H   UNL     1     -16.899   7.077 -30.143  1.00  0.00     0.210 HD
ENDBRANCH  24  33
TORSDOF 3
ENDMDL
MODEL 8
REMARK VINA RESULT:    -4.945      2.822      4.680
REMARK INTER + INTRA:          -6.165
REMARK INTER:                  -5.528
REMARK INTRA:                  -0.637
REMARK UNBOUND:                -0.497
REMARK SMILES C=C(C)[C@H]1CC[C@]2(C(=O)[O-])CC[C@]3(C)[C@@H](CC[C@@H]4[C@]5(C)CC[C@H](O)C(C)(C)[C@H]5CC[C@@]43C)[C@H]12
REMARK SMILES IDX 7 1 6 2 33 3 11 4 5 5 15 6 4 7 12 8 16 9 13 10 17 11 31 12
REMARK SMILES IDX 14 13 18 14 30 15 32 16 19 17 29 18 21 19 20 20 28 21 22 22
REMARK SMILES IDX 25 23 23 24 26 25 27 26 8 27 9 28 10 29 2 30 3 31 1 32 24 33
REMARK H PARENT 24 34
REMARK Flexibility Score: inf
ROOT
ATOM      1  C   UNL     1     -16.071   3.461 -31.743  1.00  0.00     0.014 C 
ATOM      2  C   UNL     1     -15.433   4.562 -32.636  1.00  0.00     0.014 C 
ATOM      3  C   UNL     1     -17.147   2.765 -32.642  1.00  0.00     0.012 C 
ATOM      4  C   UNL     1     -14.994   2.475 -31.237  1.00  0.00     0.014 C 
ATOM      5  C   UNL     1     -15.827   4.283 -34.078  1.00  0.00     0.009 C 
ATOM      6  C   UNL     1     -17.074   1.184 -32.718  1.00  0.00     0.000 C 
ATOM      7  C   UNL     1     -17.108   3.458 -34.034  1.00  0.00     0.018 C 
ATOM      8  C   UNL     1     -14.522   1.520 -32.330  1.00  0.00     0.008 C 
ATOM      9  C   UNL     1     -17.924   0.589 -31.605  1.00  0.00     0.005 C 
ATOM     10  C   UNL     1     -15.628   0.515 -32.809  1.00  0.00    -0.024 C 
ATOM     11  C   UNL     1     -18.111  -0.913 -31.769  1.00  0.00     0.005 C 
ATOM     12  C   UNL     1     -15.494  -0.936 -32.040  1.00  0.00    -0.024 C 
ATOM     13  C   UNL     1     -15.375   0.313 -34.347  1.00  0.00     0.012 C 
ATOM     14  C   UNL     1     -16.851  -1.767 -32.168  1.00  0.00     0.002 C 
ATOM     15  C   UNL     1     -15.152  -0.839 -30.507  1.00  0.00     0.008 C 
ATOM     16  C   UNL     1     -14.281  -1.690 -32.694  1.00  0.00     0.012 C 
ATOM     17  C   UNL     1     -16.864  -3.191 -31.420  1.00  0.00    -0.026 C 
ATOM     18  C   UNL     1     -15.157  -2.188 -29.747  1.00  0.00     0.005 C 
ATOM     19  C   UNL     1     -18.283  -3.865 -31.518  1.00  0.00     0.010 C 
ATOM     20  C   UNL     1     -15.886  -4.180 -32.142  1.00  0.00     0.012 C 
ATOM     21  C   UNL     1     -16.497  -2.952 -29.904  1.00  0.00     0.003 C 
ATOM     22  C   UNL     1     -18.458  -5.100 -30.613  1.00  0.00     0.033 C 
ATOM     23  C   UNL     1     -16.678  -4.197 -28.941  1.00  0.00    -0.006 C 
ATOM     24  C   UNL     1     -18.100  -4.829 -29.139  1.00  0.00     0.120 C 
ATOM     25  C   UNL     1     -16.560  -3.745 -27.458  1.00  0.00     0.014 C 
ATOM     26  C   UNL     1     -15.598  -5.293 -29.148  1.00  0.00     0.014 C 
ENDROOT
BRANCH   1  27
ATOM     27  C   UNL     1     -16.690   4.099 -30.504  1.00  0.00     0.048 C 
ATOM     28  O   UNL     1     -16.868   3.425 -29.454  1.00  0.00    -0.550 OA
ATOM     29  O   UNL     1     -16.941   5.467 -30.469  1.00  0.00    -0.550 OA
ENDBRANCH   1  27
BRANCH   7  30
ATOM     30  C   UNL     1     -18.346   4.319 -34.313  1.00  0.00    -0.077 C 
ATOM     31  C   UNL     1     -19.121   4.923 -33.170  1.00  0.00     0.039 C 
ATOM     32  C   UNL     1     -18.769   4.561 -35.567  1.00  0.00     0.008 C 
ENDBRANCH   7  30
BRANCH  24  33
ATOM     33  O   UNL     1     -19.116  -4.076 -28.516  1.00  0.00    -0.393 OA
ATOM     34  H   UNL     1     -19.002  -4.143 -27.535  1.00  0.00     0.210 HD
ENDBRANCH  24  33
TORSDOF 3
ENDMDL
