MODEL 1
REMARK VINA RESULT:    -3.371      0.000      0.000
REMARK INTER + INTRA:          -4.973
REMARK INTER:                  -4.652
REMARK INTRA:                  -0.320
REMARK UNBOUND:                -0.320
REMARK SMILES CCCCCCCCO
REMARK SMILES IDX 5 1 4 2 3 3 2 4 1 5 6 6 7 7 8 8 9 9
REMARK H PARENT 9 10
REMARK Flexibility Score: inf
ROOT
ATOM      1  C   UNL     1     163.994 179.316 167.754  1.00  0.00     0.000 C 
ENDROOT
BRANCH   1   2
ATOM      2  C   UNL     1     164.868 178.124 168.171  1.00  0.00    -0.000 C 
BRANCH   2   3
ATOM      3  C   UNL     1     165.057 177.146 167.004  1.00  0.00    -0.000 C 
BRANCH   3   4
ATOM      4  C   UNL     1     164.819 177.842 165.659  1.00  0.00    -0.003 C 
ATOM      5  C   UNL     1     164.141 176.903 164.665  1.00  0.00     0.004 C 
ENDBRANCH   3   4
ENDBRANCH   2   3
ENDBRANCH   1   2
BRANCH   1   6
ATOM      6  C   UNL     1     162.545 179.203 168.261  1.00  0.00     0.002 C 
BRANCH   6   7
ATOM      7  C   UNL     1     162.323 178.172 169.384  1.00  0.00     0.028 C 
BRANCH   7   8
ATOM      8  C   UNL     1     160.849 177.827 169.621  1.00  0.00     0.156 C 
BRANCH   8   9
ATOM      9  O   UNL     1     160.402 178.397 170.820  1.00  0.00    -0.396 OA
ATOM     10  H   UNL     1     161.209 178.526 171.382  1.00  0.00     0.210 HD
ENDBRANCH   8   9
ENDBRANCH   7   8
ENDBRANCH   6   7
ENDBRANCH   1   6
TORSDOF 7
ENDMDL
MODEL 2
REMARK VINA RESULT:    -3.363      2.047      4.291
REMARK INTER + INTRA:          -4.962
REMARK INTER:                  -4.580
REMARK INTRA:                  -0.382
REMARK UNBOUND:                -0.320
REMARK SMILES CCCCCCCCO
REMARK SMILES IDX 5 1 4 2 3 3 2 4 1 5 6 6 7 7 8 8 9 9
REMARK H PARENT 9 10
REMARK Flexibility Score: inf
ROOT
ATOM      1  C   UNL     1     164.930 177.920 168.012  1.00  0.00     0.000 C 
ENDROOT
BRANCH   1   2
ATOM      2  C   UNL     1     164.202 179.222 167.651  1.00  0.00    -0.000 C 
BRANCH   2   3
ATOM      3  C   UNL     1     162.794 179.251 168.259  1.00  0.00    -0.000 C 
BRANCH   3   4
ATOM      4  C   UNL     1     162.615 178.129 169.288  1.00  0.00    -0.003 C 
ATOM      5  C   UNL     1     161.138 177.831 169.527  1.00  0.00     0.004 C 
ENDBRANCH   3   4
ENDBRANCH   2   3
ENDBRANCH   1   2
BRANCH   1   6
ATOM      6  C   UNL     1     165.060 176.955 166.820  1.00  0.00     0.002 C 
BRANCH   6   7
ATOM      7  C   UNL     1     164.593 177.522 165.466  1.00  0.00     0.028 C 
BRANCH   7   8
ATOM      8  C   UNL     1     163.231 176.987 165.010  1.00  0.00     0.156 C 
BRANCH   8   9
ATOM      9  O   UNL     1     162.794 175.970 165.870  1.00  0.00    -0.396 OA
ATOM     10  H   UNL     1     161.838 175.818 165.653  1.00  0.00     0.210 HD
ENDBRANCH   8   9
ENDBRANCH   7   8
ENDBRANCH   6   7
ENDBRANCH   1   6
TORSDOF 7
ENDMDL
MODEL 3
REMARK VINA RESULT:    -3.309      2.325      4.377
REMARK INTER + INTRA:          -4.886
REMARK INTER:                  -4.572
REMARK INTRA:                  -0.314
REMARK UNBOUND:                -0.320
REMARK SMILES CCCCCCCCO
REMARK SMILES IDX 5 1 4 2 3 3 2 4 1 5 6 6 7 7 8 8 9 9
REMARK H PARENT 9 10
REMARK Flexibility Score: inf
ROOT
ATOM      1  C   UNL     1     162.687 179.206 168.297  1.00  0.00     0.000 C 
ENDROOT
BRANCH   1   2
ATOM      2  C   UNL     1     162.434 178.149 169.381  1.00  0.00    -0.000 C 
BRANCH   2   3
ATOM      3  C   UNL     1     160.935 177.859 169.527  1.00  0.00    -0.000 C 
BRANCH   3   4
ATOM      4  C   UNL     1     160.302 177.533 168.170  1.00  0.00    -0.003 C 
ATOM      5  C   UNL     1     159.352 176.344 168.275  1.00  0.00     0.004 C 
ENDBRANCH   3   4
ENDBRANCH   2   3
ENDBRANCH   1   2
BRANCH   1   6
ATOM      6  C   UNL     1     163.806 178.807 167.320  1.00  0.00     0.002 C 
BRANCH   6   7
ATOM      7  C   UNL     1     164.871 177.855 167.898  1.00  0.00     0.028 C 
BRANCH   7   8
ATOM      8  C   UNL     1     165.168 176.647 167.002  1.00  0.00     0.156 C 
BRANCH   8   9
ATOM      9  O   UNL     1     164.005 176.235 166.337  1.00  0.00    -0.396 OA
ATOM     10  H   UNL     1     163.265 176.776 166.717  1.00  0.00     0.210 HD
ENDBRANCH   8   9
ENDBRANCH   7   8
ENDBRANCH   6   7
ENDBRANCH   1   6
TORSDOF 7
ENDMDL
MODEL 4
REMARK VINA RESULT:    -3.271      2.056      4.496
REMARK INTER + INTRA:          -4.835
REMARK INTER:                  -4.494
REMARK INTRA:                  -0.341
REMARK UNBOUND:                -0.320
REMARK SMILES CCCCCCCCO
REMARK SMILES IDX 5 1 4 2 3 3 2 4 1 5 6 6 7 7 8 8 9 9
REMARK H PARENT 9 10
REMARK Flexibility Score: inf
ROOT
ATOM      1  C   UNL     1     163.721 179.266 167.729  1.00  0.00     0.000 C 
ENDROOT
BRANCH   1   2
ATOM      2  C   UNL     1     162.286 179.192 168.269  1.00  0.00    -0.000 C 
BRANCH   2   3
ATOM      3  C   UNL     1     162.187 178.200 169.435  1.00  0.00    -0.000 C 
BRANCH   3   4
ATOM      4  C   UNL     1     160.833 177.482 169.435  1.00  0.00    -0.003 C 
ATOM      5  C   UNL     1     159.697 178.448 169.758  1.00  0.00     0.004 C 
ENDBRANCH   3   4
ENDBRANCH   2   3
ENDBRANCH   1   2
BRANCH   1   6
ATOM      6  C   UNL     1     164.607 178.109 168.223  1.00  0.00     0.002 C 
BRANCH   6   7
ATOM      7  C   UNL     1     165.156 177.187 167.117  1.00  0.00     0.028 C 
BRANCH   7   8
ATOM      8  C   UNL     1     164.237 177.076 165.895  1.00  0.00     0.156 C 
BRANCH   8   9
ATOM      9  O   UNL     1     163.216 176.149 166.136  1.00  0.00    -0.396 OA
ATOM     10  H   UNL     1     163.546 175.279 165.790  1.00  0.00     0.210 HD
ENDBRANCH   8   9
ENDBRANCH   7   8
ENDBRANCH   6   7
ENDBRANCH   1   6
TORSDOF 7
ENDMDL
MODEL 5
REMARK VINA RESULT:    -3.250      0.966      1.494
REMARK INTER + INTRA:          -4.805
REMARK INTER:                  -4.431
REMARK INTRA:                  -0.374
REMARK UNBOUND:                -0.320
REMARK SMILES CCCCCCCCO
REMARK SMILES IDX 5 1 4 2 3 3 2 4 1 5 6 6 7 7 8 8 9 9
REMARK H PARENT 9 10
REMARK Flexibility Score: inf
ROOT
ATOM      1  C   UNL     1     162.492 179.048 168.248  1.00  0.00     0.000 C 
ENDROOT
BRANCH   1   2
ATOM      2  C   UNL     1     163.558 178.088 168.796  1.00  0.00    -0.000 C 
BRANCH   2   3
ATOM      3  C   UNL     1     164.848 178.171 167.970  1.00  0.00    -0.000 C 
BRANCH   3   4
ATOM      4  C   UNL     1     165.090 176.871 167.194  1.00  0.00    -0.003 C 
ATOM      5  C   UNL     1     164.472 176.939 165.800  1.00  0.00     0.004 C 
ENDBRANCH   3   4
ENDBRANCH   2   3
ENDBRANCH   1   2
BRANCH   1   6
ATOM      6  C   UNL     1     161.236 178.320 167.738  1.00  0.00     0.002 C 
BRANCH   6   7
ATOM      7  C   UNL     1     160.498 177.471 168.791  1.00  0.00     0.028 C 
BRANCH   7   8
ATOM      8  C   UNL     1     159.669 178.300 169.779  1.00  0.00     0.156 C 
BRANCH   8   9
ATOM      9  O   UNL     1     160.347 178.429 170.997  1.00  0.00    -0.396 OA
ATOM     10  H   UNL     1     159.855 177.863 171.648  1.00  0.00     0.210 HD
ENDBRANCH   8   9
ENDBRANCH   7   8
ENDBRANCH   6   7
ENDBRANCH   1   6
TORSDOF 7
ENDMDL
MODEL 6
REMARK VINA RESULT:    -3.198      2.985      3.905
REMARK INTER + INTRA:          -4.734
REMARK INTER:                  -4.247
REMARK INTRA:                  -0.487
REMARK UNBOUND:                -0.320
REMARK SMILES CCCCCCCCO
REMARK SMILES IDX 5 1 4 2 3 3 2 4 1 5 6 6 7 7 8 8 9 9
REMARK H PARENT 9 10
REMARK Flexibility Score: inf
ROOT
ATOM      1  C   UNL     1     164.986 177.887 167.859  1.00  0.00     0.000 C 
ENDROOT
BRANCH   1   2
ATOM      2  C   UNL     1     165.993 179.009 167.569  1.00  0.00    -0.000 C 
BRANCH   2   3
ATOM      3  C   UNL     1     165.286 180.364 167.445  1.00  0.00    -0.000 C 
BRANCH   3   4
ATOM      4  C   UNL     1     164.988 180.698 165.979  1.00  0.00    -0.003 C 
ATOM      5  C   UNL     1     166.135 180.267 165.071  1.00  0.00     0.004 C 
ENDBRANCH   3   4
ENDBRANCH   2   3
ENDBRANCH   1   2
BRANCH   1   6
ATOM      6  C   UNL     1     165.133 176.689 166.906  1.00  0.00     0.002 C 
BRANCH   6   7
ATOM      7  C   UNL     1     164.585 176.913 165.483  1.00  0.00     0.028 C 
BRANCH   7   8
ATOM      8  C   UNL     1     163.059 177.045 165.425  1.00  0.00     0.156 C 
BRANCH   8   9
ATOM      9  O   UNL     1     162.453 175.805 165.662  1.00  0.00    -0.396 OA
ATOM     10  H   UNL     1     162.491 175.663 166.644  1.00  0.00     0.210 HD
ENDBRANCH   8   9
ENDBRANCH   7   8
ENDBRANCH   6   7
ENDBRANCH   1   6
TORSDOF 7
ENDMDL
MODEL 7
REMARK VINA RESULT:    -3.180      1.277      1.939
REMARK INTER + INTRA:          -4.708
REMARK INTER:                  -4.273
REMARK INTRA:                  -0.435
REMARK UNBOUND:                -0.320
REMARK SMILES CCCCCCCCO
REMARK SMILES IDX 5 1 4 2 3 3 2 4 1 5 6 6 7 7 8 8 9 9
REMARK H PARENT 9 10
REMARK Flexibility Score: inf
ROOT
ATOM      1  C   UNL     1     165.239 177.867 167.294  1.00  0.00     0.000 C 
ENDROOT
BRANCH   1   2
ATOM      2  C   UNL     1     164.838 176.627 166.484  1.00  0.00    -0.000 C 
BRANCH   2   3
ATOM      3  C   UNL     1     164.481 177.005 165.041  1.00  0.00    -0.000 C 
BRANCH   3   4
ATOM      4  C   UNL     1     164.545 178.523 164.837  1.00  0.00    -0.003 C 
ATOM      5  C   UNL     1     163.174 179.089 164.478  1.00  0.00     0.004 C 
ENDBRANCH   3   4
ENDBRANCH   2   3
ENDBRANCH   1   2
BRANCH   1   6
ATOM      6  C   UNL     1     164.351 178.089 168.531  1.00  0.00     0.002 C 
BRANCH   6   7
ATOM      7  C   UNL     1     163.074 178.915 168.279  1.00  0.00     0.028 C 
BRANCH   7   8
ATOM      8  C   UNL     1     161.846 178.397 169.036  1.00  0.00     0.156 C 
BRANCH   8   9
ATOM      9  O   UNL     1     162.212 177.368 169.912  1.00  0.00    -0.396 OA
ATOM     10  H   UNL     1     161.386 177.114 170.400  1.00  0.00     0.210 HD
ENDBRANCH   8   9
ENDBRANCH   7   8
ENDBRANCH   6   7
ENDBRANCH   1   6
TORSDOF 7
ENDMDL
MODEL 8
REMARK VINA RESULT:    -3.178      1.438      2.263
REMARK INTER + INTRA:          -4.706
REMARK INTER:                  -4.303
REMARK INTRA:                  -0.403
REMARK UNBOUND:                -0.320
REMARK SMILES CCCCCCCCO
REMARK SMILES IDX 5 1 4 2 3 3 2 4 1 5 6 6 7 7 8 8 9 9
REMARK H PARENT 9 10
REMARK Flexibility Score: inf
ROOT
ATOM      1  C   UNL     1     162.721 178.353 166.734  1.00  0.00     0.000 C 
ENDROOT
BRANCH   1   2
ATOM      2  C   UNL     1     164.102 177.682 166.768  1.00  0.00    -0.000 C 
BRANCH   2   3
ATOM      3  C   UNL     1     164.895 178.121 168.005  1.00  0.00    -0.000 C 
BRANCH   3   4
ATOM      4  C   UNL     1     166.141 178.921 167.605  1.00  0.00    -0.003 C 
ATOM      5  C   UNL     1     165.827 180.410 167.491  1.00  0.00     0.004 C 
ENDBRANCH   3   4
ENDBRANCH   2   3
ENDBRANCH   1   2
BRANCH   1   6
ATOM      6  C   UNL     1     162.364 179.058 168.054  1.00  0.00     0.002 C 
BRANCH   6   7
ATOM      7  C   UNL     1     160.925 178.823 168.552  1.00  0.00     0.028 C 
BRANCH   7   8
ATOM      8  C   UNL     1     160.815 177.734 169.626  1.00  0.00     0.156 C 
BRANCH   8   9
ATOM      9  O   UNL     1     162.089 177.277 169.989  1.00  0.00    -0.396 OA
ATOM     10  H   UNL     1     162.484 177.987 170.557  1.00  0.00     0.210 HD
ENDBRANCH   8   9
ENDBRANCH   7   8
ENDBRANCH   6   7
ENDBRANCH   1   6
TORSDOF 7
ENDMDL
MODEL 9
REMARK VINA RESULT:    -3.059      8.862     10.246
REMARK INTER + INTRA:          -4.542
REMARK INTER:                  -4.246
REMARK INTRA:                  -0.297
REMARK UNBOUND:                -0.320
REMARK SMILES CCCCCCCCO
REMARK SMILES IDX 5 1 4 2 3 3 2 4 1 5 6 6 7 7 8 8 9 9
REMARK H PARENT 9 10
REMARK Flexibility Score: inf
ROOT
ATOM      1  C   UNL     1     167.902 171.225 163.714  1.00  0.00     0.000 C 
ENDROOT
BRANCH   1   2
ATOM      2  C   UNL     1     168.919 170.513 164.618  1.00  0.00    -0.000 C 
BRANCH   2   3
ATOM      3  C   UNL     1     170.241 170.277 163.878  1.00  0.00    -0.000 C 
BRANCH   3   4
ATOM      4  C   UNL     1     170.195 168.977 163.067  1.00  0.00    -0.003 C 
ATOM      5  C   UNL     1     169.528 167.856 163.860  1.00  0.00     0.004 C 
ENDBRANCH   3   4
ENDBRANCH   2   3
ENDBRANCH   1   2
BRANCH   1   6
ATOM      6  C   UNL     1     166.523 170.544 163.711  1.00  0.00     0.002 C 
BRANCH   6   7
ATOM      7  C   UNL     1     165.611 170.919 162.527  1.00  0.00     0.028 C 
BRANCH   7   8
ATOM      8  C   UNL     1     165.819 172.350 162.017  1.00  0.00     0.156 C 
BRANCH   8   9
ATOM      9  O   UNL     1     164.757 173.170 162.419  1.00  0.00    -0.396 OA
ATOM     10  H   UNL     1     164.078 173.113 161.698  1.00  0.00     0.210 HD
ENDBRANCH   8   9
ENDBRANCH   7   8
ENDBRANCH   6   7
ENDBRANCH   1   6
TORSDOF 7
ENDMDL
