MODEL 1
REMARK VINA RESULT:    -4.080      0.000      0.000
REMARK INTER + INTRA:          -4.415
REMARK INTER:                  -4.318
REMARK INTRA:                  -0.096
REMARK UNBOUND:                -0.096
REMARK SMILES C=C(C)[C@H]1CC=C(C)C(=O)C1
REMARK SMILES IDX 8 1 7 2 6 3 5 4 4 5 11 6 9 7 10 8 2 9 1 10 3 11
REMARK H PARENT
REMARK Flexibility Score: inf
ROOT
ATOM      1  C   UNL     1      88.784  34.176  65.831  1.00  0.00     0.048 C 
ATOM      2  C   UNL     1      87.558  33.335  65.607  1.00  0.00    -0.012 C 
ATOM      3  C   UNL     1      86.916  33.377  64.427  1.00  0.00    -0.019 C 
ATOM      4  C   UNL     1      85.640  32.617  64.183  1.00  0.00     0.036 C 
ATOM      5  C   UNL     1      85.595  31.323  65.019  1.00  0.00     0.025 C 
ATOM      6  C   UNL     1      85.809  31.641  66.510  1.00  0.00     0.089 C 
ATOM      7  C   UNL     1      87.045  32.476  66.703  1.00  0.00     0.158 C 
ATOM      8  O   UNL     1      87.618  32.473  67.826  1.00  0.00    -0.295 OA
ENDROOT
BRANCH   5   9
ATOM      9  C   UNL     1      84.298  30.558  64.793  1.00  0.00    -0.077 C 
ATOM     10  C   UNL     1      83.117  31.184  64.917  1.00  0.00     0.008 C 
ATOM     11  C   UNL     1      84.303  29.095  64.425  1.00  0.00     0.039 C 
ENDBRANCH   5   9
TORSDOF 1
ENDMDL
MODEL 2
REMARK VINA RESULT:    -3.912      1.943      4.640
REMARK INTER + INTRA:          -4.237
REMARK INTER:                  -4.139
REMARK INTRA:                  -0.098
REMARK UNBOUND:                -0.096
REMARK SMILES C=C(C)[C@H]1CC=C(C)C(=O)C1
REMARK SMILES IDX 8 1 7 2 6 3 5 4 4 5 11 6 9 7 10 8 2 9 1 10 3 11
REMARK H PARENT
REMARK Flexibility Score: inf
ROOT
ATOM      1  C   UNL     1      83.870  29.410  64.392  1.00  0.00     0.048 C 
ATOM      2  C   UNL     1      84.959  30.338  64.855  1.00  0.00    -0.012 C 
ATOM      3  C   UNL     1      86.196  29.865  65.087  1.00  0.00    -0.019 C 
ATOM      4  C   UNL     1      87.297  30.738  65.628  1.00  0.00     0.036 C 
ATOM      5  C   UNL     1      87.122  32.200  65.174  1.00  0.00     0.025 C 
ATOM      6  C   UNL     1      85.724  32.718  65.560  1.00  0.00     0.089 C 
ATOM      7  C   UNL     1      84.657  31.773  65.078  1.00  0.00     0.158 C 
ATOM      8  O   UNL     1      83.486  32.207  64.907  1.00  0.00    -0.295 OA
ENDROOT
BRANCH   5   9
ATOM      9  C   UNL     1      88.221  33.093  65.734  1.00  0.00    -0.077 C 
ATOM     10  C   UNL     1      89.110  32.598  66.610  1.00  0.00     0.008 C 
ATOM     11  C   UNL     1      88.343  34.539  65.322  1.00  0.00     0.039 C 
ENDBRANCH   5   9
TORSDOF 1
ENDMDL
MODEL 3
REMARK VINA RESULT:    -3.863      1.756      4.480
REMARK INTER + INTRA:          -4.185
REMARK INTER:                  -4.092
REMARK INTRA:                  -0.093
REMARK UNBOUND:                -0.096
REMARK SMILES C=C(C)[C@H]1CC=C(C)C(=O)C1
REMARK SMILES IDX 8 1 7 2 6 3 5 4 4 5 11 6 9 7 10 8 2 9 1 10 3 11
REMARK H PARENT
REMARK Flexibility Score: inf
ROOT
ATOM      1  C   UNL     1      83.855  29.923  64.479  1.00  0.00     0.048 C 
ATOM      2  C   UNL     1      85.017  30.833  64.766  1.00  0.00    -0.012 C 
ATOM      3  C   UNL     1      84.865  32.167  64.692  1.00  0.00    -0.019 C 
ATOM      4  C   UNL     1      86.017  33.115  64.891  1.00  0.00     0.036 C 
ATOM      5  C   UNL     1      87.059  32.528  65.863  1.00  0.00     0.025 C 
ATOM      6  C   UNL     1      87.522  31.142  65.379  1.00  0.00     0.089 C 
ATOM      7  C   UNL     1      86.339  30.252  65.108  1.00  0.00     0.158 C 
ATOM      8  O   UNL     1      86.494  29.002  65.129  1.00  0.00    -0.295 OA
ENDROOT
BRANCH   5   9
ATOM      9  C   UNL     1      88.238  33.473  66.054  1.00  0.00    -0.077 C 
ATOM     10  C   UNL     1      89.125  33.253  67.037  1.00  0.00     0.008 C 
ATOM     11  C   UNL     1      88.442  34.665  65.152  1.00  0.00     0.039 C 
ENDBRANCH   5   9
TORSDOF 1
ENDMDL
MODEL 4
REMARK VINA RESULT:    -3.849      1.541      4.365
REMARK INTER + INTRA:          -4.170
REMARK INTER:                  -4.073
REMARK INTRA:                  -0.097
REMARK UNBOUND:                -0.096
REMARK SMILES C=C(C)[C@H]1CC=C(C)C(=O)C1
REMARK SMILES IDX 8 1 7 2 6 3 5 4 4 5 11 6 9 7 10 8 2 9 1 10 3 11
REMARK H PARENT
REMARK Flexibility Score: inf
ROOT
ATOM      1  C   UNL     1      83.128  30.929  65.135  1.00  0.00     0.048 C 
ATOM      2  C   UNL     1      84.506  31.484  65.366  1.00  0.00    -0.012 C 
ATOM      3  C   UNL     1      85.413  31.474  64.374  1.00  0.00    -0.019 C 
ATOM      4  C   UNL     1      86.829  31.944  64.579  1.00  0.00     0.036 C 
ATOM      5  C   UNL     1      86.898  33.047  65.653  1.00  0.00     0.025 C 
ATOM      6  C   UNL     1      86.248  32.563  66.962  1.00  0.00     0.089 C 
ATOM      7  C   UNL     1      84.869  32.021  66.700  1.00  0.00     0.158 C 
ATOM      8  O   UNL     1      84.035  31.985  67.645  1.00  0.00    -0.295 OA
ENDROOT
BRANCH   5   9
ATOM      9  C   UNL     1      88.329  33.513  65.882  1.00  0.00    -0.077 C 
ATOM     10  C   UNL     1      89.125  32.850  66.736  1.00  0.00     0.008 C 
ATOM     11  C   UNL     1      88.889  34.715  65.162  1.00  0.00     0.039 C 
ENDBRANCH   5   9
TORSDOF 1
ENDMDL
MODEL 5
REMARK VINA RESULT:    -3.618     15.188     16.701
REMARK INTER + INTRA:          -3.925
REMARK INTER:                  -3.827
REMARK INTRA:                  -0.098
REMARK UNBOUND:                -0.096
REMARK SMILES C=C(C)[C@H]1CC=C(C)C(=O)C1
REMARK SMILES IDX 8 1 7 2 6 3 5 4 4 5 11 6 9 7 10 8 2 9 1 10 3 11
REMARK H PARENT
REMARK Flexibility Score: inf
ROOT
ATOM      1  C   UNL     1      74.316  35.266  53.044  1.00  0.00     0.048 C 
ATOM      2  C   UNL     1      75.692  35.099  52.460  1.00  0.00    -0.012 C 
ATOM      3  C   UNL     1      76.285  36.125  51.825  1.00  0.00    -0.019 C 
ATOM      4  C   UNL     1      77.625  35.983  51.155  1.00  0.00     0.036 C 
ATOM      5  C   UNL     1      78.498  34.935  51.872  1.00  0.00     0.025 C 
ATOM      6  C   UNL     1      77.751  33.593  51.972  1.00  0.00     0.089 C 
ATOM      7  C   UNL     1      76.382  33.790  52.566  1.00  0.00     0.158 C 
ATOM      8  O   UNL     1      75.807  32.814  53.118  1.00  0.00    -0.295 OA
ENDROOT
BRANCH   5   9
ATOM      9  C   UNL     1      79.848  34.771  51.188  1.00  0.00    -0.077 C 
ATOM     10  C   UNL     1      80.133  35.479  50.083  1.00  0.00     0.008 C 
ATOM     11  C   UNL     1      80.892  33.823  51.726  1.00  0.00     0.039 C 
ENDBRANCH   5   9
TORSDOF 1
ENDMDL
MODEL 6
REMARK VINA RESULT:    -3.515     16.460     17.119
REMARK INTER + INTRA:          -3.817
REMARK INTER:                  -3.726
REMARK INTRA:                  -0.091
REMARK UNBOUND:                -0.096
REMARK SMILES C=C(C)[C@H]1CC=C(C)C(=O)C1
REMARK SMILES IDX 8 1 7 2 6 3 5 4 4 5 11 6 9 7 10 8 2 9 1 10 3 11
REMARK H PARENT
REMARK Flexibility Score: inf
ROOT
ATOM      1  C   UNL     1      72.284  34.660  56.279  1.00  0.00     0.048 C 
ATOM      2  C   UNL     1      73.265  34.777  55.146  1.00  0.00    -0.012 C 
ATOM      3  C   UNL     1      73.938  35.925  54.951  1.00  0.00    -0.019 C 
ATOM      4  C   UNL     1      74.870  36.118  53.784  1.00  0.00     0.036 C 
ATOM      5  C   UNL     1      75.516  34.784  53.362  1.00  0.00     0.025 C 
ATOM      6  C   UNL     1      74.432  33.730  53.075  1.00  0.00     0.089 C 
ATOM      7  C   UNL     1      73.470  33.630  54.228  1.00  0.00     0.158 C 
ATOM      8  O   UNL     1      72.804  32.571  54.380  1.00  0.00    -0.295 OA
ENDROOT
BRANCH   5   9
ATOM      9  C   UNL     1      76.444  34.968  52.169  1.00  0.00    -0.077 C 
ATOM     10  C   UNL     1      77.433  34.089  51.944  1.00  0.00     0.008 C 
ATOM     11  C   UNL     1      76.277  36.125  51.215  1.00  0.00     0.039 C 
ENDBRANCH   5   9
TORSDOF 1
ENDMDL
MODEL 7
REMARK VINA RESULT:    -3.508     15.558     16.692
REMARK INTER + INTRA:          -3.809
REMARK INTER:                  -3.717
REMARK INTRA:                  -0.092
REMARK UNBOUND:                -0.096
REMARK SMILES C=C(C)[C@H]1CC=C(C)C(=O)C1
REMARK SMILES IDX 8 1 7 2 6 3 5 4 4 5 11 6 9 7 10 8 2 9 1 10 3 11
REMARK H PARENT
REMARK Flexibility Score: inf
ROOT
ATOM      1  C   UNL     1      79.804  34.420  51.647  1.00  0.00     0.048 C 
ATOM      2  C   UNL     1      78.351  34.610  51.985  1.00  0.00    -0.012 C 
ATOM      3  C   UNL     1      77.817  35.843  52.001  1.00  0.00    -0.019 C 
ATOM      4  C   UNL     1      76.390  36.092  52.411  1.00  0.00     0.036 C 
ATOM      5  C   UNL     1      75.494  34.887  52.065  1.00  0.00     0.025 C 
ATOM      6  C   UNL     1      76.064  33.599  52.687  1.00  0.00     0.089 C 
ATOM      7  C   UNL     1      77.516  33.433  52.326  1.00  0.00     0.158 C 
ATOM      8  O   UNL     1      78.028  32.281  52.359  1.00  0.00    -0.295 OA
ENDROOT
BRANCH   5   9
ATOM      9  C   UNL     1      74.053  35.122  52.496  1.00  0.00    -0.077 C 
ATOM     10  C   UNL     1      73.343  36.125  51.955  1.00  0.00     0.008 C 
ATOM     11  C   UNL     1      73.388  34.243  53.527  1.00  0.00     0.039 C 
ENDBRANCH   5   9
TORSDOF 1
ENDMDL
MODEL 8
REMARK VINA RESULT:    -3.171     15.071     16.469
REMARK INTER + INTRA:          -3.453
REMARK INTER:                  -3.357
REMARK INTRA:                  -0.095
REMARK UNBOUND:                -0.096
REMARK SMILES C=C(C)[C@H]1CC=C(C)C(=O)C1
REMARK SMILES IDX 8 1 7 2 6 3 5 4 4 5 11 6 9 7 10 8 2 9 1 10 3 11
REMARK H PARENT
REMARK Flexibility Score: inf
ROOT
ATOM      1  C   UNL     1      80.423  33.367  51.959  1.00  0.00     0.048 C 
ATOM      2  C   UNL     1      78.964  33.725  52.011  1.00  0.00    -0.012 C 
ATOM      3  C   UNL     1      78.055  32.804  52.378  1.00  0.00    -0.019 C 
ATOM      4  C   UNL     1      76.577  33.091  52.367  1.00  0.00     0.036 C 
ATOM      5  C   UNL     1      76.297  34.580  52.649  1.00  0.00     0.025 C 
ATOM      6  C   UNL     1      77.071  35.468  51.657  1.00  0.00     0.089 C 
ATOM      7  C   UNL     1      78.528  35.091  51.632  1.00  0.00     0.158 C 
ATOM      8  O   UNL     1      79.373  35.940  51.242  1.00  0.00    -0.295 OA
ENDROOT
BRANCH   5   9
ATOM      9  C   UNL     1      74.805  34.882  52.619  1.00  0.00    -0.077 C 
ATOM     10  C   UNL     1      73.936  34.041  53.203  1.00  0.00     0.008 C 
ATOM     11  C   UNL     1      74.268  36.120  51.945  1.00  0.00     0.039 C 
ENDBRANCH   5   9
TORSDOF 1
ENDMDL
