MODEL 1
REMARK VINA RESULT:    -4.984      0.000      0.000
REMARK INTER + INTRA:          -4.984
REMARK INTER:                  -4.984
REMARK INTRA:                   0.000
REMARK UNBOUND:                 0.000
REMARK SMILES C=C1CCC[C@@]2(C)CC(=O)C(=C(C)C)C[C@@H]12
REMARK SMILES IDX 13 1 12 2 11 3 15 4 16 5 2 6 1 7 3 8 4 9 5 10 6 11 8 12 9 13
REMARK SMILES IDX 10 14 7 15 14 16
REMARK H PARENT
REMARK Flexibility Score: inf
ROOT
ATOM      1  C   UNL     1      98.225   5.391  74.213  1.00  0.00     0.039 C 
ATOM      2  C   UNL     1      98.976   4.658  75.299  1.00  0.00    -0.070 C 
ATOM      3  C   UNL     1      99.103   5.184  76.552  1.00  0.00    -0.006 C 
ATOM      4  C   UNL     1      98.559   6.543  76.945  1.00  0.00     0.047 C 
ATOM      5  C   UNL     1      99.669   7.502  77.484  1.00  0.00     0.025 C 
ATOM      6  C   UNL     1      99.079   8.715  78.239  1.00  0.00    -0.073 C 
ATOM      7  C   UNL     1      97.836   9.178  78.002  1.00  0.00     0.008 C 
ATOM      8  C   UNL     1      99.940   9.554  79.158  1.00  0.00     0.031 C 
ATOM      9  C   UNL     1     101.364   9.029  79.278  1.00  0.00     0.005 C 
ATOM     10  C   UNL     1     101.334   7.525  79.522  1.00  0.00     0.008 C 
ATOM     11  C   UNL     1     100.827   6.739  78.276  1.00  0.00    -0.018 C 
ATOM     12  C   UNL     1     100.350   5.345  78.780  1.00  0.00     0.088 C 
ATOM     13  C   UNL     1      99.823   4.504  77.656  1.00  0.00     0.159 C 
ATOM     14  O   UNL     1      99.930   3.251  77.715  1.00  0.00    -0.295 OA
ATOM     15  C   UNL     1     102.040   6.525  77.324  1.00  0.00     0.012 C 
ATOM     16  C   UNL     1      99.616   3.341  74.927  1.00  0.00     0.039 C 
ENDROOT
TORSDOF 0
ENDMDL
MODEL 2
REMARK VINA RESULT:    -4.583      1.783      5.393
REMARK INTER + INTRA:          -4.583
REMARK INTER:                  -4.583
REMARK INTRA:                   0.000
REMARK UNBOUND:                 0.000
REMARK SMILES C=C1CCC[C@@]2(C)CC(=O)C(=C(C)C)C[C@@H]12
REMARK SMILES IDX 13 1 12 2 11 3 15 4 16 5 2 6 1 7 3 8 4 9 5 10 6 11 8 12 9 13
REMARK SMILES IDX 10 14 7 15 14 16
REMARK H PARENT
REMARK Flexibility Score: inf
ROOT
ATOM      1  C   UNL     1     101.884   7.375  79.136  1.00  0.00     0.039 C 
ATOM      2  C   UNL     1     100.613   7.721  78.398  1.00  0.00    -0.070 C 
ATOM      3  C   UNL     1      99.773   6.748  77.938  1.00  0.00    -0.006 C 
ATOM      4  C   UNL     1     100.057   5.266  78.080  1.00  0.00     0.047 C 
ATOM      5  C   UNL     1     100.092   4.527  76.703  1.00  0.00     0.025 C 
ATOM      6  C   UNL     1      99.987   2.994  76.858  1.00  0.00    -0.073 C 
ATOM      7  C   UNL     1     100.364   2.354  77.984  1.00  0.00     0.008 C 
ATOM      8  C   UNL     1      99.621   2.114  75.682  1.00  0.00     0.031 C 
ATOM      9  C   UNL     1      99.325   2.910  74.419  1.00  0.00     0.005 C 
ATOM     10  C   UNL     1      98.389   4.065  74.751  1.00  0.00     0.008 C 
ATOM     11  C   UNL     1      99.082   5.146  75.632  1.00  0.00    -0.018 C 
ATOM     12  C   UNL     1      97.951   5.965  76.323  1.00  0.00     0.088 C 
ATOM     13  C   UNL     1      98.510   7.032  77.214  1.00  0.00     0.159 C 
ATOM     14  O   UNL     1      97.862   8.098  77.390  1.00  0.00    -0.295 OA
ATOM     15  C   UNL     1      99.865   6.101  74.684  1.00  0.00     0.012 C 
ATOM     16  C   UNL     1     100.334   9.185  78.151  1.00  0.00     0.039 C 
ENDROOT
TORSDOF 0
ENDMDL
MODEL 3
REMARK VINA RESULT:    -4.569      1.557      4.781
REMARK INTER + INTRA:          -4.569
REMARK INTER:                  -4.569
REMARK INTRA:                   0.000
REMARK UNBOUND:                 0.000
REMARK SMILES C=C1CCC[C@@]2(C)CC(=O)C(=C(C)C)C[C@@H]12
REMARK SMILES IDX 13 1 12 2 11 3 15 4 16 5 2 6 1 7 3 8 4 9 5 10 6 11 8 12 9 13
REMARK SMILES IDX 10 14 7 15 14 16
REMARK H PARENT
REMARK Flexibility Score: inf
ROOT
ATOM      1  C   UNL     1      97.767   9.052  77.985  1.00  0.00     0.039 C 
ATOM      2  C   UNL     1      99.207   8.647  78.190  1.00  0.00    -0.070 C 
ATOM      3  C   UNL     1      99.771   7.640  77.463  1.00  0.00    -0.006 C 
ATOM      4  C   UNL     1      99.008   6.820  76.441  1.00  0.00     0.047 C 
ATOM      5  C   UNL     1      99.030   5.291  76.760  1.00  0.00     0.025 C 
ATOM      6  C   UNL     1      98.606   4.433  75.547  1.00  0.00    -0.073 C 
ATOM      7  C   UNL     1      97.818   4.912  74.564  1.00  0.00     0.008 C 
ATOM      8  C   UNL     1      98.913   2.952  75.495  1.00  0.00     0.031 C 
ATOM      9  C   UNL     1      99.705   2.469  76.702  1.00  0.00     0.005 C 
ATOM     10  C   UNL     1     100.868   3.418  76.962  1.00  0.00     0.008 C 
ATOM     11  C   UNL     1     100.386   4.814  77.457  1.00  0.00    -0.018 C 
ATOM     12  C   UNL     1     101.546   5.818  77.191  1.00  0.00     0.088 C 
ATOM     13  C   UNL     1     101.181   7.207  77.619  1.00  0.00     0.159 C 
ATOM     14  O   UNL     1     102.082   7.991  78.019  1.00  0.00    -0.295 OA
ATOM     15  C   UNL     1     100.164   4.722  78.995  1.00  0.00     0.012 C 
ATOM     16  C   UNL     1      99.982   9.375  79.265  1.00  0.00     0.039 C 
ENDROOT
TORSDOF 0
ENDMDL
MODEL 4
REMARK VINA RESULT:    -4.543      1.693      3.433
REMARK INTER + INTRA:          -4.543
REMARK INTER:                  -4.543
REMARK INTRA:                   0.000
REMARK UNBOUND:                 0.000
REMARK SMILES C=C1CCC[C@@]2(C)CC(=O)C(=C(C)C)C[C@@H]12
REMARK SMILES IDX 13 1 12 2 11 3 15 4 16 5 2 6 1 7 3 8 4 9 5 10 6 11 8 12 9 13
REMARK SMILES IDX 10 14 7 15 14 16
REMARK H PARENT
REMARK Flexibility Score: inf
ROOT
ATOM      1  C   UNL     1     100.932   1.777  77.724  1.00  0.00     0.039 C 
ATOM      2  C   UNL     1     100.339   2.350  76.459  1.00  0.00    -0.070 C 
ATOM      3  C   UNL     1     100.294   3.697  76.243  1.00  0.00    -0.006 C 
ATOM      4  C   UNL     1     100.779   4.720  77.252  1.00  0.00     0.047 C 
ATOM      5  C   UNL     1      99.662   5.730  77.669  1.00  0.00     0.025 C 
ATOM      6  C   UNL     1     100.235   6.980  78.371  1.00  0.00    -0.073 C 
ATOM      7  C   UNL     1     101.417   6.967  79.021  1.00  0.00     0.008 C 
ATOM      8  C   UNL     1      99.409   8.241  78.515  1.00  0.00     0.031 C 
ATOM      9  C   UNL     1      98.042   8.130  77.854  1.00  0.00     0.005 C 
ATOM     10  C   UNL     1      98.198   7.548  76.455  1.00  0.00     0.008 C 
ATOM     11  C   UNL     1      98.637   6.055  76.486  1.00  0.00    -0.018 C 
ATOM     12  C   UNL     1      99.254   5.731  75.093  1.00  0.00     0.088 C 
ATOM     13  C   UNL     1      99.729   4.312  75.018  1.00  0.00     0.159 C 
ATOM     14  O   UNL     1      99.714   3.710  73.912  1.00  0.00    -0.295 OA
ATOM     15  C   UNL     1      97.358   5.186  76.667  1.00  0.00     0.012 C 
ATOM     16  C   UNL     1      99.758   1.372  75.464  1.00  0.00     0.039 C 
ENDROOT
TORSDOF 0
ENDMDL
MODEL 5
REMARK VINA RESULT:    -4.527      1.527      2.496
REMARK INTER + INTRA:          -4.527
REMARK INTER:                  -4.527
REMARK INTRA:                   0.000
REMARK UNBOUND:                 0.000
REMARK SMILES C=C1CCC[C@@]2(C)CC(=O)C(=C(C)C)C[C@@H]12
REMARK SMILES IDX 13 1 12 2 11 3 15 4 16 5 2 6 1 7 3 8 4 9 5 10 6 11 8 12 9 13
REMARK SMILES IDX 10 14 7 15 14 16
REMARK H PARENT
REMARK Flexibility Score: inf
ROOT
ATOM      1  C   UNL     1      98.826   2.030  73.852  1.00  0.00     0.039 C 
ATOM      2  C   UNL     1      99.510   1.918  75.194  1.00  0.00    -0.070 C 
ATOM      3  C   UNL     1      99.266   2.817  76.191  1.00  0.00    -0.006 C 
ATOM      4  C   UNL     1      98.345   4.011  76.030  1.00  0.00     0.047 C 
ATOM      5  C   UNL     1      99.068   5.369  76.308  1.00  0.00     0.025 C 
ATOM      6  C   UNL     1      98.072   6.528  76.530  1.00  0.00    -0.073 C 
ATOM      7  C   UNL     1      96.821   6.513  76.025  1.00  0.00     0.008 C 
ATOM      8  C   UNL     1      98.513   7.822  77.180  1.00  0.00     0.031 C 
ATOM      9  C   UNL     1      99.972   7.797  77.615  1.00  0.00     0.005 C 
ATOM     10  C   UNL     1     100.259   6.501  78.363  1.00  0.00     0.008 C 
ATOM     11  C   UNL     1     100.203   5.258  77.426  1.00  0.00    -0.018 C 
ATOM     12  C   UNL     1      99.989   4.011  78.334  1.00  0.00     0.088 C 
ATOM     13  C   UNL     1      99.904   2.751  77.527  1.00  0.00     0.159 C 
ATOM     14  O   UNL     1     100.297   1.665  78.030  1.00  0.00    -0.295 OA
ATOM     15  C   UNL     1     101.591   5.123  76.733  1.00  0.00     0.012 C 
ATOM     16  C   UNL     1     100.507   0.796  75.369  1.00  0.00     0.039 C 
ENDROOT
TORSDOF 0
ENDMDL
MODEL 6
REMARK VINA RESULT:    -4.457      1.544      2.120
REMARK INTER + INTRA:          -4.457
REMARK INTER:                  -4.457
REMARK INTRA:                   0.000
REMARK UNBOUND:                 0.000
REMARK SMILES C=C1CCC[C@@]2(C)CC(=O)C(=C(C)C)C[C@@H]12
REMARK SMILES IDX 13 1 12 2 11 3 15 4 16 5 2 6 1 7 3 8 4 9 5 10 6 11 8 12 9 13
REMARK SMILES IDX 10 14 7 15 14 16
REMARK H PARENT
REMARK Flexibility Score: inf
ROOT
ATOM      1  C   UNL     1      96.368   7.632  75.764  1.00  0.00     0.039 C 
ATOM      2  C   UNL     1      97.362   6.558  76.135  1.00  0.00    -0.070 C 
ATOM      3  C   UNL     1      98.388   6.809  77.000  1.00  0.00    -0.006 C 
ATOM      4  C   UNL     1      98.647   8.171  77.614  1.00  0.00     0.047 C 
ATOM      5  C   UNL     1     100.075   8.714  77.289  1.00  0.00     0.025 C 
ATOM      6  C   UNL     1     100.480   9.884  78.213  1.00  0.00    -0.073 C 
ATOM      7  C   UNL     1      99.571  10.677  78.816  1.00  0.00     0.008 C 
ATOM      8  C   UNL     1     101.927  10.310  78.343  1.00  0.00     0.031 C 
ATOM      9  C   UNL     1     102.875   9.435  77.535  1.00  0.00     0.005 C 
ATOM     10  C   UNL     1     102.550   7.967  77.782  1.00  0.00     0.008 C 
ATOM     11  C   UNL     1     101.175   7.561  77.174  1.00  0.00    -0.018 C 
ATOM     12  C   UNL     1     100.718   6.263  77.904  1.00  0.00     0.088 C 
ATOM     13  C   UNL     1      99.387   5.790  77.402  1.00  0.00     0.159 C 
ATOM     14  O   UNL     1      99.122   4.558  77.412  1.00  0.00    -0.295 OA
ATOM     15  C   UNL     1     101.401   7.222  75.671  1.00  0.00     0.012 C 
ATOM     16  C   UNL     1      97.199   5.208  75.475  1.00  0.00     0.039 C 
ENDROOT
TORSDOF 0
ENDMDL
MODEL 7
REMARK VINA RESULT:    -4.453      2.235      5.311
REMARK INTER + INTRA:          -4.453
REMARK INTER:                  -4.453
REMARK INTRA:                   0.000
REMARK UNBOUND:                 0.000
REMARK SMILES C=C1CCC[C@@]2(C)CC(=O)C(=C(C)C)C[C@@H]12
REMARK SMILES IDX 13 1 12 2 11 3 15 4 16 5 2 6 1 7 3 8 4 9 5 10 6 11 8 12 9 13
REMARK SMILES IDX 10 14 7 15 14 16
REMARK H PARENT
REMARK Flexibility Score: inf
ROOT
ATOM      1  C   UNL     1     103.257   9.627  76.402  1.00  0.00     0.039 C 
ATOM      2  C   UNL     1     102.404   9.276  77.598  1.00  0.00    -0.070 C 
ATOM      3  C   UNL     1     102.178   7.976  77.950  1.00  0.00    -0.006 C 
ATOM      4  C   UNL     1     102.709   6.794  77.163  1.00  0.00     0.047 C 
ATOM      5  C   UNL     1     101.572   5.842  76.670  1.00  0.00     0.025 C 
ATOM      6  C   UNL     1     102.114   4.466  76.224  1.00  0.00    -0.073 C 
ATOM      7  C   UNL     1     103.381   4.292  75.796  1.00  0.00     0.008 C 
ATOM      8  C   UNL     1     101.191   3.275  76.076  1.00  0.00     0.031 C 
ATOM      9  C   UNL     1      99.754   3.589  76.467  1.00  0.00     0.005 C 
ATOM     10  C   UNL     1      99.738   4.330  77.798  1.00  0.00     0.008 C 
ATOM     11  C   UNL     1     100.337   5.762  77.680  1.00  0.00    -0.018 C 
ATOM     12  C   UNL     1     100.746   6.206  79.116  1.00  0.00     0.088 C 
ATOM     13  C   UNL     1     101.354   7.576  79.116  1.00  0.00     0.159 C 
ATOM     14  O   UNL     1     101.221   8.314  80.128  1.00  0.00    -0.295 OA
ATOM     15  C   UNL     1      99.208   6.710  77.180  1.00  0.00     0.012 C 
ATOM     16  C   UNL     1     101.776  10.420  78.359  1.00  0.00     0.039 C 
ENDROOT
TORSDOF 0
ENDMDL
MODEL 8
REMARK VINA RESULT:    -4.450     17.689     20.985
REMARK INTER + INTRA:          -4.450
REMARK INTER:                  -4.450
REMARK INTRA:                   0.000
REMARK UNBOUND:                 0.000
REMARK SMILES C=C1CCC[C@@]2(C)CC(=O)C(=C(C)C)C[C@@H]12
REMARK SMILES IDX 13 1 12 2 11 3 15 4 16 5 2 6 1 7 3 8 4 9 5 10 6 11 8 12 9 13
REMARK SMILES IDX 10 14 7 15 14 16
REMARK H PARENT
REMARK Flexibility Score: inf
ROOT
ATOM      1  C   UNL     1     110.850  -4.534  70.120  1.00  0.00     0.039 C 
ATOM      2  C   UNL     1     109.923  -5.599  69.582  1.00  0.00    -0.070 C 
ATOM      3  C   UNL     1     110.409  -6.754  69.042  1.00  0.00    -0.006 C 
ATOM      4  C   UNL     1     111.889  -7.047  68.891  1.00  0.00     0.047 C 
ATOM      5  C   UNL     1     112.298  -7.326  67.408  1.00  0.00     0.025 C 
ATOM      6  C   UNL     1     113.684  -7.997  67.300  1.00  0.00    -0.073 C 
ATOM      7  C   UNL     1     114.629  -7.862  68.253  1.00  0.00     0.008 C 
ATOM      8  C   UNL     1     114.115  -8.696  66.028  1.00  0.00     0.031 C 
ATOM      9  C   UNL     1     113.030  -8.700  64.960  1.00  0.00     0.005 C 
ATOM     10  C   UNL     1     111.705  -9.123  65.581  1.00  0.00     0.008 C 
ATOM     11  C   UNL     1     111.151  -8.053  66.567  1.00  0.00    -0.018 C 
ATOM     12  C   UNL     1     110.132  -8.775  67.498  1.00  0.00     0.088 C 
ATOM     13  C   UNL     1     109.545  -7.833  68.506  1.00  0.00     0.159 C 
ATOM     14  O   UNL     1     108.374  -8.028  68.929  1.00  0.00    -0.295 OA
ATOM     15  C   UNL     1     110.379  -6.990  65.731  1.00  0.00     0.012 C 
ATOM     16  C   UNL     1     108.440  -5.310  69.627  1.00  0.00     0.039 C 
ENDROOT
TORSDOF 0
ENDMDL
