MODEL 1
REMARK VINA RESULT:    -4.327      0.000      0.000
REMARK INTER + INTRA:          -5.124
REMARK INTER:                  -4.960
REMARK INTRA:                  -0.164
REMARK UNBOUND:                -0.164
REMARK SMILES CC=Cc1ccc(O)c(OC)c1
REMARK SMILES IDX 4 1 12 2 9 3 7 4 6 5 5 6 3 7 1 8 2 9 10 10 11 11 8 12
REMARK H PARENT 8 13
REMARK Flexibility Score: inf
ROOT
ATOM      1  C   UNL     1       0.320 -23.737 -45.396  1.00  0.00    -0.022 A 
ATOM      2  C   UNL     1      -0.493 -24.614 -46.132  1.00  0.00     0.058 A 
ATOM      3  C   UNL     1       0.070 -25.680 -46.864  1.00  0.00     0.161 A 
ATOM      4  C   UNL     1       1.463 -25.866 -46.846  1.00  0.00     0.157 A 
ATOM      5  C   UNL     1       2.273 -25.003 -46.103  1.00  0.00     0.051 A 
ATOM      6  C   UNL     1       1.712 -23.950 -45.380  1.00  0.00     0.012 A 
ENDROOT
BRANCH   1   7
ATOM      7  C   UNL     1      -0.326 -22.639 -44.635  1.00  0.00     0.003 C 
ATOM      8  C   UNL     1      -0.382 -20.649 -43.182  1.00  0.00     0.035 C 
ATOM      9  C   UNL     1       0.344 -21.736 -43.909  1.00  0.00    -0.030 C 
ENDBRANCH   1   7
BRANCH   3  10
ATOM     10  O   UNL     1      -0.721 -26.564 -47.615  1.00  0.00    -0.493 OA
ATOM     11  C   UNL     1      -2.129 -26.722 -47.462  1.00  0.00     0.278 C 
ENDBRANCH   3  10
BRANCH   4  12
ATOM     12  O   UNL     1       2.061 -26.905 -47.557  1.00  0.00    -0.504 OA
ATOM     13  H   UNL     1       1.532 -27.520 -48.163  1.00  0.00     0.293 HD
ENDBRANCH   4  12
TORSDOF 3
ENDMDL
MODEL 2
REMARK VINA RESULT:    -4.317     13.725     15.592
REMARK INTER + INTRA:          -5.112
REMARK INTER:                  -4.962
REMARK INTRA:                  -0.150
REMARK UNBOUND:                -0.164
REMARK SMILES CC=Cc1ccc(O)c(OC)c1
REMARK SMILES IDX 4 1 12 2 9 3 7 4 6 5 5 6 3 7 1 8 2 9 10 10 11 11 8 12
REMARK H PARENT 8 13
REMARK Flexibility Score: inf
ROOT
ATOM      1  C   UNL     1      -0.933  -9.541 -40.714  1.00  0.00    -0.022 A 
ATOM      2  C   UNL     1       0.438  -9.429 -40.999  1.00  0.00     0.058 A 
ATOM      3  C   UNL     1       1.050 -10.263 -41.958  1.00  0.00     0.161 A 
ATOM      4  C   UNL     1       0.269 -11.212 -42.640  1.00  0.00     0.157 A 
ATOM      5  C   UNL     1      -1.098 -11.317 -42.370  1.00  0.00     0.051 A 
ATOM      6  C   UNL     1      -1.699 -10.489 -41.420  1.00  0.00     0.012 A 
ENDROOT
BRANCH   1   7
ATOM      7  C   UNL     1      -1.526  -8.632 -39.704  1.00  0.00     0.003 C 
ATOM      8  C   UNL     1      -1.483  -6.939 -37.913  1.00  0.00     0.035 C 
ATOM      9  C   UNL     1      -0.809  -7.840 -38.898  1.00  0.00    -0.030 C 
ENDBRANCH   1   7
BRANCH   3  10
ATOM     10  O   UNL     1       2.419 -10.175 -42.253  1.00  0.00    -0.493 OA
ATOM     11  C   UNL     1       3.434 -10.957 -41.630  1.00  0.00     0.278 C 
ENDBRANCH   3  10
BRANCH   4  12
ATOM     12  O   UNL     1       0.833 -12.057 -43.594  1.00  0.00    -0.504 OA
ATOM     13  H   UNL     1       0.337 -12.856 -43.970  1.00  0.00     0.293 HD
ENDBRANCH   4  12
TORSDOF 3
ENDMDL
MODEL 3
REMARK VINA RESULT:    -4.210      1.069      2.478
REMARK INTER + INTRA:          -4.990
REMARK INTER:                  -4.834
REMARK INTRA:                  -0.156
REMARK UNBOUND:                -0.164
REMARK SMILES CC=Cc1ccc(O)c(OC)c1
REMARK SMILES IDX 4 1 12 2 9 3 7 4 6 5 5 6 3 7 1 8 2 9 10 10 11 11 8 12
REMARK H PARENT 8 13
REMARK Flexibility Score: inf
ROOT
ATOM      1  C   UNL     1      -0.380 -23.753 -45.169  1.00  0.00    -0.022 A 
ATOM      2  C   UNL     1       0.742 -24.584 -45.325  1.00  0.00     0.058 A 
ATOM      3  C   UNL     1       0.762 -25.598 -46.305  1.00  0.00     0.161 A 
ATOM      4  C   UNL     1      -0.356 -25.768 -47.140  1.00  0.00     0.157 A 
ATOM      5  C   UNL     1      -1.468 -24.934 -46.997  1.00  0.00     0.051 A 
ATOM      6  C   UNL     1      -1.483 -23.932 -46.025  1.00  0.00     0.012 A 
ENDROOT
BRANCH   1   7
ATOM      7  C   UNL     1      -0.343 -22.697 -44.128  1.00  0.00     0.003 C 
ATOM      8  C   UNL     1      -0.014 -20.412 -43.264  1.00  0.00     0.035 C 
ATOM      9  C   UNL     1      -0.014 -21.422 -44.367  1.00  0.00    -0.030 C 
ENDBRANCH   1   7
BRANCH   3  10
ATOM     10  O   UNL     1       1.868 -26.445 -46.474  1.00  0.00    -0.493 OA
ATOM     11  C   UNL     1       2.537 -27.125 -45.415  1.00  0.00     0.278 C 
ENDBRANCH   3  10
BRANCH   4  12
ATOM     12  O   UNL     1      -0.379 -26.759 -48.121  1.00  0.00    -0.504 OA
ATOM     13  H   UNL     1       0.468 -27.149 -48.514  1.00  0.00     0.293 HD
ENDBRANCH   4  12
TORSDOF 3
ENDMDL
MODEL 4
REMARK VINA RESULT:    -4.141     13.303     14.999
REMARK INTER + INTRA:          -4.910
REMARK INTER:                  -4.762
REMARK INTRA:                  -0.148
REMARK UNBOUND:                -0.164
REMARK SMILES CC=Cc1ccc(O)c(OC)c1
REMARK SMILES IDX 4 1 12 2 9 3 7 4 6 5 5 6 3 7 1 8 2 9 10 10 11 11 8 12
REMARK H PARENT 8 13
REMARK Flexibility Score: inf
ROOT
ATOM      1  C   UNL     1      -0.507  -9.585 -42.307  1.00  0.00    -0.022 A 
ATOM      2  C   UNL     1      -0.621 -10.752 -41.534  1.00  0.00     0.058 A 
ATOM      3  C   UNL     1       0.518 -11.515 -41.203  1.00  0.00     0.161 A 
ATOM      4  C   UNL     1       1.782 -11.091 -41.649  1.00  0.00     0.157 A 
ATOM      5  C   UNL     1       1.900  -9.923 -42.407  1.00  0.00     0.051 A 
ATOM      6  C   UNL     1       0.770  -9.171 -42.732  1.00  0.00     0.012 A 
ENDROOT
BRANCH   1   7
ATOM      7  C   UNL     1      -1.738  -8.816 -42.617  1.00  0.00     0.003 C 
ATOM      8  C   UNL     1      -3.844  -7.649 -42.090  1.00  0.00     0.035 C 
ATOM      9  C   UNL     1      -2.634  -8.436 -41.699  1.00  0.00    -0.030 C 
ENDBRANCH   1   7
BRANCH   3  10
ATOM     10  O   UNL     1       0.429 -12.689 -40.440  1.00  0.00    -0.493 OA
ATOM     11  C   UNL     1      -0.725 -13.096 -39.711  1.00  0.00     0.278 C 
ENDBRANCH   3  10
BRANCH   4  12
ATOM     12  O   UNL     1       2.934 -11.816 -41.347  1.00  0.00    -0.504 OA
ATOM     13  H   UNL     1       3.663 -11.448 -40.749  1.00  0.00     0.293 HD
ENDBRANCH   4  12
TORSDOF 3
ENDMDL
MODEL 5
REMARK VINA RESULT:    -4.102      1.908      4.267
REMARK INTER + INTRA:          -4.866
REMARK INTER:                  -4.723
REMARK INTRA:                  -0.143
REMARK UNBOUND:                -0.164
REMARK SMILES CC=Cc1ccc(O)c(OC)c1
REMARK SMILES IDX 4 1 12 2 9 3 7 4 6 5 5 6 3 7 1 8 2 9 10 10 11 11 8 12
REMARK H PARENT 8 13
REMARK Flexibility Score: inf
ROOT
ATOM      1  C   UNL     1      -0.732 -25.698 -46.868  1.00  0.00    -0.022 A 
ATOM      2  C   UNL     1      -0.478 -24.538 -46.117  1.00  0.00     0.058 A 
ATOM      3  C   UNL     1       0.840 -24.160 -45.790  1.00  0.00     0.161 A 
ATOM      4  C   UNL     1       1.912 -24.954 -46.235  1.00  0.00     0.157 A 
ATOM      5  C   UNL     1       1.665 -26.100 -46.995  1.00  0.00     0.051 A 
ATOM      6  C   UNL     1       0.357 -26.470 -47.315  1.00  0.00     0.012 A 
ENDROOT
BRANCH   1   7
ATOM      7  C   UNL     1      -2.138 -26.042 -47.190  1.00  0.00     0.003 C 
ATOM      8  C   UNL     1      -4.469 -26.657 -46.677  1.00  0.00     0.035 C 
ATOM      9  C   UNL     1      -3.066 -26.334 -46.272  1.00  0.00    -0.030 C 
ENDBRANCH   1   7
BRANCH   3  10
ATOM     10  O   UNL     1       1.118 -23.011 -45.033  1.00  0.00    -0.493 OA
ATOM     11  C   UNL     1       0.131 -22.123 -44.517  1.00  0.00     0.278 C 
ENDBRANCH   3  10
BRANCH   4  12
ATOM     12  O   UNL     1       3.231 -24.618 -45.934  1.00  0.00    -0.504 OA
ATOM     13  H   UNL     1       3.809 -25.186 -45.327  1.00  0.00     0.293 HD
ENDBRANCH   4  12
TORSDOF 3
ENDMDL
MODEL 6
REMARK VINA RESULT:    -4.063     15.456     16.805
REMARK INTER + INTRA:          -4.821
REMARK INTER:                  -4.674
REMARK INTRA:                  -0.148
REMARK UNBOUND:                -0.164
REMARK SMILES CC=Cc1ccc(O)c(OC)c1
REMARK SMILES IDX 4 1 12 2 9 3 7 4 6 5 5 6 3 7 1 8 2 9 10 10 11 11 8 12
REMARK H PARENT 8 13
REMARK Flexibility Score: inf
ROOT
ATOM      1  C   UNL     1      -2.508  -8.903 -42.278  1.00  0.00    -0.022 A 
ATOM      2  C   UNL     1      -1.198  -9.407 -42.331  1.00  0.00     0.058 A 
ATOM      3  C   UNL     1      -0.341  -9.317 -41.215  1.00  0.00     0.161 A 
ATOM      4  C   UNL     1      -0.815  -8.721 -40.033  1.00  0.00     0.157 A 
ATOM      5  C   UNL     1      -2.122  -8.231 -39.972  1.00  0.00     0.051 A 
ATOM      6  C   UNL     1      -2.966  -8.323 -41.080  1.00  0.00     0.012 A 
ENDROOT
BRANCH   1   7
ATOM      7  C   UNL     1      -3.369  -9.034 -43.480  1.00  0.00     0.003 C 
ATOM      8  C   UNL     1      -4.418  -8.280 -45.579  1.00  0.00     0.035 C 
ATOM      9  C   UNL     1      -3.543  -8.064 -44.385  1.00  0.00    -0.030 C 
ENDBRANCH   1   7
BRANCH   3  10
ATOM     10  O   UNL     1       0.974  -9.805 -41.247  1.00  0.00    -0.493 OA
ATOM     11  C   UNL     1       1.795  -9.847 -42.410  1.00  0.00     0.278 C 
ENDBRANCH   3  10
BRANCH   4  12
ATOM     12  O   UNL     1      -0.001  -8.609 -38.906  1.00  0.00    -0.504 OA
ATOM     13  H   UNL     1       0.660  -7.851 -38.791  1.00  0.00     0.293 HD
ENDBRANCH   4  12
TORSDOF 3
ENDMDL
MODEL 7
REMARK VINA RESULT:    -3.993     15.648     18.243
REMARK INTER + INTRA:          -4.741
REMARK INTER:                  -4.576
REMARK INTRA:                  -0.165
REMARK UNBOUND:                -0.164
REMARK SMILES CC=Cc1ccc(O)c(OC)c1
REMARK SMILES IDX 4 1 12 2 9 3 7 4 6 5 5 6 3 7 1 8 2 9 10 10 11 11 8 12
REMARK H PARENT 8 13
REMARK Flexibility Score: inf
ROOT
ATOM      1  C   UNL     1      -0.895  -8.647 -38.902  1.00  0.00    -0.022 A 
ATOM      2  C   UNL     1      -0.997  -9.595 -37.870  1.00  0.00     0.058 A 
ATOM      3  C   UNL     1      -1.179  -9.191 -36.531  1.00  0.00     0.161 A 
ATOM      4  C   UNL     1      -1.267  -7.820 -36.233  1.00  0.00     0.157 A 
ATOM      5  C   UNL     1      -1.180  -6.875 -37.259  1.00  0.00     0.051 A 
ATOM      6  C   UNL     1      -0.999  -7.280 -38.583  1.00  0.00     0.012 A 
ENDROOT
BRANCH   1   7
ATOM      7  C   UNL     1      -0.713  -9.129 -40.293  1.00  0.00     0.003 C 
ATOM      8  C   UNL     1       0.451 -10.288 -42.130  1.00  0.00     0.035 C 
ATOM      9  C   UNL     1       0.350  -9.825 -40.712  1.00  0.00    -0.030 C 
ENDBRANCH   1   7
BRANCH   3  10
ATOM     10  O   UNL     1      -1.275 -10.119 -35.482  1.00  0.00    -0.493 OA
ATOM     11  C   UNL     1      -0.163 -10.748 -34.852  1.00  0.00     0.278 C 
ENDBRANCH   3  10
BRANCH   4  12
ATOM     12  O   UNL     1      -1.445  -7.377 -34.923  1.00  0.00    -0.504 OA
ATOM     13  H   UNL     1      -1.283  -7.976 -34.124  1.00  0.00     0.293 HD
ENDBRANCH   4  12
TORSDOF 3
ENDMDL
MODEL 8
REMARK VINA RESULT:    -3.919     13.631     14.854
REMARK INTER + INTRA:          -4.656
REMARK INTER:                  -4.485
REMARK INTRA:                  -0.171
REMARK UNBOUND:                -0.164
REMARK SMILES CC=Cc1ccc(O)c(OC)c1
REMARK SMILES IDX 4 1 12 2 9 3 7 4 6 5 5 6 3 7 1 8 2 9 10 10 11 11 8 12
REMARK H PARENT 8 13
REMARK Flexibility Score: inf
ROOT
ATOM      1  C   UNL     1      -0.724  -9.882 -41.968  1.00  0.00    -0.022 A 
ATOM      2  C   UNL     1       0.503  -9.875 -42.653  1.00  0.00     0.058 A 
ATOM      3  C   UNL     1       1.503 -10.824 -42.356  1.00  0.00     0.161 A 
ATOM      4  C   UNL     1       1.259 -11.793 -41.368  1.00  0.00     0.157 A 
ATOM      5  C   UNL     1       0.034 -11.812 -40.695  1.00  0.00     0.051 A 
ATOM      6  C   UNL     1      -0.952 -10.870 -40.992  1.00  0.00     0.012 A 
ENDROOT
BRANCH   1   7
ATOM      7  C   UNL     1      -1.743  -8.866 -42.327  1.00  0.00     0.003 C 
ATOM      8  C   UNL     1      -3.903  -8.073 -43.211  1.00  0.00     0.035 C 
ATOM      9  C   UNL     1      -2.921  -9.155 -42.892  1.00  0.00    -0.030 C 
ENDBRANCH   1   7
BRANCH   3  10
ATOM     10  O   UNL     1       2.740 -10.831 -43.020  1.00  0.00    -0.493 OA
ATOM     11  C   UNL     1       2.933 -11.245 -44.369  1.00  0.00     0.278 C 
ENDBRANCH   3  10
BRANCH   4  12
ATOM     12  O   UNL     1       2.221 -12.749 -41.042  1.00  0.00    -0.504 OA
ATOM     13  H   UNL     1       2.722 -13.273 -41.748  1.00  0.00     0.293 HD
ENDBRANCH   4  12
TORSDOF 3
ENDMDL
MODEL 9
REMARK VINA RESULT:    -2.104     16.158     17.700
REMARK INTER + INTRA:          -2.576
REMARK INTER:                  -2.396
REMARK INTRA:                  -0.180
REMARK UNBOUND:                -0.164
REMARK SMILES CC=Cc1ccc(O)c(OC)c1
REMARK SMILES IDX 4 1 12 2 9 3 7 4 6 5 5 6 3 7 1 8 2 9 10 10 11 11 8 12
REMARK H PARENT 8 13
REMARK Flexibility Score: inf
ROOT
ATOM      1  C   UNL     1      -2.052  -8.904 -40.054  1.00  0.00    -0.022 A 
ATOM      2  C   UNL     1      -1.495  -8.015 -39.120  1.00  0.00     0.058 A 
ATOM      3  C   UNL     1      -0.930  -8.487 -37.917  1.00  0.00     0.161 A 
ATOM      4  C   UNL     1      -0.919  -9.870 -37.661  1.00  0.00     0.157 A 
ATOM      5  C   UNL     1      -1.459 -10.758 -38.594  1.00  0.00     0.051 A 
ATOM      6  C   UNL     1      -2.017 -10.285 -39.783  1.00  0.00     0.012 A 
ENDROOT
BRANCH   1   7
ATOM      7  C   UNL     1      -2.624  -8.352 -41.307  1.00  0.00     0.003 C 
ATOM      8  C   UNL     1      -3.364  -8.428 -43.656  1.00  0.00     0.035 C 
ATOM      9  C   UNL     1      -2.764  -9.054 -42.438  1.00  0.00    -0.030 C 
ENDBRANCH   1   7
BRANCH   3  10
ATOM     10  O   UNL     1      -0.377  -7.618 -36.965  1.00  0.00    -0.493 OA
ATOM     11  C   UNL     1      -1.130  -6.875 -36.011  1.00  0.00     0.278 C 
ENDBRANCH   3  10
BRANCH   4  12
ATOM     12  O   UNL     1      -0.372 -10.380 -36.484  1.00  0.00    -0.504 OA
ATOM     13  H   UNL     1      -0.912 -10.938 -35.835  1.00  0.00     0.293 HD
ENDBRANCH   4  12
TORSDOF 3
ENDMDL
