MODEL 1
REMARK VINA RESULT:    -4.026      0.000      0.000
REMARK INTER + INTRA:          -4.144
REMARK INTER:                  -4.144
REMARK INTRA:                   0.000
REMARK UNBOUND:                 0.000
REMARK SMILES Oc1ccc2[nH]ccc2c1
REMARK SMILES IDX 3 1 4 2 5 3 9 4 8 5 7 6 6 7 10 8 2 9 1 11
REMARK H PARENT 6 10 1 12
REMARK Flexibility Score: inf
ROOT
ATOM      1  C   UNL     1     167.072 166.741 167.140  1.00  0.00     0.048 A 
ATOM      2  C   UNL     1     166.037 165.964 167.690  1.00  0.00     0.030 A 
ATOM      3  C   UNL     1     165.176 165.310 166.811  1.00  0.00     0.046 A 
ATOM      4  C   UNL     1     165.322 165.411 165.454  1.00  0.00     0.003 A 
ATOM      5  C   UNL     1     164.324 164.656 164.875  1.00  0.00     0.028 A 
ATOM      6  C   UNL     1     163.607 164.122 165.942  1.00  0.00     0.083 A 
ATOM      7  N   UNL     1     164.132 164.525 167.123  1.00  0.00    -0.361 N 
ATOM      8  C   UNL     1     166.336 166.171 164.875  1.00  0.00     0.056 A 
ATOM      9  C   UNL     1     167.225 166.847 165.737  1.00  0.00     0.116 A 
ATOM     10  H   UNL     1     163.791 164.275 168.077  1.00  0.00     0.166 HD
ENDROOT
BRANCH   9  11
ATOM     11  O   UNL     1     168.258 167.622 165.218  1.00  0.00    -0.508 OA
ATOM     12  H   UNL     1     169.229 167.409 165.416  1.00  0.00     0.293 HD
ENDBRANCH   9  11
TORSDOF 1
ENDMDL
MODEL 2
REMARK VINA RESULT:    -4.006      2.509      3.607
REMARK INTER + INTRA:          -4.123
REMARK INTER:                  -4.123
REMARK INTRA:                   0.000
REMARK UNBOUND:                 0.000
REMARK SMILES Oc1ccc2[nH]ccc2c1
REMARK SMILES IDX 3 1 4 2 5 3 9 4 8 5 7 6 6 7 10 8 2 9 1 11
REMARK H PARENT 6 10 1 12
REMARK Flexibility Score: inf
ROOT
ATOM      1  C   UNL     1     164.057 164.409 167.131  1.00  0.00     0.048 A 
ATOM      2  C   UNL     1     165.037 165.251 167.688  1.00  0.00     0.030 A 
ATOM      3  C   UNL     1     165.911 165.897 166.816  1.00  0.00     0.046 A 
ATOM      4  C   UNL     1     165.830 165.728 165.459  1.00  0.00     0.003 A 
ATOM      5  C   UNL     1     166.823 166.494 164.889  1.00  0.00     0.028 A 
ATOM      6  C   UNL     1     167.472 167.104 165.958  1.00  0.00     0.083 A 
ATOM      7  N   UNL     1     166.910 166.737 167.134  1.00  0.00    -0.361 N 
ATOM      8  C   UNL     1     164.872 164.902 164.875  1.00  0.00     0.056 A 
ATOM      9  C   UNL     1     163.971 164.232 165.730  1.00  0.00     0.116 A 
ATOM     10  H   UNL     1     167.199 167.044 168.088  1.00  0.00     0.166 HD
ENDROOT
BRANCH   9  11
ATOM     11  O   UNL     1     162.992 163.394 165.205  1.00  0.00    -0.508 OA
ATOM     12  H   UNL     1     162.007 163.553 165.385  1.00  0.00     0.293 HD
ENDBRANCH   9  11
TORSDOF 1
ENDMDL
MODEL 3
REMARK VINA RESULT:    -3.778      2.550      3.894
REMARK INTER + INTRA:          -3.889
REMARK INTER:                  -3.889
REMARK INTRA:                   0.000
REMARK UNBOUND:                 0.000
REMARK SMILES Oc1ccc2[nH]ccc2c1
REMARK SMILES IDX 3 1 4 2 5 3 9 4 8 5 7 6 6 7 10 8 2 9 1 11
REMARK H PARENT 6 10 1 12
REMARK Flexibility Score: inf
ROOT
ATOM      1  C   UNL     1     164.890 165.026 164.876  1.00  0.00     0.048 A 
ATOM      2  C   UNL     1     165.890 165.875 165.384  1.00  0.00     0.030 A 
ATOM      3  C   UNL     1     166.018 165.975 166.768  1.00  0.00     0.046 A 
ATOM      4  C   UNL     1     165.204 165.275 167.618  1.00  0.00     0.003 A 
ATOM      5  C   UNL     1     165.583 165.590 168.904  1.00  0.00     0.028 A 
ATOM      6  C   UNL     1     166.636 166.488 168.763  1.00  0.00     0.083 A 
ATOM      7  N   UNL     1     166.898 166.720 167.456  1.00  0.00    -0.361 N 
ATOM      8  C   UNL     1     164.203 164.426 167.148  1.00  0.00     0.056 A 
ATOM      9  C   UNL     1     164.047 164.302 165.752  1.00  0.00     0.116 A 
ATOM     10  H   UNL     1     167.634 167.350 167.067  1.00  0.00     0.166 HD
ENDROOT
BRANCH   9  11
ATOM     11  O   UNL     1     163.065 163.469 165.223  1.00  0.00    -0.508 OA
ATOM     12  H   UNL     1     162.304 163.120 165.794  1.00  0.00     0.293 HD
ENDBRANCH   9  11
TORSDOF 1
ENDMDL
MODEL 4
REMARK VINA RESULT:    -3.731      0.839      2.308
REMARK INTER + INTRA:          -3.840
REMARK INTER:                  -3.840
REMARK INTRA:                   0.000
REMARK UNBOUND:                 0.000
REMARK SMILES Oc1ccc2[nH]ccc2c1
REMARK SMILES IDX 3 1 4 2 5 3 9 4 8 5 7 6 6 7 10 8 2 9 1 11
REMARK H PARENT 6 10 1 12
REMARK Flexibility Score: inf
ROOT
ATOM      1  C   UNL     1     166.213 166.183 164.875  1.00  0.00     0.048 A 
ATOM      2  C   UNL     1     165.276 165.291 165.429  1.00  0.00     0.030 A 
ATOM      3  C   UNL     1     165.192 165.216 166.818  1.00  0.00     0.046 A 
ATOM      4  C   UNL     1     165.988 165.980 167.629  1.00  0.00     0.003 A 
ATOM      5  C   UNL     1     165.662 165.674 168.933  1.00  0.00     0.028 A 
ATOM      6  C   UNL     1     164.657 164.715 168.840  1.00  0.00     0.083 A 
ATOM      7  N   UNL     1     164.373 164.440 167.546  1.00  0.00    -0.361 N 
ATOM      8  C   UNL     1     166.926 166.872 167.114  1.00  0.00     0.056 A 
ATOM      9  C   UNL     1     167.038 166.972 165.711  1.00  0.00     0.116 A 
ATOM     10  H   UNL     1     163.664 163.761 167.191  1.00  0.00     0.166 HD
ENDROOT
BRANCH   9  11
ATOM     11  O   UNL     1     167.956 167.846 165.137  1.00  0.00    -0.508 OA
ATOM     12  H   UNL     1     168.904 167.555 164.928  1.00  0.00     0.293 HD
ENDBRANCH   9  11
TORSDOF 1
ENDMDL
MODEL 5
REMARK VINA RESULT:    -3.498      2.355      3.001
REMARK INTER + INTRA:          -3.600
REMARK INTER:                  -3.600
REMARK INTRA:                   0.000
REMARK UNBOUND:                 0.000
REMARK SMILES Oc1ccc2[nH]ccc2c1
REMARK SMILES IDX 3 1 4 2 5 3 9 4 8 5 7 6 6 7 10 8 2 9 1 11
REMARK H PARENT 6 10 1 12
REMARK Flexibility Score: inf
ROOT
ATOM      1  C   UNL     1     166.398 166.763 168.463  1.00  0.00     0.048 A 
ATOM      2  C   UNL     1     166.446 166.766 167.058  1.00  0.00     0.030 A 
ATOM      3  C   UNL     1     165.709 165.797 166.380  1.00  0.00     0.046 A 
ATOM      4  C   UNL     1     164.957 164.867 167.047  1.00  0.00     0.003 A 
ATOM      5  C   UNL     1     164.359 164.065 166.100  1.00  0.00     0.028 A 
ATOM      6  C   UNL     1     164.790 164.564 164.875  1.00  0.00     0.083 A 
ATOM      7  N   UNL     1     165.615 165.623 165.051  1.00  0.00    -0.361 N 
ATOM      8  C   UNL     1     164.887 164.836 168.438  1.00  0.00     0.056 A 
ATOM      9  C   UNL     1     165.623 165.803 169.156  1.00  0.00     0.116 A 
ATOM     10  H   UNL     1     166.080 166.184 164.305  1.00  0.00     0.166 HD
ENDROOT
BRANCH   9  11
ATOM     11  O   UNL     1     165.592 165.823 170.547  1.00  0.00    -0.508 OA
ATOM     12  H   UNL     1     165.401 164.985 171.084  1.00  0.00     0.293 HD
ENDBRANCH   9  11
TORSDOF 1
ENDMDL
MODEL 6
REMARK VINA RESULT:    -3.484      2.413      3.581
REMARK INTER + INTRA:          -3.585
REMARK INTER:                  -3.585
REMARK INTRA:                   0.000
REMARK UNBOUND:                 0.000
REMARK SMILES Oc1ccc2[nH]ccc2c1
REMARK SMILES IDX 3 1 4 2 5 3 9 4 8 5 7 6 6 7 10 8 2 9 1 11
REMARK H PARENT 6 10 1 12
REMARK Flexibility Score: inf
ROOT
ATOM      1  C   UNL     1     164.750 164.529 168.525  1.00  0.00     0.048 A 
ATOM      2  C   UNL     1     164.714 164.494 167.120  1.00  0.00     0.030 A 
ATOM      3  C   UNL     1     165.495 165.417 166.426  1.00  0.00     0.046 A 
ATOM      4  C   UNL     1     166.276 166.332 167.078  1.00  0.00     0.003 A 
ATOM      5  C   UNL     1     166.914 167.088 166.118  1.00  0.00     0.028 A 
ATOM      6  C   UNL     1     166.474 166.575 164.901  1.00  0.00     0.083 A 
ATOM      7  N   UNL     1     165.607 165.554 165.094  1.00  0.00    -0.361 N 
ATOM      8  C   UNL     1     166.334 166.395 168.468  1.00  0.00     0.056 A 
ATOM      9  C   UNL     1     165.556 165.475 169.202  1.00  0.00     0.116 A 
ATOM     10  H   UNL     1     165.127 164.993 164.357  1.00  0.00     0.166 HD
ENDROOT
BRANCH   9  11
ATOM     11  O   UNL     1     165.573 165.489 170.594  1.00  0.00    -0.508 OA
ATOM     12  H   UNL     1     165.990 164.733 171.125  1.00  0.00     0.293 HD
ENDBRANCH   9  11
TORSDOF 1
ENDMDL
MODEL 7
REMARK VINA RESULT:    -3.400      2.720      3.453
REMARK INTER + INTRA:          -3.499
REMARK INTER:                  -3.499
REMARK INTRA:                   0.000
REMARK UNBOUND:                 0.000
REMARK SMILES Oc1ccc2[nH]ccc2c1
REMARK SMILES IDX 3 1 4 2 5 3 9 4 8 5 7 6 6 7 10 8 2 9 1 11
REMARK H PARENT 6 10 1 12
REMARK Flexibility Score: inf
ROOT
ATOM      1  C   UNL     1     165.707 165.726 169.200  1.00  0.00     0.048 A 
ATOM      2  C   UNL     1     166.098 166.811 168.394  1.00  0.00     0.030 A 
ATOM      3  C   UNL     1     166.015 166.657 167.012  1.00  0.00     0.046 A 
ATOM      4  C   UNL     1     165.567 165.495 166.443  1.00  0.00     0.003 A 
ATOM      5  C   UNL     1     165.605 165.664 165.076  1.00  0.00     0.028 A 
ATOM      6  C   UNL     1     166.085 166.956 164.882  1.00  0.00     0.083 A 
ATOM      7  N   UNL     1     166.334 167.559 166.068  1.00  0.00    -0.361 N 
ATOM      8  C   UNL     1     165.173 164.402 167.212  1.00  0.00     0.056 A 
ATOM      9  C   UNL     1     165.245 164.524 168.615  1.00  0.00     0.116 A 
ATOM     10  H   UNL     1     166.699 168.525 166.215  1.00  0.00     0.166 HD
ENDROOT
BRANCH   9  11
ATOM     11  O   UNL     1     164.864 163.466 169.436  1.00  0.00    -0.508 OA
ATOM     12  H   UNL     1     164.059 162.891 169.217  1.00  0.00     0.293 HD
ENDBRANCH   9  11
TORSDOF 1
ENDMDL
MODEL 8
REMARK VINA RESULT:    -3.365     10.107     10.522
REMARK INTER + INTRA:          -3.463
REMARK INTER:                  -3.463
REMARK INTRA:                   0.000
REMARK UNBOUND:                 0.000
REMARK SMILES Oc1ccc2[nH]ccc2c1
REMARK SMILES IDX 3 1 4 2 5 3 9 4 8 5 7 6 6 7 10 8 2 9 1 11
REMARK H PARENT 6 10 1 12
REMARK Flexibility Score: inf
ROOT
ATOM      1  C   UNL     1     162.990 175.360 166.459  1.00  0.00     0.048 A 
ATOM      2  C   UNL     1     161.690 175.897 166.486  1.00  0.00     0.030 A 
ATOM      3  C   UNL     1     160.853 175.524 167.536  1.00  0.00     0.046 A 
ATOM      4  C   UNL     1     161.269 174.664 168.516  1.00  0.00     0.003 A 
ATOM      5  C   UNL     1     160.220 174.502 169.395  1.00  0.00     0.028 A 
ATOM      6  C   UNL     1     159.195 175.294 168.887  1.00  0.00     0.083 A 
ATOM      7  N   UNL     1     159.587 175.917 167.751  1.00  0.00    -0.361 N 
ATOM      8  C   UNL     1     162.550 174.114 168.520  1.00  0.00     0.056 A 
ATOM      9  C   UNL     1     163.422 174.471 167.470  1.00  0.00     0.116 A 
ATOM     10  H   UNL     1     159.018 176.567 167.165  1.00  0.00     0.166 HD
ENDROOT
BRANCH   9  11
ATOM     11  O   UNL     1     164.714 173.954 167.420  1.00  0.00    -0.508 OA
ATOM     12  H   UNL     1     165.526 174.547 167.540  1.00  0.00     0.293 HD
ENDBRANCH   9  11
TORSDOF 1
ENDMDL
MODEL 9
REMARK VINA RESULT:    -3.121      2.474      3.481
REMARK INTER + INTRA:          -3.212
REMARK INTER:                  -3.212
REMARK INTRA:                   0.000
REMARK UNBOUND:                 0.000
REMARK SMILES Oc1ccc2[nH]ccc2c1
REMARK SMILES IDX 3 1 4 2 5 3 9 4 8 5 7 6 6 7 10 8 2 9 1 11
REMARK H PARENT 6 10 1 12
REMARK Flexibility Score: inf
ROOT
ATOM      1  C   UNL     1     166.003 166.385 166.447  1.00  0.00     0.048 A 
ATOM      2  C   UNL     1     166.376 166.718 167.761  1.00  0.00     0.030 A 
ATOM      3  C   UNL     1     165.980 165.861 168.787  1.00  0.00     0.046 A 
ATOM      4  C   UNL     1     165.252 164.729 168.537  1.00  0.00     0.003 A 
ATOM      5  C   UNL     1     165.026 164.110 169.747  1.00  0.00     0.028 A 
ATOM      6  C   UNL     1     165.646 164.921 170.693  1.00  0.00     0.083 A 
ATOM      7  N   UNL     1     166.228 165.990 170.101  1.00  0.00    -0.361 N 
ATOM      8  C   UNL     1     164.866 164.370 167.248  1.00  0.00     0.056 A 
ATOM      9  C   UNL     1     165.250 165.216 166.186  1.00  0.00     0.116 A 
ATOM     10  H   UNL     1     166.759 166.755 170.572  1.00  0.00     0.166 HD
ENDROOT
BRANCH   9  11
ATOM     11  O   UNL     1     164.894 164.909 164.876  1.00  0.00    -0.508 OA
ATOM     12  H   UNL     1     165.105 165.538 164.109  1.00  0.00     0.293 HD
ENDBRANCH   9  11
TORSDOF 1
ENDMDL
