MODEL 1
REMARK VINA RESULT:    -4.819      0.000      0.000
REMARK INTER + INTRA:          -8.405
REMARK INTER:                  -7.354
REMARK INTRA:                  -1.050
REMARK UNBOUND:                -1.050
REMARK SMILES CCCCCCCCCCC(=O)[O-]
REMARK SMILES IDX 7 1 8 2 9 3 10 4 11 5 12 6 13 7 6 8 5 9 4 10 3 11 2 12 1 13
REMARK H PARENT
REMARK Flexibility Score: inf
ROOT
ATOM      1  C   UNL     1       1.526  46.093   9.005  1.00  0.00     0.000 C 
ENDROOT
BRANCH   1   2
ATOM      2  C   UNL     1       2.693  46.649   9.833  1.00  0.00     0.000 C 
BRANCH   2   3
ATOM      3  C   UNL     1       3.903  46.958   8.937  1.00  0.00     0.006 C 
BRANCH   3   4
ATOM      4  C   UNL     1       5.235  46.675   9.644  1.00  0.00     0.053 C 
BRANCH   4   5
ATOM      5  C   UNL     1       6.278  47.687   9.284  1.00  0.00     0.041 C 
ATOM      6  O   UNL     1       7.499  47.428   9.453  1.00  0.00    -0.550 OA
ATOM      7  O   UNL     1       5.904  48.905   8.730  1.00  0.00    -0.550 OA
ENDBRANCH   4   5
ENDBRANCH   3   4
ENDBRANCH   2   3
ENDBRANCH   1   2
BRANCH   1   8
ATOM      8  C   UNL     1       1.152  44.651   9.391  1.00  0.00     0.000 C 
BRANCH   8   9
ATOM      9  C   UNL     1       0.934  44.413  10.899  1.00  0.00    -0.000 C 
BRANCH   9  10
ATOM     10  C   UNL     1       1.761  43.268  11.511  1.00  0.00    -0.000 C 
BRANCH  10  11
ATOM     11  C   UNL     1       2.812  42.706  10.537  1.00  0.00    -0.000 C 
BRANCH  11  12
ATOM     12  C   UNL     1       4.207  43.306  10.769  1.00  0.00    -0.003 C 
ATOM     13  C   UNL     1       4.329  44.025  12.113  1.00  0.00     0.004 C 
ENDBRANCH  11  12
ENDBRANCH  10  11
ENDBRANCH   9  10
ENDBRANCH   8   9
ENDBRANCH   1   8
TORSDOF 9
ENDMDL
MODEL 2
REMARK VINA RESULT:    -4.792      4.416      6.600
REMARK INTER + INTRA:          -8.364
REMARK INTER:                  -7.973
REMARK INTRA:                  -0.391
REMARK UNBOUND:                -1.050
REMARK SMILES CCCCCCCCCCC(=O)[O-]
REMARK SMILES IDX 7 1 8 2 9 3 10 4 11 5 12 6 13 7 6 8 5 9 4 10 3 11 2 12 1 13
REMARK H PARENT
REMARK Flexibility Score: inf
ROOT
ATOM      1  C   UNL     1       2.762  42.752   9.898  1.00  0.00     0.000 C 
ENDROOT
BRANCH   1   2
ATOM      2  C   UNL     1       2.526  42.403  11.374  1.00  0.00     0.000 C 
BRANCH   2   3
ATOM      3  C   UNL     1       3.498  41.309  11.841  1.00  0.00     0.006 C 
BRANCH   3   4
ATOM      4  C   UNL     1       2.768  40.099  12.439  1.00  0.00     0.053 C 
BRANCH   4   5
ATOM      5  C   UNL     1       3.671  38.911  12.561  1.00  0.00     0.041 C 
ATOM      6  O   UNL     1       4.762  39.005  13.184  1.00  0.00    -0.550 OA
ATOM      7  O   UNL     1       3.293  37.691  12.015  1.00  0.00    -0.550 OA
ENDBRANCH   4   5
ENDBRANCH   3   4
ENDBRANCH   2   3
ENDBRANCH   1   2
BRANCH   1   8
ATOM      8  C   UNL     1       3.856  43.817   9.702  1.00  0.00     0.000 C 
BRANCH   8   9
ATOM      9  C   UNL     1       4.188  44.652  10.955  1.00  0.00    -0.000 C 
BRANCH   9  10
ATOM     10  C   UNL     1       4.530  46.129  10.689  1.00  0.00    -0.000 C 
BRANCH  10  11
ATOM     11  C   UNL     1       4.367  46.522   9.211  1.00  0.00    -0.000 C 
BRANCH  11  12
ATOM     12  C   UNL     1       5.252  47.717   8.821  1.00  0.00    -0.003 C 
ATOM     13  C   UNL     1       6.697  47.566   9.297  1.00  0.00     0.004 C 
ENDBRANCH  11  12
ENDBRANCH  10  11
ENDBRANCH   9  10
ENDBRANCH   8   9
ENDBRANCH   1   8
TORSDOF 9
ENDMDL
MODEL 3
REMARK VINA RESULT:    -4.679      4.275      6.357
REMARK INTER + INTRA:          -8.191
REMARK INTER:                  -7.489
REMARK INTRA:                  -0.702
REMARK UNBOUND:                -1.050
REMARK SMILES CCCCCCCCCCC(=O)[O-]
REMARK SMILES IDX 7 1 8 2 9 3 10 4 11 5 12 6 13 7 6 8 5 9 4 10 3 11 2 12 1 13
REMARK H PARENT
REMARK Flexibility Score: inf
ROOT
ATOM      1  C   UNL     1       2.848  42.500   9.996  1.00  0.00     0.000 C 
ENDROOT
BRANCH   1   2
ATOM      2  C   UNL     1       2.269  42.572  11.416  1.00  0.00     0.000 C 
BRANCH   2   3
ATOM      3  C   UNL     1       2.463  41.240  12.156  1.00  0.00     0.006 C 
BRANCH   3   4
ATOM      4  C   UNL     1       3.922  40.767  12.129  1.00  0.00     0.053 C 
BRANCH   4   5
ATOM      5  C   UNL     1       4.076  39.409  12.740  1.00  0.00     0.041 C 
ATOM      6  O   UNL     1       4.993  39.189  13.575  1.00  0.00    -0.550 OA
ATOM      7  O   UNL     1       3.186  38.394  12.412  1.00  0.00    -0.550 OA
ENDBRANCH   4   5
ENDBRANCH   3   4
ENDBRANCH   2   3
ENDBRANCH   1   2
BRANCH   1   8
ATOM      8  C   UNL     1       3.918  43.575   9.731  1.00  0.00     0.000 C 
BRANCH   8   9
ATOM      9  C   UNL     1       4.321  44.414  10.961  1.00  0.00    -0.000 C 
BRANCH   9  10
ATOM     10  C   UNL     1       4.284  45.939  10.756  1.00  0.00    -0.000 C 
BRANCH  10  11
ATOM     11  C   UNL     1       4.660  46.358   9.325  1.00  0.00    -0.000 C 
BRANCH  11  12
ATOM     12  C   UNL     1       3.585  47.240   8.669  1.00  0.00    -0.003 C 
ATOM     13  C   UNL     1       2.222  47.118   9.349  1.00  0.00     0.004 C 
ENDBRANCH  11  12
ENDBRANCH  10  11
ENDBRANCH   9  10
ENDBRANCH   8   9
ENDBRANCH   1   8
TORSDOF 9
ENDMDL
MODEL 4
REMARK VINA RESULT:    -4.610      2.466      3.274
REMARK INTER + INTRA:          -8.086
REMARK INTER:                  -7.469
REMARK INTRA:                  -0.618
REMARK UNBOUND:                -1.050
REMARK SMILES CCCCCCCCCCC(=O)[O-]
REMARK SMILES IDX 7 1 8 2 9 3 10 4 11 5 12 6 13 7 6 8 5 9 4 10 3 11 2 12 1 13
REMARK H PARENT
REMARK Flexibility Score: inf
ROOT
ATOM      1  C   UNL     1       3.786  43.741   9.565  1.00  0.00     0.000 C 
ENDROOT
BRANCH   1   2
ATOM      2  C   UNL     1       4.327  44.508  10.779  1.00  0.00     0.000 C 
BRANCH   2   3
ATOM      3  C   UNL     1       4.333  46.022  10.514  1.00  0.00     0.006 C 
BRANCH   3   4
ATOM      4  C   UNL     1       3.079  46.485   9.762  1.00  0.00     0.053 C 
BRANCH   4   5
ATOM      5  C   UNL     1       3.422  47.377   8.609  1.00  0.00     0.041 C 
ATOM      6  O   UNL     1       4.611  47.752   8.428  1.00  0.00    -0.550 OA
ATOM      7  O   UNL     1       2.434  47.767   7.714  1.00  0.00    -0.550 OA
ENDBRANCH   4   5
ENDBRANCH   3   4
ENDBRANCH   2   3
ENDBRANCH   1   2
BRANCH   1   8
ATOM      8  C   UNL     1       2.711  42.706   9.942  1.00  0.00     0.000 C 
BRANCH   8   9
ATOM      9  C   UNL     1       2.463  42.541  11.455  1.00  0.00    -0.000 C 
BRANCH   9  10
ATOM     10  C   UNL     1       2.675  41.118  12.004  1.00  0.00    -0.000 C 
BRANCH  10  11
ATOM     11  C   UNL     1       4.158  40.784  12.238  1.00  0.00    -0.000 C 
BRANCH  11  12
ATOM     12  C   UNL     1       4.355  39.393  12.861  1.00  0.00    -0.003 C 
ATOM     13  C   UNL     1       3.282  38.392  12.431  1.00  0.00     0.004 C 
ENDBRANCH  11  12
ENDBRANCH  10  11
ENDBRANCH   9  10
ENDBRANCH   8   9
ENDBRANCH   1   8
TORSDOF 9
ENDMDL
MODEL 5
REMARK VINA RESULT:    -4.609      4.288      6.146
REMARK INTER + INTRA:          -8.085
REMARK INTER:                  -7.229
REMARK INTRA:                  -0.856
REMARK UNBOUND:                -1.050
REMARK SMILES CCCCCCCCCCC(=O)[O-]
REMARK SMILES IDX 7 1 8 2 9 3 10 4 11 5 12 6 13 7 6 8 5 9 4 10 3 11 2 12 1 13
REMARK H PARENT
REMARK Flexibility Score: inf
ROOT
ATOM      1  C   UNL     1       1.639  43.087  11.753  1.00  0.00     0.000 C 
ENDROOT
BRANCH   1   2
ATOM      2  C   UNL     1       2.630  42.360  10.833  1.00  0.00     0.000 C 
BRANCH   2   3
ATOM      3  C   UNL     1       3.588  41.477  11.647  1.00  0.00     0.006 C 
BRANCH   3   4
ATOM      4  C   UNL     1       2.847  40.391  12.438  1.00  0.00     0.053 C 
BRANCH   4   5
ATOM      5  C   UNL     1       3.700  39.177  12.645  1.00  0.00     0.041 C 
ATOM      6  O   UNL     1       4.764  39.255  13.315  1.00  0.00    -0.550 OA
ATOM      7  O   UNL     1       3.303  37.951  12.125  1.00  0.00    -0.550 OA
ENDBRANCH   4   5
ENDBRANCH   3   4
ENDBRANCH   2   3
ENDBRANCH   1   2
BRANCH   1   8
ATOM      8  C   UNL     1       0.946  44.276  11.064  1.00  0.00     0.000 C 
BRANCH   8   9
ATOM      9  C   UNL     1       1.219  44.406   9.552  1.00  0.00    -0.000 C 
BRANCH   9  10
ATOM     10  C   UNL     1       1.348  45.848   9.029  1.00  0.00    -0.000 C 
BRANCH  10  11
ATOM     11  C   UNL     1       2.487  46.629   9.708  1.00  0.00    -0.000 C 
BRANCH  11  12
ATOM     12  C   UNL     1       3.852  45.944   9.535  1.00  0.00    -0.003 C 
ATOM     13  C   UNL     1       4.506  45.581  10.868  1.00  0.00     0.004 C 
ENDBRANCH  11  12
ENDBRANCH  10  11
ENDBRANCH   9  10
ENDBRANCH   8   9
ENDBRANCH   1   8
TORSDOF 9
ENDMDL
MODEL 6
REMARK VINA RESULT:    -4.531      1.146      3.040
REMARK INTER + INTRA:          -7.965
REMARK INTER:                  -6.831
REMARK INTRA:                  -1.134
REMARK UNBOUND:                -1.050
REMARK SMILES CCCCCCCCCCC(=O)[O-]
REMARK SMILES IDX 7 1 8 2 9 3 10 4 11 5 12 6 13 7 6 8 5 9 4 10 3 11 2 12 1 13
REMARK H PARENT
REMARK Flexibility Score: inf
ROOT
ATOM      1  C   UNL     1       4.121  44.527  10.914  1.00  0.00     0.000 C 
ENDROOT
BRANCH   1   2
ATOM      2  C   UNL     1       4.385  46.014  10.641  1.00  0.00     0.000 C 
BRANCH   2   3
ATOM      3  C   UNL     1       4.804  46.239   9.180  1.00  0.00     0.006 C 
BRANCH   3   4
ATOM      4  C   UNL     1       4.905  47.729   8.827  1.00  0.00     0.053 C 
BRANCH   4   5
ATOM      5  C   UNL     1       6.286  48.260   9.056  1.00  0.00     0.041 C 
ATOM      6  O   UNL     1       6.511  49.497   8.982  1.00  0.00    -0.550 OA
ATOM      7  O   UNL     1       7.320  47.391   9.384  1.00  0.00    -0.550 OA
ENDBRANCH   4   5
ENDBRANCH   3   4
ENDBRANCH   2   3
ENDBRANCH   1   2
BRANCH   1   8
ATOM      8  C   UNL     1       3.775  43.737   9.639  1.00  0.00     0.000 C 
BRANCH   8   9
ATOM      9  C   UNL     1       2.330  43.203   9.572  1.00  0.00    -0.000 C 
BRANCH   9  10
ATOM     10  C   UNL     1       1.239  44.201  10.002  1.00  0.00    -0.000 C 
BRANCH  10  11
ATOM     11  C   UNL     1       1.012  45.318   8.968  1.00  0.00    -0.000 C 
BRANCH  11  12
ATOM     12  C   UNL     1       0.855  46.700   9.622  1.00  0.00    -0.003 C 
ATOM     13  C   UNL     1       1.166  47.849   8.662  1.00  0.00     0.004 C 
ENDBRANCH  11  12
ENDBRANCH  10  11
ENDBRANCH   9  10
ENDBRANCH   8   9
ENDBRANCH   1   8
TORSDOF 9
ENDMDL
MODEL 7
REMARK VINA RESULT:    -4.516      1.827      2.341
REMARK INTER + INTRA:          -7.942
REMARK INTER:                  -7.554
REMARK INTRA:                  -0.388
REMARK UNBOUND:                -1.050
REMARK SMILES CCCCCCCCCCC(=O)[O-]
REMARK SMILES IDX 7 1 8 2 9 3 10 4 11 5 12 6 13 7 6 8 5 9 4 10 3 11 2 12 1 13
REMARK H PARENT
REMARK Flexibility Score: inf
ROOT
ATOM      1  C   UNL     1       3.728  44.365   9.505  1.00  0.00     0.000 C 
ENDROOT
BRANCH   1   2
ATOM      2  C   UNL     1       3.002  45.715   9.573  1.00  0.00     0.000 C 
BRANCH   2   3
ATOM      3  C   UNL     1       3.943  46.865   9.185  1.00  0.00     0.006 C 
BRANCH   3   4
ATOM      4  C   UNL     1       5.276  46.806   9.942  1.00  0.00     0.053 C 
BRANCH   4   5
ATOM      5  C   UNL     1       6.305  47.701   9.323  1.00  0.00     0.041 C 
ATOM      6  O   UNL     1       5.955  48.758   8.733  1.00  0.00    -0.550 OA
ATOM      7  O   UNL     1       7.654  47.386   9.427  1.00  0.00    -0.550 OA
ENDBRANCH   4   5
ENDBRANCH   3   4
ENDBRANCH   2   3
ENDBRANCH   1   2
BRANCH   1   8
ATOM      8  C   UNL     1       2.800  43.171   9.794  1.00  0.00     0.000 C 
BRANCH   8   9
ATOM      9  C   UNL     1       1.978  43.281  11.094  1.00  0.00    -0.000 C 
BRANCH   9  10
ATOM     10  C   UNL     1       2.120  42.094  12.064  1.00  0.00    -0.000 C 
BRANCH  10  11
ATOM     11  C   UNL     1       3.299  41.172  11.709  1.00  0.00    -0.000 C 
BRANCH  11  12
ATOM     12  C   UNL     1       3.225  39.819  12.435  1.00  0.00    -0.003 C 
ATOM     13  C   UNL     1       4.555  39.411  13.069  1.00  0.00     0.004 C 
ENDBRANCH  11  12
ENDBRANCH  10  11
ENDBRANCH   9  10
ENDBRANCH   8   9
ENDBRANCH   1   8
TORSDOF 9
ENDMDL
MODEL 8
REMARK VINA RESULT:    -4.423      2.656      4.634
REMARK INTER + INTRA:          -7.801
REMARK INTER:                  -6.970
REMARK INTRA:                  -0.830
REMARK UNBOUND:                -1.050
REMARK SMILES CCCCCCCCCCC(=O)[O-]
REMARK SMILES IDX 7 1 8 2 9 3 10 4 11 5 12 6 13 7 6 8 5 9 4 10 3 11 2 12 1 13
REMARK H PARENT
REMARK Flexibility Score: inf
ROOT
ATOM      1  C   UNL     1       1.190  44.893  10.164  1.00  0.00     0.000 C 
ENDROOT
BRANCH   1   2
ATOM      2  C   UNL     1       1.500  43.945   8.997  1.00  0.00     0.000 C 
BRANCH   2   3
ATOM      3  C   UNL     1       2.485  42.847   9.429  1.00  0.00     0.006 C 
BRANCH   3   4
ATOM      4  C   UNL     1       3.828  43.423   9.897  1.00  0.00     0.053 C 
BRANCH   4   5
ATOM      5  C   UNL     1       4.129  43.045  11.314  1.00  0.00     0.041 C 
ATOM      6  O   UNL     1       4.514  43.918  12.137  1.00  0.00    -0.550 OA
ATOM      7  O   UNL     1       3.953  41.732  11.736  1.00  0.00    -0.550 OA
ENDBRANCH   4   5
ENDBRANCH   3   4
ENDBRANCH   2   3
ENDBRANCH   1   2
BRANCH   1   8
ATOM      8  C   UNL     1       0.532  46.207   9.707  1.00  0.00     0.000 C 
BRANCH   8   9
ATOM      9  C   UNL     1       1.503  47.386   9.494  1.00  0.00    -0.000 C 
BRANCH   9  10
ATOM     10  C   UNL     1       2.026  47.556   8.057  1.00  0.00    -0.000 C 
BRANCH  10  11
ATOM     11  C   UNL     1       3.555  47.713   7.993  1.00  0.00    -0.000 C 
BRANCH  11  12
ATOM     12  C   UNL     1       4.281  46.802   8.995  1.00  0.00    -0.003 C 
ATOM     13  C   UNL     1       5.673  47.314   9.363  1.00  0.00     0.004 C 
ENDBRANCH  11  12
ENDBRANCH  10  11
ENDBRANCH   9  10
ENDBRANCH   8   9
ENDBRANCH   1   8
TORSDOF 9
ENDMDL
MODEL 9
REMARK VINA RESULT:    -4.399      2.551      4.843
REMARK INTER + INTRA:          -7.763
REMARK INTER:                  -7.024
REMARK INTRA:                  -0.739
REMARK UNBOUND:                -1.050
REMARK SMILES CCCCCCCCCCC(=O)[O-]
REMARK SMILES IDX 7 1 8 2 9 3 10 4 11 5 12 6 13 7 6 8 5 9 4 10 3 11 2 12 1 13
REMARK H PARENT
REMARK Flexibility Score: inf
ROOT
ATOM      1  C   UNL     1       1.483  45.234   9.486  1.00  0.00     0.000 C 
ENDROOT
BRANCH   1   2
ATOM      2  C   UNL     1       0.731  44.886  10.778  1.00  0.00     0.000 C 
BRANCH   2   3
ATOM      3  C   UNL     1       1.300  43.609  11.417  1.00  0.00     0.006 C 
BRANCH   3   4
ATOM      4  C   UNL     1       2.484  43.041  10.624  1.00  0.00     0.053 C 
BRANCH   4   5
ATOM      5  C   UNL     1       3.687  42.840  11.493  1.00  0.00     0.041 C 
ATOM      6  O   UNL     1       4.087  41.677  11.763  1.00  0.00    -0.550 OA
ATOM      7  O   UNL     1       4.386  43.939  11.977  1.00  0.00    -0.550 OA
ENDBRANCH   4   5
ENDBRANCH   3   4
ENDBRANCH   2   3
ENDBRANCH   1   2
BRANCH   1   8
ATOM      8  C   UNL     1       1.707  46.747   9.313  1.00  0.00     0.000 C 
BRANCH   8   9
ATOM      9  C   UNL     1       3.103  47.147   8.792  1.00  0.00    -0.000 C 
BRANCH   9  10
ATOM     10  C   UNL     1       4.245  46.187   9.170  1.00  0.00    -0.000 C 
BRANCH  10  11
ATOM     11  C   UNL     1       5.319  46.854  10.047  1.00  0.00    -0.000 C 
BRANCH  11  12
ATOM     12  C   UNL     1       6.477  47.433   9.219  1.00  0.00    -0.003 C 
ATOM     13  C   UNL     1       6.426  48.957   9.111  1.00  0.00     0.004 C 
ENDBRANCH  11  12
ENDBRANCH  10  11
ENDBRANCH   9  10
ENDBRANCH   8   9
ENDBRANCH   1   8
TORSDOF 9
ENDMDL
