MODEL 1
REMARK VINA RESULT:    -3.942      0.000      0.000
REMARK INTER + INTRA:         -12.566
REMARK INTER:                  -9.934
REMARK INTRA:                  -2.632
REMARK UNBOUND:                -2.632
REMARK SMILES CCCCCCCCCCCCCCCCCCCCCCCCCCCC(=O)[O-]
REMARK SMILES IDX 15 1 16 2 17 3 18 4 19 5 20 6 21 7 22 8 23 9 24 10 25 11
REMARK SMILES IDX 26 12 27 13 28 14 29 15 30 16 14 17 13 18 12 19 11 20 10 21
REMARK SMILES IDX 9 22 8 23 7 24 6 25 5 26 4 27 3 28 2 29 1 30
REMARK H PARENT
REMARK Flexibility Score: inf
ROOT
ATOM      1  C   UNL     1     -21.309  41.001  -5.760  1.00  0.00     0.000 C 
ENDROOT
BRANCH   1   2
ATOM      2  C   UNL     1     -21.736  41.005  -7.236  1.00  0.00     0.000 C 
BRANCH   2   3
ATOM      3  C   UNL     1     -21.917  39.589  -7.805  1.00  0.00     0.000 C 
BRANCH   3   4
ATOM      4  C   UNL     1     -20.854  39.234  -8.861  1.00  0.00     0.000 C 
BRANCH   4   5
ATOM      5  C   UNL     1     -20.766  37.722  -9.125  1.00  0.00     0.000 C 
BRANCH   5   6
ATOM      6  C   UNL     1     -19.319  37.198  -9.115  1.00  0.00     0.000 C 
BRANCH   6   7
ATOM      7  C   UNL     1     -18.285  38.337  -9.125  1.00  0.00     0.000 C 
BRANCH   7   8
ATOM      8  C   UNL     1     -17.322  38.276  -7.930  1.00  0.00     0.000 C 
BRANCH   8   9
ATOM      9  C   UNL     1     -17.025  39.683  -7.397  1.00  0.00     0.000 C 
BRANCH   9  10
ATOM     10  C   UNL     1     -18.152  40.172  -6.475  1.00  0.00     0.000 C 
BRANCH  10  11
ATOM     11  C   UNL     1     -17.759  40.136  -4.990  1.00  0.00     0.000 C 
BRANCH  11  12
ATOM     12  C   UNL     1     -16.360  40.722  -4.734  1.00  0.00     0.006 C 
BRANCH  12  13
ATOM     13  C   UNL     1     -16.323  41.610  -3.482  1.00  0.00     0.053 C 
BRANCH  13  14
ATOM     14  C   UNL     1     -17.299  42.743  -3.572  1.00  0.00     0.041 C 
ATOM     15  O   UNL     1     -18.197  42.878  -2.699  1.00  0.00    -0.550 OA
ATOM     16  O   UNL     1     -17.203  43.664  -4.608  1.00  0.00    -0.550 OA
ENDBRANCH  13  14
ENDBRANCH  12  13
ENDBRANCH  11  12
ENDBRANCH  10  11
ENDBRANCH   9  10
ENDBRANCH   8   9
ENDBRANCH   7   8
ENDBRANCH   6   7
ENDBRANCH   5   6
ENDBRANCH   4   5
ENDBRANCH   3   4
ENDBRANCH   2   3
ENDBRANCH   1   2
BRANCH   1  17
ATOM     17  C   UNL     1     -21.532  42.378  -5.122  1.00  0.00     0.000 C 
BRANCH  17  18
ATOM     18  C   UNL     1     -20.528  43.408  -5.657  1.00  0.00     0.000 C 
BRANCH  18  19
ATOM     19  C   UNL     1     -19.924  43.010  -7.015  1.00  0.00     0.000 C 
BRANCH  19  20
ATOM     20  C   UNL     1     -19.009  44.087  -7.634  1.00  0.00     0.000 C 
BRANCH  20  21
ATOM     21  C   UNL     1     -19.268  45.486  -7.044  1.00  0.00     0.000 C 
BRANCH  21  22
ATOM     22  C   UNL     1     -19.747  46.488  -8.108  1.00  0.00    -0.000 C 
BRANCH  22  23
ATOM     23  C   UNL     1     -21.276  46.636  -8.126  1.00  0.00    -0.000 C 
BRANCH  23  24
ATOM     24  C   UNL     1     -21.924  45.537  -8.980  1.00  0.00    -0.000 C 
BRANCH  24  25
ATOM     25  C   UNL     1     -23.417  45.341  -8.667  1.00  0.00    -0.000 C 
BRANCH  25  26
ATOM     26  C   UNL     1     -23.775  43.986  -8.027  1.00  0.00    -0.000 C 
BRANCH  26  27
ATOM     27  C   UNL     1     -24.518  44.108  -6.679  1.00  0.00    -0.000 C 
BRANCH  27  28
ATOM     28  C   UNL     1     -25.560  45.241  -6.684  1.00  0.00    -0.000 C 
BRANCH  28  29
ATOM     29  C   UNL     1     -24.926  46.624  -6.469  1.00  0.00    -0.003 C 
ATOM     30  C   UNL     1     -23.882  46.624  -5.351  1.00  0.00     0.004 C 
ENDBRANCH  28  29
ENDBRANCH  27  28
ENDBRANCH  26  27
ENDBRANCH  25  26
ENDBRANCH  24  25
ENDBRANCH  23  24
ENDBRANCH  22  23
ENDBRANCH  21  22
ENDBRANCH  20  21
ENDBRANCH  19  20
ENDBRANCH  18  19
ENDBRANCH  17  18
ENDBRANCH   1  17
TORSDOF 26
ENDMDL
MODEL 2
REMARK VINA RESULT:    -3.703      2.724      5.398
REMARK INTER + INTRA:         -11.964
REMARK INTER:                 -10.073
REMARK INTRA:                  -1.890
REMARK UNBOUND:                -2.632
REMARK SMILES CCCCCCCCCCCCCCCCCCCCCCCCCCCC(=O)[O-]
REMARK SMILES IDX 15 1 16 2 17 3 18 4 19 5 20 6 21 7 22 8 23 9 24 10 25 11
REMARK SMILES IDX 26 12 27 13 28 14 29 15 30 16 14 17 13 18 12 19 11 20 10 21
REMARK SMILES IDX 9 22 8 23 7 24 6 25 5 26 4 27 3 28 2 29 1 30
REMARK H PARENT
REMARK Flexibility Score: inf
ROOT
ATOM      1  C   UNL     1     -19.809  44.157  -7.358  1.00  0.00     0.000 C 
ENDROOT
BRANCH   1   2
ATOM      2  C   UNL     1     -19.116  44.292  -5.994  1.00  0.00     0.000 C 
BRANCH   2   3
ATOM      3  C   UNL     1     -17.816  43.477  -5.904  1.00  0.00     0.000 C 
BRANCH   3   4
ATOM      4  C   UNL     1     -17.548  42.943  -4.485  1.00  0.00     0.000 C 
BRANCH   4   5
ATOM      5  C   UNL     1     -18.715  42.104  -3.940  1.00  0.00     0.000 C 
BRANCH   5   6
ATOM      6  C   UNL     1     -18.799  40.709  -4.586  1.00  0.00     0.000 C 
BRANCH   6   7
ATOM      7  C   UNL     1     -17.484  40.301  -5.270  1.00  0.00     0.000 C 
BRANCH   7   8
ATOM      8  C   UNL     1     -17.710  39.561  -6.597  1.00  0.00     0.000 C 
BRANCH   8   9
ATOM      9  C   UNL     1     -17.974  40.553  -7.736  1.00  0.00     0.000 C 
BRANCH   9  10
ATOM     10  C   UNL     1     -17.539  39.969  -9.088  1.00  0.00     0.000 C 
BRANCH  10  11
ATOM     11  C   UNL     1     -17.556  38.433  -9.102  1.00  0.00     0.000 C 
BRANCH  11  12
ATOM     12  C   UNL     1     -18.790  37.848  -8.394  1.00  0.00     0.006 C 
BRANCH  12  13
ATOM     13  C   UNL     1     -19.351  36.620  -9.125  1.00  0.00     0.053 C 
BRANCH  13  14
ATOM     14  C   UNL     1     -20.796  36.391  -8.804  1.00  0.00     0.041 C 
ATOM     15  O   UNL     1     -21.478  37.301  -8.263  1.00  0.00    -0.550 OA
ATOM     16  O   UNL     1     -21.397  35.179  -9.125  1.00  0.00    -0.550 OA
ENDBRANCH  13  14
ENDBRANCH  12  13
ENDBRANCH  11  12
ENDBRANCH  10  11
ENDBRANCH   9  10
ENDBRANCH   8   9
ENDBRANCH   7   8
ENDBRANCH   6   7
ENDBRANCH   5   6
ENDBRANCH   4   5
ENDBRANCH   3   4
ENDBRANCH   2   3
ENDBRANCH   1   2
BRANCH   1  17
ATOM     17  C   UNL     1     -19.939  45.523  -8.045  1.00  0.00     0.000 C 
BRANCH  17  18
ATOM     18  C   UNL     1     -20.187  46.638  -7.021  1.00  0.00     0.000 C 
BRANCH  18  19
ATOM     19  C   UNL     1     -21.661  47.072  -6.948  1.00  0.00     0.000 C 
BRANCH  19  20
ATOM     20  C   UNL     1     -22.331  46.790  -5.587  1.00  0.00     0.000 C 
BRANCH  20  21
ATOM     21  C   UNL     1     -23.670  46.044  -5.736  1.00  0.00     0.000 C 
BRANCH  21  22
ATOM     22  C   UNL     1     -24.630  46.755  -6.704  1.00  0.00    -0.000 C 
BRANCH  22  23
ATOM     23  C   UNL     1     -25.948  45.989  -6.889  1.00  0.00    -0.000 C 
BRANCH  23  24
ATOM     24  C   UNL     1     -25.786  44.856  -7.913  1.00  0.00    -0.000 C 
BRANCH  24  25
ATOM     25  C   UNL     1     -24.313  44.537  -8.222  1.00  0.00    -0.000 C 
BRANCH  25  26
ATOM     26  C   UNL     1     -23.859  43.117  -7.831  1.00  0.00    -0.000 C 
BRANCH  26  27
ATOM     27  C   UNL     1     -23.821  42.870  -6.308  1.00  0.00    -0.000 C 
BRANCH  27  28
ATOM     28  C   UNL     1     -22.407  42.525  -5.805  1.00  0.00    -0.000 C 
BRANCH  28  29
ATOM     29  C   UNL     1     -21.820  41.289  -6.504  1.00  0.00    -0.003 C 
ATOM     30  C   UNL     1     -22.692  40.045  -6.327  1.00  0.00     0.004 C 
ENDBRANCH  28  29
ENDBRANCH  27  28
ENDBRANCH  26  27
ENDBRANCH  25  26
ENDBRANCH  24  25
ENDBRANCH  23  24
ENDBRANCH  22  23
ENDBRANCH  21  22
ENDBRANCH  20  21
ENDBRANCH  19  20
ENDBRANCH  18  19
ENDBRANCH  17  18
ENDBRANCH   1  17
TORSDOF 26
ENDMDL
MODEL 3
REMARK VINA RESULT:    -3.611      1.422      6.197
REMARK INTER + INTRA:         -11.731
REMARK INTER:                  -8.498
REMARK INTRA:                  -3.233
REMARK UNBOUND:                -2.632
REMARK SMILES CCCCCCCCCCCCCCCCCCCCCCCCCCCC(=O)[O-]
REMARK SMILES IDX 15 1 16 2 17 3 18 4 19 5 20 6 21 7 22 8 23 9 24 10 25 11
REMARK SMILES IDX 26 12 27 13 28 14 29 15 30 16 14 17 13 18 12 19 11 20 10 21
REMARK SMILES IDX 9 22 8 23 7 24 6 25 5 26 4 27 3 28 2 29 1 30
REMARK H PARENT
REMARK Flexibility Score: inf
ROOT
ATOM      1  C   UNL     1     -23.502  46.389  -6.342  1.00  0.00     0.000 C 
ENDROOT
BRANCH   1   2
ATOM      2  C   UNL     1     -22.401  46.900  -7.285  1.00  0.00     0.000 C 
BRANCH   2   3
ATOM      3  C   UNL     1     -22.025  45.876  -8.368  1.00  0.00     0.000 C 
BRANCH   3   4
ATOM      4  C   UNL     1     -20.512  45.600  -8.423  1.00  0.00     0.000 C 
BRANCH   4   5
ATOM      5  C   UNL     1     -19.678  46.774  -7.883  1.00  0.00     0.000 C 
BRANCH   5   6
ATOM      6  C   UNL     1     -19.217  46.560  -6.431  1.00  0.00     0.000 C 
BRANCH   6   7
ATOM      7  C   UNL     1     -18.526  45.201  -6.231  1.00  0.00     0.000 C 
BRANCH   7   8
ATOM      8  C   UNL     1     -19.457  44.146  -5.615  1.00  0.00     0.000 C 
BRANCH   8   9
ATOM      9  C   UNL     1     -19.214  42.771  -6.249  1.00  0.00     0.000 C 
BRANCH   9  10
ATOM     10  C   UNL     1     -19.861  41.657  -5.413  1.00  0.00     0.000 C 
BRANCH  10  11
ATOM     11  C   UNL     1     -18.956  41.174  -4.268  1.00  0.00     0.000 C 
BRANCH  11  12
ATOM     12  C   UNL     1     -18.561  42.309  -3.308  1.00  0.00     0.006 C 
BRANCH  12  13
ATOM     13  C   UNL     1     -17.117  42.168  -2.806  1.00  0.00     0.053 C 
BRANCH  13  14
ATOM     14  C   UNL     1     -16.133  42.151  -3.935  1.00  0.00     0.041 C 
ATOM     15  O   UNL     1     -15.572  41.075  -4.272  1.00  0.00    -0.550 OA
ATOM     16  O   UNL     1     -15.852  43.320  -4.632  1.00  0.00    -0.550 OA
ENDBRANCH  13  14
ENDBRANCH  12  13
ENDBRANCH  11  12
ENDBRANCH  10  11
ENDBRANCH   9  10
ENDBRANCH   8   9
ENDBRANCH   7   8
ENDBRANCH   6   7
ENDBRANCH   5   6
ENDBRANCH   4   5
ENDBRANCH   3   4
ENDBRANCH   2   3
ENDBRANCH   1   2
BRANCH   1  17
ATOM     17  C   UNL     1     -22.995  45.218  -5.492  1.00  0.00     0.000 C 
BRANCH  17  18
ATOM     18  C   UNL     1     -23.805  43.943  -5.761  1.00  0.00     0.000 C 
BRANCH  18  19
ATOM     19  C   UNL     1     -22.932  42.677  -5.825  1.00  0.00     0.000 C 
BRANCH  19  20
ATOM     20  C   UNL     1     -23.537  41.541  -6.676  1.00  0.00     0.000 C 
BRANCH  20  21
ATOM     21  C   UNL     1     -23.581  41.890  -8.174  1.00  0.00     0.000 C 
BRANCH  21  22
ATOM     22  C   UNL     1     -22.205  42.314  -8.716  1.00  0.00    -0.000 C 
BRANCH  22  23
ATOM     23  C   UNL     1     -21.309  41.110  -9.044  1.00  0.00    -0.000 C 
BRANCH  23  24
ATOM     24  C   UNL     1     -21.846  39.831  -8.387  1.00  0.00    -0.000 C 
BRANCH  24  25
ATOM     25  C   UNL     1     -20.729  38.856  -7.979  1.00  0.00    -0.000 C 
BRANCH  25  26
ATOM     26  C   UNL     1     -19.792  38.423  -9.124  1.00  0.00    -0.000 C 
BRANCH  26  27
ATOM     27  C   UNL     1     -18.384  37.999  -8.653  1.00  0.00    -0.000 C 
BRANCH  27  28
ATOM     28  C   UNL     1     -17.349  39.128  -8.812  1.00  0.00    -0.000 C 
BRANCH  28  29
ATOM     29  C   UNL     1     -17.162  39.940  -7.521  1.00  0.00    -0.003 C 
ATOM     30  C   UNL     1     -17.498  39.133  -6.266  1.00  0.00     0.004 C 
ENDBRANCH  28  29
ENDBRANCH  27  28
ENDBRANCH  26  27
ENDBRANCH  25  26
ENDBRANCH  24  25
ENDBRANCH  23  24
ENDBRANCH  22  23
ENDBRANCH  21  22
ENDBRANCH  20  21
ENDBRANCH  19  20
ENDBRANCH  18  19
ENDBRANCH  17  18
ENDBRANCH   1  17
TORSDOF 26
ENDMDL
MODEL 4
REMARK VINA RESULT:    -3.405      1.434      3.532
REMARK INTER + INTRA:         -11.212
REMARK INTER:                 -10.113
REMARK INTRA:                  -1.099
REMARK UNBOUND:                -2.632
REMARK SMILES CCCCCCCCCCCCCCCCCCCCCCCCCCCC(=O)[O-]
REMARK SMILES IDX 15 1 16 2 17 3 18 4 19 5 20 6 21 7 22 8 23 9 24 10 25 11
REMARK SMILES IDX 26 12 27 13 28 14 29 15 30 16 14 17 13 18 12 19 11 20 10 21
REMARK SMILES IDX 9 22 8 23 7 24 6 25 5 26 4 27 3 28 2 29 1 30
REMARK H PARENT
REMARK Flexibility Score: inf
ROOT
ATOM      1  C   UNL     1     -18.663  45.713  -5.739  1.00  0.00     0.000 C 
ENDROOT
BRANCH   1   2
ATOM      2  C   UNL     1     -18.842  44.897  -7.030  1.00  0.00     0.000 C 
BRANCH   2   3
ATOM      3  C   UNL     1     -19.221  43.433  -6.758  1.00  0.00     0.000 C 
BRANCH   3   4
ATOM      4  C   UNL     1     -18.503  42.450  -7.701  1.00  0.00     0.000 C 
BRANCH   4   5
ATOM      5  C   UNL     1     -19.357  42.074  -8.923  1.00  0.00     0.000 C 
BRANCH   5   6
ATOM      6  C   UNL     1     -19.482  40.552  -9.117  1.00  0.00     0.000 C 
BRANCH   6   7
ATOM      7  C   UNL     1     -18.218  39.800  -8.671  1.00  0.00     0.000 C 
BRANCH   7   8
ATOM      8  C   UNL     1     -18.337  39.229  -7.250  1.00  0.00     0.000 C 
BRANCH   8   9
ATOM      9  C   UNL     1     -17.152  39.674  -6.384  1.00  0.00     0.000 C 
BRANCH   9  10
ATOM     10  C   UNL     1     -17.545  39.733  -4.900  1.00  0.00     0.000 C 
BRANCH  10  11
ATOM     11  C   UNL     1     -16.360  40.088  -3.988  1.00  0.00     0.000 C 
BRANCH  11  12
ATOM     12  C   UNL     1     -15.714  41.435  -4.354  1.00  0.00     0.006 C 
BRANCH  12  13
ATOM     13  C   UNL     1     -16.753  42.555  -4.507  1.00  0.00     0.053 C 
BRANCH  13  14
ATOM     14  C   UNL     1     -17.649  42.652  -3.310  1.00  0.00     0.041 C 
ATOM     15  O   UNL     1     -17.156  42.725  -2.153  1.00  0.00    -0.550 OA
ATOM     16  O   UNL     1     -19.029  42.685  -3.474  1.00  0.00    -0.550 OA
ENDBRANCH  13  14
ENDBRANCH  12  13
ENDBRANCH  11  12
ENDBRANCH  10  11
ENDBRANCH   9  10
ENDBRANCH   8   9
ENDBRANCH   7   8
ENDBRANCH   6   7
ENDBRANCH   5   6
ENDBRANCH   4   5
ENDBRANCH   3   4
ENDBRANCH   2   3
ENDBRANCH   1   2
BRANCH   1  17
ATOM     17  C   UNL     1     -19.941  46.491  -5.402  1.00  0.00     0.000 C 
BRANCH  17  18
ATOM     18  C   UNL     1     -20.566  47.107  -6.660  1.00  0.00     0.000 C 
BRANCH  18  19
ATOM     19  C   UNL     1     -19.825  46.719  -7.952  1.00  0.00     0.000 C 
BRANCH  19  20
ATOM     20  C   UNL     1     -20.757  46.284  -9.103  1.00  0.00     0.000 C 
BRANCH  20  21
ATOM     21  C   UNL     1     -22.167  46.889  -8.975  1.00  0.00     0.000 C 
BRANCH  21  22
ATOM     22  C   UNL     1     -23.264  45.812  -8.945  1.00  0.00    -0.000 C 
BRANCH  22  23
ATOM     23  C   UNL     1     -24.490  46.248  -8.129  1.00  0.00    -0.000 C 
BRANCH  23  24
ATOM     24  C   UNL     1     -24.229  46.099  -6.623  1.00  0.00    -0.000 C 
BRANCH  24  25
ATOM     25  C   UNL     1     -23.453  44.818  -6.276  1.00  0.00    -0.000 C 
BRANCH  25  26
ATOM     26  C   UNL     1     -24.224  43.505  -6.515  1.00  0.00    -0.000 C 
BRANCH  26  27
ATOM     27  C   UNL     1     -23.410  42.427  -7.262  1.00  0.00    -0.000 C 
BRANCH  27  28
ATOM     28  C   UNL     1     -23.671  41.011  -6.716  1.00  0.00    -0.000 C 
BRANCH  28  29
ATOM     29  C   UNL     1     -22.372  40.253  -6.403  1.00  0.00    -0.003 C 
ATOM     30  C   UNL     1     -21.308  41.148  -5.767  1.00  0.00     0.004 C 
ENDBRANCH  28  29
ENDBRANCH  27  28
ENDBRANCH  26  27
ENDBRANCH  25  26
ENDBRANCH  24  25
ENDBRANCH  23  24
ENDBRANCH  22  23
ENDBRANCH  21  22
ENDBRANCH  20  21
ENDBRANCH  19  20
ENDBRANCH  18  19
ENDBRANCH  17  18
ENDBRANCH   1  17
TORSDOF 26
ENDMDL
MODEL 5
REMARK VINA RESULT:    -3.099      7.698     10.335
REMARK INTER + INTRA:         -10.442
REMARK INTER:                  -8.289
REMARK INTRA:                  -2.152
REMARK UNBOUND:                -2.632
REMARK SMILES CCCCCCCCCCCCCCCCCCCCCCCCCCCC(=O)[O-]
REMARK SMILES IDX 15 1 16 2 17 3 18 4 19 5 20 6 21 7 22 8 23 9 24 10 25 11
REMARK SMILES IDX 26 12 27 13 28 14 29 15 30 16 14 17 13 18 12 19 11 20 10 21
REMARK SMILES IDX 9 22 8 23 7 24 6 25 5 26 4 27 3 28 2 29 1 30
REMARK H PARENT
REMARK Flexibility Score: inf
ROOT
ATOM      1  C   UNL     1     -18.812  44.164   0.235  1.00  0.00     0.000 C 
ENDROOT
BRANCH   1   2
ATOM      2  C   UNL     1     -18.619  43.351   1.525  1.00  0.00     0.000 C 
BRANCH   2   3
ATOM      3  C   UNL     1     -19.687  43.659   2.586  1.00  0.00     0.000 C 
BRANCH   3   4
ATOM      4  C   UNL     1     -19.116  43.674   4.015  1.00  0.00     0.000 C 
BRANCH   4   5
ATOM      5  C   UNL     1     -18.956  42.261   4.602  1.00  0.00     0.000 C 
BRANCH   5   6
ATOM      6  C   UNL     1     -20.240  41.419   4.487  1.00  0.00     0.000 C 
BRANCH   6   7
ATOM      7  C   UNL     1     -20.008  39.945   4.856  1.00  0.00     0.000 C 
BRANCH   7   8
ATOM      8  C   UNL     1     -21.220  39.056   4.542  1.00  0.00     0.000 C 
BRANCH   8   9
ATOM      9  C   UNL     1     -22.397  39.394   5.465  1.00  0.00     0.000 C 
BRANCH   9  10
ATOM     10  C   UNL     1     -22.062  39.066   6.928  1.00  0.00     0.000 C 
BRANCH  10  11
ATOM     11  C   UNL     1     -23.145  38.213   7.607  1.00  0.00     0.000 C 
BRANCH  11  12
ATOM     12  C   UNL     1     -23.159  36.761   7.099  1.00  0.00     0.006 C 
BRANCH  12  13
ATOM     13  C   UNL     1     -22.104  35.892   7.800  1.00  0.00     0.053 C 
BRANCH  13  14
ATOM     14  C   UNL     1     -20.864  35.745   6.973  1.00  0.00     0.041 C 
ATOM     15  O   UNL     1     -20.895  35.104   5.889  1.00  0.00    -0.550 OA
ATOM     16  O   UNL     1     -19.676  36.337   7.388  1.00  0.00    -0.550 OA
ENDBRANCH  13  14
ENDBRANCH  12  13
ENDBRANCH  11  12
ENDBRANCH  10  11
ENDBRANCH   9  10
ENDBRANCH   8   9
ENDBRANCH   7   8
ENDBRANCH   6   7
ENDBRANCH   5   6
ENDBRANCH   4   5
ENDBRANCH   3   4
ENDBRANCH   2   3
ENDBRANCH   1   2
BRANCH   1  17
ATOM     17  C   UNL     1     -17.859  43.680  -0.865  1.00  0.00     0.000 C 
BRANCH  17  18
ATOM     18  C   UNL     1     -18.624  42.981  -1.996  1.00  0.00     0.000 C 
BRANCH  18  19
ATOM     19  C   UNL     1     -17.826  42.914  -3.310  1.00  0.00     0.000 C 
BRANCH  19  20
ATOM     20  C   UNL     1     -16.453  42.223  -3.177  1.00  0.00     0.000 C 
BRANCH  20  21
ATOM     21  C   UNL     1     -16.426  40.840  -3.853  1.00  0.00     0.000 C 
BRANCH  21  22
ATOM     22  C   UNL     1     -17.701  40.562  -4.666  1.00  0.00    -0.000 C 
BRANCH  22  23
ATOM     23  C   UNL     1     -17.397  40.214  -6.131  1.00  0.00    -0.000 C 
BRANCH  23  24
ATOM     24  C   UNL     1     -18.299  41.011  -7.084  1.00  0.00    -0.000 C 
BRANCH  24  25
ATOM     25  C   UNL     1     -18.318  42.516  -6.768  1.00  0.00    -0.000 C 
BRANCH  25  26
ATOM     26  C   UNL     1     -19.723  43.134  -6.628  1.00  0.00    -0.000 C 
BRANCH  26  27
ATOM     27  C   UNL     1     -20.641  42.884  -7.845  1.00  0.00    -0.000 C 
BRANCH  27  28
ATOM     28  C   UNL     1     -22.074  42.505  -7.430  1.00  0.00    -0.000 C 
BRANCH  28  29
ATOM     29  C   UNL     1     -22.117  41.748  -6.092  1.00  0.00    -0.003 C 
ATOM     30  C   UNL     1     -22.010  40.233  -6.271  1.00  0.00     0.004 C 
ENDBRANCH  28  29
ENDBRANCH  27  28
ENDBRANCH  26  27
ENDBRANCH  25  26
ENDBRANCH  24  25
ENDBRANCH  23  24
ENDBRANCH  22  23
ENDBRANCH  21  22
ENDBRANCH  20  21
ENDBRANCH  19  20
ENDBRANCH  18  19
ENDBRANCH  17  18
ENDBRANCH   1  17
TORSDOF 26
ENDMDL
MODEL 6
REMARK VINA RESULT:    -3.095      8.201     11.596
REMARK INTER + INTRA:         -10.430
REMARK INTER:                  -8.373
REMARK INTRA:                  -2.057
REMARK UNBOUND:                -2.632
REMARK SMILES CCCCCCCCCCCCCCCCCCCCCCCCCCCC(=O)[O-]
REMARK SMILES IDX 15 1 16 2 17 3 18 4 19 5 20 6 21 7 22 8 23 9 24 10 25 11
REMARK SMILES IDX 26 12 27 13 28 14 29 15 30 16 14 17 13 18 12 19 11 20 10 21
REMARK SMILES IDX 9 22 8 23 7 24 6 25 5 26 4 27 3 28 2 29 1 30
REMARK H PARENT
REMARK Flexibility Score: inf
ROOT
ATOM      1  C   UNL     1     -18.617  43.232   1.459  1.00  0.00     0.000 C 
ENDROOT
BRANCH   1   2
ATOM      2  C   UNL     1     -18.802  44.122   0.220  1.00  0.00     0.000 C 
BRANCH   2   3
ATOM      3  C   UNL     1     -17.859  43.740  -0.931  1.00  0.00     0.000 C 
BRANCH   3   4
ATOM      4  C   UNL     1     -18.578  42.976  -2.057  1.00  0.00     0.000 C 
BRANCH   4   5
ATOM      5  C   UNL     1     -17.737  42.888  -3.342  1.00  0.00     0.000 C 
BRANCH   5   6
ATOM      6  C   UNL     1     -16.401  42.153  -3.131  1.00  0.00     0.000 C 
BRANCH   6   7
ATOM      7  C   UNL     1     -16.371  40.784  -3.831  1.00  0.00     0.000 C 
BRANCH   7   8
ATOM      8  C   UNL     1     -17.665  40.481  -4.600  1.00  0.00     0.000 C 
BRANCH   8   9
ATOM      9  C   UNL     1     -17.385  40.340  -6.102  1.00  0.00     0.000 C 
BRANCH   9  10
ATOM     10  C   UNL     1     -18.262  41.300  -6.919  1.00  0.00     0.000 C 
BRANCH  10  11
ATOM     11  C   UNL     1     -19.575  41.656  -6.205  1.00  0.00     0.000 C 
BRANCH  11  12
ATOM     12  C   UNL     1     -20.741  40.742  -6.623  1.00  0.00     0.006 C 
BRANCH  12  13
ATOM     13  C   UNL     1     -22.097  41.272  -6.136  1.00  0.00     0.053 C 
BRANCH  13  14
ATOM     14  C   UNL     1     -22.903  41.854  -7.256  1.00  0.00     0.041 C 
ATOM     15  O   UNL     1     -23.840  42.660  -7.011  1.00  0.00    -0.550 OA
ATOM     16  O   UNL     1     -22.606  41.524  -8.573  1.00  0.00    -0.550 OA
ENDBRANCH  13  14
ENDBRANCH  12  13
ENDBRANCH  11  12
ENDBRANCH  10  11
ENDBRANCH   9  10
ENDBRANCH   8   9
ENDBRANCH   7   8
ENDBRANCH   6   7
ENDBRANCH   5   6
ENDBRANCH   4   5
ENDBRANCH   3   4
ENDBRANCH   2   3
ENDBRANCH   1   2
BRANCH   1  17
ATOM     17  C   UNL     1     -19.364  43.812   2.667  1.00  0.00     0.000 C 
BRANCH  17  18
ATOM     18  C   UNL     1     -18.857  43.202   3.981  1.00  0.00     0.000 C 
BRANCH  18  19
ATOM     19  C   UNL     1     -19.954  42.455   4.760  1.00  0.00     0.000 C 
BRANCH  19  20
ATOM     20  C   UNL     1     -20.019  40.943   4.459  1.00  0.00     0.000 C 
BRANCH  20  21
ATOM     21  C   UNL     1     -21.413  40.501   3.979  1.00  0.00     0.000 C 
BRANCH  21  22
ATOM     22  C   UNL     1     -22.389  40.278   5.146  1.00  0.00    -0.000 C 
BRANCH  22  23
ATOM     23  C   UNL     1     -22.147  38.943   5.865  1.00  0.00    -0.000 C 
BRANCH  23  24
ATOM     24  C   UNL     1     -22.356  39.089   7.379  1.00  0.00    -0.000 C 
BRANCH  24  25
ATOM     25  C   UNL     1     -23.095  37.890   7.998  1.00  0.00    -0.000 C 
BRANCH  25  26
ATOM     26  C   UNL     1     -22.384  37.236   9.199  1.00  0.00    -0.000 C 
BRANCH  26  27
ATOM     27  C   UNL     1     -21.611  35.948   8.842  1.00  0.00    -0.000 C 
BRANCH  27  28
ATOM     28  C   UNL     1     -20.090  36.177   8.775  1.00  0.00    -0.000 C 
BRANCH  28  29
ATOM     29  C   UNL     1     -19.560  36.182   7.333  1.00  0.00    -0.003 C 
ATOM     30  C   UNL     1     -20.577  35.633   6.331  1.00  0.00     0.004 C 
ENDBRANCH  28  29
ENDBRANCH  27  28
ENDBRANCH  26  27
ENDBRANCH  25  26
ENDBRANCH  24  25
ENDBRANCH  23  24
ENDBRANCH  22  23
ENDBRANCH  21  22
ENDBRANCH  20  21
ENDBRANCH  19  20
ENDBRANCH  18  19
ENDBRANCH  17  18
ENDBRANCH   1  17
TORSDOF 26
ENDMDL
MODEL 7
REMARK VINA RESULT:    -3.054      8.102     10.713
REMARK INTER + INTRA:         -10.327
REMARK INTER:                  -8.279
REMARK INTRA:                  -2.047
REMARK UNBOUND:                -2.632
REMARK SMILES CCCCCCCCCCCCCCCCCCCCCCCCCCCC(=O)[O-]
REMARK SMILES IDX 15 1 16 2 17 3 18 4 19 5 20 6 21 7 22 8 23 9 24 10 25 11
REMARK SMILES IDX 26 12 27 13 28 14 29 15 30 16 14 17 13 18 12 19 11 20 10 21
REMARK SMILES IDX 9 22 8 23 7 24 6 25 5 26 4 27 3 28 2 29 1 30
REMARK H PARENT
REMARK Flexibility Score: inf
ROOT
ATOM      1  C   UNL     1     -18.700  43.283   1.722  1.00  0.00     0.000 C 
ENDROOT
BRANCH   1   2
ATOM      2  C   UNL     1     -19.468  44.112   2.764  1.00  0.00     0.000 C 
BRANCH   2   3
ATOM      3  C   UNL     1     -19.161  43.682   4.207  1.00  0.00     0.000 C 
BRANCH   3   4
ATOM      4  C   UNL     1     -18.957  42.162   4.341  1.00  0.00     0.000 C 
BRANCH   4   5
ATOM      5  C   UNL     1     -20.287  41.390   4.394  1.00  0.00     0.000 C 
BRANCH   5   6
ATOM      6  C   UNL     1     -20.173  40.059   5.157  1.00  0.00     0.000 C 
BRANCH   6   7
ATOM      7  C   UNL     1     -21.146  38.994   4.625  1.00  0.00     0.000 C 
BRANCH   7   8
ATOM      8  C   UNL     1     -22.481  38.977   5.383  1.00  0.00     0.000 C 
BRANCH   8   9
ATOM      9  C   UNL     1     -22.259  39.216   6.881  1.00  0.00     0.000 C 
BRANCH   9  10
ATOM     10  C   UNL     1     -23.109  38.253   7.725  1.00  0.00     0.000 C 
BRANCH  10  11
ATOM     11  C   UNL     1     -22.257  37.235   8.499  1.00  0.00     0.000 C 
BRANCH  11  12
ATOM     12  C   UNL     1     -22.214  35.858   7.815  1.00  0.00     0.006 C 
BRANCH  12  13
ATOM     13  C   UNL     1     -21.094  35.764   6.769  1.00  0.00     0.053 C 
BRANCH  13  14
ATOM     14  C   UNL     1     -19.788  36.266   7.303  1.00  0.00     0.041 C 
ATOM     15  O   UNL     1     -19.453  36.023   8.493  1.00  0.00    -0.550 OA
ATOM     16  O   UNL     1     -18.928  36.983   6.479  1.00  0.00    -0.550 OA
ENDBRANCH  13  14
ENDBRANCH  12  13
ENDBRANCH  11  12
ENDBRANCH  10  11
ENDBRANCH   9  10
ENDBRANCH   8   9
ENDBRANCH   7   8
ENDBRANCH   6   7
ENDBRANCH   5   6
ENDBRANCH   4   5
ENDBRANCH   3   4
ENDBRANCH   2   3
ENDBRANCH   1   2
BRANCH   1  17
ATOM     17  C   UNL     1     -18.620  44.027   0.382  1.00  0.00     0.000 C 
BRANCH  17  18
ATOM     18  C   UNL     1     -18.598  43.046  -0.798  1.00  0.00     0.000 C 
BRANCH  18  19
ATOM     19  C   UNL     1     -17.878  43.610  -2.036  1.00  0.00     0.000 C 
BRANCH  19  20
ATOM     20  C   UNL     1     -17.735  42.599  -3.192  1.00  0.00     0.000 C 
BRANCH  20  21
ATOM     21  C   UNL     1     -16.263  42.329  -3.555  1.00  0.00     0.000 C 
BRANCH  21  22
ATOM     22  C   UNL     1     -16.056  40.926  -4.149  1.00  0.00    -0.000 C 
BRANCH  22  23
ATOM     23  C   UNL     1     -17.376  40.277  -4.591  1.00  0.00    -0.000 C 
BRANCH  23  24
ATOM     24  C   UNL     1     -17.371  39.994  -6.100  1.00  0.00    -0.000 C 
BRANCH  24  25
ATOM     25  C   UNL     1     -18.484  40.745  -6.851  1.00  0.00    -0.000 C 
BRANCH  25  26
ATOM     26  C   UNL     1     -18.334  42.279  -6.872  1.00  0.00    -0.000 C 
BRANCH  26  27
ATOM     27  C   UNL     1     -19.462  43.027  -6.128  1.00  0.00    -0.000 C 
BRANCH  27  28
ATOM     28  C   UNL     1     -20.623  42.096  -5.736  1.00  0.00    -0.000 C 
BRANCH  28  29
ATOM     29  C   UNL     1     -21.818  42.211  -6.696  1.00  0.00    -0.003 C 
ATOM     30  C   UNL     1     -23.144  42.413  -5.961  1.00  0.00     0.004 C 
ENDBRANCH  28  29
ENDBRANCH  27  28
ENDBRANCH  26  27
ENDBRANCH  25  26
ENDBRANCH  24  25
ENDBRANCH  23  24
ENDBRANCH  22  23
ENDBRANCH  21  22
ENDBRANCH  20  21
ENDBRANCH  19  20
ENDBRANCH  18  19
ENDBRANCH  17  18
ENDBRANCH   1  17
TORSDOF 26
ENDMDL
MODEL 8
REMARK VINA RESULT:    -3.017      7.443     10.013
REMARK INTER + INTRA:         -10.235
REMARK INTER:                  -8.549
REMARK INTRA:                  -1.686
REMARK UNBOUND:                -2.632
REMARK SMILES CCCCCCCCCCCCCCCCCCCCCCCCCCCC(=O)[O-]
REMARK SMILES IDX 15 1 16 2 17 3 18 4 19 5 20 6 21 7 22 8 23 9 24 10 25 11
REMARK SMILES IDX 26 12 27 13 28 14 29 15 30 16 14 17 13 18 12 19 11 20 10 21
REMARK SMILES IDX 9 22 8 23 7 24 6 25 5 26 4 27 3 28 2 29 1 30
REMARK H PARENT
REMARK Flexibility Score: inf
ROOT
ATOM      1  C   UNL     1     -17.859  43.727  -0.874  1.00  0.00     0.000 C 
ENDROOT
BRANCH   1   2
ATOM      2  C   UNL     1     -18.829  44.170   0.232  1.00  0.00     0.000 C 
BRANCH   2   3
ATOM      3  C   UNL     1     -18.648  43.373   1.534  1.00  0.00     0.000 C 
BRANCH   3   4
ATOM      4  C   UNL     1     -19.467  43.952   2.702  1.00  0.00     0.000 C 
BRANCH   4   5
ATOM      5  C   UNL     1     -19.053  43.365   4.062  1.00  0.00     0.000 C 
BRANCH   5   6
ATOM      6  C   UNL     1     -19.429  41.880   4.209  1.00  0.00     0.000 C 
BRANCH   6   7
ATOM      7  C   UNL     1     -20.867  41.592   3.747  1.00  0.00     0.000 C 
BRANCH   7   8
ATOM      8  C   UNL     1     -21.385  40.229   4.231  1.00  0.00     0.000 C 
BRANCH   8   9
ATOM      9  C   UNL     1     -20.365  39.557   5.158  1.00  0.00     0.000 C 
BRANCH   9  10
ATOM     10  C   UNL     1     -20.915  38.237   5.718  1.00  0.00     0.000 C 
BRANCH  10  11
ATOM     11  C   UNL     1     -19.806  37.302   6.226  1.00  0.00     0.000 C 
BRANCH  11  12
ATOM     12  C   UNL     1     -20.343  35.924   6.649  1.00  0.00     0.006 C 
BRANCH  12  13
ATOM     13  C   UNL     1     -21.841  35.961   6.983  1.00  0.00     0.053 C 
BRANCH  13  14
ATOM     14  C   UNL     1     -22.084  36.303   8.421  1.00  0.00     0.041 C 
ATOM     15  O   UNL     1     -23.045  37.052   8.741  1.00  0.00    -0.550 OA
ATOM     16  O   UNL     1     -21.263  35.776   9.411  1.00  0.00    -0.550 OA
ENDBRANCH  13  14
ENDBRANCH  12  13
ENDBRANCH  11  12
ENDBRANCH  10  11
ENDBRANCH   9  10
ENDBRANCH   8   9
ENDBRANCH   7   8
ENDBRANCH   6   7
ENDBRANCH   5   6
ENDBRANCH   4   5
ENDBRANCH   3   4
ENDBRANCH   2   3
ENDBRANCH   1   2
BRANCH   1  17
ATOM     17  C   UNL     1     -18.604  42.982  -1.989  1.00  0.00     0.000 C 
BRANCH  17  18
ATOM     18  C   UNL     1     -17.771  42.931  -3.277  1.00  0.00     0.000 C 
BRANCH  18  19
ATOM     19  C   UNL     1     -16.401  42.259  -3.082  1.00  0.00     0.000 C 
BRANCH  19  20
ATOM     20  C   UNL     1     -15.998  41.312  -4.231  1.00  0.00     0.000 C 
BRANCH  20  21
ATOM     21  C   UNL     1     -16.970  40.128  -4.384  1.00  0.00     0.000 C 
BRANCH  21  22
ATOM     22  C   UNL     1     -17.568  40.041  -5.798  1.00  0.00    -0.000 C 
BRANCH  22  23
ATOM     23  C   UNL     1     -17.761  41.424  -6.438  1.00  0.00    -0.000 C 
BRANCH  23  24
ATOM     24  C   UNL     1     -18.628  41.329  -7.701  1.00  0.00    -0.000 C 
BRANCH  24  25
ATOM     25  C   UNL     1     -19.935  42.132  -7.590  1.00  0.00    -0.000 C 
BRANCH  25  26
ATOM     26  C   UNL     1     -20.671  41.994  -6.242  1.00  0.00    -0.000 C 
BRANCH  26  27
ATOM     27  C   UNL     1     -21.452  40.671  -6.089  1.00  0.00    -0.000 C 
BRANCH  27  28
ATOM     28  C   UNL     1     -22.937  40.820  -6.467  1.00  0.00    -0.000 C 
BRANCH  28  29
ATOM     29  C   UNL     1     -23.475  42.232  -6.187  1.00  0.00    -0.003 C 
ATOM     30  C   UNL     1     -23.753  43.020  -7.468  1.00  0.00     0.004 C 
ENDBRANCH  28  29
ENDBRANCH  27  28
ENDBRANCH  26  27
ENDBRANCH  25  26
ENDBRANCH  24  25
ENDBRANCH  23  24
ENDBRANCH  22  23
ENDBRANCH  21  22
ENDBRANCH  20  21
ENDBRANCH  19  20
ENDBRANCH  18  19
ENDBRANCH  17  18
ENDBRANCH   1  17
TORSDOF 26
ENDMDL
MODEL 9
REMARK VINA RESULT:    -2.981      7.355      9.829
REMARK INTER + INTRA:         -10.143
REMARK INTER:                  -8.399
REMARK INTRA:                  -1.744
REMARK UNBOUND:                -2.632
REMARK SMILES CCCCCCCCCCCCCCCCCCCCCCCCCCCC(=O)[O-]
REMARK SMILES IDX 15 1 16 2 17 3 18 4 19 5 20 6 21 7 22 8 23 9 24 10 25 11
REMARK SMILES IDX 26 12 27 13 28 14 29 15 30 16 14 17 13 18 12 19 11 20 10 21
REMARK SMILES IDX 9 22 8 23 7 24 6 25 5 26 4 27 3 28 2 29 1 30
REMARK H PARENT
REMARK Flexibility Score: inf
ROOT
ATOM      1  C   UNL     1     -17.878  43.704  -0.860  1.00  0.00     0.000 C 
ENDROOT
BRANCH   1   2
ATOM      2  C   UNL     1     -18.842  44.158   0.249  1.00  0.00     0.000 C 
BRANCH   2   3
ATOM      3  C   UNL     1     -18.631  43.396   1.567  1.00  0.00     0.000 C 
BRANCH   3   4
ATOM      4  C   UNL     1     -19.446  43.989   2.730  1.00  0.00     0.000 C 
BRANCH   4   5
ATOM      5  C   UNL     1     -19.029  43.417   4.095  1.00  0.00     0.000 C 
BRANCH   5   6
ATOM      6  C   UNL     1     -19.164  41.885   4.166  1.00  0.00     0.000 C 
BRANCH   6   7
ATOM      7  C   UNL     1     -20.631  41.426   4.149  1.00  0.00     0.000 C 
BRANCH   7   8
ATOM      8  C   UNL     1     -20.981  40.511   5.332  1.00  0.00     0.000 C 
BRANCH   8   9
ATOM      9  C   UNL     1     -20.396  39.108   5.127  1.00  0.00     0.000 C 
BRANCH   9  10
ATOM     10  C   UNL     1     -21.511  38.062   4.986  1.00  0.00     0.000 C 
BRANCH  10  11
ATOM     11  C   UNL     1     -22.587  38.193   6.075  1.00  0.00     0.000 C 
BRANCH  11  12
ATOM     12  C   UNL     1     -22.913  36.849   6.749  1.00  0.00     0.006 C 
BRANCH  12  13
ATOM     13  C   UNL     1     -21.771  35.834   6.602  1.00  0.00     0.053 C 
BRANCH  13  14
ATOM     14  C   UNL     1     -20.763  35.965   7.702  1.00  0.00     0.041 C 
ATOM     15  O   UNL     1     -21.116  35.840   8.905  1.00  0.00    -0.550 OA
ATOM     16  O   UNL     1     -19.427  36.203   7.398  1.00  0.00    -0.550 OA
ENDBRANCH  13  14
ENDBRANCH  12  13
ENDBRANCH  11  12
ENDBRANCH  10  11
ENDBRANCH   9  10
ENDBRANCH   8   9
ENDBRANCH   7   8
ENDBRANCH   6   7
ENDBRANCH   5   6
ENDBRANCH   4   5
ENDBRANCH   3   4
ENDBRANCH   2   3
ENDBRANCH   1   2
BRANCH   1  17
ATOM     17  C   UNL     1     -18.638  42.993  -1.987  1.00  0.00     0.000 C 
BRANCH  17  18
ATOM     18  C   UNL     1     -17.808  42.953  -3.278  1.00  0.00     0.000 C 
BRANCH  18  19
ATOM     19  C   UNL     1     -16.465  42.223  -3.107  1.00  0.00     0.000 C 
BRANCH  19  20
ATOM     20  C   UNL     1     -16.330  40.949  -3.968  1.00  0.00     0.000 C 
BRANCH  20  21
ATOM     21  C   UNL     1     -17.669  40.523  -4.597  1.00  0.00     0.000 C 
BRANCH  21  22
ATOM     22  C   UNL     1     -17.655  40.634  -6.131  1.00  0.00    -0.000 C 
BRANCH  22  23
ATOM     23  C   UNL     1     -19.056  40.879  -6.712  1.00  0.00    -0.000 C 
BRANCH  23  24
ATOM     24  C   UNL     1     -20.097  41.027  -5.593  1.00  0.00    -0.000 C 
BRANCH  24  25
ATOM     25  C   UNL     1     -21.448  40.383  -5.947  1.00  0.00    -0.000 C 
BRANCH  25  26
ATOM     26  C   UNL     1     -22.329  41.204  -6.909  1.00  0.00    -0.000 C 
BRANCH  26  27
ATOM     27  C   UNL     1     -23.557  41.851  -6.234  1.00  0.00    -0.000 C 
BRANCH  27  28
ATOM     28  C   UNL     1     -23.724  43.333  -6.618  1.00  0.00    -0.000 C 
BRANCH  28  29
ATOM     29  C   UNL     1     -22.897  44.268  -5.722  1.00  0.00    -0.003 C 
ATOM     30  C   UNL     1     -23.469  45.686  -5.668  1.00  0.00     0.004 C 
ENDBRANCH  28  29
ENDBRANCH  27  28
ENDBRANCH  26  27
ENDBRANCH  25  26
ENDBRANCH  24  25
ENDBRANCH  23  24
ENDBRANCH  22  23
ENDBRANCH  21  22
ENDBRANCH  20  21
ENDBRANCH  19  20
ENDBRANCH  18  19
ENDBRANCH  17  18
ENDBRANCH   1  17
TORSDOF 26
ENDMDL
