MODEL 1
REMARK VINA RESULT:    -5.277      0.000      0.000
REMARK INTER + INTRA:          -7.317
REMARK INTER:                  -6.665
REMARK INTRA:                  -0.652
REMARK UNBOUND:                -0.652
REMARK SMILES O=C(C=Cc1ccc(O)cc1)c1ccc(O)cc1O
REMARK SMILES IDX 4 1 3 2 5 3 6 4 7 5 8 6 11 7 10 8 9 9 2 11 1 12 12 13 18 14
REMARK SMILES IDX 13 15 17 16 14 17 15 18 19 19 16 21
REMARK H PARENT 9 10 19 20 16 22
REMARK Flexibility Score: inf
ROOT
ATOM      1  C   UNL     1     -31.549 -21.563 -33.828  1.00  0.00     0.012 C 
ATOM      2  C   UNL     1     -30.799 -20.501 -33.498  1.00  0.00     0.053 C 
ENDROOT
BRANCH   1   3
ATOM      3  C   UNL     1     -32.001 -21.857 -35.211  1.00  0.00    -0.025 A 
ATOM      4  C   UNL     1     -31.170 -22.475 -36.168  1.00  0.00     0.012 A 
ATOM      5  C   UNL     1     -31.642 -22.719 -37.462  1.00  0.00     0.047 A 
ATOM      6  C   UNL     1     -32.939 -22.346 -37.822  1.00  0.00     0.115 A 
ATOM      7  C   UNL     1     -33.299 -21.472 -35.588  1.00  0.00     0.012 A 
ATOM      8  C   UNL     1     -33.766 -21.719 -36.883  1.00  0.00     0.047 A 
BRANCH   6   9
ATOM      9  O   UNL     1     -33.395 -22.598 -39.113  1.00  0.00    -0.508 OA
ATOM     10  H   UNL     1     -34.091 -23.309 -39.301  1.00  0.00     0.293 HD
ENDBRANCH   6   9
ENDBRANCH   1   3
BRANCH   2  11
ATOM     11  C   UNL     1     -30.357 -20.227 -32.114  1.00  0.00     0.189 C 
ATOM     12  O   UNL     1     -29.128 -20.316 -31.849  1.00  0.00    -0.289 OA
BRANCH  11  13
ATOM     13  C   UNL     1     -31.302 -19.897 -31.023  1.00  0.00     0.064 A 
ATOM     14  C   UNL     1     -31.091 -20.346 -29.699  1.00  0.00     0.130 A 
ATOM     15  C   UNL     1     -32.461 -19.162 -31.323  1.00  0.00     0.020 A 
ATOM     16  C   UNL     1     -32.042 -20.061 -28.711  1.00  0.00     0.093 A 
ATOM     17  C   UNL     1     -33.397 -18.875 -30.327  1.00  0.00     0.047 A 
ATOM     18  C   UNL     1     -33.191 -19.327 -29.018  1.00  0.00     0.119 A 
BRANCH  14  19
ATOM     19  O   UNL     1     -29.945 -21.053 -29.329  1.00  0.00    -0.507 OA
ATOM     20  H   UNL     1     -29.085 -20.602 -29.047  1.00  0.00     0.293 HD
ENDBRANCH  14  19
BRANCH  18  21
ATOM     21  O   UNL     1     -34.119 -19.051 -28.017  1.00  0.00    -0.508 OA
ATOM     22  H   UNL     1     -34.110 -18.170 -27.515  1.00  0.00     0.293 HD
ENDBRANCH  18  21
ENDBRANCH  11  13
ENDBRANCH   2  11
TORSDOF 6
ENDMDL
MODEL 2
REMARK VINA RESULT:    -4.864      2.187      7.755
REMARK INTER + INTRA:          -6.795
REMARK INTER:                  -6.168
REMARK INTRA:                  -0.628
REMARK UNBOUND:                -0.652
REMARK SMILES O=C(C=Cc1ccc(O)cc1)c1ccc(O)cc1O
REMARK SMILES IDX 4 1 3 2 5 3 6 4 7 5 8 6 11 7 10 8 9 9 2 11 1 12 12 13 18 14
REMARK SMILES IDX 13 15 17 16 14 17 15 18 19 19 16 21
REMARK H PARENT 9 10 19 20 16 22
REMARK Flexibility Score: inf
ROOT
ATOM      1  C   UNL     1     -31.504 -19.671 -33.788  1.00  0.00     0.012 C 
ATOM      2  C   UNL     1     -32.242 -20.766 -34.031  1.00  0.00     0.053 C 
ENDROOT
BRANCH   1   3
ATOM      3  C   UNL     1     -30.675 -19.487 -32.571  1.00  0.00    -0.025 A 
ATOM      4  C   UNL     1     -29.337 -19.044 -32.622  1.00  0.00     0.012 A 
ATOM      5  C   UNL     1     -28.596 -18.898 -31.445  1.00  0.00     0.047 A 
ATOM      6  C   UNL     1     -29.170 -19.198 -30.207  1.00  0.00     0.115 A 
ATOM      7  C   UNL     1     -31.238 -19.801 -31.323  1.00  0.00     0.012 A 
ATOM      8  C   UNL     1     -30.493 -19.653 -30.149  1.00  0.00     0.047 A 
BRANCH   6   9
ATOM      9  O   UNL     1     -28.419 -19.046 -29.044  1.00  0.00    -0.508 OA
ATOM     10  H   UNL     1     -28.013 -19.842 -28.567  1.00  0.00     0.293 HD
ENDBRANCH   6   9
ENDBRANCH   1   3
BRANCH   2  11
ATOM     11  C   UNL     1     -33.059 -20.931 -35.251  1.00  0.00     0.189 C 
ATOM     12  O   UNL     1     -34.067 -20.191 -35.403  1.00  0.00    -0.289 OA
BRANCH  11  13
ATOM     13  C   UNL     1     -32.767 -21.958 -36.276  1.00  0.00     0.064 A 
ATOM     14  C   UNL     1     -32.814 -21.661 -37.658  1.00  0.00     0.130 A 
ATOM     15  C   UNL     1     -32.484 -23.272 -35.865  1.00  0.00     0.020 A 
ATOM     16  C   UNL     1     -32.588 -22.679 -38.593  1.00  0.00     0.093 A 
ATOM     17  C   UNL     1     -32.251 -24.276 -36.808  1.00  0.00     0.047 A 
ATOM     18  C   UNL     1     -32.306 -23.982 -38.175  1.00  0.00     0.119 A 
BRANCH  14  19
ATOM     19  O   UNL     1     -33.057 -20.371 -38.131  1.00  0.00    -0.507 OA
ATOM     20  H   UNL     1     -32.854 -19.538 -37.594  1.00  0.00     0.293 HD
ENDBRANCH  14  19
BRANCH  18  21
ATOM     21  O   UNL     1     -32.079 -24.975 -39.125  1.00  0.00    -0.508 OA
ATOM     22  H   UNL     1     -32.267 -25.952 -38.926  1.00  0.00     0.293 HD
ENDBRANCH  18  21
ENDBRANCH  11  13
ENDBRANCH   2  11
TORSDOF 6
ENDMDL
MODEL 3
REMARK VINA RESULT:    -4.808      2.157      3.231
REMARK INTER + INTRA:          -6.725
REMARK INTER:                  -6.375
REMARK INTRA:                  -0.350
REMARK UNBOUND:                -0.652
REMARK SMILES O=C(C=Cc1ccc(O)cc1)c1ccc(O)cc1O
REMARK SMILES IDX 4 1 3 2 5 3 6 4 7 5 8 6 11 7 10 8 9 9 2 11 1 12 12 13 18 14
REMARK SMILES IDX 13 15 17 16 14 17 15 18 19 19 16 21
REMARK H PARENT 9 10 19 20 16 22
REMARK Flexibility Score: inf
ROOT
ATOM      1  C   UNL     1     -32.358 -21.104 -35.677  1.00  0.00     0.012 C 
ATOM      2  C   UNL     1     -31.901 -21.132 -34.415  1.00  0.00     0.053 C 
ENDROOT
BRANCH   1   3
ATOM      3  C   UNL     1     -32.306 -22.264 -36.600  1.00  0.00    -0.025 A 
ATOM      4  C   UNL     1     -31.948 -22.139 -37.958  1.00  0.00     0.012 A 
ATOM      5  C   UNL     1     -31.925 -23.264 -38.790  1.00  0.00     0.047 A 
ATOM      6  C   UNL     1     -32.265 -24.521 -38.285  1.00  0.00     0.115 A 
ATOM      7  C   UNL     1     -32.661 -23.530 -36.106  1.00  0.00     0.012 A 
ATOM      8  C   UNL     1     -32.637 -24.652 -36.941  1.00  0.00     0.047 A 
BRANCH   6   9
ATOM      9  O   UNL     1     -32.237 -25.632 -39.125  1.00  0.00    -0.508 OA
ATOM     10  H   UNL     1     -32.934 -25.769 -39.847  1.00  0.00     0.293 HD
ENDBRANCH   6   9
ENDBRANCH   1   3
BRANCH   2  11
ATOM     11  C   UNL     1     -31.965 -19.966 -33.510  1.00  0.00     0.189 C 
ATOM     12  O   UNL     1     -32.895 -19.131 -33.671  1.00  0.00    -0.289 OA
BRANCH  11  13
ATOM     13  C   UNL     1     -30.957 -19.718 -32.454  1.00  0.00     0.064 A 
ATOM     14  C   UNL     1     -29.597 -19.492 -32.765  1.00  0.00     0.130 A 
ATOM     15  C   UNL     1     -31.356 -19.757 -31.106  1.00  0.00     0.020 A 
ATOM     16  C   UNL     1     -28.668 -19.322 -31.731  1.00  0.00     0.093 A 
ATOM     17  C   UNL     1     -30.422 -19.575 -30.084  1.00  0.00     0.047 A 
ATOM     18  C   UNL     1     -29.074 -19.360 -30.394  1.00  0.00     0.119 A 
BRANCH  14  19
ATOM     19  O   UNL     1     -29.141 -19.410 -34.082  1.00  0.00    -0.507 OA
ATOM     20  H   UNL     1     -28.398 -18.788 -34.372  1.00  0.00     0.293 HD
ENDBRANCH  14  19
BRANCH  18  21
ATOM     21  O   UNL     1     -28.132 -19.182 -29.384  1.00  0.00    -0.508 OA
ATOM     22  H   UNL     1     -28.277 -19.556 -28.452  1.00  0.00     0.293 HD
ENDBRANCH  18  21
ENDBRANCH  11  13
ENDBRANCH   2  11
TORSDOF 6
ENDMDL
MODEL 4
REMARK VINA RESULT:    -4.153      2.287      7.343
REMARK INTER + INTRA:          -5.898
REMARK INTER:                  -5.693
REMARK INTRA:                  -0.205
REMARK UNBOUND:                -0.652
REMARK SMILES O=C(C=Cc1ccc(O)cc1)c1ccc(O)cc1O
REMARK SMILES IDX 4 1 3 2 5 3 6 4 7 5 8 6 11 7 10 8 9 9 2 11 1 12 12 13 18 14
REMARK SMILES IDX 13 15 17 16 14 17 15 18 19 19 16 21
REMARK H PARENT 9 10 19 20 16 22
REMARK Flexibility Score: inf
ROOT
ATOM      1  C   UNL     1     -31.157 -20.337 -33.971  1.00  0.00     0.012 C 
ATOM      2  C   UNL     1     -32.449 -20.058 -34.201  1.00  0.00     0.053 C 
ENDROOT
BRANCH   1   3
ATOM      3  C   UNL     1     -30.438 -19.956 -32.729  1.00  0.00    -0.025 A 
ATOM      4  C   UNL     1     -29.204 -19.274 -32.744  1.00  0.00     0.012 A 
ATOM      5  C   UNL     1     -28.562 -18.948 -31.545  1.00  0.00     0.047 A 
ATOM      6  C   UNL     1     -29.132 -19.303 -30.320  1.00  0.00     0.115 A 
ATOM      7  C   UNL     1     -30.995 -20.323 -31.493  1.00  0.00     0.012 A 
ATOM      8  C   UNL     1     -30.350 -19.994 -30.296  1.00  0.00     0.047 A 
BRANCH   6   9
ATOM      9  O   UNL     1     -28.482 -18.971 -29.135  1.00  0.00    -0.508 OA
ATOM     10  H   UNL     1     -27.646 -19.458 -28.833  1.00  0.00     0.293 HD
ENDBRANCH   6   9
ENDBRANCH   1   3
BRANCH   2  11
ATOM     11  C   UNL     1     -33.148 -20.448 -35.444  1.00  0.00     0.189 C 
ATOM     12  O   UNL     1     -34.125 -19.751 -35.827  1.00  0.00    -0.289 OA
BRANCH  11  13
ATOM     13  C   UNL     1     -32.773 -21.647 -36.229  1.00  0.00     0.064 A 
ATOM     14  C   UNL     1     -32.658 -22.921 -35.627  1.00  0.00     0.130 A 
ATOM     15  C   UNL     1     -32.479 -21.504 -37.595  1.00  0.00     0.020 A 
ATOM     16  C   UNL     1     -32.243 -24.015 -36.396  1.00  0.00     0.093 A 
ATOM     17  C   UNL     1     -32.076 -22.605 -38.354  1.00  0.00     0.047 A 
ATOM     18  C   UNL     1     -31.954 -23.864 -37.754  1.00  0.00     0.119 A 
BRANCH  14  19
ATOM     19  O   UNL     1     -32.966 -23.137 -34.282  1.00  0.00    -0.507 OA
ATOM     20  H   UNL     1     -33.911 -23.116 -33.923  1.00  0.00     0.293 HD
ENDBRANCH  14  19
BRANCH  18  21
ATOM     21  O   UNL     1     -31.549 -24.969 -38.499  1.00  0.00    -0.508 OA
ATOM     22  H   UNL     1     -30.709 -25.487 -38.265  1.00  0.00     0.293 HD
ENDBRANCH  18  21
ENDBRANCH  11  13
ENDBRANCH   2  11
TORSDOF 6
ENDMDL
MODEL 5
REMARK VINA RESULT:    -3.871      2.076      3.263
REMARK INTER + INTRA:          -5.541
REMARK INTER:                  -4.941
REMARK INTRA:                  -0.600
REMARK UNBOUND:                -0.652
REMARK SMILES O=C(C=Cc1ccc(O)cc1)c1ccc(O)cc1O
REMARK SMILES IDX 4 1 3 2 5 3 6 4 7 5 8 6 11 7 10 8 9 9 2 11 1 12 12 13 18 14
REMARK SMILES IDX 13 15 17 16 14 17 15 18 19 19 16 21
REMARK H PARENT 9 10 19 20 16 22
REMARK Flexibility Score: inf
ROOT
ATOM      1  C   UNL     1     -31.893 -21.087 -35.778  1.00  0.00     0.012 C 
ATOM      2  C   UNL     1     -32.515 -20.999 -34.592  1.00  0.00     0.053 C 
ENDROOT
BRANCH   1   3
ATOM      3  C   UNL     1     -31.990 -22.263 -36.677  1.00  0.00    -0.025 A 
ATOM      4  C   UNL     1     -31.702 -22.193 -38.055  1.00  0.00     0.012 A 
ATOM      5  C   UNL     1     -31.820 -23.330 -38.861  1.00  0.00     0.047 A 
ATOM      6  C   UNL     1     -32.233 -24.546 -38.310  1.00  0.00     0.115 A 
ATOM      7  C   UNL     1     -32.419 -23.487 -36.135  1.00  0.00     0.012 A 
ATOM      8  C   UNL     1     -32.535 -24.621 -36.945  1.00  0.00     0.047 A 
BRANCH   6   9
ATOM      9  O   UNL     1     -32.344 -25.669 -39.125  1.00  0.00    -0.508 OA
ATOM     10  H   UNL     1     -31.619 -26.376 -39.157  1.00  0.00     0.293 HD
ENDBRANCH   6   9
ENDBRANCH   1   3
BRANCH   2  11
ATOM     11  C   UNL     1     -32.407 -19.817 -33.712  1.00  0.00     0.189 C 
ATOM     12  O   UNL     1     -33.262 -18.899 -33.833  1.00  0.00    -0.289 OA
BRANCH  11  13
ATOM     13  C   UNL     1     -31.313 -19.649 -32.728  1.00  0.00     0.064 A 
ATOM     14  C   UNL     1     -31.561 -19.187 -31.416  1.00  0.00     0.130 A 
ATOM     15  C   UNL     1     -29.991 -19.909 -33.126  1.00  0.00     0.020 A 
ATOM     16  C   UNL     1     -30.489 -18.986 -30.537  1.00  0.00     0.093 A 
ATOM     17  C   UNL     1     -28.931 -19.714 -32.238  1.00  0.00     0.047 A 
ATOM     18  C   UNL     1     -29.178 -19.249 -30.941  1.00  0.00     0.119 A 
BRANCH  14  19
ATOM     19  O   UNL     1     -32.854 -18.940 -30.947  1.00  0.00    -0.507 OA
ATOM     20  H   UNL     1     -33.077 -18.847 -29.965  1.00  0.00     0.293 HD
ENDBRANCH  14  19
BRANCH  18  21
ATOM     21  O   UNL     1     -28.129 -19.047 -30.048  1.00  0.00    -0.508 OA
ATOM     22  H   UNL     1     -27.519 -19.807 -29.765  1.00  0.00     0.293 HD
ENDBRANCH  18  21
ENDBRANCH  11  13
ENDBRANCH   2  11
TORSDOF 6
ENDMDL
MODEL 6
REMARK VINA RESULT:    -2.521      2.267      2.920
REMARK INTER + INTRA:          -3.837
REMARK INTER:                  -3.543
REMARK INTRA:                  -0.293
REMARK UNBOUND:                -0.652
REMARK SMILES O=C(C=Cc1ccc(O)cc1)c1ccc(O)cc1O
REMARK SMILES IDX 4 1 3 2 5 3 6 4 7 5 8 6 11 7 10 8 9 9 2 11 1 12 12 13 18 14
REMARK SMILES IDX 13 15 17 16 14 17 15 18 19 19 16 21
REMARK H PARENT 9 10 19 20 16 22
REMARK Flexibility Score: inf
ROOT
ATOM      1  C   UNL     1     -31.847 -20.987 -35.243  1.00  0.00     0.012 C 
ATOM      2  C   UNL     1     -31.786 -21.154 -33.913  1.00  0.00     0.053 C 
ENDROOT
BRANCH   1   3
ATOM      3  C   UNL     1     -31.973 -22.105 -36.211  1.00  0.00    -0.025 A 
ATOM      4  C   UNL     1     -32.412 -23.391 -35.835  1.00  0.00     0.012 A 
ATOM      5  C   UNL     1     -32.502 -24.413 -36.785  1.00  0.00     0.047 A 
ATOM      6  C   UNL     1     -32.152 -24.173 -38.116  1.00  0.00     0.115 A 
ATOM      7  C   UNL     1     -31.609 -21.877 -37.549  1.00  0.00     0.012 A 
ATOM      8  C   UNL     1     -31.702 -22.902 -38.496  1.00  0.00     0.047 A 
BRANCH   6   9
ATOM      9  O   UNL     1     -32.249 -25.200 -39.051  1.00  0.00    -0.508 OA
ATOM     10  H   UNL     1     -31.476 -25.436 -39.662  1.00  0.00     0.293 HD
ENDBRANCH   6   9
ENDBRANCH   1   3
BRANCH   2  11
ATOM     11  C   UNL     1     -31.662 -20.027 -32.965  1.00  0.00     0.189 C 
ATOM     12  O   UNL     1     -32.425 -19.035 -33.110  1.00  0.00    -0.289 OA
BRANCH  11  13
ATOM     13  C   UNL     1     -30.651 -20.000 -31.883  1.00  0.00     0.064 A 
ATOM     14  C   UNL     1     -30.647 -20.962 -30.848  1.00  0.00     0.130 A 
ATOM     15  C   UNL     1     -29.704 -18.962 -31.860  1.00  0.00     0.020 A 
ATOM     16  C   UNL     1     -29.710 -20.862 -29.813  1.00  0.00     0.093 A 
ATOM     17  C   UNL     1     -28.768 -18.879 -30.827  1.00  0.00     0.047 A 
ATOM     18  C   UNL     1     -28.770 -19.828 -29.799  1.00  0.00     0.119 A 
BRANCH  14  19
ATOM     19  O   UNL     1     -31.540 -22.036 -30.830  1.00  0.00    -0.507 OA
ATOM     20  H   UNL     1     -31.789 -22.532 -29.984  1.00  0.00     0.293 HD
ENDBRANCH  14  19
BRANCH  18  21
ATOM     21  O   UNL     1     -27.844 -19.754 -28.762  1.00  0.00    -0.508 OA
ATOM     22  H   UNL     1     -26.905 -19.399 -28.913  1.00  0.00     0.293 HD
ENDBRANCH  18  21
ENDBRANCH  11  13
ENDBRANCH   2  11
TORSDOF 6
ENDMDL
MODEL 7
REMARK VINA RESULT:    -2.301      2.050      8.061
REMARK INTER + INTRA:          -3.558
REMARK INTER:                  -2.976
REMARK INTRA:                  -0.582
REMARK UNBOUND:                -0.652
REMARK SMILES O=C(C=Cc1ccc(O)cc1)c1ccc(O)cc1O
REMARK SMILES IDX 4 1 3 2 5 3 6 4 7 5 8 6 11 7 10 8 9 9 2 11 1 12 12 13 18 14
REMARK SMILES IDX 13 15 17 16 14 17 15 18 19 19 16 21
REMARK H PARENT 9 10 19 20 16 22
REMARK Flexibility Score: inf
ROOT
ATOM      1  C   UNL     1     -31.813 -20.360 -34.432  1.00  0.00     0.012 C 
ATOM      2  C   UNL     1     -31.688 -21.500 -35.129  1.00  0.00     0.053 C 
ENDROOT
BRANCH   1   3
ATOM      3  C   UNL     1     -31.083 -20.078 -33.172  1.00  0.00    -0.025 A 
ATOM      4  C   UNL     1     -31.741 -19.863 -31.943  1.00  0.00     0.012 A 
ATOM      5  C   UNL     1     -31.006 -19.590 -30.785  1.00  0.00     0.047 A 
ATOM      6  C   UNL     1     -29.611 -19.520 -30.835  1.00  0.00     0.115 A 
ATOM      7  C   UNL     1     -29.681 -19.990 -33.214  1.00  0.00     0.012 A 
ATOM      8  C   UNL     1     -28.950 -19.717 -32.054  1.00  0.00     0.047 A 
BRANCH   6   9
ATOM      9  O   UNL     1     -28.893 -19.248 -29.674  1.00  0.00    -0.508 OA
ATOM     10  H   UNL     1     -29.022 -18.385 -29.159  1.00  0.00     0.293 HD
ENDBRANCH   6   9
ENDBRANCH   1   3
BRANCH   2  11
ATOM     11  C   UNL     1     -32.423 -21.760 -36.385  1.00  0.00     0.189 C 
ATOM     12  O   UNL     1     -33.174 -20.856 -36.839  1.00  0.00    -0.289 OA
BRANCH  11  13
ATOM     13  C   UNL     1     -32.345 -23.052 -37.104  1.00  0.00     0.064 A 
ATOM     14  C   UNL     1     -31.885 -23.132 -38.438  1.00  0.00     0.130 A 
ATOM     15  C   UNL     1     -32.786 -24.220 -36.459  1.00  0.00     0.020 A 
ATOM     16  C   UNL     1     -31.885 -24.366 -39.099  1.00  0.00     0.093 A 
ATOM     17  C   UNL     1     -32.771 -25.448 -37.125  1.00  0.00     0.047 A 
ATOM     18  C   UNL     1     -32.323 -25.523 -38.449  1.00  0.00     0.119 A 
BRANCH  14  19
ATOM     19  O   UNL     1     -31.404 -22.015 -39.125  1.00  0.00    -0.507 OA
ATOM     20  H   UNL     1     -30.750 -22.080 -39.894  1.00  0.00     0.293 HD
ENDBRANCH  14  19
BRANCH  18  21
ATOM     21  O   UNL     1     -32.308 -26.741 -39.125  1.00  0.00    -0.508 OA
ATOM     22  H   UNL     1     -32.928 -26.921 -39.907  1.00  0.00     0.293 HD
ENDBRANCH  18  21
ENDBRANCH  11  13
ENDBRANCH   2  11
TORSDOF 6
ENDMDL
