MODEL 1
REMARK VINA RESULT:    -4.176      0.000      0.000
REMARK INTER + INTRA:          -6.132
REMARK INTER:                  -6.374
REMARK INTRA:                   0.241
REMARK UNBOUND:                 0.241
REMARK SMILES CC1=CCC[C@@H](C)C(=O)C[C@@H](C(C)C)C(=O)C1
REMARK SMILES IDX 8 1 9 2 6 3 7 4 5 5 4 6 3 7 2 8 1 9 10 11 11 12 15 13 16 14
REMARK SMILES IDX 17 15 12 17 13 18 14 19
REMARK H PARENT
REMARK Flexibility Score: 70.00
ROOT
ATOM      1  C   UNL     1      20.971  10.259 -25.316  1.00  0.00     0.136 C 
ATOM      2  O   UNL     1      21.711   9.524 -24.678  1.00  0.00    -0.299 OA
ENDROOT
BRANCH   1   3
ATOM      3  C   UNL     1      21.442  11.671 -25.620  1.00  0.00     0.053 C 
ATOM      4  C   UNL     1      20.260  12.580 -25.991  1.00  0.00     0.016 C 
BRANCH   3   5
ATOM      5  C   UNL     1      22.502  11.643 -26.746  1.00  0.00     0.015 C 
BRANCH   5   6
ATOM      6  C   UNL     1      21.901  11.286 -28.123  1.00  0.00     0.028 C 
BRANCH   6   7
ATOM      7  C   UNL     1      22.365   9.933 -28.609  1.00  0.00    -0.028 C 
ATOM      8  C   UNL     1      21.574   8.843 -28.750  1.00  0.00    -0.070 CG0
ATOM      9  C   UNL     1      22.198   7.577 -29.281  1.00  0.00     0.039 C 
ATOM     10  G   UNL     1      20.093   8.836 -28.412  1.00  0.00     0.000 G0
ENDBRANCH   6   7
ENDBRANCH   5   6
ENDBRANCH   3   5
ENDBRANCH   1   3
BRANCH   1  11
ATOM     11  C   UNL     1      19.612   9.709 -25.716  1.00  0.00     0.087 C 
BRANCH  11  12
ATOM     12  C   UNL     1      19.494   8.174 -25.928  1.00  0.00     0.066 C 
BRANCH  12  13
ATOM     13  C   UNL     1      19.707   7.786 -27.385  1.00  0.00     0.140 C 
ATOM     14  O   UNL     1      19.625   6.611 -27.717  1.00  0.00    -0.299 OA
BRANCH  13  15
ATOM     15  C   UNL     1      20.086   8.829 -28.415  1.00  0.00     0.106 CG0
ATOM     16  G   UNL     1      21.574   8.833 -28.724  1.00  0.00     0.000 G0
ENDBRANCH  13  15
ENDBRANCH  12  13
BRANCH  12  17
ATOM     17  C   UNL     1      18.150   7.618 -25.357  1.00  0.00    -0.006 C 
ATOM     18  C   UNL     1      17.632   8.481 -24.194  1.00  0.00     0.008 C 
ATOM     19  C   UNL     1      18.201   6.142 -24.925  1.00  0.00     0.008 C 
ENDBRANCH  12  17
ENDBRANCH  11  12
ENDBRANCH   1  11
TORSDOF 1
ENDMDL
MODEL 2
REMARK VINA RESULT:    -3.951     15.491     17.013
REMARK INTER + INTRA:          -5.789
REMARK INTER:                  -6.236
REMARK INTRA:                   0.446
REMARK UNBOUND:                 0.241
REMARK SMILES CC1=CCC[C@@H](C)C(=O)C[C@@H](C(C)C)C(=O)C1
REMARK SMILES IDX 8 1 9 2 6 3 7 4 5 5 4 6 3 7 2 8 1 9 10 11 11 12 15 13 16 14
REMARK SMILES IDX 17 15 12 17 13 18 14 19
REMARK H PARENT
REMARK Flexibility Score: 70.00
ROOT
ATOM      1  C   UNL     1      11.024  19.761 -20.188  1.00  0.00     0.136 C 
ATOM      2  O   UNL     1      12.134  19.283 -20.376  1.00  0.00    -0.299 OA
ENDROOT
BRANCH   1   3
ATOM      3  C   UNL     1      10.059  19.011 -19.287  1.00  0.00     0.053 C 
ATOM      4  C   UNL     1      10.410  19.220 -17.806  1.00  0.00     0.016 C 
BRANCH   3   5
ATOM      5  C   UNL     1      10.052  17.509 -19.655  1.00  0.00     0.015 C 
BRANCH   5   6
ATOM      6  C   UNL     1       8.959  17.152 -20.686  1.00  0.00     0.028 C 
BRANCH   6   7
ATOM      7  C   UNL     1       7.708  17.976 -20.491  1.00  0.00    -0.028 C 
ATOM      8  C   UNL     1       7.209  18.858 -21.389  1.00  0.00    -0.070 CG0
ATOM      9  C   UNL     1       5.927  19.574 -21.043  1.00  0.00     0.039 C 
ATOM     10  G   UNL     1       7.868  19.153 -22.725  1.00  0.00     0.000 G0
ENDBRANCH   6   7
ENDBRANCH   5   6
ENDBRANCH   3   5
ENDBRANCH   1   3
BRANCH   1  11
ATOM     11  C   UNL     1      10.685  21.052 -20.915  1.00  0.00     0.087 C 
BRANCH  11  12
ATOM     12  C   UNL     1       9.365  21.088 -21.735  1.00  0.00     0.066 C 
BRANCH  12  13
ATOM     13  C   UNL     1       9.208  19.852 -22.610  1.00  0.00     0.140 C 
ATOM     14  O   UNL     1      10.164  19.438 -23.252  1.00  0.00    -0.299 OA
BRANCH  13  15
ATOM     15  C   UNL     1       7.864  19.169 -22.747  1.00  0.00     0.106 CG0
ATOM     16  G   UNL     1       7.224  18.859 -21.404  1.00  0.00     0.000 G0
ENDBRANCH  13  15
ENDBRANCH  12  13
BRANCH  12  17
ATOM     17  C   UNL     1       9.234  22.413 -22.551  1.00  0.00    -0.006 C 
ATOM     18  C   UNL     1       7.962  23.188 -22.167  1.00  0.00     0.008 C 
ATOM     19  C   UNL     1       9.291  22.232 -24.078  1.00  0.00     0.008 C 
ENDBRANCH  12  17
ENDBRANCH  11  12
ENDBRANCH   1  11
TORSDOF 1
ENDMDL
MODEL 3
REMARK VINA RESULT:    -3.900     13.820     15.338
REMARK INTER + INTRA:          -5.710
REMARK INTER:                  -5.477
REMARK INTRA:                  -0.233
REMARK UNBOUND:                 0.241
REMARK SMILES CC1=CCC[C@@H](C)C(=O)C[C@@H](C(C)C)C(=O)C1
REMARK SMILES IDX 8 1 9 2 6 3 7 4 5 5 4 6 3 7 2 8 1 9 10 11 11 12 15 13 16 14
REMARK SMILES IDX 17 15 12 17 13 18 14 19
REMARK H PARENT
REMARK Flexibility Score: 70.00
ROOT
ATOM      1  C   UNL     1       8.607  20.274 -21.615  1.00  0.00     0.136 C 
ATOM      2  O   UNL     1       7.446  20.093 -21.954  1.00  0.00    -0.299 OA
ENDROOT
BRANCH   1   3
ATOM      3  C   UNL     1       9.407  21.353 -22.324  1.00  0.00     0.053 C 
ATOM      4  C   UNL     1       8.861  22.751 -21.995  1.00  0.00     0.016 C 
BRANCH   3   5
ATOM      5  C   UNL     1       9.404  21.095 -23.849  1.00  0.00     0.015 C 
BRANCH   5   6
ATOM      6  C   UNL     1      10.309  19.911 -24.256  1.00  0.00     0.028 C 
BRANCH   6   7
ATOM      7  C   UNL     1       9.527  18.804 -24.922  1.00  0.00    -0.028 C 
ATOM      8  C   UNL     1       9.483  17.518 -24.501  1.00  0.00    -0.070 CG0
ATOM      9  C   UNL     1       8.622  16.548 -25.269  1.00  0.00     0.039 C 
ATOM     10  G   UNL     1      10.249  17.009 -23.292  1.00  0.00     0.000 G0
ENDBRANCH   6   7
ENDBRANCH   5   6
ENDBRANCH   3   5
ENDBRANCH   1   3
BRANCH   1  11
ATOM     11  C   UNL     1       9.171  19.365 -20.535  1.00  0.00     0.087 C 
BRANCH  11  12
ATOM     12  C   UNL     1      10.171  18.261 -20.978  1.00  0.00     0.066 C 
BRANCH  12  13
ATOM     13  C   UNL     1       9.545  17.296 -21.976  1.00  0.00     0.140 C 
ATOM     14  O   UNL     1       8.501  16.724 -21.692  1.00  0.00    -0.299 OA
BRANCH  13  15
ATOM     15  C   UNL     1      10.234  16.987 -23.288  1.00  0.00     0.106 CG0
ATOM     16  G   UNL     1       9.476  17.526 -24.489  1.00  0.00     0.000 G0
ENDBRANCH  13  15
ENDBRANCH  12  13
BRANCH  12  17
ATOM     17  C   UNL     1      10.790  17.522 -19.748  1.00  0.00    -0.006 C 
ATOM     18  C   UNL     1       9.963  17.759 -18.473  1.00  0.00     0.008 C 
ATOM     19  C   UNL     1      12.268  17.858 -19.478  1.00  0.00     0.008 C 
ENDBRANCH  12  17
ENDBRANCH  11  12
ENDBRANCH   1  11
TORSDOF 1
ENDMDL
MODEL 4
REMARK VINA RESULT:    -3.886     15.902     17.836
REMARK INTER + INTRA:          -5.689
REMARK INTER:                  -5.643
REMARK INTRA:                  -0.045
REMARK UNBOUND:                 0.241
REMARK SMILES CC1=CCC[C@@H](C)C(=O)C[C@@H](C(C)C)C(=O)C1
REMARK SMILES IDX 8 1 9 2 6 3 7 4 5 5 4 6 3 7 2 8 1 9 10 11 11 12 15 13 16 14
REMARK SMILES IDX 17 15 12 17 13 18 14 19
REMARK H PARENT
REMARK Flexibility Score: 70.00
ROOT
ATOM      1  C   UNL     1       9.374  21.817 -22.947  1.00  0.00     0.136 C 
ATOM      2  O   UNL     1      10.113  21.282 -23.762  1.00  0.00    -0.299 OA
ENDROOT
BRANCH   1   3
ATOM      3  C   UNL     1       8.670  23.102 -23.346  1.00  0.00     0.053 C 
ATOM      4  C   UNL     1       8.210  23.887 -22.107  1.00  0.00     0.016 C 
BRANCH   3   5
ATOM      5  C   UNL     1       7.479  22.784 -24.281  1.00  0.00     0.015 C 
BRANCH   5   6
ATOM      6  C   UNL     1       6.188  22.440 -23.507  1.00  0.00     0.028 C 
BRANCH   6   7
ATOM      7  C   UNL     1       5.742  21.018 -23.755  1.00  0.00    -0.028 C 
ATOM      8  C   UNL     1       5.878  19.995 -22.878  1.00  0.00    -0.070 CG0
ATOM      9  C   UNL     1       5.346  18.642 -23.277  1.00  0.00     0.039 C 
ATOM     10  G   UNL     1       6.529  20.146 -21.513  1.00  0.00     0.000 G0
ENDBRANCH   6   7
ENDBRANCH   5   6
ENDBRANCH   3   5
ENDBRANCH   1   3
BRANCH   1  11
ATOM     11  C   UNL     1       9.257  21.169 -21.577  1.00  0.00     0.087 C 
BRANCH  11  12
ATOM     12  C   UNL     1       9.125  19.621 -21.524  1.00  0.00     0.066 C 
BRANCH  12  13
ATOM     13  C   UNL     1       7.687  19.183 -21.286  1.00  0.00     0.140 C 
ATOM     14  O   UNL     1       7.451  18.025 -20.972  1.00  0.00    -0.299 OA
BRANCH  13  15
ATOM     15  C   UNL     1       6.540  20.148 -21.500  1.00  0.00     0.106 CG0
ATOM     16  G   UNL     1       5.901  20.002 -22.871  1.00  0.00     0.000 G0
ENDBRANCH  13  15
ENDBRANCH  12  13
BRANCH  12  17
ATOM     17  C   UNL     1      10.115  18.998 -20.488  1.00  0.00    -0.006 C 
ATOM     18  C   UNL     1      11.047  20.063 -19.887  1.00  0.00     0.008 C 
ATOM     19  C   UNL     1      10.950  17.823 -21.029  1.00  0.00     0.008 C 
ENDBRANCH  12  17
ENDBRANCH  11  12
ENDBRANCH   1  11
TORSDOF 1
ENDMDL
MODEL 5
REMARK VINA RESULT:    -3.884      2.049      2.443
REMARK INTER + INTRA:          -5.686
REMARK INTER:                  -5.794
REMARK INTRA:                   0.108
REMARK UNBOUND:                 0.241
REMARK SMILES CC1=CCC[C@@H](C)C(=O)C[C@@H](C(C)C)C(=O)C1
REMARK SMILES IDX 8 1 9 2 6 3 7 4 5 5 4 6 3 7 2 8 1 9 10 11 11 12 15 13 16 14
REMARK SMILES IDX 17 15 12 17 13 18 14 19
REMARK H PARENT
REMARK Flexibility Score: 70.00
ROOT
ATOM      1  C   UNL     1      20.543   9.376 -25.097  1.00  0.00     0.136 C 
ATOM      2  O   UNL     1      21.028   8.804 -24.131  1.00  0.00    -0.299 OA
ENDROOT
BRANCH   1   3
ATOM      3  C   UNL     1      21.477  10.097 -26.053  1.00  0.00     0.053 C 
ATOM      4  C   UNL     1      22.922   9.602 -25.893  1.00  0.00     0.016 C 
BRANCH   3   5
ATOM      5  C   UNL     1      21.379  11.625 -25.833  1.00  0.00     0.015 C 
BRANCH   5   6
ATOM      6  C   UNL     1      20.217  12.269 -26.621  1.00  0.00     0.028 C 
BRANCH   6   7
ATOM      7  C   UNL     1      20.118  11.725 -28.027  1.00  0.00    -0.028 C 
ATOM      8  C   UNL     1      19.116  10.940 -28.490  1.00  0.00    -0.070 CG0
ATOM      9  C   UNL     1      19.159  10.512 -29.935  1.00  0.00     0.039 C 
ATOM     10  G   UNL     1      17.950  10.481 -27.630  1.00  0.00     0.000 G0
ENDBRANCH   6   7
ENDBRANCH   5   6
ENDBRANCH   3   5
ENDBRANCH   1   3
BRANCH   1  11
ATOM     11  C   UNL     1      19.030   9.355 -25.235  1.00  0.00     0.087 C 
BRANCH  11  12
ATOM     12  C   UNL     1      18.413   8.317 -26.215  1.00  0.00     0.066 C 
BRANCH  12  13
ATOM     13  C   UNL     1      17.868   8.979 -27.473  1.00  0.00     0.140 C 
ATOM     14  O   UNL     1      17.428   8.287 -28.379  1.00  0.00    -0.299 OA
BRANCH  13  15
ATOM     15  C   UNL     1      17.928  10.483 -27.642  1.00  0.00     0.106 CG0
ATOM     16  G   UNL     1      19.119  10.932 -28.471  1.00  0.00     0.000 G0
ENDBRANCH  13  15
ENDBRANCH  12  13
BRANCH  12  17
ATOM     17  C   UNL     1      17.347   7.423 -25.505  1.00  0.00    -0.006 C 
ATOM     18  C   UNL     1      16.027   8.183 -25.290  1.00  0.00     0.008 C 
ATOM     19  C   UNL     1      17.813   6.806 -24.174  1.00  0.00     0.008 C 
ENDBRANCH  12  17
ENDBRANCH  11  12
ENDBRANCH   1  11
TORSDOF 1
ENDMDL
MODEL 6
REMARK VINA RESULT:    -3.874     16.382     18.372
REMARK INTER + INTRA:          -5.670
REMARK INTER:                  -5.455
REMARK INTRA:                  -0.216
REMARK UNBOUND:                 0.241
REMARK SMILES CC1=CCC[C@@H](C)C(=O)C[C@@H](C(C)C)C(=O)C1
REMARK SMILES IDX 8 1 9 2 6 3 7 4 5 5 4 6 3 7 2 8 1 9 10 11 11 12 15 13 16 14
REMARK SMILES IDX 17 15 12 17 13 18 14 19
REMARK H PARENT
REMARK Flexibility Score: 70.00
ROOT
ATOM      1  C   UNL     1       8.641  21.254 -21.789  1.00  0.00     0.136 C 
ATOM      2  O   UNL     1       9.303  21.160 -20.765  1.00  0.00    -0.299 OA
ENDROOT
BRANCH   1   3
ATOM      3  C   UNL     1       8.018  19.994 -22.364  1.00  0.00     0.053 C 
ATOM      4  C   UNL     1       7.179  19.260 -21.307  1.00  0.00     0.016 C 
BRANCH   3   5
ATOM      5  C   UNL     1       9.121  19.075 -22.940  1.00  0.00     0.015 C 
BRANCH   5   6
ATOM      6  C   UNL     1       9.708  19.606 -24.266  1.00  0.00     0.028 C 
BRANCH   6   7
ATOM      7  C   UNL     1       8.660  19.704 -25.349  1.00  0.00    -0.028 C 
ATOM      8  C   UNL     1       8.154  20.860 -25.842  1.00  0.00    -0.070 CG0
ATOM      9  C   UNL     1       7.134  20.773 -26.949  1.00  0.00     0.039 C 
ATOM     10  G   UNL     1       8.571  22.233 -25.344  1.00  0.00     0.000 G0
ENDBRANCH   6   7
ENDBRANCH   5   6
ENDBRANCH   3   5
ENDBRANCH   1   3
BRANCH   1  11
ATOM     11  C   UNL     1       8.536  22.627 -22.431  1.00  0.00     0.087 C 
BRANCH  11  12
ATOM     12  C   UNL     1       7.219  22.968 -23.184  1.00  0.00     0.066 C 
BRANCH  12  13
ATOM     13  C   UNL     1       7.424  23.015 -24.692  1.00  0.00     0.140 C 
ATOM     14  O   UNL     1       6.631  23.629 -25.392  1.00  0.00    -0.299 OA
BRANCH  13  15
ATOM     15  C   UNL     1       8.561  22.255 -25.341  1.00  0.00     0.106 CG0
ATOM     16  G   UNL     1       8.141  20.880 -25.833  1.00  0.00     0.000 G0
ENDBRANCH  13  15
ENDBRANCH  12  13
BRANCH  12  17
ATOM     17  C   UNL     1       6.567  24.276 -22.632  1.00  0.00    -0.006 C 
ATOM     18  C   UNL     1       7.481  24.975 -21.611  1.00  0.00     0.008 C 
ATOM     19  C   UNL     1       5.164  24.086 -22.028  1.00  0.00     0.008 C 
ENDBRANCH  12  17
ENDBRANCH  11  12
ENDBRANCH   1  11
TORSDOF 1
ENDMDL
MODEL 7
REMARK VINA RESULT:    -3.870     13.935     16.006
REMARK INTER + INTRA:          -5.665
REMARK INTER:                  -5.325
REMARK INTRA:                  -0.341
REMARK UNBOUND:                 0.241
REMARK SMILES CC1=CCC[C@@H](C)C(=O)C[C@@H](C(C)C)C(=O)C1
REMARK SMILES IDX 8 1 9 2 6 3 7 4 5 5 4 6 3 7 2 8 1 9 10 11 11 12 15 13 16 14
REMARK SMILES IDX 17 15 12 17 13 18 14 19
REMARK H PARENT
REMARK Flexibility Score: 70.00
ROOT
ATOM      1  C   UNL     1      10.403  16.905 -23.079  1.00  0.00     0.136 C 
ATOM      2  O   UNL     1      11.322  16.435 -23.736  1.00  0.00    -0.299 OA
ENDROOT
BRANCH   1   3
ATOM      3  C   UNL     1       9.016  16.310 -23.247  1.00  0.00     0.053 C 
ATOM      4  C   UNL     1       9.090  14.795 -23.488  1.00  0.00     0.016 C 
BRANCH   3   5
ATOM      5  C   UNL     1       8.271  17.025 -24.399  1.00  0.00     0.015 C 
BRANCH   5   6
ATOM      6  C   UNL     1       7.143  17.953 -23.896  1.00  0.00     0.028 C 
BRANCH   6   7
ATOM      7  C   UNL     1       7.480  19.412 -24.097  1.00  0.00    -0.028 C 
ATOM      8  C   UNL     1       7.763  20.290 -23.105  1.00  0.00    -0.070 CG0
ATOM      9  C   UNL     1       8.110  21.706 -23.489  1.00  0.00     0.039 C 
ATOM     10  G   UNL     1       7.757  19.917 -21.632  1.00  0.00     0.000 G0
ENDBRANCH   6   7
ENDBRANCH   5   6
ENDBRANCH   3   5
ENDBRANCH   1   3
BRANCH   1  11
ATOM     11  C   UNL     1      10.721  18.086 -22.177  1.00  0.00     0.087 C 
BRANCH  11  12
ATOM     12  C   UNL     1       9.765  18.354 -20.982  1.00  0.00     0.066 C 
BRANCH  12  13
ATOM     13  C   UNL     1       9.149  19.744 -21.049  1.00  0.00     0.140 C 
ATOM     14  O   UNL     1       9.758  20.700 -20.589  1.00  0.00    -0.299 OA
BRANCH  13  15
ATOM     15  C   UNL     1       7.761  19.947 -21.620  1.00  0.00     0.106 CG0
ATOM     16  G   UNL     1       7.780  20.280 -23.102  1.00  0.00     0.000 G0
ENDBRANCH  13  15
ENDBRANCH  12  13
BRANCH  12  17
ATOM     17  C   UNL     1      10.469  18.083 -19.613  1.00  0.00    -0.006 C 
ATOM     18  C   UNL     1      11.692  17.165 -19.780  1.00  0.00     0.008 C 
ATOM     19  C   UNL     1       9.544  17.522 -18.518  1.00  0.00     0.008 C 
ENDBRANCH  12  17
ENDBRANCH  11  12
ENDBRANCH   1  11
TORSDOF 1
ENDMDL
MODEL 8
REMARK VINA RESULT:    -3.816     11.150     13.229
REMARK INTER + INTRA:          -5.583
REMARK INTER:                  -5.238
REMARK INTRA:                  -0.345
REMARK UNBOUND:                 0.241
REMARK SMILES CC1=CCC[C@@H](C)C(=O)C[C@@H](C(C)C)C(=O)C1
REMARK SMILES IDX 8 1 9 2 6 3 7 4 5 5 4 6 3 7 2 8 1 9 10 11 11 12 15 13 16 14
REMARK SMILES IDX 17 15 12 17 13 18 14 19
REMARK H PARENT
REMARK Flexibility Score: 70.00
ROOT
ATOM      1  C   UNL     1      11.298  17.965 -20.852  1.00  0.00     0.136 C 
ATOM      2  O   UNL     1      10.279  17.303 -20.708  1.00  0.00    -0.299 OA
ENDROOT
BRANCH   1   3
ATOM      3  C   UNL     1      11.175  19.478 -20.903  1.00  0.00     0.053 C 
ATOM      4  C   UNL     1      10.774  20.046 -19.533  1.00  0.00     0.016 C 
BRANCH   3   5
ATOM      5  C   UNL     1      10.162  19.888 -21.998  1.00  0.00     0.015 C 
BRANCH   5   6
ATOM      6  C   UNL     1      10.771  19.855 -23.417  1.00  0.00     0.028 C 
BRANCH   6   7
ATOM      7  C   UNL     1      10.321  18.642 -24.196  1.00  0.00    -0.028 C 
ATOM      8  C   UNL     1      11.145  17.709 -24.730  1.00  0.00    -0.070 CG0
ATOM      9  C   UNL     1      10.523  16.541 -25.451  1.00  0.00     0.039 C 
ATOM     10  G   UNL     1      12.660  17.778 -24.629  1.00  0.00     0.000 G0
ENDBRANCH   6   7
ENDBRANCH   5   6
ENDBRANCH   3   5
ENDBRANCH   1   3
BRANCH   1  11
ATOM     11  C   UNL     1      12.606  17.210 -21.016  1.00  0.00     0.087 C 
BRANCH  11  12
ATOM     12  C   UNL     1      13.556  17.660 -22.161  1.00  0.00     0.066 C 
BRANCH  12  13
ATOM     13  C   UNL     1      13.219  16.976 -23.479  1.00  0.00     0.140 C 
ATOM     14  O   UNL     1      13.454  15.784 -23.620  1.00  0.00    -0.299 OA
BRANCH  13  15
ATOM     15  C   UNL     1      12.657  17.770 -24.639  1.00  0.00     0.106 CG0
ATOM     16  G   UNL     1      11.141  17.713 -24.709  1.00  0.00     0.000 G0
ENDBRANCH  13  15
ENDBRANCH  12  13
BRANCH  12  17
ATOM     17  C   UNL     1      15.057  17.479 -21.765  1.00  0.00    -0.006 C 
ATOM     18  C   UNL     1      15.363  18.128 -20.405  1.00  0.00     0.008 C 
ATOM     19  C   UNL     1      16.061  17.980 -22.818  1.00  0.00     0.008 C 
ENDBRANCH  12  17
ENDBRANCH  11  12
ENDBRANCH   1  11
TORSDOF 1
ENDMDL
MODEL 9
REMARK VINA RESULT:    -3.792     12.630     14.687
REMARK INTER + INTRA:          -5.546
REMARK INTER:                  -5.233
REMARK INTRA:                  -0.313
REMARK UNBOUND:                 0.241
REMARK SMILES CC1=CCC[C@@H](C)C(=O)C[C@@H](C(C)C)C(=O)C1
REMARK SMILES IDX 8 1 9 2 6 3 7 4 5 5 4 6 3 7 2 8 1 9 10 11 11 12 15 13 16 14
REMARK SMILES IDX 17 15 12 17 13 18 14 19
REMARK H PARENT
REMARK Flexibility Score: 70.00
ROOT
ATOM      1  C   UNL     1       9.720  17.121 -21.872  1.00  0.00     0.136 C 
ATOM      2  O   UNL     1       8.565  16.727 -21.798  1.00  0.00    -0.299 OA
ENDROOT
BRANCH   1   3
ATOM      3  C   UNL     1      10.252  18.012 -20.763  1.00  0.00     0.053 C 
ATOM      4  C   UNL     1      10.323  17.253 -19.430  1.00  0.00     0.016 C 
BRANCH   3   5
ATOM      5  C   UNL     1       9.375  19.281 -20.640  1.00  0.00     0.015 C 
BRANCH   5   6
ATOM      6  C   UNL     1       9.957  20.486 -21.410  1.00  0.00     0.028 C 
BRANCH   6   7
ATOM      7  C   UNL     1       9.205  20.754 -22.692  1.00  0.00    -0.028 C 
ATOM      8  C   UNL     1       9.707  20.590 -23.939  1.00  0.00    -0.070 CG0
ATOM      9  C   UNL     1       8.802  20.874 -25.111  1.00  0.00     0.039 C 
ATOM     10  G   UNL     1      11.127  20.125 -24.213  1.00  0.00     0.000 G0
ENDBRANCH   6   7
ENDBRANCH   5   6
ENDBRANCH   3   5
ENDBRANCH   1   3
BRANCH   1  11
ATOM     11  C   UNL     1      10.519  16.720 -23.101  1.00  0.00     0.087 C 
BRANCH  11  12
ATOM     12  C   UNL     1      11.687  17.651 -23.533  1.00  0.00     0.066 C 
BRANCH  12  13
ATOM     13  C   UNL     1      11.243  18.674 -24.569  1.00  0.00     0.140 C 
ATOM     14  O   UNL     1      11.015  18.314 -25.716  1.00  0.00    -0.299 OA
BRANCH  13  15
ATOM     15  C   UNL     1      11.145  20.142 -24.213  1.00  0.00     0.106 CG0
ATOM     16  G   UNL     1       9.718  20.585 -23.942  1.00  0.00     0.000 G0
ENDBRANCH  13  15
ENDBRANCH  12  13
BRANCH  12  17
ATOM     17  C   UNL     1      12.930  16.829 -24.004  1.00  0.00    -0.006 C 
ATOM     18  C   UNL     1      12.656  15.317 -23.959  1.00  0.00     0.008 C 
ATOM     19  C   UNL     1      14.230  17.145 -23.244  1.00  0.00     0.008 C 
ENDBRANCH  12  17
ENDBRANCH  11  12
ENDBRANCH   1  11
TORSDOF 1
ENDMDL
