MODEL 1
REMARK VINA RESULT:    -4.992      0.000      0.000
REMARK INTER + INTRA:         -11.027
REMARK INTER:                  -9.077
REMARK INTRA:                  -1.949
REMARK UNBOUND:                -1.949
REMARK SMILES CCCCCCCCCCCCCC[C@@H](C)C(=O)[O-]
REMARK SMILES IDX 9 1 10 2 11 3 12 4 13 5 14 6 15 7 16 8 17 9 18 10 19 11 8 12
REMARK SMILES IDX 7 13 6 14 5 15 4 16 3 17 2 18 1 19
REMARK H PARENT
REMARK Flexibility Score: inf
ROOT
ATOM      1  C   UNL     1      13.513  15.545 -19.687  1.00  0.00     0.000 C 
ENDROOT
BRANCH   1   2
ATOM      2  C   UNL     1      14.304  16.821 -20.008  1.00  0.00     0.000 C 
BRANCH   2   3
ATOM      3  C   UNL     1      14.060  17.949 -18.990  1.00  0.00     0.000 C 
BRANCH   3   4
ATOM      4  C   UNL     1      14.482  17.622 -17.544  1.00  0.00     0.000 C 
BRANCH   4   5
ATOM      5  C   UNL     1      15.994  17.400 -17.338  1.00  0.00     0.001 C 
BRANCH   5   6
ATOM      6  C   UNL     1      16.368  16.110 -16.580  1.00  0.00     0.009 C 
BRANCH   6   7
ATOM      7  C   UNL     1      16.418  14.844 -17.465  1.00  0.00     0.032 C 
ATOM      8  C   UNL     1      17.295  15.088 -18.698  1.00  0.00     0.014 C 
BRANCH   7   9
ATOM      9  C   UNL     1      16.939  13.657 -16.700  1.00  0.00     0.044 C 
ATOM     10  O   UNL     1      16.420  13.339 -15.598  1.00  0.00    -0.550 OA
ATOM     11  O   UNL     1      17.993  12.906 -17.204  1.00  0.00    -0.550 OA
ENDBRANCH   7   9
ENDBRANCH   6   7
ENDBRANCH   5   6
ENDBRANCH   4   5
ENDBRANCH   3   4
ENDBRANCH   2   3
ENDBRANCH   1   2
BRANCH   1  12
ATOM     12  C   UNL     1      13.647  14.516 -20.819  1.00  0.00     0.000 C 
BRANCH  12  13
ATOM     13  C   UNL     1      14.533  13.321 -20.433  1.00  0.00    -0.000 C 
BRANCH  13  14
ATOM     14  C   UNL     1      14.521  12.209 -21.497  1.00  0.00    -0.000 C 
BRANCH  14  15
ATOM     15  C   UNL     1      13.154  11.517 -21.609  1.00  0.00    -0.000 C 
BRANCH  15  16
ATOM     16  C   UNL     1      12.541  11.196 -20.234  1.00  0.00    -0.000 C 
BRANCH  16  17
ATOM     17  C   UNL     1      11.057  11.587 -20.144  1.00  0.00    -0.000 C 
BRANCH  17  18
ATOM     18  C   UNL     1      10.808  12.729 -19.147  1.00  0.00    -0.003 C 
ATOM     19  C   UNL     1      11.127  12.290 -17.720  1.00  0.00     0.004 C 
ENDBRANCH  17  18
ENDBRANCH  16  17
ENDBRANCH  15  16
ENDBRANCH  14  15
ENDBRANCH  13  14
ENDBRANCH  12  13
ENDBRANCH   1  12
TORSDOF 14
ENDMDL
MODEL 2
REMARK VINA RESULT:    -4.876      1.769      2.825
REMARK INTER + INTRA:         -10.817
REMARK INTER:                  -8.200
REMARK INTRA:                  -2.617
REMARK UNBOUND:                -1.949
REMARK SMILES CCCCCCCCCCCCCC[C@@H](C)C(=O)[O-]
REMARK SMILES IDX 9 1 10 2 11 3 12 4 13 5 14 6 15 7 16 8 17 9 18 10 19 11 8 12
REMARK SMILES IDX 7 13 6 14 5 15 4 16 3 17 2 18 1 19
REMARK H PARENT
REMARK Flexibility Score: inf
ROOT
ATOM      1  C   UNL     1      10.793  16.511 -16.869  1.00  0.00     0.000 C 
ENDROOT
BRANCH   1   2
ATOM      2  C   UNL     1      11.835  16.603 -15.746  1.00  0.00     0.000 C 
BRANCH   2   3
ATOM      3  C   UNL     1      12.998  17.552 -16.084  1.00  0.00     0.000 C 
BRANCH   3   4
ATOM      4  C   UNL     1      14.404  16.972 -15.836  1.00  0.00     0.000 C 
BRANCH   4   5
ATOM      5  C   UNL     1      15.482  17.413 -16.846  1.00  0.00     0.001 C 
BRANCH   5   6
ATOM      6  C   UNL     1      16.709  16.484 -16.940  1.00  0.00     0.009 C 
BRANCH   6   7
ATOM      7  C   UNL     1      16.423  15.117 -17.603  1.00  0.00     0.032 C 
ATOM      8  C   UNL     1      17.176  14.999 -18.932  1.00  0.00     0.014 C 
BRANCH   7   9
ATOM      9  C   UNL     1      16.805  13.976 -16.699  1.00  0.00     0.044 C 
ATOM     10  O   UNL     1      16.031  13.615 -15.775  1.00  0.00    -0.550 OA
ATOM     11  O   UNL     1      18.015  13.315 -16.879  1.00  0.00    -0.550 OA
ENDBRANCH   7   9
ENDBRANCH   6   7
ENDBRANCH   5   6
ENDBRANCH   4   5
ENDBRANCH   3   4
ENDBRANCH   2   3
ENDBRANCH   1   2
BRANCH   1  12
ATOM     12  C   UNL     1      11.307  17.182 -18.152  1.00  0.00     0.000 C 
BRANCH  12  13
ATOM     13  C   UNL     1      11.623  16.170 -19.264  1.00  0.00    -0.000 C 
BRANCH  13  14
ATOM     14  C   UNL     1      13.124  15.842 -19.355  1.00  0.00    -0.000 C 
BRANCH  14  15
ATOM     15  C   UNL     1      13.406  14.337 -19.224  1.00  0.00    -0.000 C 
BRANCH  15  16
ATOM     16  C   UNL     1      13.065  13.794 -17.825  1.00  0.00    -0.000 C 
BRANCH  16  17
ATOM     17  C   UNL     1      12.173  12.543 -17.879  1.00  0.00    -0.000 C 
BRANCH  17  18
ATOM     18  C   UNL     1      10.682  12.887 -18.007  1.00  0.00    -0.003 C 
ATOM     19  C   UNL     1      10.144  12.495 -19.381  1.00  0.00     0.004 C 
ENDBRANCH  17  18
ENDBRANCH  16  17
ENDBRANCH  15  16
ENDBRANCH  14  15
ENDBRANCH  13  14
ENDBRANCH  12  13
ENDBRANCH   1  12
TORSDOF 14
ENDMDL
MODEL 3
REMARK VINA RESULT:    -4.873      1.457      3.491
REMARK INTER + INTRA:         -10.811
REMARK INTER:                  -8.473
REMARK INTRA:                  -2.337
REMARK UNBOUND:                -1.949
REMARK SMILES CCCCCCCCCCCCCC[C@@H](C)C(=O)[O-]
REMARK SMILES IDX 9 1 10 2 11 3 12 4 13 5 14 6 15 7 16 8 17 9 18 10 19 11 8 12
REMARK SMILES IDX 7 13 6 14 5 15 4 16 3 17 2 18 1 19
REMARK H PARENT
REMARK Flexibility Score: inf
ROOT
ATOM      1  C   UNL     1      13.560  11.467 -21.142  1.00  0.00     0.000 C 
ENDROOT
BRANCH   1   2
ATOM      2  C   UNL     1      14.145  12.817 -21.585  1.00  0.00     0.000 C 
BRANCH   2   3
ATOM      3  C   UNL     1      13.287  14.015 -21.141  1.00  0.00     0.000 C 
BRANCH   3   4
ATOM      4  C   UNL     1      13.971  14.970 -20.144  1.00  0.00     0.000 C 
BRANCH   4   5
ATOM      5  C   UNL     1      15.005  14.310 -19.209  1.00  0.00     0.001 C 
BRANCH   5   6
ATOM      6  C   UNL     1      16.430  14.893 -19.296  1.00  0.00     0.009 C 
BRANCH   6   7
ATOM      7  C   UNL     1      17.081  15.189 -17.926  1.00  0.00     0.032 C 
ATOM      8  C   UNL     1      16.368  16.356 -17.236  1.00  0.00     0.014 C 
BRANCH   7   9
ATOM      9  C   UNL     1      17.056  13.978 -17.032  1.00  0.00     0.044 C 
ATOM     10  O   UNL     1      16.245  13.919 -16.071  1.00  0.00    -0.550 OA
ATOM     11  O   UNL     1      17.927  12.919 -17.261  1.00  0.00    -0.550 OA
ENDBRANCH   7   9
ENDBRANCH   6   7
ENDBRANCH   5   6
ENDBRANCH   4   5
ENDBRANCH   3   4
ENDBRANCH   2   3
ENDBRANCH   1   2
BRANCH   1  12
ATOM     12  C   UNL     1      12.199  11.657 -20.456  1.00  0.00     0.000 C 
BRANCH  12  13
ATOM     13  C   UNL     1      12.259  11.404 -18.942  1.00  0.00    -0.000 C 
BRANCH  13  14
ATOM     14  C   UNL     1      11.500  12.472 -18.134  1.00  0.00    -0.000 C 
BRANCH  14  15
ATOM     15  C   UNL     1      10.314  13.063 -18.912  1.00  0.00    -0.000 C 
BRANCH  15  16
ATOM     16  C   UNL     1      10.349  14.602 -18.961  1.00  0.00    -0.000 C 
BRANCH  16  17
ATOM     17  C   UNL     1      10.423  15.235 -17.563  1.00  0.00    -0.000 C 
BRANCH  17  18
ATOM     18  C   UNL     1      11.504  16.321 -17.463  1.00  0.00    -0.003 C 
ATOM     19  C   UNL     1      12.703  15.830 -16.656  1.00  0.00     0.004 C 
ENDBRANCH  17  18
ENDBRANCH  16  17
ENDBRANCH  15  16
ENDBRANCH  14  15
ENDBRANCH  13  14
ENDBRANCH  12  13
ENDBRANCH   1  12
TORSDOF 14
ENDMDL
MODEL 4
REMARK VINA RESULT:    -4.868      1.866      3.259
REMARK INTER + INTRA:         -10.802
REMARK INTER:                  -9.234
REMARK INTRA:                  -1.568
REMARK UNBOUND:                -1.949
REMARK SMILES CCCCCCCCCCCCCC[C@@H](C)C(=O)[O-]
REMARK SMILES IDX 9 1 10 2 11 3 12 4 13 5 14 6 15 7 16 8 17 9 18 10 19 11 8 12
REMARK SMILES IDX 7 13 6 14 5 15 4 16 3 17 2 18 1 19
REMARK H PARENT
REMARK Flexibility Score: inf
ROOT
ATOM      1  C   UNL     1      12.680  16.421 -15.629  1.00  0.00     0.000 C 
ENDROOT
BRANCH   1   2
ATOM      2  C   UNL     1      13.675  17.587 -15.720  1.00  0.00     0.000 C 
BRANCH   2   3
ATOM      3  C   UNL     1      14.091  17.908 -17.167  1.00  0.00     0.000 C 
BRANCH   3   4
ATOM      4  C   UNL     1      15.577  17.656 -17.487  1.00  0.00     0.000 C 
BRANCH   4   5
ATOM      5  C   UNL     1      16.323  16.764 -16.474  1.00  0.00     0.001 C 
BRANCH   5   6
ATOM      6  C   UNL     1      16.158  15.246 -16.696  1.00  0.00     0.009 C 
BRANCH   6   7
ATOM      7  C   UNL     1      17.284  14.600 -17.534  1.00  0.00     0.032 C 
ATOM      8  C   UNL     1      17.736  13.282 -16.897  1.00  0.00     0.014 C 
BRANCH   7   9
ATOM      9  C   UNL     1      16.842  14.353 -18.952  1.00  0.00     0.044 C 
ATOM     10  O   UNL     1      15.638  14.082 -19.201  1.00  0.00    -0.550 OA
ATOM     11  O   UNL     1      17.759  14.423 -19.994  1.00  0.00    -0.550 OA
ENDBRANCH   7   9
ENDBRANCH   6   7
ENDBRANCH   5   6
ENDBRANCH   4   5
ENDBRANCH   3   4
ENDBRANCH   2   3
ENDBRANCH   1   2
BRANCH   1  12
ATOM     12  C   UNL     1      11.517  16.612 -16.614  1.00  0.00     0.000 C 
BRANCH  12  13
ATOM     13  C   UNL     1      11.276  15.374 -17.493  1.00  0.00    -0.000 C 
BRANCH  13  14
ATOM     14  C   UNL     1      12.560  14.559 -17.729  1.00  0.00    -0.000 C 
BRANCH  14  15
ATOM     15  C   UNL     1      12.270  13.078 -18.017  1.00  0.00    -0.000 C 
BRANCH  15  16
ATOM     16  C   UNL     1      10.949  12.873 -18.781  1.00  0.00    -0.000 C 
BRANCH  16  17
ATOM     17  C   UNL     1      11.066  11.814 -19.888  1.00  0.00    -0.000 C 
BRANCH  17  18
ATOM     18  C   UNL     1      12.497  11.280 -20.046  1.00  0.00    -0.003 C 
ATOM     19  C   UNL     1      13.126  11.771 -21.347  1.00  0.00     0.004 C 
ENDBRANCH  17  18
ENDBRANCH  16  17
ENDBRANCH  15  16
ENDBRANCH  14  15
ENDBRANCH  13  14
ENDBRANCH  12  13
ENDBRANCH   1  12
TORSDOF 14
ENDMDL
MODEL 5
REMARK VINA RESULT:    -4.857      1.921      3.514
REMARK INTER + INTRA:         -10.781
REMARK INTER:                  -8.302
REMARK INTRA:                  -2.479
REMARK UNBOUND:                -1.949
REMARK SMILES CCCCCCCCCCCCCC[C@@H](C)C(=O)[O-]
REMARK SMILES IDX 9 1 10 2 11 3 12 4 13 5 14 6 15 7 16 8 17 9 18 10 19 11 8 12
REMARK SMILES IDX 7 13 6 14 5 15 4 16 3 17 2 18 1 19
REMARK H PARENT
REMARK Flexibility Score: inf
ROOT
ATOM      1  C   UNL     1      11.033  15.844 -18.839  1.00  0.00     0.000 C 
ENDROOT
BRANCH   1   2
ATOM      2  C   UNL     1      11.503  15.241 -20.170  1.00  0.00     0.000 C 
BRANCH   2   3
ATOM      3  C   UNL     1      12.962  15.596 -20.506  1.00  0.00     0.000 C 
BRANCH   3   4
ATOM      4  C   UNL     1      13.881  15.794 -19.284  1.00  0.00     0.000 C 
BRANCH   4   5
ATOM      5  C   UNL     1      14.425  14.495 -18.657  1.00  0.00     0.001 C 
BRANCH   5   6
ATOM      6  C   UNL     1      14.409  14.457 -17.115  1.00  0.00     0.009 C 
BRANCH   6   7
ATOM      7  C   UNL     1      15.663  15.068 -16.450  1.00  0.00     0.032 C 
ATOM      8  C   UNL     1      16.924  14.680 -17.229  1.00  0.00     0.014 C 
BRANCH   7   9
ATOM      9  C   UNL     1      15.563  16.567 -16.361  1.00  0.00     0.044 C 
ATOM     10  O   UNL     1      14.678  17.100 -15.641  1.00  0.00    -0.550 OA
ATOM     11  O   UNL     1      16.445  17.372 -17.072  1.00  0.00    -0.550 OA
ENDBRANCH   7   9
ENDBRANCH   6   7
ENDBRANCH   5   6
ENDBRANCH   4   5
ENDBRANCH   3   4
ENDBRANCH   2   3
ENDBRANCH   1   2
BRANCH   1  12
ATOM     12  C   UNL     1      10.468  14.757 -17.911  1.00  0.00     0.000 C 
BRANCH  12  13
ATOM     13  C   UNL     1      10.373  13.385 -18.597  1.00  0.00    -0.000 C 
BRANCH  13  14
ATOM     14  C   UNL     1      11.131  12.288 -17.828  1.00  0.00    -0.000 C 
BRANCH  14  15
ATOM     15  C   UNL     1      12.257  11.657 -18.662  1.00  0.00    -0.000 C 
BRANCH  15  16
ATOM     16  C   UNL     1      11.973  11.714 -20.174  1.00  0.00    -0.000 C 
BRANCH  16  17
ATOM     17  C   UNL     1      13.132  11.153 -21.014  1.00  0.00    -0.000 C 
BRANCH  17  18
ATOM     18  C   UNL     1      13.759  12.211 -21.935  1.00  0.00    -0.003 C 
ATOM     19  C   UNL     1      15.214  12.475 -21.555  1.00  0.00     0.004 C 
ENDBRANCH  17  18
ENDBRANCH  16  17
ENDBRANCH  15  16
ENDBRANCH  14  15
ENDBRANCH  13  14
ENDBRANCH  12  13
ENDBRANCH   1  12
TORSDOF 14
ENDMDL
MODEL 6
REMARK VINA RESULT:    -4.842      2.273      5.387
REMARK INTER + INTRA:         -10.754
REMARK INTER:                  -8.691
REMARK INTRA:                  -2.063
REMARK UNBOUND:                -1.949
REMARK SMILES CCCCCCCCCCCCCC[C@@H](C)C(=O)[O-]
REMARK SMILES IDX 9 1 10 2 11 3 12 4 13 5 14 6 15 7 16 8 17 9 18 10 19 11 8 12
REMARK SMILES IDX 7 13 6 14 5 15 4 16 3 17 2 18 1 19
REMARK H PARENT
REMARK Flexibility Score: inf
ROOT
ATOM      1  C   UNL     1      14.228  12.286 -22.122  1.00  0.00     0.000 C 
ENDROOT
BRANCH   1   2
ATOM      2  C   UNL     1      13.040  11.381 -21.767  1.00  0.00     0.000 C 
BRANCH   2   3
ATOM      3  C   UNL     1      12.747  11.342 -20.257  1.00  0.00     0.000 C 
BRANCH   3   4
ATOM      4  C   UNL     1      11.310  11.736 -19.862  1.00  0.00     0.000 C 
BRANCH   4   5
ATOM      5  C   UNL     1      11.204  12.765 -18.719  1.00  0.00     0.001 C 
BRANCH   5   6
ATOM      6  C   UNL     1      11.219  14.241 -19.165  1.00  0.00     0.009 C 
BRANCH   6   7
ATOM      7  C   UNL     1      12.606  14.918 -19.078  1.00  0.00     0.032 C 
ATOM      8  C   UNL     1      12.886  15.729 -20.347  1.00  0.00     0.014 C 
BRANCH   7   9
ATOM      9  C   UNL     1      12.706  15.813 -17.872  1.00  0.00     0.044 C 
ATOM     10  O   UNL     1      12.116  15.504 -16.804  1.00  0.00    -0.550 OA
ATOM     11  O   UNL     1      13.451  16.986 -17.929  1.00  0.00    -0.550 OA
ENDBRANCH   7   9
ENDBRANCH   6   7
ENDBRANCH   5   6
ENDBRANCH   4   5
ENDBRANCH   3   4
ENDBRANCH   2   3
ENDBRANCH   1   2
BRANCH   1  12
ATOM     12  C   UNL     1      14.890  12.847 -20.854  1.00  0.00     0.000 C 
BRANCH  12  13
ATOM     13  C   UNL     1      16.386  12.510 -20.768  1.00  0.00    -0.000 C 
BRANCH  13  14
ATOM     14  C   UNL     1      17.110  13.311 -19.671  1.00  0.00    -0.000 C 
BRANCH  14  15
ATOM     15  C   UNL     1      16.320  14.554 -19.232  1.00  0.00    -0.000 C 
BRANCH  15  16
ATOM     16  C   UNL     1      16.317  14.742 -17.705  1.00  0.00    -0.000 C 
BRANCH  16  17
ATOM     17  C   UNL     1      17.196  13.708 -16.982  1.00  0.00    -0.000 C 
BRANCH  17  18
ATOM     18  C   UNL     1      16.497  13.093 -15.760  1.00  0.00    -0.003 C 
ATOM     19  C   UNL     1      14.996  13.366 -15.790  1.00  0.00     0.004 C 
ENDBRANCH  17  18
ENDBRANCH  16  17
ENDBRANCH  15  16
ENDBRANCH  14  15
ENDBRANCH  13  14
ENDBRANCH  12  13
ENDBRANCH   1  12
TORSDOF 14
ENDMDL
MODEL 7
REMARK VINA RESULT:    -4.807      2.070      3.615
REMARK INTER + INTRA:         -10.690
REMARK INTER:                  -8.695
REMARK INTRA:                  -1.995
REMARK UNBOUND:                -1.949
REMARK SMILES CCCCCCCCCCCCCC[C@@H](C)C(=O)[O-]
REMARK SMILES IDX 9 1 10 2 11 3 12 4 13 5 14 6 15 7 16 8 17 9 18 10 19 11 8 12
REMARK SMILES IDX 7 13 6 14 5 15 4 16 3 17 2 18 1 19
REMARK H PARENT
REMARK Flexibility Score: inf
ROOT
ATOM      1  C   UNL     1      14.917  12.795 -20.760  1.00  0.00     0.000 C 
ENDROOT
BRANCH   1   2
ATOM      2  C   UNL     1      16.448  12.688 -20.748  1.00  0.00     0.000 C 
BRANCH   2   3
ATOM      3  C   UNL     1      17.109  13.663 -19.758  1.00  0.00     0.000 C 
BRANCH   3   4
ATOM      4  C   UNL     1      17.513  13.043 -18.406  1.00  0.00     0.000 C 
BRANCH   4   5
ATOM      5  C   UNL     1      17.457  14.005 -17.202  1.00  0.00     0.001 C 
BRANCH   5   6
ATOM      6  C   UNL     1      16.463  15.176 -17.347  1.00  0.00     0.009 C 
BRANCH   6   7
ATOM      7  C   UNL     1      14.984  14.785 -17.128  1.00  0.00     0.032 C 
ATOM      8  C   UNL     1      14.869  13.712 -16.041  1.00  0.00     0.014 C 
BRANCH   7   9
ATOM      9  C   UNL     1      14.149  15.979 -16.752  1.00  0.00     0.044 C 
ATOM     10  O   UNL     1      13.395  15.932 -15.744  1.00  0.00    -0.550 OA
ATOM     11  O   UNL     1      14.203  17.141 -17.514  1.00  0.00    -0.550 OA
ENDBRANCH   7   9
ENDBRANCH   6   7
ENDBRANCH   5   6
ENDBRANCH   4   5
ENDBRANCH   3   4
ENDBRANCH   2   3
ENDBRANCH   1   2
BRANCH   1  12
ATOM     12  C   UNL     1      14.335  12.202 -22.052  1.00  0.00     0.000 C 
BRANCH  12  13
ATOM     13  C   UNL     1      13.083  11.347 -21.799  1.00  0.00    -0.000 C 
BRANCH  13  14
ATOM     14  C   UNL     1      12.719  11.260 -20.307  1.00  0.00    -0.000 C 
BRANCH  14  15
ATOM     15  C   UNL     1      11.250  11.622 -20.038  1.00  0.00    -0.000 C 
BRANCH  15  16
ATOM     16  C   UNL     1      11.055  12.328 -18.684  1.00  0.00    -0.000 C 
BRANCH  16  17
ATOM     17  C   UNL     1      11.852  13.637 -18.581  1.00  0.00    -0.000 C 
BRANCH  17  18
ATOM     18  C   UNL     1      11.389  14.692 -19.597  1.00  0.00    -0.003 C 
ATOM     19  C   UNL     1      12.578  15.445 -20.188  1.00  0.00     0.004 C 
ENDBRANCH  17  18
ENDBRANCH  16  17
ENDBRANCH  15  16
ENDBRANCH  14  15
ENDBRANCH  13  14
ENDBRANCH  12  13
ENDBRANCH   1  12
TORSDOF 14
ENDMDL
MODEL 8
REMARK VINA RESULT:    -4.797      1.353      2.738
REMARK INTER + INTRA:         -10.672
REMARK INTER:                  -8.835
REMARK INTRA:                  -1.838
REMARK UNBOUND:                -1.949
REMARK SMILES CCCCCCCCCCCCCC[C@@H](C)C(=O)[O-]
REMARK SMILES IDX 9 1 10 2 11 3 12 4 13 5 14 6 15 7 16 8 17 9 18 10 19 11 8 12
REMARK SMILES IDX 7 13 6 14 5 15 4 16 3 17 2 18 1 19
REMARK H PARENT
REMARK Flexibility Score: inf
ROOT
ATOM      1  C   UNL     1      12.632  15.146 -17.569  1.00  0.00     0.000 C 
ENDROOT
BRANCH   1   2
ATOM      2  C   UNL     1      12.261  16.082 -16.410  1.00  0.00     0.000 C 
BRANCH   2   3
ATOM      3  C   UNL     1      13.485  16.771 -15.781  1.00  0.00     0.000 C 
BRANCH   3   4
ATOM      4  C   UNL     1      14.575  17.203 -16.783  1.00  0.00     0.000 C 
BRANCH   4   5
ATOM      5  C   UNL     1      16.004  16.745 -16.431  1.00  0.00     0.001 C 
BRANCH   5   6
ATOM      6  C   UNL     1      16.735  15.970 -17.547  1.00  0.00     0.009 C 
BRANCH   6   7
ATOM      7  C   UNL     1      16.264  14.509 -17.721  1.00  0.00     0.032 C 
ATOM      8  C   UNL     1      16.521  14.031 -19.153  1.00  0.00     0.014 C 
BRANCH   7   9
ATOM      9  C   UNL     1      16.952  13.590 -16.748  1.00  0.00     0.044 C 
ATOM     10  O   UNL     1      16.402  13.302 -15.652  1.00  0.00    -0.550 OA
ATOM     11  O   UNL     1      18.197  13.052 -17.051  1.00  0.00    -0.550 OA
ENDBRANCH   7   9
ENDBRANCH   6   7
ENDBRANCH   5   6
ENDBRANCH   4   5
ENDBRANCH   3   4
ENDBRANCH   2   3
ENDBRANCH   1   2
BRANCH   1  12
ATOM     12  C   UNL     1      11.953  15.591 -18.873  1.00  0.00     0.000 C 
BRANCH  12  13
ATOM     13  C   UNL     1      10.790  14.672 -19.278  1.00  0.00    -0.000 C 
BRANCH  13  14
ATOM     14  C   UNL     1      10.799  13.336 -18.513  1.00  0.00    -0.000 C 
BRANCH  14  15
ATOM     15  C   UNL     1      10.930  12.124 -19.449  1.00  0.00    -0.000 C 
BRANCH  15  16
ATOM     16  C   UNL     1      12.396  11.778 -19.763  1.00  0.00    -0.000 C 
BRANCH  16  17
ATOM     17  C   UNL     1      12.597  11.323 -21.217  1.00  0.00    -0.000 C 
BRANCH  17  18
ATOM     18  C   UNL     1      13.675  12.139 -21.947  1.00  0.00    -0.003 C 
ATOM     19  C   UNL     1      13.649  13.600 -21.506  1.00  0.00     0.004 C 
ENDBRANCH  17  18
ENDBRANCH  16  17
ENDBRANCH  15  16
ENDBRANCH  14  15
ENDBRANCH  13  14
ENDBRANCH  12  13
ENDBRANCH   1  12
TORSDOF 14
ENDMDL
MODEL 9
REMARK VINA RESULT:    -4.770      2.483      6.263
REMARK INTER + INTRA:         -10.623
REMARK INTER:                  -8.391
REMARK INTRA:                  -2.232
REMARK UNBOUND:                -1.949
REMARK SMILES CCCCCCCCCCCCCC[C@@H](C)C(=O)[O-]
REMARK SMILES IDX 9 1 10 2 11 3 12 4 13 5 14 6 15 7 16 8 17 9 18 10 19 11 8 12
REMARK SMILES IDX 7 13 6 14 5 15 4 16 3 17 2 18 1 19
REMARK H PARENT
REMARK Flexibility Score: inf
ROOT
ATOM      1  C   UNL     1      13.543  15.516 -19.748  1.00  0.00     0.000 C 
ENDROOT
BRANCH   1   2
ATOM      2  C   UNL     1      13.422  14.631 -20.997  1.00  0.00     0.000 C 
BRANCH   2   3
ATOM      3  C   UNL     1      14.091  13.256 -20.825  1.00  0.00     0.000 C 
BRANCH   3   4
ATOM      4  C   UNL     1      13.221  12.053 -21.236  1.00  0.00     0.000 C 
BRANCH   4   5
ATOM      5  C   UNL     1      12.459  11.372 -20.081  1.00  0.00     0.001 C 
BRANCH   5   6
ATOM      6  C   UNL     1      11.057  11.947 -19.795  1.00  0.00     0.009 C 
BRANCH   6   7
ATOM      7  C   UNL     1      10.913  12.611 -18.407  1.00  0.00     0.032 C 
ATOM      8  C   UNL     1      12.270  12.672 -17.699  1.00  0.00     0.014 C 
BRANCH   7   9
ATOM      9  C   UNL     1      10.336  13.997 -18.517  1.00  0.00     0.044 C 
ATOM     10  O   UNL     1      10.192  14.706 -17.487  1.00  0.00    -0.550 OA
ATOM     11  O   UNL     1       9.958  14.502 -19.756  1.00  0.00    -0.550 OA
ENDBRANCH   7   9
ENDBRANCH   6   7
ENDBRANCH   5   6
ENDBRANCH   4   5
ENDBRANCH   3   4
ENDBRANCH   2   3
ENDBRANCH   1   2
BRANCH   1  12
ATOM     12  C   UNL     1      14.246  16.841 -20.080  1.00  0.00     0.000 C 
BRANCH  12  13
ATOM     13  C   UNL     1      14.690  17.606 -18.823  1.00  0.00    -0.000 C 
BRANCH  13  14
ATOM     14  C   UNL     1      13.959  17.133 -17.554  1.00  0.00    -0.000 C 
BRANCH  14  15
ATOM     15  C   UNL     1      14.888  17.067 -16.332  1.00  0.00    -0.000 C 
BRANCH  15  16
ATOM     16  C   UNL     1      16.230  16.382 -16.648  1.00  0.00    -0.000 C 
BRANCH  16  17
ATOM     17  C   UNL     1      16.126  14.849 -16.642  1.00  0.00    -0.000 C 
BRANCH  17  18
ATOM     18  C   UNL     1      17.167  14.184 -17.555  1.00  0.00    -0.003 C 
ATOM     19  C   UNL     1      17.249  14.896 -18.903  1.00  0.00     0.004 C 
ENDBRANCH  17  18
ENDBRANCH  16  17
ENDBRANCH  15  16
ENDBRANCH  14  15
ENDBRANCH  13  14
ENDBRANCH  12  13
ENDBRANCH   1  12
TORSDOF 14
ENDMDL
