MODEL 1
REMARK VINA RESULT:    -7.244      0.000      0.000
REMARK INTER + INTRA:         -10.911
REMARK INTER:                  -9.785
REMARK INTRA:                  -1.125
REMARK UNBOUND:                -1.125
REMARK SMILES O=c1c(-c2ccc(O)cc2)coc2c([C@H]3O[C@@H](CO)[C@H](O)[C@H](O)[C@@H]3O)c(O)ccc12
REMARK SMILES IDX 3 1 11 2 12 3 13 4 30 5 2 6 1 7 29 8 28 9 26 10 14 11 4 12
REMARK SMILES IDX 5 13 6 14 7 15 10 16 9 17 8 18 15 20 24 21 16 22 22 23 17 24
REMARK SMILES IDX 20 25 25 26 23 28 18 30 19 31 21 33 27 35
REMARK H PARENT 8 19 25 27 23 29 19 32 21 34 27 36
REMARK Flexibility Score: inf
ROOT
ATOM      1  C   UNL     1      45.278  25.222  19.934  1.00  0.00     0.065 A 
ATOM      2  C   UNL     1      44.608  26.453  19.998  1.00  0.00     0.208 A 
ATOM      3  O   UNL     1      45.193  27.570  19.585  1.00  0.00    -0.463 OA
ATOM      4  C   UNL     1      46.429  27.603  19.093  1.00  0.00     0.147 A 
ATOM      5  C   UNL     1      47.189  26.408  19.035  1.00  0.00     0.066 A 
ATOM      6  C   UNL     1      46.600  25.208  19.468  1.00  0.00     0.200 A 
ATOM      7  O   UNL     1      47.253  24.130  19.452  1.00  0.00    -0.288 OA
ATOM      8  C   UNL     1      48.485  26.439  18.506  1.00  0.00     0.020 A 
ATOM      9  C   UNL     1      49.000  27.614  17.971  1.00  0.00     0.047 A 
ATOM     10  C   UNL     1      48.241  28.791  17.960  1.00  0.00     0.125 A 
ATOM     11  C   UNL     1      46.957  28.821  18.589  1.00  0.00     0.069 A 
ENDROOT
BRANCH   1  12
ATOM     12  C   UNL     1      44.584  23.985  20.315  1.00  0.00    -0.011 A 
ATOM     13  C   UNL     1      43.510  23.501  19.551  1.00  0.00     0.013 A 
ATOM     14  C   UNL     1      42.891  22.289  19.901  1.00  0.00     0.047 A 
ATOM     15  C   UNL     1      43.355  21.551  21.008  1.00  0.00     0.115 A 
ATOM     16  C   UNL     1      45.009  23.270  21.444  1.00  0.00     0.013 A 
ATOM     17  C   UNL     1      44.403  22.057  21.785  1.00  0.00     0.047 A 
BRANCH  15  18
ATOM     18  O   UNL     1      42.791  20.314  21.335  1.00  0.00    -0.508 OA
ATOM     19  H   UNL     1      42.923  19.500  20.743  1.00  0.00     0.293 HD
ENDBRANCH  15  18
ENDBRANCH   1  12
BRANCH  11  20
ATOM     20  C   UNL     1      46.061  30.060  18.575  1.00  0.00     0.188 C 
ATOM     21  C   UNL     1      45.330  30.177  17.216  1.00  0.00     0.179 C 
ATOM     22  O   UNL     1      46.811  31.235  18.851  1.00  0.00    -0.362 OA
ATOM     23  C   UNL     1      44.427  31.425  17.208  1.00  0.00     0.177 C 
ATOM     24  C   UNL     1      45.957  32.366  18.977  1.00  0.00     0.176 C 
ATOM     25  C   UNL     1      45.237  32.658  17.640  1.00  0.00     0.177 C 
BRANCH  21  26
ATOM     26  O   UNL     1      44.548  29.034  16.979  1.00  0.00    -0.387 OA
ATOM     27  H   UNL     1      44.843  28.331  17.612  1.00  0.00     0.211 HD
ENDBRANCH  21  26
BRANCH  23  28
ATOM     28  O   UNL     1      43.328  31.236  18.069  1.00  0.00    -0.387 OA
ATOM     29  H   UNL     1      42.519  31.141  17.491  1.00  0.00     0.211 HD
ENDBRANCH  23  28
BRANCH  24  30
ATOM     30  C   UNL     1      46.790  33.590  19.403  1.00  0.00     0.191 C 
BRANCH  30  31
ATOM     31  O   UNL     1      45.992  34.504  20.108  1.00  0.00    -0.394 OA
ATOM     32  H   UNL     1      45.470  35.000  19.421  1.00  0.00     0.210 HD
ENDBRANCH  30  31
ENDBRANCH  24  30
BRANCH  25  33
ATOM     33  O   UNL     1      44.383  33.763  17.781  1.00  0.00    -0.388 OA
ATOM     34  H   UNL     1      44.709  34.293  18.555  1.00  0.00     0.211 HD
ENDBRANCH  25  33
ENDBRANCH  11  20
BRANCH  10  35
ATOM     35  O   UNL     1      48.780  29.883  17.270  1.00  0.00    -0.507 OA
ATOM     36  H   UNL     1      49.718  30.247  17.396  1.00  0.00     0.293 HD
ENDBRANCH  10  35
TORSDOF 9
ENDMDL
MODEL 2
REMARK VINA RESULT:    -6.787      4.406      8.358
REMARK INTER + INTRA:         -10.293
REMARK INTER:                  -9.496
REMARK INTRA:                  -0.797
REMARK UNBOUND:                -1.125
REMARK SMILES O=c1c(-c2ccc(O)cc2)coc2c([C@H]3O[C@@H](CO)[C@H](O)[C@H](O)[C@@H]3O)c(O)ccc12
REMARK SMILES IDX 3 1 11 2 12 3 13 4 30 5 2 6 1 7 29 8 28 9 26 10 14 11 4 12
REMARK SMILES IDX 5 13 6 14 7 15 10 16 9 17 8 18 15 20 24 21 16 22 22 23 17 24
REMARK SMILES IDX 20 25 25 26 23 28 18 30 19 31 21 33 27 35
REMARK H PARENT 8 19 25 27 23 29 19 32 21 34 27 36
REMARK Flexibility Score: inf
ROOT
ATOM      1  C   UNL     1      47.371  24.941  20.531  1.00  0.00     0.065 A 
ATOM      2  C   UNL     1      46.231  25.329  19.812  1.00  0.00     0.208 A 
ATOM      3  O   UNL     1      45.186  24.518  19.701  1.00  0.00    -0.463 OA
ATOM      4  C   UNL     1      45.146  23.306  20.250  1.00  0.00     0.147 A 
ATOM      5  C   UNL     1      46.276  22.822  20.956  1.00  0.00     0.066 A 
ATOM      6  C   UNL     1      47.400  23.654  21.089  1.00  0.00     0.200 A 
ATOM      7  O   UNL     1      48.430  23.250  21.691  1.00  0.00    -0.288 OA
ATOM      8  C   UNL     1      46.231  21.553  21.545  1.00  0.00     0.020 A 
ATOM      9  C   UNL     1      45.064  20.798  21.504  1.00  0.00     0.047 A 
ATOM     10  C   UNL     1      43.916  21.285  20.867  1.00  0.00     0.125 A 
ATOM     11  C   UNL     1      43.960  22.529  20.163  1.00  0.00     0.069 A 
ENDROOT
BRANCH   1  12
ATOM     12  C   UNL     1      48.482  25.884  20.715  1.00  0.00    -0.011 A 
ATOM     13  C   UNL     1      49.135  25.988  21.954  1.00  0.00     0.013 A 
ATOM     14  C   UNL     1      50.229  26.859  22.098  1.00  0.00     0.047 A 
ATOM     15  C   UNL     1      50.681  27.615  20.998  1.00  0.00     0.115 A 
ATOM     16  C   UNL     1      48.907  26.675  19.639  1.00  0.00     0.013 A 
ATOM     17  C   UNL     1      50.004  27.530  19.776  1.00  0.00     0.047 A 
BRANCH  15  18
ATOM     18  O   UNL     1      51.806  28.440  21.106  1.00  0.00    -0.508 OA
ATOM     19  H   UNL     1      51.719  29.421  21.353  1.00  0.00     0.293 HD
ENDBRANCH  15  18
ENDBRANCH   1  12
BRANCH  11  20
ATOM     20  C   UNL     1      42.733  23.137  19.483  1.00  0.00     0.188 C 
ATOM     21  C   UNL     1      41.747  23.683  20.545  1.00  0.00     0.179 C 
ATOM     22  O   UNL     1      42.095  22.188  18.639  1.00  0.00    -0.362 OA
ATOM     23  C   UNL     1      40.513  24.295  19.856  1.00  0.00     0.177 C 
ATOM     24  C   UNL     1      41.039  22.792  17.901  1.00  0.00     0.176 C 
ATOM     25  C   UNL     1      39.926  23.292  18.850  1.00  0.00     0.177 C 
BRANCH  21  26
ATOM     26  O   UNL     1      42.371  24.659  21.338  1.00  0.00    -0.387 OA
ATOM     27  H   UNL     1      43.344  24.624  21.151  1.00  0.00     0.211 HD
ENDBRANCH  21  26
BRANCH  23  28
ATOM     28  O   UNL     1      40.867  25.492  19.202  1.00  0.00    -0.387 OA
ATOM     29  H   UNL     1      40.121  25.712  18.575  1.00  0.00     0.211 HD
ENDBRANCH  23  28
BRANCH  24  30
ATOM     30  C   UNL     1      40.461  21.768  16.906  1.00  0.00     0.191 C 
BRANCH  30  31
ATOM     31  O   UNL     1      39.395  21.066  17.489  1.00  0.00    -0.394 OA
ATOM     32  H   UNL     1      39.797  20.262  17.917  1.00  0.00     0.210 HD
ENDBRANCH  30  31
ENDBRANCH  24  30
BRANCH  25  33
ATOM     33  O   UNL     1      38.899  23.902  18.114  1.00  0.00    -0.388 OA
ATOM     34  H   UNL     1      38.231  24.245  18.764  1.00  0.00     0.211 HD
ENDBRANCH  25  33
ENDBRANCH  11  20
BRANCH  10  35
ATOM     35  O   UNL     1      42.748  20.526  21.004  1.00  0.00    -0.507 OA
ATOM     36  H   UNL     1      42.477  20.018  21.838  1.00  0.00     0.293 HD
ENDBRANCH  10  35
TORSDOF 9
ENDMDL
MODEL 3
REMARK VINA RESULT:    -6.492      5.366      7.873
REMARK INTER + INTRA:          -9.894
REMARK INTER:                  -8.589
REMARK INTRA:                  -1.305
REMARK UNBOUND:                -1.125
REMARK SMILES O=c1c(-c2ccc(O)cc2)coc2c([C@H]3O[C@@H](CO)[C@H](O)[C@H](O)[C@@H]3O)c(O)ccc12
REMARK SMILES IDX 3 1 11 2 12 3 13 4 30 5 2 6 1 7 29 8 28 9 26 10 14 11 4 12
REMARK SMILES IDX 5 13 6 14 7 15 10 16 9 17 8 18 15 20 24 21 16 22 22 23 17 24
REMARK SMILES IDX 20 25 25 26 23 28 18 30 19 31 21 33 27 35
REMARK H PARENT 8 19 25 27 23 29 19 32 21 34 27 36
REMARK Flexibility Score: inf
ROOT
ATOM      1  C   UNL     1      45.757  30.594  16.146  1.00  0.00     0.065 A 
ATOM      2  C   UNL     1      46.965  31.300  16.049  1.00  0.00     0.208 A 
ATOM      3  O   UNL     1      47.361  31.817  14.893  1.00  0.00    -0.463 OA
ATOM      4  C   UNL     1      46.659  31.704  13.768  1.00  0.00     0.147 A 
ATOM      5  C   UNL     1      45.450  30.967  13.772  1.00  0.00     0.066 A 
ATOM      6  C   UNL     1      45.003  30.404  14.979  1.00  0.00     0.200 A 
ATOM      7  O   UNL     1      43.942  29.723  15.016  1.00  0.00    -0.288 OA
ATOM      8  C   UNL     1      44.703  30.857  12.592  1.00  0.00     0.020 A 
ATOM      9  C   UNL     1      45.103  31.526  11.441  1.00  0.00     0.047 A 
ATOM     10  C   UNL     1      46.262  32.312  11.434  1.00  0.00     0.125 A 
ATOM     11  C   UNL     1      47.104  32.359  12.588  1.00  0.00     0.069 A 
ENDROOT
BRANCH   1  12
ATOM     12  C   UNL     1      45.293  30.103  17.450  1.00  0.00    -0.011 A 
ATOM     13  C   UNL     1      44.438  30.883  18.246  1.00  0.00     0.013 A 
ATOM     14  C   UNL     1      43.963  30.377  19.468  1.00  0.00     0.047 A 
ATOM     15  C   UNL     1      44.330  29.083  19.888  1.00  0.00     0.115 A 
ATOM     16  C   UNL     1      45.692  28.836  17.898  1.00  0.00     0.013 A 
ATOM     17  C   UNL     1      45.209  28.325  19.106  1.00  0.00     0.047 A 
BRANCH  15  18
ATOM     18  O   UNL     1      43.819  28.539  21.071  1.00  0.00    -0.508 OA
ATOM     19  H   UNL     1      43.455  29.131  21.811  1.00  0.00     0.293 HD
ENDBRANCH  15  18
ENDBRANCH   1  12
BRANCH  11  20
ATOM     20  C   UNL     1      48.359  33.229  12.660  1.00  0.00     0.188 C 
ATOM     21  C   UNL     1      47.970  34.714  12.863  1.00  0.00     0.179 C 
ATOM     22  O   UNL     1      49.159  33.068  11.496  1.00  0.00    -0.362 OA
ATOM     23  C   UNL     1      49.237  35.586  12.936  1.00  0.00     0.177 C 
ATOM     24  C   UNL     1      50.391  33.768  11.625  1.00  0.00     0.176 C 
ATOM     25  C   UNL     1      50.145  35.291  11.732  1.00  0.00     0.177 C 
BRANCH  21  26
ATOM     26  O   UNL     1      47.227  34.870  14.045  1.00  0.00    -0.387 OA
ATOM     27  H   UNL     1      46.373  35.313  13.808  1.00  0.00     0.211 HD
ENDBRANCH  21  26
BRANCH  23  28
ATOM     28  O   UNL     1      49.927  35.340  14.140  1.00  0.00    -0.387 OA
ATOM     29  H   UNL     1      50.219  36.227  14.494  1.00  0.00     0.211 HD
ENDBRANCH  23  28
BRANCH  24  30
ATOM     30  C   UNL     1      51.281  33.464  10.405  1.00  0.00     0.191 C 
BRANCH  30  31
ATOM     31  O   UNL     1      51.042  34.392   9.380  1.00  0.00    -0.394 OA
ATOM     32  H   UNL     1      50.789  33.858   8.579  1.00  0.00     0.210 HD
ENDBRANCH  30  31
ENDBRANCH  24  30
BRANCH  25  33
ATOM     33  O   UNL     1      51.365  35.970  11.877  1.00  0.00    -0.388 OA
ATOM     34  H   UNL     1      51.568  36.010  12.849  1.00  0.00     0.211 HD
ENDBRANCH  25  33
ENDBRANCH  11  20
BRANCH  10  35
ATOM     35  O   UNL     1      46.506  33.065  10.279  1.00  0.00    -0.507 OA
ATOM     36  H   UNL     1      46.855  32.694   9.403  1.00  0.00     0.293 HD
ENDBRANCH  10  35
TORSDOF 9
ENDMDL
MODEL 4
REMARK VINA RESULT:    -6.480      4.405      7.005
REMARK INTER + INTRA:          -9.877
REMARK INTER:                  -9.507
REMARK INTRA:                  -0.370
REMARK UNBOUND:                -1.125
REMARK SMILES O=c1c(-c2ccc(O)cc2)coc2c([C@H]3O[C@@H](CO)[C@H](O)[C@H](O)[C@@H]3O)c(O)ccc12
REMARK SMILES IDX 3 1 11 2 12 3 13 4 30 5 2 6 1 7 29 8 28 9 26 10 14 11 4 12
REMARK SMILES IDX 5 13 6 14 7 15 10 16 9 17 8 18 15 20 24 21 16 22 22 23 17 24
REMARK SMILES IDX 20 25 25 26 23 28 18 30 19 31 21 33 27 35
REMARK H PARENT 8 19 25 27 23 29 19 32 21 34 27 36
REMARK Flexibility Score: inf
ROOT
ATOM      1  C   UNL     1      46.080  30.219  17.041  1.00  0.00     0.065 A 
ATOM      2  C   UNL     1      46.389  29.990  15.692  1.00  0.00     0.208 A 
ATOM      3  O   UNL     1      46.592  31.003  14.858  1.00  0.00    -0.463 OA
ATOM      4  C   UNL     1      46.518  32.278  15.233  1.00  0.00     0.147 A 
ATOM      5  C   UNL     1      46.168  32.593  16.569  1.00  0.00     0.066 A 
ATOM      6  C   UNL     1      45.943  31.545  17.476  1.00  0.00     0.200 A 
ATOM      7  O   UNL     1      45.609  31.787  18.668  1.00  0.00    -0.288 OA
ATOM      8  C   UNL     1      46.103  33.934  16.968  1.00  0.00     0.020 A 
ATOM      9  C   UNL     1      46.449  34.950  16.085  1.00  0.00     0.047 A 
ATOM     10  C   UNL     1      46.860  34.656  14.779  1.00  0.00     0.125 A 
ATOM     11  C   UNL     1      46.835  33.307  14.306  1.00  0.00     0.069 A 
ENDROOT
BRANCH   1  12
ATOM     12  C   UNL     1      45.943  29.087  17.967  1.00  0.00    -0.011 A 
ATOM     13  C   UNL     1      44.675  28.658  18.391  1.00  0.00     0.013 A 
ATOM     14  C   UNL     1      44.560  27.541  19.237  1.00  0.00     0.047 A 
ATOM     15  C   UNL     1      45.713  26.843  19.647  1.00  0.00     0.115 A 
ATOM     16  C   UNL     1      47.089  28.416  18.418  1.00  0.00     0.013 A 
ATOM     17  C   UNL     1      46.975  27.296  19.247  1.00  0.00     0.047 A 
BRANCH  15  18
ATOM     18  O   UNL     1      45.614  25.693  20.439  1.00  0.00    -0.508 OA
ATOM     19  H   UNL     1      46.202  25.563  21.256  1.00  0.00     0.293 HD
ENDBRANCH  15  18
ENDBRANCH   1  12
BRANCH  11  20
ATOM     20  C   UNL     1      47.309  32.914  12.906  1.00  0.00     0.188 C 
ATOM     21  C   UNL     1      46.371  31.838  12.305  1.00  0.00     0.179 C 
ATOM     22  O   UNL     1      48.654  32.456  12.933  1.00  0.00    -0.362 OA
ATOM     23  C   UNL     1      46.852  31.447  10.895  1.00  0.00     0.177 C 
ATOM     24  C   UNL     1      49.139  32.224  11.616  1.00  0.00     0.176 C 
ATOM     25  C   UNL     1      48.345  31.086  10.934  1.00  0.00     0.177 C 
BRANCH  21  26
ATOM     26  O   UNL     1      45.054  32.322  12.232  1.00  0.00    -0.387 OA
ATOM     27  H   UNL     1      44.464  31.656  12.670  1.00  0.00     0.211 HD
ENDBRANCH  21  26
BRANCH  23  28
ATOM     28  O   UNL     1      46.629  32.507   9.994  1.00  0.00    -0.387 OA
ATOM     29  H   UNL     1      45.640  32.624   9.923  1.00  0.00     0.211 HD
ENDBRANCH  23  28
BRANCH  24  30
ATOM     30  C   UNL     1      50.634  31.857  11.680  1.00  0.00     0.191 C 
BRANCH  30  31
ATOM     31  O   UNL     1      50.802  30.467  11.587  1.00  0.00    -0.394 OA
ATOM     32  H   UNL     1      50.309  30.185  10.770  1.00  0.00     0.210 HD
ENDBRANCH  30  31
ENDBRANCH  24  30
BRANCH  25  33
ATOM     33  O   UNL     1      48.820  30.878   9.630  1.00  0.00    -0.388 OA
ATOM     34  H   UNL     1      48.229  30.202   9.204  1.00  0.00     0.211 HD
ENDBRANCH  25  33
ENDBRANCH  11  20
BRANCH  10  35
ATOM     35  O   UNL     1      47.331  35.726  14.010  1.00  0.00    -0.507 OA
ATOM     36  H   UNL     1      47.694  35.652  13.066  1.00  0.00     0.293 HD
ENDBRANCH  10  35
TORSDOF 9
ENDMDL
MODEL 5
REMARK VINA RESULT:    -6.428      3.078      5.482
REMARK INTER + INTRA:          -9.808
REMARK INTER:                  -9.599
REMARK INTRA:                  -0.210
REMARK UNBOUND:                -1.125
REMARK SMILES O=c1c(-c2ccc(O)cc2)coc2c([C@H]3O[C@@H](CO)[C@H](O)[C@H](O)[C@@H]3O)c(O)ccc12
REMARK SMILES IDX 3 1 11 2 12 3 13 4 30 5 2 6 1 7 29 8 28 9 26 10 14 11 4 12
REMARK SMILES IDX 5 13 6 14 7 15 10 16 9 17 8 18 15 20 24 21 16 22 22 23 17 24
REMARK SMILES IDX 20 25 25 26 23 28 18 30 19 31 21 33 27 35
REMARK H PARENT 8 19 25 27 23 29 19 32 21 34 27 36
REMARK Flexibility Score: inf
ROOT
ATOM      1  C   UNL     1      42.993  23.521  19.591  1.00  0.00     0.065 A 
ATOM      2  C   UNL     1      43.606  24.771  19.417  1.00  0.00     0.208 A 
ATOM      3  O   UNL     1      44.800  25.023  19.940  1.00  0.00    -0.463 OA
ATOM      4  C   UNL     1      45.484  24.130  20.651  1.00  0.00     0.147 A 
ATOM      5  C   UNL     1      44.914  22.859  20.909  1.00  0.00     0.066 A 
ATOM      6  C   UNL     1      43.651  22.561  20.373  1.00  0.00     0.200 A 
ATOM      7  O   UNL     1      43.103  21.448  20.601  1.00  0.00    -0.288 OA
ATOM      8  C   UNL     1      45.638  21.914  21.647  1.00  0.00     0.020 A 
ATOM      9  C   UNL     1      46.936  22.189  22.062  1.00  0.00     0.047 A 
ATOM     10  C   UNL     1      47.542  23.415  21.761  1.00  0.00     0.125 A 
ATOM     11  C   UNL     1      46.794  24.442  21.105  1.00  0.00     0.069 A 
ENDROOT
BRANCH   1  12
ATOM     12  C   UNL     1      41.711  23.231  18.934  1.00  0.00    -0.011 A 
ATOM     13  C   UNL     1      40.538  23.892  19.331  1.00  0.00     0.013 A 
ATOM     14  C   UNL     1      39.330  23.640  18.657  1.00  0.00     0.047 A 
ATOM     15  C   UNL     1      39.299  22.738  17.575  1.00  0.00     0.115 A 
ATOM     16  C   UNL     1      41.663  22.300  17.888  1.00  0.00     0.013 A 
ATOM     17  C   UNL     1      40.466  22.059  17.207  1.00  0.00     0.047 A 
BRANCH  15  18
ATOM     18  O   UNL     1      38.120  22.521  16.853  1.00  0.00    -0.508 OA
ATOM     19  H   UNL     1      37.210  22.575  17.300  1.00  0.00     0.293 HD
ENDBRANCH  15  18
ENDBRANCH   1  12
BRANCH  11  20
ATOM     20  C   UNL     1      47.407  25.786  20.711  1.00  0.00     0.188 C 
ATOM     21  C   UNL     1      46.346  26.909  20.815  1.00  0.00     0.179 C 
ATOM     22  O   UNL     1      47.961  25.731  19.403  1.00  0.00    -0.362 OA
ATOM     23  C   UNL     1      46.969  28.261  20.419  1.00  0.00     0.177 C 
ATOM     24  C   UNL     1      48.653  26.935  19.093  1.00  0.00     0.176 C 
ATOM     25  C   UNL     1      47.676  28.133  19.060  1.00  0.00     0.177 C 
BRANCH  21  26
ATOM     26  O   UNL     1      45.845  26.992  22.125  1.00  0.00    -0.387 OA
ATOM     27  H   UNL     1      46.572  26.723  22.743  1.00  0.00     0.211 HD
ENDBRANCH  21  26
BRANCH  23  28
ATOM     28  O   UNL     1      47.880  28.684  21.407  1.00  0.00    -0.387 OA
ATOM     29  H   UNL     1      48.640  28.037  21.397  1.00  0.00     0.211 HD
ENDBRANCH  23  28
BRANCH  24  30
ATOM     30  C   UNL     1      49.347  26.786  17.725  1.00  0.00     0.191 C 
BRANCH  30  31
ATOM     31  O   UNL     1      50.416  27.689  17.618  1.00  0.00    -0.394 OA
ATOM     32  H   UNL     1      50.132  28.372  16.953  1.00  0.00     0.210 HD
ENDBRANCH  30  31
ENDBRANCH  24  30
BRANCH  25  33
ATOM     33  O   UNL     1      48.371  29.317  18.772  1.00  0.00    -0.388 OA
ATOM     34  H   UNL     1      48.446  29.831  19.619  1.00  0.00     0.211 HD
ENDBRANCH  25  33
ENDBRANCH  11  20
BRANCH  10  35
ATOM     35  O   UNL     1      48.897  23.547  22.087  1.00  0.00    -0.507 OA
ATOM     36  H   UNL     1      49.344  24.405  22.391  1.00  0.00     0.293 HD
ENDBRANCH  10  35
TORSDOF 9
ENDMDL
MODEL 6
REMARK VINA RESULT:    -6.402      3.975      6.516
REMARK INTER + INTRA:          -9.773
REMARK INTER:                  -8.978
REMARK INTRA:                  -0.795
REMARK UNBOUND:                -1.125
REMARK SMILES O=c1c(-c2ccc(O)cc2)coc2c([C@H]3O[C@@H](CO)[C@H](O)[C@H](O)[C@@H]3O)c(O)ccc12
REMARK SMILES IDX 3 1 11 2 12 3 13 4 30 5 2 6 1 7 29 8 28 9 26 10 14 11 4 12
REMARK SMILES IDX 5 13 6 14 7 15 10 16 9 17 8 18 15 20 24 21 16 22 22 23 17 24
REMARK SMILES IDX 20 25 25 26 23 28 18 30 19 31 21 33 27 35
REMARK H PARENT 8 19 25 27 23 29 19 32 21 34 27 36
REMARK Flexibility Score: inf
ROOT
ATOM      1  C   UNL     1      45.204  30.623  18.159  1.00  0.00     0.065 A 
ATOM      2  C   UNL     1      45.039  30.625  16.767  1.00  0.00     0.208 A 
ATOM      3  O   UNL     1      45.379  31.683  16.041  1.00  0.00    -0.463 OA
ATOM      4  C   UNL     1      45.889  32.793  16.571  1.00  0.00     0.147 A 
ATOM      5  C   UNL     1      46.046  32.886  17.976  1.00  0.00     0.066 A 
ATOM      6  C   UNL     1      45.693  31.785  18.773  1.00  0.00     0.200 A 
ATOM      7  O   UNL     1      45.799  31.841  20.028  1.00  0.00    -0.288 OA
ATOM      8  C   UNL     1      46.594  34.048  18.533  1.00  0.00     0.020 A 
ATOM      9  C   UNL     1      47.051  35.075  17.715  1.00  0.00     0.047 A 
ATOM     10  C   UNL     1      46.962  34.975  16.321  1.00  0.00     0.125 A 
ATOM     11  C   UNL     1      46.311  33.851  15.723  1.00  0.00     0.069 A 
ENDROOT
BRANCH   1  12
ATOM     12  C   UNL     1      44.902  29.412  18.935  1.00  0.00    -0.011 A 
ATOM     13  C   UNL     1      43.855  29.404  19.871  1.00  0.00     0.013 A 
ATOM     14  C   UNL     1      43.548  28.223  20.567  1.00  0.00     0.047 A 
ATOM     15  C   UNL     1      44.278  27.043  20.317  1.00  0.00     0.115 A 
ATOM     16  C   UNL     1      45.655  28.249  18.727  1.00  0.00     0.013 A 
ATOM     17  C   UNL     1      45.341  27.069  19.408  1.00  0.00     0.047 A 
BRANCH  15  18
ATOM     18  O   UNL     1      43.946  25.843  20.955  1.00  0.00    -0.508 OA
ATOM     19  H   UNL     1      43.405  25.834  21.814  1.00  0.00     0.293 HD
ENDBRANCH  15  18
ENDBRANCH   1  12
BRANCH  11  20
ATOM     20  C   UNL     1      46.219  33.661  14.209  1.00  0.00     0.188 C 
ATOM     21  C   UNL     1      47.411  32.813  13.702  1.00  0.00     0.179 C 
ATOM     22  O   UNL     1      46.165  34.913  13.539  1.00  0.00    -0.362 OA
ATOM     23  C   UNL     1      47.313  32.622  12.177  1.00  0.00     0.177 C 
ATOM     24  C   UNL     1      45.938  34.735  12.146  1.00  0.00     0.176 C 
ATOM     25  C   UNL     1      47.121  33.985  11.491  1.00  0.00     0.177 C 
BRANCH  21  26
ATOM     26  O   UNL     1      47.423  31.557  14.329  1.00  0.00    -0.387 OA
ATOM     27  H   UNL     1      47.347  31.707  15.306  1.00  0.00     0.211 HD
ENDBRANCH  21  26
BRANCH  23  28
ATOM     28  O   UNL     1      46.242  31.762  11.863  1.00  0.00    -0.387 OA
ATOM     29  H   UNL     1      45.898  32.041  10.968  1.00  0.00     0.211 HD
ENDBRANCH  23  28
BRANCH  24  30
ATOM     30  C   UNL     1      45.756  36.112  11.479  1.00  0.00     0.191 C 
BRANCH  30  31
ATOM     31  O   UNL     1      44.832  36.029  10.426  1.00  0.00    -0.394 OA
ATOM     32  H   UNL     1      44.700  36.960  10.102  1.00  0.00     0.210 HD
ENDBRANCH  30  31
ENDBRANCH  24  30
BRANCH  25  33
ATOM     33  O   UNL     1      46.878  33.799  10.122  1.00  0.00    -0.388 OA
ATOM     34  H   UNL     1      46.495  32.889  10.009  1.00  0.00     0.211 HD
ENDBRANCH  25  33
ENDBRANCH  11  20
BRANCH  10  35
ATOM     35  O   UNL     1      47.580  35.986  15.575  1.00  0.00    -0.507 OA
ATOM     36  H   UNL     1      48.485  35.910  15.126  1.00  0.00     0.293 HD
ENDBRANCH  10  35
TORSDOF 9
ENDMDL
MODEL 7
REMARK VINA RESULT:    -6.400      4.272      5.836
REMARK INTER + INTRA:          -9.770
REMARK INTER:                  -8.785
REMARK INTRA:                  -0.985
REMARK UNBOUND:                -1.125
REMARK SMILES O=c1c(-c2ccc(O)cc2)coc2c([C@H]3O[C@@H](CO)[C@H](O)[C@H](O)[C@@H]3O)c(O)ccc12
REMARK SMILES IDX 3 1 11 2 12 3 13 4 30 5 2 6 1 7 29 8 28 9 26 10 14 11 4 12
REMARK SMILES IDX 5 13 6 14 7 15 10 16 9 17 8 18 15 20 24 21 16 22 22 23 17 24
REMARK SMILES IDX 20 25 25 26 23 28 18 30 19 31 21 33 27 35
REMARK H PARENT 8 19 25 27 23 29 19 32 21 34 27 36
REMARK Flexibility Score: inf
ROOT
ATOM      1  C   UNL     1      45.884  29.750  17.742  1.00  0.00     0.065 A 
ATOM      2  C   UNL     1      45.364  30.739  16.895  1.00  0.00     0.208 A 
ATOM      3  O   UNL     1      46.081  31.220  15.887  1.00  0.00    -0.463 OA
ATOM      4  C   UNL     1      47.317  30.808  15.615  1.00  0.00     0.147 A 
ATOM      5  C   UNL     1      47.931  29.842  16.450  1.00  0.00     0.066 A 
ATOM      6  C   UNL     1      47.200  29.315  17.528  1.00  0.00     0.200 A 
ATOM      7  O   UNL     1      47.721  28.470  18.305  1.00  0.00    -0.288 OA
ATOM      8  C   UNL     1      49.226  29.398  16.157  1.00  0.00     0.020 A 
ATOM      9  C   UNL     1      49.882  29.843  15.015  1.00  0.00     0.047 A 
ATOM     10  C   UNL     1      49.267  30.750  14.142  1.00  0.00     0.125 A 
ATOM     11  C   UNL     1      47.991  31.304  14.466  1.00  0.00     0.069 A 
ENDROOT
BRANCH   1  12
ATOM     12  C   UNL     1      45.045  29.169  18.799  1.00  0.00    -0.011 A 
ATOM     13  C   UNL     1      44.649  29.940  19.904  1.00  0.00     0.013 A 
ATOM     14  C   UNL     1      43.805  29.384  20.880  1.00  0.00     0.047 A 
ATOM     15  C   UNL     1      43.342  28.060  20.743  1.00  0.00     0.115 A 
ATOM     16  C   UNL     1      44.620  27.837  18.695  1.00  0.00     0.013 A 
ATOM     17  C   UNL     1      43.768  27.287  19.657  1.00  0.00     0.047 A 
BRANCH  15  18
ATOM     18  O   UNL     1      42.452  27.509  21.672  1.00  0.00    -0.508 OA
ATOM     19  H   UNL     1      41.992  28.086  22.369  1.00  0.00     0.293 HD
ENDBRANCH  15  18
ENDBRANCH   1  12
BRANCH  11  20
ATOM     20  C   UNL     1      47.248  32.265  13.537  1.00  0.00     0.188 C 
ATOM     21  C   UNL     1      46.855  31.544  12.225  1.00  0.00     0.179 C 
ATOM     22  O   UNL     1      48.029  33.421  13.267  1.00  0.00    -0.362 OA
ATOM     23  C   UNL     1      46.105  32.515  11.293  1.00  0.00     0.177 C 
ATOM     24  C   UNL     1      47.284  34.375  12.519  1.00  0.00     0.176 C 
ATOM     25  C   UNL     1      46.915  33.811  11.128  1.00  0.00     0.177 C 
BRANCH  21  26
ATOM     26  O   UNL     1      46.037  30.435  12.499  1.00  0.00    -0.387 OA
ATOM     27  H   UNL     1      46.591  29.761  12.969  1.00  0.00     0.211 HD
ENDBRANCH  21  26
BRANCH  23  28
ATOM     28  O   UNL     1      44.828  32.800  11.815  1.00  0.00    -0.387 OA
ATOM     29  H   UNL     1      44.790  33.786  11.968  1.00  0.00     0.211 HD
ENDBRANCH  23  28
BRANCH  24  30
ATOM     30  C   UNL     1      48.117  35.661  12.361  1.00  0.00     0.191 C 
BRANCH  30  31
ATOM     31  O   UNL     1      47.277  36.780  12.252  1.00  0.00    -0.394 OA
ATOM     32  H   UNL     1      47.589  37.426  12.941  1.00  0.00     0.210 HD
ENDBRANCH  30  31
ENDBRANCH  24  30
BRANCH  25  33
ATOM     33  O   UNL     1      46.166  34.752  10.407  1.00  0.00    -0.388 OA
ATOM     34  H   UNL     1      45.261  34.367  10.267  1.00  0.00     0.211 HD
ENDBRANCH  25  33
ENDBRANCH  11  20
BRANCH  10  35
ATOM     35  O   UNL     1      49.939  31.026  12.945  1.00  0.00    -0.507 OA
ATOM     36  H   UNL     1      50.794  31.565  12.866  1.00  0.00     0.293 HD
ENDBRANCH  10  35
TORSDOF 9
ENDMDL
MODEL 8
REMARK VINA RESULT:    -6.329      2.463      8.263
REMARK INTER + INTRA:          -9.674
REMARK INTER:                  -8.379
REMARK INTRA:                  -1.295
REMARK UNBOUND:                -1.125
REMARK SMILES O=c1c(-c2ccc(O)cc2)coc2c([C@H]3O[C@@H](CO)[C@H](O)[C@H](O)[C@@H]3O)c(O)ccc12
REMARK SMILES IDX 3 1 11 2 12 3 13 4 30 5 2 6 1 7 29 8 28 9 26 10 14 11 4 12
REMARK SMILES IDX 5 13 6 14 7 15 10 16 9 17 8 18 15 20 24 21 16 22 22 23 17 24
REMARK SMILES IDX 20 25 25 26 23 28 18 30 19 31 21 33 27 35
REMARK H PARENT 8 19 25 27 23 29 19 32 21 34 27 36
REMARK Flexibility Score: inf
ROOT
ATOM      1  C   UNL     1      46.091  30.556  16.609  1.00  0.00     0.065 A 
ATOM      2  C   UNL     1      45.011  29.666  16.705  1.00  0.00     0.208 A 
ATOM      3  O   UNL     1      45.006  28.697  17.613  1.00  0.00    -0.463 OA
ATOM      4  C   UNL     1      46.002  28.504  18.474  1.00  0.00     0.147 A 
ATOM      5  C   UNL     1      47.149  29.334  18.412  1.00  0.00     0.066 A 
ATOM      6  C   UNL     1      47.188  30.367  17.461  1.00  0.00     0.200 A 
ATOM      7  O   UNL     1      48.200  31.111  17.363  1.00  0.00    -0.288 OA
ATOM      8  C   UNL     1      48.192  29.140  19.326  1.00  0.00     0.020 A 
ATOM      9  C   UNL     1      48.077  28.191  20.335  1.00  0.00     0.047 A 
ATOM     10  C   UNL     1      46.924  27.404  20.453  1.00  0.00     0.125 A 
ATOM     11  C   UNL     1      45.887  27.501  19.474  1.00  0.00     0.069 A 
ENDROOT
BRANCH   1  12
ATOM     12  C   UNL     1      46.040  31.675  15.657  1.00  0.00    -0.011 A 
ATOM     13  C   UNL     1      45.672  32.961  16.082  1.00  0.00     0.013 A 
ATOM     14  C   UNL     1      45.678  34.029  15.169  1.00  0.00     0.047 A 
ATOM     15  C   UNL     1      46.068  33.815  13.832  1.00  0.00     0.115 A 
ATOM     16  C   UNL     1      46.380  31.459  14.314  1.00  0.00     0.013 A 
ATOM     17  C   UNL     1      46.401  32.523  13.408  1.00  0.00     0.047 A 
BRANCH  15  18
ATOM     18  O   UNL     1      46.139  34.877  12.924  1.00  0.00    -0.508 OA
ATOM     19  H   UNL     1      46.909  34.960  12.267  1.00  0.00     0.293 HD
ENDBRANCH  15  18
ENDBRANCH   1  12
BRANCH  11  20
ATOM     20  C   UNL     1      44.587  26.702  19.567  1.00  0.00     0.188 C 
ATOM     21  C   UNL     1      43.596  27.403  20.529  1.00  0.00     0.179 C 
ATOM     22  O   UNL     1      44.837  25.366  19.981  1.00  0.00    -0.362 OA
ATOM     23  C   UNL     1      42.287  26.596  20.618  1.00  0.00     0.177 C 
ATOM     24  C   UNL     1      43.648  24.587  19.932  1.00  0.00     0.176 C 
ATOM     25  C   UNL     1      42.601  25.125  20.935  1.00  0.00     0.177 C 
BRANCH  21  26
ATOM     26  O   UNL     1      43.313  28.703  20.081  1.00  0.00    -0.387 OA
ATOM     27  H   UNL     1      42.329  28.823  20.105  1.00  0.00     0.211 HD
ENDBRANCH  21  26
BRANCH  23  28
ATOM     28  O   UNL     1      41.573  26.693  19.408  1.00  0.00    -0.387 OA
ATOM     29  H   UNL     1      42.220  26.500  18.672  1.00  0.00     0.211 HD
ENDBRANCH  23  28
BRANCH  24  30
ATOM     30  C   UNL     1      43.985  23.120  20.259  1.00  0.00     0.191 C 
BRANCH  30  31
ATOM     31  O   UNL     1      43.813  22.872  21.630  1.00  0.00    -0.394 OA
ATOM     32  H   UNL     1      43.538  23.739  22.034  1.00  0.00     0.210 HD
ENDBRANCH  30  31
ENDBRANCH  24  30
BRANCH  25  33
ATOM     33  O   UNL     1      41.426  24.361  20.866  1.00  0.00    -0.388 OA
ATOM     34  H   UNL     1      41.586  23.524  21.377  1.00  0.00     0.211 HD
ENDBRANCH  25  33
ENDBRANCH  11  20
BRANCH  10  35
ATOM     35  O   UNL     1      46.834  26.584  21.583  1.00  0.00    -0.507 OA
ATOM     36  H   UNL     1      46.084  26.610  22.265  1.00  0.00     0.293 HD
ENDBRANCH  10  35
TORSDOF 9
ENDMDL
MODEL 9
REMARK VINA RESULT:    -6.297      2.215      4.115
REMARK INTER + INTRA:          -9.631
REMARK INTER:                  -8.713
REMARK INTRA:                  -0.918
REMARK UNBOUND:                -1.125
REMARK SMILES O=c1c(-c2ccc(O)cc2)coc2c([C@H]3O[C@@H](CO)[C@H](O)[C@H](O)[C@@H]3O)c(O)ccc12
REMARK SMILES IDX 3 1 11 2 12 3 13 4 30 5 2 6 1 7 29 8 28 9 26 10 14 11 4 12
REMARK SMILES IDX 5 13 6 14 7 15 10 16 9 17 8 18 15 20 24 21 16 22 22 23 17 24
REMARK SMILES IDX 20 25 25 26 23 28 18 30 19 31 21 33 27 35
REMARK H PARENT 8 19 25 27 23 29 19 32 21 34 27 36
REMARK Flexibility Score: inf
ROOT
ATOM      1  C   UNL     1      45.106  24.294  20.243  1.00  0.00     0.065 A 
ATOM      2  C   UNL     1      46.279  24.617  19.545  1.00  0.00     0.208 A 
ATOM      3  O   UNL     1      46.504  25.856  19.127  1.00  0.00    -0.463 OA
ATOM      4  C   UNL     1      45.652  26.858  19.334  1.00  0.00     0.147 A 
ATOM      5  C   UNL     1      44.424  26.604  19.993  1.00  0.00     0.066 A 
ATOM      6  C   UNL     1      44.153  25.302  20.446  1.00  0.00     0.200 A 
ATOM      7  O   UNL     1      43.062  25.035  21.017  1.00  0.00    -0.288 OA
ATOM      8  C   UNL     1      43.533  27.660  20.223  1.00  0.00     0.020 A 
ATOM      9  C   UNL     1      43.877  28.961  19.877  1.00  0.00     0.047 A 
ATOM     10  C   UNL     1      45.113  29.242  19.282  1.00  0.00     0.125 A 
ATOM     11  C   UNL     1      46.001  28.176  18.935  1.00  0.00     0.069 A 
ENDROOT
BRANCH   1  12
ATOM     12  C   UNL     1      44.914  22.936  20.772  1.00  0.00    -0.011 A 
ATOM     13  C   UNL     1      43.723  22.235  20.528  1.00  0.00     0.013 A 
ATOM     14  C   UNL     1      43.576  20.918  20.998  1.00  0.00     0.047 A 
ATOM     15  C   UNL     1      44.628  20.297  21.700  1.00  0.00     0.115 A 
ATOM     16  C   UNL     1      45.937  22.329  21.513  1.00  0.00     0.013 A 
ATOM     17  C   UNL     1      45.799  21.015  21.968  1.00  0.00     0.047 A 
BRANCH  15  18
ATOM     18  O   UNL     1      44.524  18.967  22.122  1.00  0.00    -0.508 OA
ATOM     19  H   UNL     1      44.573  18.720  23.106  1.00  0.00     0.293 HD
ENDBRANCH  15  18
ENDBRANCH   1  12
BRANCH  11  20
ATOM     20  C   UNL     1      47.381  28.417  18.323  1.00  0.00     0.188 C 
ATOM     21  C   UNL     1      48.378  28.876  19.415  1.00  0.00     0.179 C 
ATOM     22  O   UNL     1      47.313  29.367  17.268  1.00  0.00    -0.362 OA
ATOM     23  C   UNL     1      49.767  29.116  18.795  1.00  0.00     0.177 C 
ATOM     24  C   UNL     1      48.568  29.485  16.608  1.00  0.00     0.176 C 
ATOM     25  C   UNL     1      49.641  30.040  17.573  1.00  0.00     0.177 C 
BRANCH  21  26
ATOM     26  O   UNL     1      48.480  27.905  20.426  1.00  0.00    -0.387 OA
ATOM     27  H   UNL     1      49.425  27.608  20.465  1.00  0.00     0.211 HD
ENDBRANCH  21  26
BRANCH  23  28
ATOM     28  O   UNL     1      50.351  27.889  18.421  1.00  0.00    -0.387 OA
ATOM     29  H   UNL     1      51.217  27.817  18.912  1.00  0.00     0.211 HD
ENDBRANCH  23  28
BRANCH  24  30
ATOM     30  C   UNL     1      48.419  30.421  15.393  1.00  0.00     0.191 C 
BRANCH  30  31
ATOM     31  O   UNL     1      49.297  30.037  14.368  1.00  0.00    -0.394 OA
ATOM     32  H   UNL     1      49.793  30.860  14.108  1.00  0.00     0.210 HD
ENDBRANCH  30  31
ENDBRANCH  24  30
BRANCH  25  33
ATOM     33  O   UNL     1      50.878  30.136  16.918  1.00  0.00    -0.388 OA
ATOM     34  H   UNL     1      51.551  30.418  17.594  1.00  0.00     0.211 HD
ENDBRANCH  25  33
ENDBRANCH  11  20
BRANCH  10  35
ATOM     35  O   UNL     1      45.435  30.593  19.104  1.00  0.00    -0.507 OA
ATOM     36  H   UNL     1      45.377  31.096  18.226  1.00  0.00     0.293 HD
ENDBRANCH  10  35
TORSDOF 9
ENDMDL
