MODEL 1
REMARK VINA RESULT:    -5.065      0.000      0.000
REMARK INTER + INTRA:          -5.543
REMARK INTER:                  -5.509
REMARK INTRA:                  -0.034
REMARK UNBOUND:                -0.034
REMARK SMILES O=C([O-])c1ccc(O)cc1
REMARK SMILES IDX 4 1 5 2 10 3 6 4 9 5 7 6 2 7 1 8 3 9 8 10
REMARK H PARENT 8 11
REMARK Flexibility Score: inf
ROOT
ATOM      1  C   UNL     1      -9.104 -22.602  47.635  1.00  0.00    -0.003 A 
ATOM      2  C   UNL     1      -8.703 -21.380  47.067  1.00  0.00     0.014 A 
ATOM      3  C   UNL     1      -8.123 -23.557  47.959  1.00  0.00     0.014 A 
ATOM      4  C   UNL     1      -7.350 -21.119  46.830  1.00  0.00     0.047 A 
ATOM      5  C   UNL     1      -6.771 -23.293  47.721  1.00  0.00     0.047 A 
ATOM      6  C   UNL     1      -6.381 -22.072  47.155  1.00  0.00     0.115 A 
ENDROOT
BRANCH   1   7
ATOM      7  C   UNL     1     -10.536 -22.876  47.885  1.00  0.00     0.071 C 
ATOM      8  O   UNL     1     -10.888 -23.652  48.812  1.00  0.00    -0.545 OA
ATOM      9  O   UNL     1     -11.515 -22.280  47.097  1.00  0.00    -0.545 OA
ENDBRANCH   1   7
BRANCH   6  10
ATOM     10  O   UNL     1      -5.037 -21.798  46.913  1.00  0.00    -0.508 OA
ATOM     11  H   UNL     1      -4.342 -22.536  46.891  1.00  0.00     0.293 HD
ENDBRANCH   6  10
TORSDOF 2
ENDMDL
MODEL 2
REMARK VINA RESULT:    -4.730      2.559      4.298
REMARK INTER + INTRA:          -5.179
REMARK INTER:                  -5.146
REMARK INTRA:                  -0.033
REMARK UNBOUND:                -0.034
REMARK SMILES O=C([O-])c1ccc(O)cc1
REMARK SMILES IDX 4 1 5 2 10 3 6 4 9 5 7 6 2 7 1 8 3 9 8 10
REMARK H PARENT 8 11
REMARK Flexibility Score: inf
ROOT
ATOM      1  C   UNL     1      -6.069 -24.265  47.691  1.00  0.00    -0.003 A 
ATOM      2  C   UNL     1      -5.466 -23.010  47.498  1.00  0.00     0.014 A 
ATOM      3  C   UNL     1      -7.467 -24.375  47.573  1.00  0.00     0.014 A 
ATOM      4  C   UNL     1      -6.244 -21.889  47.191  1.00  0.00     0.047 A 
ATOM      5  C   UNL     1      -8.242 -23.252  47.267  1.00  0.00     0.047 A 
ATOM      6  C   UNL     1      -7.632 -22.005  47.075  1.00  0.00     0.115 A 
ENDROOT
BRANCH   1   7
ATOM      7  C   UNL     1      -5.244 -25.449  48.015  1.00  0.00     0.071 C 
ATOM      8  O   UNL     1      -5.582 -26.595  47.615  1.00  0.00    -0.545 OA
ATOM      9  O   UNL     1      -4.083 -25.314  48.767  1.00  0.00    -0.545 OA
ENDBRANCH   1   7
BRANCH   6  10
ATOM     10  O   UNL     1      -8.394 -20.880  46.770  1.00  0.00    -0.508 OA
ATOM     11  H   UNL     1      -7.963 -19.977  46.610  1.00  0.00     0.293 HD
ENDBRANCH   6  10
TORSDOF 2
ENDMDL
MODEL 3
REMARK VINA RESULT:    -4.686     12.791     13.781
REMARK INTER + INTRA:          -5.131
REMARK INTER:                  -5.099
REMARK INTRA:                  -0.032
REMARK UNBOUND:                -0.034
REMARK SMILES O=C([O-])c1ccc(O)cc1
REMARK SMILES IDX 4 1 5 2 10 3 6 4 9 5 7 6 2 7 1 8 3 9 8 10
REMARK H PARENT 8 11
REMARK Flexibility Score: inf
ROOT
ATOM      1  C   UNL     1      -5.479 -35.826  46.673  1.00  0.00    -0.003 A 
ATOM      2  C   UNL     1      -5.060 -36.321  45.425  1.00  0.00     0.014 A 
ATOM      3  C   UNL     1      -6.203 -34.620  46.720  1.00  0.00     0.014 A 
ATOM      4  C   UNL     1      -5.359 -35.625  44.250  1.00  0.00     0.047 A 
ATOM      5  C   UNL     1      -6.500 -33.927  45.542  1.00  0.00     0.047 A 
ATOM      6  C   UNL     1      -6.078 -34.428  44.304  1.00  0.00     0.115 A 
ENDROOT
BRANCH   1   7
ATOM      7  C   UNL     1      -5.162 -36.564  47.915  1.00  0.00     0.071 C 
ATOM      8  O   UNL     1      -4.026 -37.085  48.079  1.00  0.00    -0.545 OA
ATOM      9  O   UNL     1      -6.114 -36.695  48.920  1.00  0.00    -0.545 OA
ENDBRANCH   1   7
BRANCH   6  10
ATOM     10  O   UNL     1      -6.368 -33.746  43.125  1.00  0.00    -0.508 OA
ATOM     11  H   UNL     1      -5.903 -32.876  42.888  1.00  0.00     0.293 HD
ENDBRANCH   6  10
TORSDOF 2
ENDMDL
MODEL 4
REMARK VINA RESULT:    -4.655      2.357      3.730
REMARK INTER + INTRA:          -5.098
REMARK INTER:                  -5.061
REMARK INTRA:                  -0.036
REMARK UNBOUND:                -0.034
REMARK SMILES O=C([O-])c1ccc(O)cc1
REMARK SMILES IDX 4 1 5 2 10 3 6 4 9 5 7 6 2 7 1 8 3 9 8 10
REMARK H PARENT 8 11
REMARK Flexibility Score: inf
ROOT
ATOM      1  C   UNL     1      -6.528 -22.670  47.357  1.00  0.00    -0.003 A 
ATOM      2  C   UNL     1      -5.134 -22.853  47.347  1.00  0.00     0.014 A 
ATOM      3  C   UNL     1      -7.357 -23.760  47.679  1.00  0.00     0.014 A 
ATOM      4  C   UNL     1      -4.581 -24.100  47.655  1.00  0.00     0.047 A 
ATOM      5  C   UNL     1      -6.801 -25.005  47.986  1.00  0.00     0.047 A 
ATOM      6  C   UNL     1      -5.411 -25.179  47.975  1.00  0.00     0.115 A 
ENDROOT
BRANCH   1   7
ATOM      7  C   UNL     1      -7.111 -21.350  47.031  1.00  0.00     0.071 C 
ATOM      8  O   UNL     1      -8.360 -21.183  47.025  1.00  0.00    -0.545 OA
ATOM      9  O   UNL     1      -6.287 -20.272  46.725  1.00  0.00    -0.545 OA
ENDBRANCH   1   7
BRANCH   6  10
ATOM     10  O   UNL     1      -4.846 -26.415  48.279  1.00  0.00    -0.508 OA
ATOM     11  H   UNL     1      -3.854 -26.513  48.463  1.00  0.00     0.293 HD
ENDBRANCH   6  10
TORSDOF 2
ENDMDL
MODEL 5
REMARK VINA RESULT:    -4.629      1.390      4.579
REMARK INTER + INTRA:          -5.069
REMARK INTER:                  -5.033
REMARK INTRA:                  -0.036
REMARK UNBOUND:                -0.034
REMARK SMILES O=C([O-])c1ccc(O)cc1
REMARK SMILES IDX 4 1 5 2 10 3 6 4 9 5 7 6 2 7 1 8 3 9 8 10
REMARK H PARENT 8 11
REMARK Flexibility Score: inf
ROOT
ATOM      1  C   UNL     1      -6.151 -22.977  47.482  1.00  0.00    -0.003 A 
ATOM      2  C   UNL     1      -7.159 -23.872  47.885  1.00  0.00     0.014 A 
ATOM      3  C   UNL     1      -6.518 -21.693  47.038  1.00  0.00     0.014 A 
ATOM      4  C   UNL     1      -8.503 -23.490  47.847  1.00  0.00     0.047 A 
ATOM      5  C   UNL     1      -7.864 -21.315  47.002  1.00  0.00     0.047 A 
ATOM      6  C   UNL     1      -8.860 -22.213  47.405  1.00  0.00     0.115 A 
ENDROOT
BRANCH   1   7
ATOM      7  C   UNL     1      -4.730 -23.383  47.523  1.00  0.00     0.071 C 
ATOM      8  O   UNL     1      -4.380 -24.431  48.129  1.00  0.00    -0.545 OA
ATOM      9  O   UNL     1      -3.758 -22.613  46.894  1.00  0.00    -0.545 OA
ENDBRANCH   1   7
BRANCH   6  10
ATOM     10  O   UNL     1     -10.203 -21.846  47.372  1.00  0.00    -0.508 OA
ATOM     11  H   UNL     1     -10.902 -22.433  46.929  1.00  0.00     0.293 HD
ENDBRANCH   6  10
TORSDOF 2
ENDMDL
MODEL 6
REMARK VINA RESULT:    -4.535      2.257      3.292
REMARK INTER + INTRA:          -4.967
REMARK INTER:                  -4.931
REMARK INTRA:                  -0.036
REMARK UNBOUND:                -0.034
REMARK SMILES O=C([O-])c1ccc(O)cc1
REMARK SMILES IDX 4 1 5 2 10 3 6 4 9 5 7 6 2 7 1 8 3 9 8 10
REMARK H PARENT 8 11
REMARK Flexibility Score: inf
ROOT
ATOM      1  C   UNL     1      -7.035 -23.104  47.452  1.00  0.00    -0.003 A 
ATOM      2  C   UNL     1      -7.284 -24.448  47.783  1.00  0.00     0.014 A 
ATOM      3  C   UNL     1      -5.703 -22.669  47.326  1.00  0.00     0.014 A 
ATOM      4  C   UNL     1      -6.224 -25.337  47.981  1.00  0.00     0.047 A 
ATOM      5  C   UNL     1      -4.645 -23.562  47.525  1.00  0.00     0.047 A 
ATOM      6  C   UNL     1      -4.903 -24.899  47.854  1.00  0.00     0.115 A 
ENDROOT
BRANCH   1   7
ATOM      7  C   UNL     1      -8.158 -22.164  47.243  1.00  0.00     0.071 C 
ATOM      8  O   UNL     1      -7.941 -20.970  46.904  1.00  0.00    -0.545 OA
ATOM      9  O   UNL     1      -9.471 -22.586  47.418  1.00  0.00    -0.545 OA
ENDBRANCH   1   7
BRANCH   6  10
ATOM     10  O   UNL     1      -3.857 -25.796  48.054  1.00  0.00    -0.508 OA
ATOM     11  H   UNL     1      -2.914 -25.476  48.242  1.00  0.00     0.293 HD
ENDBRANCH   6  10
TORSDOF 2
ENDMDL
MODEL 7
REMARK VINA RESULT:    -4.416     10.103     12.960
REMARK INTER + INTRA:          -4.837
REMARK INTER:                  -4.801
REMARK INTRA:                  -0.036
REMARK UNBOUND:                -0.034
REMARK SMILES O=C([O-])c1ccc(O)cc1
REMARK SMILES IDX 4 1 5 2 10 3 6 4 9 5 7 6 2 7 1 8 3 9 8 10
REMARK H PARENT 8 11
REMARK Flexibility Score: inf
ROOT
ATOM      1  C   UNL     1       4.296 -20.256  46.484  1.00  0.00    -0.003 A 
ATOM      2  C   UNL     1       3.446 -19.746  45.486  1.00  0.00     0.014 A 
ATOM      3  C   UNL     1       3.806 -21.245  47.356  1.00  0.00     0.014 A 
ATOM      4  C   UNL     1       2.136 -20.218  45.363  1.00  0.00     0.047 A 
ATOM      5  C   UNL     1       2.495 -21.714  47.230  1.00  0.00     0.047 A 
ATOM      6  C   UNL     1       1.656 -21.201  46.233  1.00  0.00     0.115 A 
ENDROOT
BRANCH   1   7
ATOM      7  C   UNL     1       5.682 -19.756  46.612  1.00  0.00     0.071 C 
ATOM      8  O   UNL     1       6.450 -20.216  47.498  1.00  0.00    -0.545 OA
ATOM      9  O   UNL     1       6.157 -18.769  45.755  1.00  0.00    -0.545 OA
ENDBRANCH   1   7
BRANCH   6  10
ATOM     10  O   UNL     1       0.348 -21.660  46.098  1.00  0.00    -0.508 OA
ATOM     11  H   UNL     1      -0.117 -21.677  45.197  1.00  0.00     0.293 HD
ENDBRANCH   6  10
TORSDOF 2
ENDMDL
MODEL 8
REMARK VINA RESULT:    -4.412     10.133     13.063
REMARK INTER + INTRA:          -4.832
REMARK INTER:                  -4.796
REMARK INTRA:                  -0.036
REMARK UNBOUND:                -0.034
REMARK SMILES O=C([O-])c1ccc(O)cc1
REMARK SMILES IDX 4 1 5 2 10 3 6 4 9 5 7 6 2 7 1 8 3 9 8 10
REMARK H PARENT 8 11
REMARK Flexibility Score: inf
ROOT
ATOM      1  C   UNL     1       4.319 -20.246  46.479  1.00  0.00    -0.003 A 
ATOM      2  C   UNL     1       3.824 -21.250  47.331  1.00  0.00     0.014 A 
ATOM      3  C   UNL     1       3.476 -19.721  45.483  1.00  0.00     0.014 A 
ATOM      4  C   UNL     1       2.513 -21.716  47.190  1.00  0.00     0.047 A 
ATOM      5  C   UNL     1       2.166 -20.189  45.346  1.00  0.00     0.047 A 
ATOM      6  C   UNL     1       1.681 -21.189  46.199  1.00  0.00     0.115 A 
ENDROOT
BRANCH   1   7
ATOM      7  C   UNL     1       5.706 -19.755  46.630  1.00  0.00     0.071 C 
ATOM      8  O   UNL     1       6.449 -20.203  47.544  1.00  0.00    -0.545 OA
ATOM      9  O   UNL     1       6.210 -18.791  45.764  1.00  0.00    -0.545 OA
ENDBRANCH   1   7
BRANCH   6  10
ATOM     10  O   UNL     1       0.378 -21.663  46.071  1.00  0.00    -0.508 OA
ATOM     11  H   UNL     1      -0.347 -21.405  46.731  1.00  0.00     0.293 HD
ENDBRANCH   6  10
TORSDOF 2
ENDMDL
