MODEL 1
REMARK VINA RESULT:    -5.586      0.000      0.000
REMARK INTER + INTRA:          -5.600
REMARK INTER:                  -6.076
REMARK INTRA:                   0.476
REMARK UNBOUND:                 0.476
REMARK SMILES C[C@H]1[C@H](C)CC[C@]2(C(=O)[O-])CC[C@]3(C)C(=CC[C@H]4[C@]5(C)CC[C@H](O)C(C)(C)[C@H]5CC[C@]43C)[C@@H]12
REMARK SMILES IDX 7 1 6 2 11 3 33 4 5 5 12 6 15 7 2 8 3 9 13 10 16 11 1 12
REMARK SMILES IDX 4 13 14 14 31 15 17 16 18 17 30 18 32 19 19 20 29 21 28 22
REMARK SMILES IDX 21 23 20 24 25 25 22 26 23 27 26 28 27 29 8 30 9 31 10 32
REMARK SMILES IDX 24 33
REMARK H PARENT 24 34
REMARK Flexibility Score: inf
ROOT
ATOM      1  C   UNL     1      -5.730 -57.835 -24.072  1.00  0.00     0.017 C 
ATOM      2  C   UNL     1      -7.124 -58.429 -24.447  1.00  0.00     0.014 C 
ATOM      3  C   UNL     1      -5.885 -56.295 -23.972  1.00  0.00     0.014 C 
ATOM      4  C   UNL     1      -4.728 -58.205 -25.218  1.00  0.00     0.030 C 
ATOM      5  C   UNL     1      -7.101 -59.943 -24.733  1.00  0.00     0.004 C 
ATOM      6  C   UNL     1      -4.545 -55.525 -23.926  1.00  0.00     0.013 C 
ATOM      7  C   UNL     1      -3.430 -57.373 -25.133  1.00  0.00    -0.063 C 
ATOM      8  C   UNL     1      -4.629 -59.761 -25.441  1.00  0.00    -0.003 C 
ATOM      9  C   UNL     1      -6.032 -60.355 -25.776  1.00  0.00    -0.011 C 
ATOM     10  C   UNL     1      -3.551 -55.841 -25.105  1.00  0.00    -0.006 C 
ATOM     11  C   UNL     1      -2.238 -57.964 -25.035  1.00  0.00    -0.027 C 
ATOM     12  C   UNL     1      -4.003 -60.585 -24.280  1.00  0.00     0.008 C 
ATOM     13  C   UNL     1      -6.487 -60.031 -27.211  1.00  0.00     0.008 C 
ATOM     14  C   UNL     1      -4.207 -55.388 -26.452  1.00  0.00     0.017 C 
ATOM     15  C   UNL     1      -2.119 -55.071 -24.930  1.00  0.00    -0.020 C 
ATOM     16  C   UNL     1      -1.050 -57.330 -24.404  1.00  0.00     0.032 C 
ATOM     17  C   UNL     1      -1.190 -55.845 -23.909  1.00  0.00     0.006 C 
ATOM     18  C   UNL     1      -1.312 -54.989 -26.292  1.00  0.00     0.008 C 
ATOM     19  C   UNL     1      -2.459 -53.613 -24.430  1.00  0.00     0.012 C 
ATOM     20  C   UNL     1       0.268 -55.181 -23.632  1.00  0.00    -0.025 C 
ATOM     21  C   UNL     1       0.248 -54.867 -26.196  1.00  0.00     0.005 C 
ATOM     22  C   UNL     1       0.703 -54.281 -24.847  1.00  0.00     0.003 C 
ATOM     23  C   UNL     1       0.249 -54.239 -22.390  1.00  0.00     0.010 C 
ATOM     24  C   UNL     1       1.304 -56.314 -23.305  1.00  0.00     0.012 C 
ATOM     25  C   UNL     1       2.100 -53.552 -24.742  1.00  0.00    -0.006 C 
ATOM     26  C   UNL     1       1.589 -53.485 -22.161  1.00  0.00     0.033 C 
ATOM     27  C   UNL     1       2.118 -52.721 -23.401  1.00  0.00     0.120 C 
ATOM     28  C   UNL     1       3.320 -54.505 -24.820  1.00  0.00     0.014 C 
ATOM     29  C   UNL     1       2.273 -52.557 -25.929  1.00  0.00     0.014 C 
ENDROOT
BRANCH   1  30
ATOM     30  C   UNL     1      -5.276 -58.333 -22.701  1.00  0.00     0.048 C 
ATOM     31  O   UNL     1      -4.189 -57.936 -22.202  1.00  0.00    -0.550 OA
ATOM     32  O   UNL     1      -6.095 -59.159 -21.938  1.00  0.00    -0.550 OA
ENDBRANCH   1  30
BRANCH  27  33
ATOM     33  O   UNL     1       1.340 -51.554 -23.537  1.00  0.00    -0.393 OA
ATOM     34  H   UNL     1       0.482 -51.811 -23.965  1.00  0.00     0.210 HD
ENDBRANCH  27  33
TORSDOF 2
ENDMDL
MODEL 2
REMARK VINA RESULT:    -5.581      3.165      7.355
REMARK INTER + INTRA:          -5.595
REMARK INTER:                  -6.124
REMARK INTRA:                   0.529
REMARK UNBOUND:                 0.476
REMARK SMILES C[C@H]1[C@H](C)CC[C@]2(C(=O)[O-])CC[C@]3(C)C(=CC[C@H]4[C@]5(C)CC[C@H](O)C(C)(C)[C@H]5CC[C@]43C)[C@@H]12
REMARK SMILES IDX 7 1 6 2 11 3 33 4 5 5 12 6 15 7 2 8 3 9 13 10 16 11 1 12
REMARK SMILES IDX 4 13 14 14 31 15 17 16 18 17 30 18 32 19 19 20 29 21 28 22
REMARK SMILES IDX 21 23 20 24 25 25 22 26 23 27 26 28 27 29 8 30 9 31 10 32
REMARK SMILES IDX 24 33
REMARK H PARENT 24 34
REMARK Flexibility Score: inf
ROOT
ATOM      1  C   UNL     1       1.797 -56.112 -24.665  1.00  0.00     0.017 C 
ATOM      2  C   UNL     1       2.871 -56.814 -25.555  1.00  0.00     0.014 C 
ATOM      3  C   UNL     1       0.656 -57.132 -24.410  1.00  0.00     0.014 C 
ATOM      4  C   UNL     1       1.252 -54.876 -25.457  1.00  0.00     0.030 C 
ATOM      5  C   UNL     1       4.002 -55.878 -26.022  1.00  0.00     0.004 C 
ATOM      6  C   UNL     1      -0.630 -56.509 -23.822  1.00  0.00     0.013 C 
ATOM      7  C   UNL     1      -0.052 -54.330 -24.836  1.00  0.00    -0.063 C 
ATOM      8  C   UNL     1       2.397 -53.868 -25.847  1.00  0.00    -0.003 C 
ATOM      9  C   UNL     1       3.488 -54.584 -26.702  1.00  0.00    -0.011 C 
ATOM     10  C   UNL     1      -1.225 -55.304 -24.639  1.00  0.00    -0.006 C 
ATOM     11  C   UNL     1      -0.146 -53.061 -24.435  1.00  0.00    -0.027 C 
ATOM     12  C   UNL     1       3.094 -53.128 -24.670  1.00  0.00     0.008 C 
ATOM     13  C   UNL     1       3.028 -54.849 -28.149  1.00  0.00     0.008 C 
ATOM     14  C   UNL     1      -1.661 -55.820 -26.052  1.00  0.00     0.017 C 
ATOM     15  C   UNL     1      -2.520 -54.633 -23.900  1.00  0.00    -0.020 C 
ATOM     16  C   UNL     1      -1.072 -52.599 -23.367  1.00  0.00     0.032 C 
ATOM     17  C   UNL     1      -2.058 -53.652 -22.747  1.00  0.00     0.006 C 
ATOM     18  C   UNL     1      -3.398 -53.767 -24.897  1.00  0.00     0.008 C 
ATOM     19  C   UNL     1      -3.382 -55.832 -23.344  1.00  0.00     0.012 C 
ATOM     20  C   UNL     1      -3.250 -52.920 -21.918  1.00  0.00    -0.025 C 
ATOM     21  C   UNL     1      -4.255 -52.610 -24.278  1.00  0.00     0.005 C 
ATOM     22  C   UNL     1      -4.560 -52.846 -22.787  1.00  0.00     0.003 C 
ATOM     23  C   UNL     1      -3.635 -53.716 -20.634  1.00  0.00     0.010 C 
ATOM     24  C   UNL     1      -2.757 -51.513 -21.428  1.00  0.00     0.012 C 
ATOM     25  C   UNL     1      -5.824 -52.165 -22.130  1.00  0.00    -0.006 C 
ATOM     26  C   UNL     1      -4.856 -53.121 -19.876  1.00  0.00     0.033 C 
ATOM     27  C   UNL     1      -6.109 -52.889 -20.756  1.00  0.00     0.120 C 
ATOM     28  C   UNL     1      -5.691 -50.634 -21.932  1.00  0.00     0.014 C 
ATOM     29  C   UNL     1      -7.070 -52.360 -23.045  1.00  0.00     0.014 C 
ENDROOT
BRANCH   1  30
ATOM     30  C   UNL     1       2.379 -55.737 -23.303  1.00  0.00     0.048 C 
ATOM     31  O   UNL     1       1.632 -55.309 -22.382  1.00  0.00    -0.550 OA
ATOM     32  O   UNL     1       3.725 -55.947 -23.023  1.00  0.00    -0.550 OA
ENDBRANCH   1  30
BRANCH  27  33
ATOM     33  O   UNL     1      -6.704 -54.147 -20.979  1.00  0.00    -0.393 OA
ATOM     34  H   UNL     1      -6.711 -54.309 -21.958  1.00  0.00     0.210 HD
ENDBRANCH  27  33
TORSDOF 2
ENDMDL
MODEL 3
REMARK VINA RESULT:    -5.529      1.042      1.156
REMARK INTER + INTRA:          -5.538
REMARK INTER:                  -6.006
REMARK INTRA:                   0.468
REMARK UNBOUND:                 0.476
REMARK SMILES C[C@H]1[C@H](C)CC[C@]2(C(=O)[O-])CC[C@]3(C)C(=CC[C@H]4[C@]5(C)CC[C@H](O)C(C)(C)[C@H]5CC[C@]43C)[C@@H]12
REMARK SMILES IDX 7 1 6 2 11 3 33 4 5 5 12 6 15 7 2 8 3 9 13 10 16 11 1 12
REMARK SMILES IDX 4 13 14 14 31 15 17 16 18 17 30 18 32 19 19 20 29 21 28 22
REMARK SMILES IDX 21 23 20 24 25 25 22 26 23 27 26 28 27 29 8 30 9 31 10 32
REMARK SMILES IDX 24 33
REMARK H PARENT 24 34
REMARK Flexibility Score: inf
ROOT
ATOM      1  C   UNL     1      -5.121 -58.074 -25.222  1.00  0.00     0.017 C 
ATOM      2  C   UNL     1      -6.254 -58.865 -25.948  1.00  0.00     0.014 C 
ATOM      3  C   UNL     1      -5.407 -56.560 -25.409  1.00  0.00     0.014 C 
ATOM      4  C   UNL     1      -3.761 -58.455 -25.898  1.00  0.00     0.030 C 
ATOM      5  C   UNL     1      -6.028 -60.388 -25.982  1.00  0.00     0.004 C 
ATOM      6  C   UNL     1      -4.223 -55.641 -25.033  1.00  0.00     0.013 C 
ATOM      7  C   UNL     1      -2.634 -57.474 -25.509  1.00  0.00    -0.063 C 
ATOM      8  C   UNL     1      -3.483 -60.004 -25.842  1.00  0.00    -0.003 C 
ATOM      9  C   UNL     1      -4.638 -60.792 -26.534  1.00  0.00    -0.011 C 
ATOM     10  C   UNL     1      -2.863 -55.973 -25.750  1.00  0.00    -0.006 C 
ATOM     11  C   UNL     1      -1.511 -57.907 -24.932  1.00  0.00    -0.027 C 
ATOM     12  C   UNL     1      -3.243 -60.610 -24.430  1.00  0.00     0.008 C 
ATOM     13  C   UNL     1      -4.588 -60.691 -28.071  1.00  0.00     0.008 C 
ATOM     14  C   UNL     1      -3.041 -55.758 -27.291  1.00  0.00     0.017 C 
ATOM     15  C   UNL     1      -1.638 -55.028 -25.224  1.00  0.00    -0.020 C 
ATOM     16  C   UNL     1      -0.664 -57.071 -24.042  1.00  0.00     0.032 C 
ATOM     17  C   UNL     1      -1.069 -55.565 -23.848  1.00  0.00     0.006 C 
ATOM     18  C   UNL     1      -0.416 -55.011 -26.235  1.00  0.00     0.008 C 
ATOM     19  C   UNL     1      -2.230 -53.571 -25.089  1.00  0.00     0.012 C 
ATOM     20  C   UNL     1       0.153 -54.709 -23.202  1.00  0.00    -0.025 C 
ATOM     21  C   UNL     1       1.001 -54.698 -25.642  1.00  0.00     0.005 C 
ATOM     22  C   UNL     1       0.919 -53.911 -24.321  1.00  0.00     0.003 C 
ATOM     23  C   UNL     1      -0.361 -53.639 -22.192  1.00  0.00     0.010 C 
ATOM     24  C   UNL     1       1.087 -55.669 -22.383  1.00  0.00     0.012 C 
ATOM     25  C   UNL     1       2.138 -53.018 -23.865  1.00  0.00    -0.006 C 
ATOM     26  C   UNL     1       0.761 -52.712 -21.643  1.00  0.00     0.033 C 
ATOM     27  C   UNL     1       1.632 -52.041 -22.734  1.00  0.00     0.120 C 
ATOM     28  C   UNL     1       3.373 -53.825 -23.388  1.00  0.00     0.014 C 
ATOM     29  C   UNL     1       2.643 -52.154 -25.060  1.00  0.00     0.014 C 
ENDROOT
BRANCH   1  30
ATOM     30  C   UNL     1      -5.138 -58.353 -23.720  1.00  0.00     0.048 C 
ATOM     31  O   UNL     1      -4.298 -57.806 -22.956  1.00  0.00    -0.550 OA
ATOM     32  O   UNL     1      -6.134 -59.142 -23.155  1.00  0.00    -0.550 OA
ENDBRANCH   1  30
BRANCH  27  33
ATOM     33  O   UNL     1       0.871 -50.995 -23.294  1.00  0.00    -0.393 OA
ATOM     34  H   UNL     1      -0.088 -51.226 -23.182  1.00  0.00     0.210 HD
ENDBRANCH  27  33
TORSDOF 2
ENDMDL
MODEL 4
REMARK VINA RESULT:    -5.158      2.137      7.813
REMARK INTER + INTRA:          -5.135
REMARK INTER:                  -5.595
REMARK INTRA:                   0.460
REMARK UNBOUND:                 0.476
REMARK SMILES C[C@H]1[C@H](C)CC[C@]2(C(=O)[O-])CC[C@]3(C)C(=CC[C@H]4[C@]5(C)CC[C@H](O)C(C)(C)[C@H]5CC[C@]43C)[C@@H]12
REMARK SMILES IDX 7 1 6 2 11 3 33 4 5 5 12 6 15 7 2 8 3 9 13 10 16 11 1 12
REMARK SMILES IDX 4 13 14 14 31 15 17 16 18 17 30 18 32 19 19 20 29 21 28 22
REMARK SMILES IDX 21 23 20 24 25 25 22 26 23 27 26 28 27 29 8 30 9 31 10 32
REMARK SMILES IDX 24 33
REMARK H PARENT 24 34
REMARK Flexibility Score: inf
ROOT
ATOM      1  C   UNL     1       0.563 -53.737 -24.253  1.00  0.00     0.017 C 
ATOM      2  C   UNL     1       1.342 -52.409 -23.994  1.00  0.00     0.014 C 
ATOM      3  C   UNL     1       0.455 -53.928 -25.789  1.00  0.00     0.014 C 
ATOM      4  C   UNL     1      -0.863 -53.586 -23.624  1.00  0.00     0.030 C 
ATOM      5  C   UNL     1       1.402 -52.000 -22.510  1.00  0.00     0.004 C 
ATOM      6  C   UNL     1      -0.556 -55.015 -26.222  1.00  0.00     0.013 C 
ATOM      7  C   UNL     1      -1.829 -54.680 -24.129  1.00  0.00    -0.063 C 
ATOM      8  C   UNL     1      -0.802 -53.268 -22.083  1.00  0.00    -0.003 C 
ATOM      9  C   UNL     1       0.012 -51.962 -21.827  1.00  0.00    -0.011 C 
ATOM     10  C   UNL     1      -2.011 -54.844 -25.647  1.00  0.00    -0.006 C 
ATOM     11  C   UNL     1      -2.452 -55.496 -23.277  1.00  0.00    -0.027 C 
ATOM     12  C   UNL     1      -0.239 -54.393 -21.169  1.00  0.00     0.008 C 
ATOM     13  C   UNL     1      -0.771 -50.690 -22.207  1.00  0.00     0.008 C 
ATOM     14  C   UNL     1      -2.618 -53.512 -26.202  1.00  0.00     0.017 C 
ATOM     15  C   UNL     1      -2.990 -56.085 -26.062  1.00  0.00    -0.020 C 
ATOM     16  C   UNL     1      -2.915 -56.864 -23.631  1.00  0.00     0.032 C 
ATOM     17  C   UNL     1      -2.741 -57.333 -25.121  1.00  0.00     0.006 C 
ATOM     18  C   UNL     1      -4.525 -55.714 -25.911  1.00  0.00     0.008 C 
ATOM     19  C   UNL     1      -2.673 -56.412 -27.573  1.00  0.00     0.012 C 
ATOM     20  C   UNL     1      -3.646 -58.648 -25.430  1.00  0.00    -0.025 C 
ATOM     21  C   UNL     1      -5.528 -56.893 -25.665  1.00  0.00     0.005 C 
ATOM     22  C   UNL     1      -4.976 -58.240 -26.167  1.00  0.00     0.003 C 
ATOM     23  C   UNL     1      -2.917 -59.640 -26.385  1.00  0.00     0.010 C 
ATOM     24  C   UNL     1      -3.899 -59.433 -24.095  1.00  0.00     0.012 C 
ATOM     25  C   UNL     1      -5.974 -59.402 -26.548  1.00  0.00    -0.006 C 
ATOM     26  C   UNL     1      -3.794 -60.852 -26.809  1.00  0.00     0.033 C 
ATOM     27  C   UNL     1      -5.179 -60.473 -27.390  1.00  0.00     0.120 C 
ATOM     28  C   UNL     1      -6.675 -60.061 -25.333  1.00  0.00     0.014 C 
ATOM     29  C   UNL     1      -7.125 -58.845 -27.439  1.00  0.00     0.014 C 
ENDROOT
BRANCH   1  30
ATOM     30  C   UNL     1       1.333 -54.936 -23.703  1.00  0.00     0.048 C 
ATOM     31  O   UNL     1       0.853 -56.099 -23.784  1.00  0.00    -0.550 OA
ATOM     32  O   UNL     1       2.615 -54.782 -23.187  1.00  0.00    -0.550 OA
ENDBRANCH   1  30
BRANCH  27  33
ATOM     33  O   UNL     1      -4.969 -60.007 -28.704  1.00  0.00    -0.393 OA
ATOM     34  H   UNL     1      -5.078 -60.778 -29.319  1.00  0.00     0.210 HD
ENDBRANCH  27  33
TORSDOF 2
ENDMDL
MODEL 5
REMARK VINA RESULT:    -4.988      5.356      7.574
REMARK INTER + INTRA:          -4.950
REMARK INTER:                  -5.440
REMARK INTRA:                   0.490
REMARK UNBOUND:                 0.476
REMARK SMILES C[C@H]1[C@H](C)CC[C@]2(C(=O)[O-])CC[C@]3(C)C(=CC[C@H]4[C@]5(C)CC[C@H](O)C(C)(C)[C@H]5CC[C@]43C)[C@@H]12
REMARK SMILES IDX 7 1 6 2 11 3 33 4 5 5 12 6 15 7 2 8 3 9 13 10 16 11 1 12
REMARK SMILES IDX 4 13 14 14 31 15 17 16 18 17 30 18 32 19 19 20 29 21 28 22
REMARK SMILES IDX 21 23 20 24 25 25 22 26 23 27 26 28 27 29 8 30 9 31 10 32
REMARK SMILES IDX 24 33
REMARK H PARENT 24 34
REMARK Flexibility Score: inf
ROOT
ATOM      1  C   UNL     1      -4.109 -54.455 -24.173  1.00  0.00     0.017 C 
ATOM      2  C   UNL     1      -4.099 -56.003 -23.973  1.00  0.00     0.014 C 
ATOM      3  C   UNL     1      -2.945 -53.864 -23.336  1.00  0.00     0.014 C 
ATOM      4  C   UNL     1      -5.482 -53.913 -23.651  1.00  0.00     0.030 C 
ATOM      5  C   UNL     1      -5.295 -56.724 -24.624  1.00  0.00     0.004 C 
ATOM      6  C   UNL     1      -3.005 -52.329 -23.162  1.00  0.00     0.013 C 
ATOM      7  C   UNL     1      -5.458 -52.380 -23.465  1.00  0.00    -0.063 C 
ATOM      8  C   UNL     1      -6.704 -54.578 -24.390  1.00  0.00    -0.003 C 
ATOM      9  C   UNL     1      -6.667 -56.128 -24.220  1.00  0.00    -0.011 C 
ATOM     10  C   UNL     1      -4.357 -51.773 -22.581  1.00  0.00    -0.006 C 
ATOM     11  C   UNL     1      -6.336 -51.596 -24.094  1.00  0.00    -0.027 C 
ATOM     12  C   UNL     1      -6.859 -54.246 -25.901  1.00  0.00     0.008 C 
ATOM     13  C   UNL     1      -7.086 -56.581 -22.808  1.00  0.00     0.008 C 
ATOM     14  C   UNL     1      -4.548 -52.330 -21.130  1.00  0.00     0.017 C 
ATOM     15  C   UNL     1      -4.383 -50.140 -22.527  1.00  0.00    -0.020 C 
ATOM     16  C   UNL     1      -6.075 -50.174 -24.439  1.00  0.00     0.032 C 
ATOM     17  C   UNL     1      -4.723 -49.539 -23.951  1.00  0.00     0.006 C 
ATOM     18  C   UNL     1      -5.492 -49.590 -21.535  1.00  0.00     0.008 C 
ATOM     19  C   UNL     1      -2.957 -49.691 -22.022  1.00  0.00     0.012 C 
ATOM     20  C   UNL     1      -4.772 -47.916 -24.044  1.00  0.00    -0.025 C 
ATOM     21  C   UNL     1      -6.057 -48.155 -21.815  1.00  0.00     0.005 C 
ATOM     22  C   UNL     1      -5.077 -47.292 -22.631  1.00  0.00     0.003 C 
ATOM     23  C   UNL     1      -3.401 -47.321 -24.486  1.00  0.00     0.010 C 
ATOM     24  C   UNL     1      -5.809 -47.488 -25.142  1.00  0.00     0.012 C 
ATOM     25  C   UNL     1      -5.156 -45.718 -22.540  1.00  0.00    -0.006 C 
ATOM     26  C   UNL     1      -3.364 -45.766 -24.468  1.00  0.00     0.033 C 
ATOM     27  C   UNL     1      -3.817 -45.127 -23.131  1.00  0.00     0.120 C 
ATOM     28  C   UNL     1      -6.392 -45.102 -23.243  1.00  0.00     0.014 C 
ATOM     29  C   UNL     1      -5.261 -45.276 -21.049  1.00  0.00     0.014 C 
ENDROOT
BRANCH   1  30
ATOM     30  C   UNL     1      -3.843 -54.093 -25.633  1.00  0.00     0.048 C 
ATOM     31  O   UNL     1      -3.987 -52.908 -26.037  1.00  0.00    -0.550 OA
ATOM     32  O   UNL     1      -3.349 -55.041 -26.522  1.00  0.00    -0.550 OA
ENDBRANCH   1  30
BRANCH  27  33
ATOM     33  O   UNL     1      -2.762 -45.287 -22.211  1.00  0.00    -0.393 OA
ATOM     34  H   UNL     1      -2.879 -46.167 -21.766  1.00  0.00     0.210 HD
ENDBRANCH  27  33
TORSDOF 2
ENDMDL
MODEL 6
REMARK VINA RESULT:    -4.932      4.494      8.613
REMARK INTER + INTRA:          -4.889
REMARK INTER:                  -5.355
REMARK INTRA:                   0.465
REMARK UNBOUND:                 0.476
REMARK SMILES C[C@H]1[C@H](C)CC[C@]2(C(=O)[O-])CC[C@]3(C)C(=CC[C@H]4[C@]5(C)CC[C@H](O)C(C)(C)[C@H]5CC[C@]43C)[C@@H]12
REMARK SMILES IDX 7 1 6 2 11 3 33 4 5 5 12 6 15 7 2 8 3 9 13 10 16 11 1 12
REMARK SMILES IDX 4 13 14 14 31 15 17 16 18 17 30 18 32 19 19 20 29 21 28 22
REMARK SMILES IDX 21 23 20 24 25 25 22 26 23 27 26 28 27 29 8 30 9 31 10 32
REMARK SMILES IDX 24 33
REMARK H PARENT 24 34
REMARK Flexibility Score: inf
ROOT
ATOM      1  C   UNL     1      -5.656 -54.606 -26.090  1.00  0.00     0.017 C 
ATOM      2  C   UNL     1      -5.795 -53.948 -24.681  1.00  0.00     0.014 C 
ATOM      3  C   UNL     1      -6.975 -55.366 -26.388  1.00  0.00     0.014 C 
ATOM      4  C   UNL     1      -4.454 -55.610 -26.033  1.00  0.00     0.030 C 
ATOM      5  C   UNL     1      -4.503 -53.279 -24.174  1.00  0.00     0.004 C 
ATOM      6  C   UNL     1      -6.891 -56.335 -27.589  1.00  0.00     0.013 C 
ATOM      7  C   UNL     1      -4.454 -56.570 -27.242  1.00  0.00    -0.063 C 
ATOM      8  C   UNL     1      -3.111 -54.904 -25.613  1.00  0.00    -0.003 C 
ATOM      9  C   UNL     1      -3.268 -54.214 -24.222  1.00  0.00    -0.011 C 
ATOM     10  C   UNL     1      -5.725 -57.389 -27.519  1.00  0.00    -0.006 C 
ATOM     11  C   UNL     1      -3.401 -56.652 -28.057  1.00  0.00    -0.027 C 
ATOM     12  C   UNL     1      -2.531 -53.870 -26.619  1.00  0.00     0.008 C 
ATOM     13  C   UNL     1      -3.275 -55.221 -23.057  1.00  0.00     0.008 C 
ATOM     14  C   UNL     1      -5.967 -58.326 -26.288  1.00  0.00     0.017 C 
ATOM     15  C   UNL     1      -5.636 -58.306 -28.869  1.00  0.00    -0.020 C 
ATOM     16  C   UNL     1      -3.488 -57.068 -29.482  1.00  0.00     0.032 C 
ATOM     17  C   UNL     1      -4.889 -57.525 -30.026  1.00  0.00     0.006 C 
ATOM     18  C   UNL     1      -4.816 -59.643 -28.634  1.00  0.00     0.008 C 
ATOM     19  C   UNL     1      -7.123 -58.661 -29.262  1.00  0.00     0.012 C 
ATOM     20  C   UNL     1      -4.738 -58.319 -31.437  1.00  0.00    -0.025 C 
ATOM     21  C   UNL     1      -4.128 -60.292 -29.884  1.00  0.00     0.005 C 
ATOM     22  C   UNL     1      -4.803 -59.874 -31.203  1.00  0.00     0.003 C 
ATOM     23  C   UNL     1      -5.905 -57.986 -32.416  1.00  0.00     0.010 C 
ATOM     24  C   UNL     1      -3.420 -57.860 -32.155  1.00  0.00     0.012 C 
ATOM     25  C   UNL     1      -4.677 -60.801 -32.475  1.00  0.00    -0.006 C 
ATOM     26  C   UNL     1      -5.870 -58.818 -33.729  1.00  0.00     0.033 C 
ATOM     27  C   UNL     1      -5.771 -60.350 -33.518  1.00  0.00     0.120 C 
ATOM     28  C   UNL     1      -3.267 -60.807 -33.118  1.00  0.00     0.014 C 
ATOM     29  C   UNL     1      -4.963 -62.282 -32.085  1.00  0.00     0.014 C 
ENDROOT
BRANCH   1  30
ATOM     30  C   UNL     1      -5.493 -53.543 -27.174  1.00  0.00     0.048 C 
ATOM     31  O   UNL     1      -5.318 -53.876 -28.377  1.00  0.00    -0.550 OA
ATOM     32  O   UNL     1      -5.627 -52.193 -26.872  1.00  0.00    -0.550 OA
ENDBRANCH   1  30
BRANCH  27  33
ATOM     33  O   UNL     1      -7.045 -60.801 -33.119  1.00  0.00    -0.393 OA
ATOM     34  H   UNL     1      -7.189 -60.509 -32.182  1.00  0.00     0.210 HD
ENDBRANCH  27  33
TORSDOF 2
ENDMDL
MODEL 7
REMARK VINA RESULT:    -4.889      3.001      4.603
REMARK INTER + INTRA:          -4.842
REMARK INTER:                  -5.304
REMARK INTRA:                   0.463
REMARK UNBOUND:                 0.476
REMARK SMILES C[C@H]1[C@H](C)CC[C@]2(C(=O)[O-])CC[C@]3(C)C(=CC[C@H]4[C@]5(C)CC[C@H](O)C(C)(C)[C@H]5CC[C@]43C)[C@@H]12
REMARK SMILES IDX 7 1 6 2 11 3 33 4 5 5 12 6 15 7 2 8 3 9 13 10 16 11 1 12
REMARK SMILES IDX 4 13 14 14 31 15 17 16 18 17 30 18 32 19 19 20 29 21 28 22
REMARK SMILES IDX 21 23 20 24 25 25 22 26 23 27 26 28 27 29 8 30 9 31 10 32
REMARK SMILES IDX 24 33
REMARK H PARENT 24 34
REMARK Flexibility Score: inf
ROOT
ATOM      1  C   UNL     1      -5.296 -53.561 -22.929  1.00  0.00     0.017 C 
ATOM      2  C   UNL     1      -6.816 -53.690 -22.595  1.00  0.00     0.014 C 
ATOM      3  C   UNL     1      -5.135 -53.722 -24.464  1.00  0.00     0.014 C 
ATOM      4  C   UNL     1      -4.542 -54.713 -22.181  1.00  0.00     0.030 C 
ATOM      5  C   UNL     1      -7.124 -53.703 -21.086  1.00  0.00     0.004 C 
ATOM      6  C   UNL     1      -3.677 -53.942 -24.928  1.00  0.00     0.013 C 
ATOM      7  C   UNL     1      -3.108 -54.901 -22.721  1.00  0.00    -0.063 C 
ATOM      8  C   UNL     1      -4.777 -54.664 -20.625  1.00  0.00    -0.003 C 
ATOM      9  C   UNL     1      -6.300 -54.753 -20.299  1.00  0.00    -0.011 C 
ATOM     10  C   UNL     1      -2.924 -55.134 -24.229  1.00  0.00    -0.006 C 
ATOM     11  C   UNL     1      -2.050 -54.814 -21.912  1.00  0.00    -0.027 C 
ATOM     12  C   UNL     1      -4.178 -53.441 -19.876  1.00  0.00     0.008 C 
ATOM     13  C   UNL     1      -6.866 -56.174 -20.488  1.00  0.00     0.008 C 
ATOM     14  C   UNL     1      -3.649 -56.472 -24.598  1.00  0.00     0.017 C 
ATOM     15  C   UNL     1      -1.360 -55.236 -24.694  1.00  0.00    -0.020 C 
ATOM     16  C   UNL     1      -0.691 -54.421 -22.368  1.00  0.00     0.032 C 
ATOM     17  C   UNL     1      -0.475 -54.187 -23.907  1.00  0.00     0.006 C 
ATOM     18  C   UNL     1      -0.736 -56.662 -24.391  1.00  0.00     0.008 C 
ATOM     19  C   UNL     1      -1.343 -54.973 -26.250  1.00  0.00     0.012 C 
ATOM     20  C   UNL     1       1.108 -54.172 -24.280  1.00  0.00    -0.025 C 
ATOM     21  C   UNL     1       0.816 -56.738 -24.191  1.00  0.00     0.005 C 
ATOM     22  C   UNL     1       1.548 -55.564 -24.868  1.00  0.00     0.003 C 
ATOM     23  C   UNL     1       1.433 -53.121 -25.384  1.00  0.00     0.010 C 
ATOM     24  C   UNL     1       1.938 -53.749 -23.016  1.00  0.00     0.012 C 
ATOM     25  C   UNL     1       3.061 -55.723 -25.289  1.00  0.00    -0.006 C 
ATOM     26  C   UNL     1       2.912 -53.159 -25.862  1.00  0.00     0.033 C 
ATOM     27  C   UNL     1       3.414 -54.559 -26.294  1.00  0.00     0.120 C 
ATOM     28  C   UNL     1       4.053 -55.746 -24.098  1.00  0.00     0.014 C 
ATOM     29  C   UNL     1       3.269 -57.079 -26.029  1.00  0.00     0.014 C 
ENDROOT
BRANCH   1  30
ATOM     30  C   UNL     1      -4.774 -52.173 -22.564  1.00  0.00     0.048 C 
ATOM     31  O   UNL     1      -3.562 -51.877 -22.739  1.00  0.00    -0.550 OA
ATOM     32  O   UNL     1      -5.642 -51.182 -22.119  1.00  0.00    -0.550 OA
ENDBRANCH   1  30
BRANCH  27  33
ATOM     33  O   UNL     1       2.866 -54.826 -27.565  1.00  0.00    -0.393 OA
ATOM     34  H   UNL     1       2.721 -53.956 -28.021  1.00  0.00     0.210 HD
ENDBRANCH  27  33
TORSDOF 2
ENDMDL
MODEL 8
REMARK VINA RESULT:    -4.870      7.112     11.855
REMARK INTER + INTRA:          -4.821
REMARK INTER:                  -6.411
REMARK INTRA:                   1.590
REMARK UNBOUND:                 0.476
REMARK SMILES C[C@H]1[C@H](C)CC[C@]2(C(=O)[O-])CC[C@]3(C)C(=CC[C@H]4[C@]5(C)CC[C@H](O)C(C)(C)[C@H]5CC[C@]43C)[C@@H]12
REMARK SMILES IDX 7 1 6 2 11 3 33 4 5 5 12 6 15 7 2 8 3 9 13 10 16 11 1 12
REMARK SMILES IDX 4 13 14 14 31 15 17 16 18 17 30 18 32 19 19 20 29 21 28 22
REMARK SMILES IDX 21 23 20 24 25 25 22 26 23 27 26 28 27 29 8 30 9 31 10 32
REMARK SMILES IDX 24 33
REMARK H PARENT 24 34
REMARK Flexibility Score: inf
ROOT
ATOM      1  C   UNL     1       2.105 -46.144 -23.907  1.00  0.00     0.017 C 
ATOM      2  C   UNL     1       3.374 -45.238 -23.818  1.00  0.00     0.014 C 
ATOM      3  C   UNL     1       1.002 -45.339 -24.644  1.00  0.00     0.014 C 
ATOM      4  C   UNL     1       1.650 -46.473 -22.445  1.00  0.00     0.030 C 
ATOM      5  C   UNL     1       4.514 -45.843 -22.976  1.00  0.00     0.004 C 
ATOM      6  C   UNL     1      -0.411 -45.956 -24.536  1.00  0.00     0.013 C 
ATOM      7  C   UNL     1       0.218 -47.050 -22.410  1.00  0.00    -0.063 C 
ATOM      8  C   UNL     1       2.784 -47.184 -21.615  1.00  0.00    -0.003 C 
ATOM      9  C   UNL     1       4.063 -46.292 -21.564  1.00  0.00    -0.011 C 
ATOM     10  C   UNL     1      -0.908 -46.238 -23.070  1.00  0.00    -0.006 C 
ATOM     11  C   UNL     1      -0.032 -48.242 -21.866  1.00  0.00    -0.027 C 
ATOM     12  C   UNL     1       3.189 -48.610 -22.083  1.00  0.00     0.008 C 
ATOM     13  C   UNL     1       3.913 -45.093 -20.609  1.00  0.00     0.008 C 
ATOM     14  C   UNL     1      -1.026 -44.875 -22.308  1.00  0.00     0.017 C 
ATOM     15  C   UNL     1      -2.362 -46.985 -23.042  1.00  0.00    -0.020 C 
ATOM     16  C   UNL     1      -1.176 -49.107 -22.260  1.00  0.00     0.032 C 
ATOM     17  C   UNL     1      -2.197 -48.537 -23.308  1.00  0.00     0.006 C 
ATOM     18  C   UNL     1      -3.080 -46.849 -21.635  1.00  0.00     0.008 C 
ATOM     19  C   UNL     1      -3.240 -46.286 -24.152  1.00  0.00     0.012 C 
ATOM     20  C   UNL     1      -3.572 -49.405 -23.319  1.00  0.00    -0.025 C 
ATOM     21  C   UNL     1      -4.113 -47.961 -21.246  1.00  0.00     0.005 C 
ATOM     22  C   UNL     1      -4.688 -48.679 -22.480  1.00  0.00     0.003 C 
ATOM     23  C   UNL     1      -4.150 -49.556 -24.758  1.00  0.00     0.010 C 
ATOM     24  C   UNL     1      -3.273 -50.861 -22.814  1.00  0.00     0.012 C 
ATOM     25  C   UNL     1      -6.096 -49.387 -22.388  1.00  0.00    -0.006 C 
ATOM     26  C   UNL     1      -5.530 -50.272 -24.802  1.00  0.00     0.033 C 
ATOM     27  C   UNL     1      -6.599 -49.667 -23.858  1.00  0.00     0.120 C 
ATOM     28  C   UNL     1      -6.100 -50.687 -21.545  1.00  0.00     0.014 C 
ATOM     29  C   UNL     1      -7.125 -48.441 -21.699  1.00  0.00     0.014 C 
ENDROOT
BRANCH   1  30
ATOM     30  C   UNL     1       2.384 -47.393 -24.739  1.00  0.00     0.048 C 
ATOM     31  O   UNL     1       2.292 -48.540 -24.226  1.00  0.00    -0.550 OA
ATOM     32  O   UNL     1       2.654 -47.295 -26.100  1.00  0.00    -0.550 OA
ENDBRANCH   1  30
BRANCH  27  33
ATOM     33  O   UNL     1      -7.059 -48.475 -24.454  1.00  0.00    -0.393 OA
ATOM     34  H   UNL     1      -8.020 -48.375 -24.227  1.00  0.00     0.210 HD
ENDBRANCH  27  33
TORSDOF 2
ENDMDL
MODEL 9
REMARK VINA RESULT:    -4.668      1.724      2.471
REMARK INTER + INTRA:          -4.602
REMARK INTER:                  -5.066
REMARK INTRA:                   0.464
REMARK UNBOUND:                 0.476
REMARK SMILES C[C@H]1[C@H](C)CC[C@]2(C(=O)[O-])CC[C@]3(C)C(=CC[C@H]4[C@]5(C)CC[C@H](O)C(C)(C)[C@H]5CC[C@]43C)[C@@H]12
REMARK SMILES IDX 7 1 6 2 11 3 33 4 5 5 12 6 15 7 2 8 3 9 13 10 16 11 1 12
REMARK SMILES IDX 4 13 14 14 31 15 17 16 18 17 30 18 32 19 19 20 29 21 28 22
REMARK SMILES IDX 21 23 20 24 25 25 22 26 23 27 26 28 27 29 8 30 9 31 10 32
REMARK SMILES IDX 24 33
REMARK H PARENT 24 34
REMARK Flexibility Score: inf
ROOT
ATOM      1  C   UNL     1      -5.173 -59.505 -24.595  1.00  0.00     0.017 C 
ATOM      2  C   UNL     1      -6.425 -60.320 -25.050  1.00  0.00     0.014 C 
ATOM      3  C   UNL     1      -5.507 -58.851 -23.228  1.00  0.00     0.014 C 
ATOM      4  C   UNL     1      -4.903 -58.401 -25.673  1.00  0.00     0.030 C 
ATOM      5  C   UNL     1      -6.305 -60.909 -26.468  1.00  0.00     0.004 C 
ATOM      6  C   UNL     1      -4.508 -57.756 -22.789  1.00  0.00     0.013 C 
ATOM      7  C   UNL     1      -3.928 -57.323 -25.153  1.00  0.00    -0.063 C 
ATOM      8  C   UNL     1      -4.679 -59.012 -27.107  1.00  0.00    -0.003 C 
ATOM      9  C   UNL     1      -5.917 -59.858 -27.539  1.00  0.00    -0.011 C 
ATOM     10  C   UNL     1      -4.271 -56.606 -23.837  1.00  0.00    -0.006 C 
ATOM     11  C   UNL     1      -2.793 -57.052 -25.799  1.00  0.00    -0.027 C 
ATOM     12  C   UNL     1      -3.397 -59.871 -27.297  1.00  0.00     0.008 C 
ATOM     13  C   UNL     1      -7.122 -58.986 -27.939  1.00  0.00     0.008 C 
ATOM     14  C   UNL     1      -5.617 -55.834 -24.049  1.00  0.00     0.017 C 
ATOM     15  C   UNL     1      -3.127 -55.548 -23.346  1.00  0.00    -0.020 C 
ATOM     16  C   UNL     1      -1.580 -56.497 -25.142  1.00  0.00     0.032 C 
ATOM     17  C   UNL     1      -1.679 -56.124 -23.619  1.00  0.00     0.006 C 
ATOM     18  C   UNL     1      -3.211 -54.169 -24.126  1.00  0.00     0.008 C 
ATOM     19  C   UNL     1      -3.384 -55.300 -21.809  1.00  0.00     0.012 C 
ATOM     20  C   UNL     1      -0.439 -55.174 -23.167  1.00  0.00    -0.025 C 
ATOM     21  C   UNL     1      -1.894 -53.327 -24.239  1.00  0.00     0.005 C 
ATOM     22  C   UNL     1      -0.889 -53.666 -23.123  1.00  0.00     0.003 C 
ATOM     23  C   UNL     1       0.057 -55.513 -21.729  1.00  0.00     0.010 C 
ATOM     24  C   UNL     1       0.783 -55.423 -24.121  1.00  0.00     0.012 C 
ATOM     25  C   UNL     1       0.196 -52.602 -22.697  1.00  0.00    -0.006 C 
ATOM     26  C   UNL     1       1.158 -54.547 -21.207  1.00  0.00     0.033 C 
ATOM     27  C   UNL     1       0.795 -53.045 -21.305  1.00  0.00     0.120 C 
ATOM     28  C   UNL     1       1.321 -52.389 -23.741  1.00  0.00     0.014 C 
ATOM     29  C   UNL     1      -0.470 -51.205 -22.513  1.00  0.00     0.014 C 
ENDROOT
BRANCH   1  30
ATOM     30  C   UNL     1      -3.975 -60.426 -24.373  1.00  0.00     0.048 C 
ATOM     31  O   UNL     1      -2.859 -59.954 -24.025  1.00  0.00    -0.550 OA
ATOM     32  O   UNL     1      -4.114 -61.807 -24.461  1.00  0.00    -0.550 OA
ENDBRANCH   1  30
BRANCH  27  33
ATOM     33  O   UNL     1      -0.118 -52.765 -20.268  1.00  0.00    -0.393 OA
ATOM     34  H   UNL     1      -0.844 -53.440 -20.315  1.00  0.00     0.210 HD
ENDBRANCH  27  33
TORSDOF 2
ENDMDL
