MODEL 1
REMARK VINA RESULT:    -3.513      0.000      0.000
REMARK INTER + INTRA:          -5.582
REMARK INTER:                  -4.848
REMARK INTRA:                  -0.734
REMARK UNBOUND:                -0.734
REMARK SMILES OC[C@@H](O)C(O)[C@H](O)CO
REMARK SMILES IDX 5 1 7 2 9 3 10 4 8 6 3 8 2 9 1 10 4 12 6 14
REMARK H PARENT 10 5 8 7 1 11 4 13 6 15
REMARK Flexibility Score: inf
ROOT
ATOM      1  C   UNL     1     161.427 162.906 176.695  1.00  0.00     0.176 C 
ENDROOT
BRANCH   1   2
ATOM      2  C   UNL     1     161.469 161.964 175.449  1.00  0.00     0.171 C 
BRANCH   2   3
ATOM      3  C   UNL     1     160.206 161.118 175.208  1.00  0.00     0.190 C 
BRANCH   3   4
ATOM      4  O   UNL     1     159.988 160.244 176.282  1.00  0.00    -0.394 OA
ATOM      5  H   UNL     1     159.159 159.743 176.066  1.00  0.00     0.210 HD
ENDBRANCH   3   4
ENDBRANCH   2   3
BRANCH   2   6
ATOM      6  O   UNL     1     161.705 162.738 174.299  1.00  0.00    -0.388 OA
ATOM      7  H   UNL     1     161.011 163.448 174.279  1.00  0.00     0.211 HD
ENDBRANCH   2   6
ENDBRANCH   1   2
BRANCH   1   8
ATOM      8  C   UNL     1     162.279 162.489 177.932  1.00  0.00     0.171 C 
BRANCH   8   9
ATOM      9  C   UNL     1     162.099 163.393 179.165  1.00  0.00     0.190 C 
BRANCH   9  10
ATOM     10  O   UNL     1     160.972 162.998 179.901  1.00  0.00    -0.394 OA
ATOM     11  H   UNL     1     161.288 162.342 180.576  1.00  0.00     0.210 HD
ENDBRANCH   9  10
ENDBRANCH   8   9
BRANCH   8  12
ATOM     12  O   UNL     1     162.033 161.152 178.283  1.00  0.00    -0.388 OA
ATOM     13  H   UNL     1     162.518 160.984 179.134  1.00  0.00     0.211 HD
ENDBRANCH   8  12
ENDBRANCH   1   8
BRANCH   1  14
ATOM     14  O   UNL     1     160.113 163.258 177.056  1.00  0.00    -0.388 OA
ATOM     15  H   UNL     1     159.716 163.778 176.311  1.00  0.00     0.211 HD
ENDBRANCH   1  14
TORSDOF 9
ENDMDL
MODEL 2
REMARK VINA RESULT:    -3.369      1.766      2.837
REMARK INTER + INTRA:          -5.382
REMARK INTER:                  -4.623
REMARK INTRA:                  -0.759
REMARK UNBOUND:                -0.734
REMARK SMILES OC[C@@H](O)C(O)[C@H](O)CO
REMARK SMILES IDX 5 1 7 2 9 3 10 4 8 6 3 8 2 9 1 10 4 12 6 14
REMARK H PARENT 10 5 8 7 1 11 4 13 6 15
REMARK Flexibility Score: inf
ROOT
ATOM      1  C   UNL     1     162.244 162.413 178.194  1.00  0.00     0.176 C 
ENDROOT
BRANCH   1   2
ATOM      2  C   UNL     1     161.473 163.125 177.036  1.00  0.00     0.171 C 
BRANCH   2   3
ATOM      3  C   UNL     1     161.139 162.245 175.817  1.00  0.00     0.190 C 
BRANCH   3   4
ATOM      4  O   UNL     1     162.301 161.645 175.312  1.00  0.00    -0.394 OA
ATOM      5  H   UNL     1     162.835 162.376 174.906  1.00  0.00     0.210 HD
ENDBRANCH   3   4
ENDBRANCH   2   3
BRANCH   2   6
ATOM      6  O   UNL     1     160.270 163.647 177.542  1.00  0.00    -0.388 OA
ATOM      7  H   UNL     1     159.565 163.458 176.869  1.00  0.00     0.211 HD
ENDBRANCH   2   6
ENDBRANCH   1   2
BRANCH   1   8
ATOM      8  C   UNL     1     163.756 162.756 178.357  1.00  0.00     0.171 C 
BRANCH   8   9
ATOM      9  C   UNL     1     164.449 162.046 179.535  1.00  0.00     0.190 C 
BRANCH   9  10
ATOM     10  O   UNL     1     164.828 160.746 179.169  1.00  0.00    -0.394 OA
ATOM     11  H   UNL     1     164.774 160.702 178.178  1.00  0.00     0.210 HD
ENDBRANCH   9  10
ENDBRANCH   8   9
BRANCH   8  12
ATOM     12  O   UNL     1     164.461 162.501 177.169  1.00  0.00    -0.388 OA
ATOM     13  H   UNL     1     165.314 163.006 177.227  1.00  0.00     0.211 HD
ENDBRANCH   8  12
ENDBRANCH   1   8
BRANCH   1  14
ATOM     14  O   UNL     1     162.014 161.026 178.218  1.00  0.00    -0.388 OA
ATOM     15  H   UNL     1     162.366 160.668 179.072  1.00  0.00     0.211 HD
ENDBRANCH   1  14
TORSDOF 9
ENDMDL
MODEL 3
REMARK VINA RESULT:    -3.341     16.146     17.191
REMARK INTER + INTRA:          -5.344
REMARK INTER:                  -4.878
REMARK INTRA:                  -0.466
REMARK UNBOUND:                -0.734
REMARK SMILES OC[C@@H](O)C(O)[C@H](O)CO
REMARK SMILES IDX 5 1 7 2 9 3 10 4 8 6 3 8 2 9 1 10 4 12 6 14
REMARK H PARENT 10 5 8 7 1 11 4 13 6 15
REMARK Flexibility Score: inf
ROOT
ATOM      1  C   UNL     1     177.629 164.521 178.880  1.00  0.00     0.176 C 
ENDROOT
BRANCH   1   2
ATOM      2  C   UNL     1     179.060 165.134 178.751  1.00  0.00     0.171 C 
BRANCH   2   3
ATOM      3  C   UNL     1     179.583 165.311 177.314  1.00  0.00     0.190 C 
BRANCH   3   4
ATOM      4  O   UNL     1     179.732 164.066 176.688  1.00  0.00    -0.394 OA
ATOM      5  H   UNL     1     179.372 164.173 175.770  1.00  0.00     0.210 HD
ENDBRANCH   3   4
ENDBRANCH   2   3
BRANCH   2   6
ATOM      6  O   UNL     1     179.077 166.390 179.382  1.00  0.00    -0.388 OA
ATOM      7  H   UNL     1     179.890 166.418 179.952  1.00  0.00     0.211 HD
ENDBRANCH   2   6
ENDBRANCH   1   2
BRANCH   1   8
ATOM      8  C   UNL     1     177.368 163.574 180.091  1.00  0.00     0.171 C 
BRANCH   8   9
ATOM      9  C   UNL     1     175.958 162.955 180.124  1.00  0.00     0.190 C 
BRANCH   9  10
ATOM     10  O   UNL     1     175.822 161.992 179.114  1.00  0.00    -0.394 OA
ATOM     11  H   UNL     1     175.462 162.463 178.318  1.00  0.00     0.210 HD
ENDBRANCH   9  10
ENDBRANCH   8   9
BRANCH   8  12
ATOM     12  O   UNL     1     178.334 162.557 180.152  1.00  0.00    -0.388 OA
ATOM     13  H   UNL     1     179.184 162.985 180.435  1.00  0.00     0.211 HD
ENDBRANCH   8  12
ENDBRANCH   1   8
BRANCH   1  14
ATOM     14  O   UNL     1     177.172 163.966 177.671  1.00  0.00    -0.388 OA
ATOM     15  H   UNL     1     177.469 163.022 177.632  1.00  0.00     0.211 HD
ENDBRANCH   1  14
TORSDOF 9
ENDMDL
MODEL 4
REMARK VINA RESULT:    -3.333     16.978     17.727
REMARK INTER + INTRA:          -5.333
REMARK INTER:                  -4.728
REMARK INTRA:                  -0.605
REMARK UNBOUND:                -0.734
REMARK SMILES OC[C@@H](O)C(O)[C@H](O)CO
REMARK SMILES IDX 5 1 7 2 9 3 10 4 8 6 3 8 2 9 1 10 4 12 6 14
REMARK H PARENT 10 5 8 7 1 11 4 13 6 15
REMARK Flexibility Score: inf
ROOT
ATOM      1  C   UNL     1     166.215 178.091 178.591  1.00  0.00     0.176 C 
ENDROOT
BRANCH   1   2
ATOM      2  C   UNL     1     164.752 178.473 178.199  1.00  0.00     0.171 C 
BRANCH   2   3
ATOM      3  C   UNL     1     163.747 178.548 179.364  1.00  0.00     0.190 C 
BRANCH   3   4
ATOM      4  O   UNL     1     163.507 179.883 179.720  1.00  0.00    -0.394 OA
ATOM      5  H   UNL     1     162.703 179.873 180.301  1.00  0.00     0.210 HD
ENDBRANCH   3   4
ENDBRANCH   2   3
BRANCH   2   6
ATOM      6  O   UNL     1     164.764 179.719 177.548  1.00  0.00    -0.388 OA
ATOM      7  H   UNL     1     165.676 180.096 177.658  1.00  0.00     0.211 HD
ENDBRANCH   2   6
ENDBRANCH   1   2
BRANCH   1   8
ATOM      8  C   UNL     1     166.802 178.749 179.877  1.00  0.00     0.171 C 
BRANCH   8   9
ATOM      9  C   UNL     1     168.313 178.525 180.075  1.00  0.00     0.190 C 
BRANCH   9  10
ATOM     10  O   UNL     1     169.047 179.296 179.163  1.00  0.00    -0.394 OA
ATOM     11  H   UNL     1     169.139 180.200 179.563  1.00  0.00     0.210 HD
ENDBRANCH   9  10
ENDBRANCH   8   9
BRANCH   8  12
ATOM     12  O   UNL     1     166.518 180.124 179.912  1.00  0.00    -0.388 OA
ATOM     13  H   UNL     1     166.086 180.350 179.047  1.00  0.00     0.211 HD
ENDBRANCH   8  12
ENDBRANCH   1   8
BRANCH   1  14
ATOM     14  O   UNL     1     167.102 178.180 177.502  1.00  0.00    -0.388 OA
ATOM     15  H   UNL     1     167.746 178.910 177.687  1.00  0.00     0.211 HD
ENDBRANCH   1  14
TORSDOF 9
ENDMDL
MODEL 5
REMARK VINA RESULT:    -3.294     21.074     22.316
REMARK INTER + INTRA:          -5.280
REMARK INTER:                  -4.396
REMARK INTRA:                  -0.884
REMARK UNBOUND:                -0.734
REMARK SMILES OC[C@@H](O)C(O)[C@H](O)CO
REMARK SMILES IDX 5 1 7 2 9 3 10 4 8 6 3 8 2 9 1 10 4 12 6 14
REMARK H PARENT 10 5 8 7 1 11 4 13 6 15
REMARK Flexibility Score: inf
ROOT
ATOM      1  C   UNL     1     176.731 176.840 180.722  1.00  0.00     0.176 C 
ENDROOT
BRANCH   1   2
ATOM      2  C   UNL     1     177.435 178.233 180.792  1.00  0.00     0.171 C 
BRANCH   2   3
ATOM      3  C   UNL     1     177.105 179.206 179.644  1.00  0.00     0.190 C 
BRANCH   3   4
ATOM      4  O   UNL     1     177.462 178.648 178.409  1.00  0.00    -0.394 OA
ATOM      5  H   UNL     1     176.936 179.136 177.724  1.00  0.00     0.210 HD
ENDBRANCH   3   4
ENDBRANCH   2   3
BRANCH   2   6
ATOM      6  O   UNL     1     177.096 178.856 182.006  1.00  0.00    -0.388 OA
ATOM      7  H   UNL     1     177.074 178.146 182.700  1.00  0.00     0.211 HD
ENDBRANCH   2   6
ENDBRANCH   1   2
BRANCH   1   8
ATOM      8  C   UNL     1     177.620 175.612 180.359  1.00  0.00     0.171 C 
BRANCH   8   9
ATOM      9  C   UNL     1     177.202 174.882 179.068  1.00  0.00     0.190 C 
BRANCH   9  10
ATOM     10  O   UNL     1     177.343 175.729 177.959  1.00  0.00    -0.394 OA
ATOM     11  H   UNL     1     177.186 175.171 177.153  1.00  0.00     0.210 HD
ENDBRANCH   9  10
ENDBRANCH   8   9
BRANCH   8  12
ATOM     12  O   UNL     1     178.973 175.976 180.281  1.00  0.00    -0.388 OA
ATOM     13  H   UNL     1     179.359 175.844 181.186  1.00  0.00     0.211 HD
ENDBRANCH   8  12
ENDBRANCH   1   8
BRANCH   1  14
ATOM     14  O   UNL     1     175.547 176.876 179.963  1.00  0.00    -0.388 OA
ATOM     15  H   UNL     1     174.855 177.348 180.491  1.00  0.00     0.211 HD
ENDBRANCH   1  14
TORSDOF 9
ENDMDL
MODEL 6
REMARK VINA RESULT:    -3.284     15.109     16.280
REMARK INTER + INTRA:          -5.266
REMARK INTER:                  -4.676
REMARK INTRA:                  -0.590
REMARK UNBOUND:                -0.734
REMARK SMILES OC[C@@H](O)C(O)[C@H](O)CO
REMARK SMILES IDX 5 1 7 2 9 3 10 4 8 6 3 8 2 9 1 10 4 12 6 14
REMARK H PARENT 10 5 8 7 1 11 4 13 6 15
REMARK Flexibility Score: inf
ROOT
ATOM      1  C   UNL     1     177.436 163.523 179.996  1.00  0.00     0.176 C 
ENDROOT
BRANCH   1   2
ATOM      2  C   UNL     1     176.051 162.845 180.247  1.00  0.00     0.171 C 
BRANCH   2   3
ATOM      3  C   UNL     1     174.850 163.803 180.362  1.00  0.00     0.190 C 
BRANCH   3   4
ATOM      4  O   UNL     1     174.153 163.865 179.148  1.00  0.00    -0.394 OA
ATOM      5  H   UNL     1     173.270 164.267 179.356  1.00  0.00     0.210 HD
ENDBRANCH   3   4
ENDBRANCH   2   3
BRANCH   2   6
ATOM      6  O   UNL     1     175.790 161.939 179.205  1.00  0.00    -0.388 OA
ATOM      7  H   UNL     1     176.364 162.203 178.438  1.00  0.00     0.211 HD
ENDBRANCH   2   6
ENDBRANCH   1   2
BRANCH   1   8
ATOM      8  C   UNL     1     177.552 164.468 178.761  1.00  0.00     0.171 C 
BRANCH   8   9
ATOM      9  C   UNL     1     178.994 164.868 178.398  1.00  0.00     0.190 C 
BRANCH   9  10
ATOM     10  O   UNL     1     179.477 164.066 177.353  1.00  0.00    -0.394 OA
ATOM     11  H   UNL     1     178.697 163.839 176.784  1.00  0.00     0.210 HD
ENDBRANCH   9  10
ENDBRANCH   8   9
BRANCH   8  12
ATOM     12  O   UNL     1     176.918 163.910 177.639  1.00  0.00    -0.388 OA
ATOM     13  H   UNL     1     175.951 163.848 177.857  1.00  0.00     0.211 HD
ENDBRANCH   8  12
ENDBRANCH   1   8
BRANCH   1  14
ATOM     14  O   UNL     1     178.500 162.604 180.057  1.00  0.00    -0.388 OA
ATOM     15  H   UNL     1     178.299 161.855 179.441  1.00  0.00     0.211 HD
ENDBRANCH   1  14
TORSDOF 9
ENDMDL
MODEL 7
REMARK VINA RESULT:    -3.237     21.806     22.719
REMARK INTER + INTRA:          -5.201
REMARK INTER:                  -4.739
REMARK INTRA:                  -0.462
REMARK UNBOUND:                -0.734
REMARK SMILES OC[C@@H](O)C(O)[C@H](O)CO
REMARK SMILES IDX 5 1 7 2 9 3 10 4 8 6 3 8 2 9 1 10 4 12 6 14
REMARK H PARENT 10 5 8 7 1 11 4 13 6 15
REMARK Flexibility Score: inf
ROOT
ATOM      1  C   UNL     1     177.375 178.876 179.706  1.00  0.00     0.176 C 
ENDROOT
BRANCH   1   2
ATOM      2  C   UNL     1     177.066 177.397 179.306  1.00  0.00     0.171 C 
BRANCH   2   3
ATOM      3  C   UNL     1     176.659 177.174 177.838  1.00  0.00     0.190 C 
BRANCH   3   4
ATOM      4  O   UNL     1     177.775 177.275 176.997  1.00  0.00    -0.394 OA
ATOM      5  H   UNL     1     177.932 176.364 176.635  1.00  0.00     0.210 HD
ENDBRANCH   3   4
ENDBRANCH   2   3
BRANCH   2   6
ATOM      6  O   UNL     1     178.197 176.606 179.572  1.00  0.00    -0.388 OA
ATOM      7  H   UNL     1     177.898 175.659 179.566  1.00  0.00     0.211 HD
ENDBRANCH   2   6
ENDBRANCH   1   2
BRANCH   1   8
ATOM      8  C   UNL     1     176.465 179.523 180.793  1.00  0.00     0.171 C 
BRANCH   8   9
ATOM      9  C   UNL     1     174.989 179.088 180.731  1.00  0.00     0.190 C 
BRANCH   9  10
ATOM     10  O   UNL     1     174.381 179.581 179.566  1.00  0.00    -0.394 OA
ATOM     11  H   UNL     1     175.039 180.188 179.137  1.00  0.00     0.210 HD
ENDBRANCH   9  10
ENDBRANCH   8   9
BRANCH   8  12
ATOM     12  O   UNL     1     176.974 179.289 182.080  1.00  0.00    -0.388 OA
ATOM     13  H   UNL     1     176.657 180.034 182.655  1.00  0.00     0.211 HD
ENDBRANCH   8  12
ENDBRANCH   1   8
BRANCH   1  14
ATOM     14  O   UNL     1     177.533 179.712 178.585  1.00  0.00    -0.388 OA
ATOM     15  H   UNL     1     177.528 180.652 178.897  1.00  0.00     0.211 HD
ENDBRANCH   1  14
TORSDOF 9
ENDMDL
MODEL 8
REMARK VINA RESULT:    -3.213     15.232     16.455
REMARK INTER + INTRA:          -5.168
REMARK INTER:                  -4.450
REMARK INTRA:                  -0.718
REMARK UNBOUND:                -0.734
REMARK SMILES OC[C@@H](O)C(O)[C@H](O)CO
REMARK SMILES IDX 5 1 7 2 9 3 10 4 8 6 3 8 2 9 1 10 4 12 6 14
REMARK H PARENT 10 5 8 7 1 11 4 13 6 15
REMARK Flexibility Score: inf
ROOT
ATOM      1  C   UNL     1     177.038 164.413 178.839  1.00  0.00     0.176 C 
ENDROOT
BRANCH   1   2
ATOM      2  C   UNL     1     177.811 164.708 180.165  1.00  0.00     0.171 C 
BRANCH   2   3
ATOM      3  C   UNL     1     179.047 163.828 180.427  1.00  0.00     0.190 C 
BRANCH   3   4
ATOM      4  O   UNL     1     178.710 162.470 180.343  1.00  0.00    -0.394 OA
ATOM      5  H   UNL     1     178.884 162.086 181.241  1.00  0.00     0.210 HD
ENDBRANCH   3   4
ENDBRANCH   2   3
BRANCH   2   6
ATOM      6  O   UNL     1     178.222 166.052 180.165  1.00  0.00    -0.388 OA
ATOM      7  H   UNL     1     178.047 166.410 181.074  1.00  0.00     0.211 HD
ENDBRANCH   2   6
ENDBRANCH   1   2
BRANCH   1   8
ATOM      8  C   UNL     1     175.769 163.513 178.942  1.00  0.00     0.171 C 
BRANCH   8   9
ATOM      9  C   UNL     1     174.755 163.709 177.800  1.00  0.00     0.190 C 
BRANCH   9  10
ATOM     10  O   UNL     1     175.323 163.344 176.571  1.00  0.00    -0.394 OA
ATOM     11  H   UNL     1     174.673 163.604 175.867  1.00  0.00     0.210 HD
ENDBRANCH   9  10
ENDBRANCH   8   9
BRANCH   8  12
ATOM     12  O   UNL     1     176.120 162.157 179.036  1.00  0.00    -0.388 OA
ATOM     13  H   UNL     1     176.307 161.975 179.995  1.00  0.00     0.211 HD
ENDBRANCH   8  12
ENDBRANCH   1   8
BRANCH   1  14
ATOM     14  O   UNL     1     177.893 164.001 177.801  1.00  0.00    -0.388 OA
ATOM     15  H   UNL     1     178.829 164.135 178.098  1.00  0.00     0.211 HD
ENDBRANCH   1  14
TORSDOF 9
ENDMDL
MODEL 9
REMARK VINA RESULT:    -3.212      1.826      4.313
REMARK INTER + INTRA:          -5.166
REMARK INTER:                  -4.484
REMARK INTRA:                  -0.682
REMARK UNBOUND:                -0.734
REMARK SMILES OC[C@@H](O)C(O)[C@H](O)CO
REMARK SMILES IDX 5 1 7 2 9 3 10 4 8 6 3 8 2 9 1 10 4 12 6 14
REMARK H PARENT 10 5 8 7 1 11 4 13 6 15
REMARK Flexibility Score: inf
ROOT
ATOM      1  C   UNL     1     162.648 162.374 178.534  1.00  0.00     0.176 C 
ENDROOT
BRANCH   1   2
ATOM      2  C   UNL     1     163.370 162.390 179.919  1.00  0.00     0.171 C 
BRANCH   2   3
ATOM      3  C   UNL     1     164.829 161.896 179.917  1.00  0.00     0.190 C 
BRANCH   3   4
ATOM      4  O   UNL     1     164.938 160.690 179.211  1.00  0.00    -0.394 OA
ATOM      5  H   UNL     1     164.935 160.932 178.249  1.00  0.00     0.210 HD
ENDBRANCH   3   4
ENDBRANCH   2   3
BRANCH   2   6
ATOM      6  O   UNL     1     163.352 163.700 180.429  1.00  0.00    -0.388 OA
ATOM      7  H   UNL     1     163.500 164.313 179.662  1.00  0.00     0.211 HD
ENDBRANCH   2   6
ENDBRANCH   1   2
BRANCH   1   8
ATOM      8  C   UNL     1     161.692 163.565 178.216  1.00  0.00     0.171 C 
BRANCH   8   9
ATOM      9  C   UNL     1     161.176 163.599 176.766  1.00  0.00     0.190 C 
BRANCH   9  10
ATOM     10  O   UNL     1     160.205 162.607 176.567  1.00  0.00    -0.394 OA
ATOM     11  H   UNL     1     160.405 161.880 177.212  1.00  0.00     0.210 HD
ENDBRANCH   9  10
ENDBRANCH   8   9
BRANCH   8  12
ATOM     12  O   UNL     1     160.607 163.589 179.107  1.00  0.00    -0.388 OA
ATOM     13  H   UNL     1     160.961 163.337 180.000  1.00  0.00     0.211 HD
ENDBRANCH   8  12
ENDBRANCH   1   8
BRANCH   1  14
ATOM     14  O   UNL     1     162.050 161.131 178.255  1.00  0.00    -0.388 OA
ATOM     15  H   UNL     1     161.069 161.260 178.224  1.00  0.00     0.211 HD
ENDBRANCH   1  14
TORSDOF 9
ENDMDL
