MODEL 1
REMARK VINA RESULT:    -4.898      0.000      0.000
REMARK INTER + INTRA:          -6.366
REMARK INTER:                  -6.043
REMARK INTRA:                  -0.322
REMARK UNBOUND:                -0.322
REMARK SMILES CCOC(=O)c1ccc(O)c(O)c1
REMARK SMILES IDX 4 1 5 2 3 3 2 4 1 5 6 6 13 7 7 8 11 9 8 10 9 11 12 12 10 14
REMARK H PARENT 12 13 10 15
REMARK Flexibility Score: inf
ROOT
ATOM      1  C   UNL     1       9.788  -7.670  -9.306  1.00  0.00     0.338 C 
ATOM      2  O   UNL     1      10.595  -8.627  -9.146  1.00  0.00    -0.246 OA
ENDROOT
BRANCH   1   3
ATOM      3  O   UNL     1       9.415  -7.277 -10.596  1.00  0.00    -0.462 OA
BRANCH   3   4
ATOM      4  C   UNL     1       9.577  -5.945 -11.073  1.00  0.00     0.230 C 
ATOM      5  C   UNL     1       8.211  -5.312 -11.285  1.00  0.00     0.049 C 
ENDBRANCH   3   4
ENDBRANCH   1   3
BRANCH   1   6
ATOM      6  C   UNL     1       9.235  -6.960  -8.132  1.00  0.00     0.064 A 
ATOM      7  C   UNL     1      10.038  -6.071  -7.396  1.00  0.00     0.065 A 
ATOM      8  C   UNL     1       7.902  -7.163  -7.734  1.00  0.00     0.020 A 
ATOM      9  C   UNL     1       9.520  -5.396  -6.281  1.00  0.00     0.158 A 
ATOM     10  C   UNL     1       7.385  -6.490  -6.623  1.00  0.00     0.051 A 
ATOM     11  C   UNL     1       8.187  -5.607  -5.894  1.00  0.00     0.157 A 
BRANCH   9  12
ATOM     12  O   UNL     1      10.325  -4.517  -5.558  1.00  0.00    -0.504 OA
ATOM     13  H   UNL     1      10.642  -4.736  -4.620  1.00  0.00     0.293 HD
ENDBRANCH   9  12
BRANCH  11  14
ATOM     14  O   UNL     1       7.643  -4.951  -4.791  1.00  0.00    -0.504 OA
ATOM     15  H   UNL     1       6.929  -4.239  -4.886  1.00  0.00     0.293 HD
ENDBRANCH  11  14
ENDBRANCH   1   6
TORSDOF 5
ENDMDL
MODEL 2
REMARK VINA RESULT:    -4.738     16.550     18.514
REMARK INTER + INTRA:          -6.168
REMARK INTER:                  -6.035
REMARK INTRA:                  -0.133
REMARK UNBOUND:                -0.322
REMARK SMILES CCOC(=O)c1ccc(O)c(O)c1
REMARK SMILES IDX 4 1 5 2 3 3 2 4 1 5 6 6 13 7 7 8 11 9 8 10 9 11 12 12 10 14
REMARK H PARENT 12 13 10 15
REMARK Flexibility Score: inf
ROOT
ATOM      1  C   UNL     1      20.933   0.628 -17.481  1.00  0.00     0.338 C 
ATOM      2  O   UNL     1      19.849   0.667 -16.835  1.00  0.00    -0.246 OA
ENDROOT
BRANCH   1   3
ATOM      3  O   UNL     1      22.129   1.009 -16.865  1.00  0.00    -0.462 OA
BRANCH   3   4
ATOM      4  C   UNL     1      22.206   1.371 -15.490  1.00  0.00     0.230 C 
ATOM      5  C   UNL     1      23.224   2.486 -15.313  1.00  0.00     0.049 C 
ENDBRANCH   3   4
ENDBRANCH   1   3
BRANCH   1   6
ATOM      6  C   UNL     1      20.941   0.177 -18.890  1.00  0.00     0.064 A 
ATOM      7  C   UNL     1      21.414   1.028 -19.906  1.00  0.00     0.065 A 
ATOM      8  C   UNL     1      20.478  -1.105 -19.237  1.00  0.00     0.020 A 
ATOM      9  C   UNL     1      21.423   0.607 -21.243  1.00  0.00     0.158 A 
ATOM     10  C   UNL     1      20.488  -1.524 -20.569  1.00  0.00     0.051 A 
ATOM     11  C   UNL     1      20.958  -0.676 -21.576  1.00  0.00     0.157 A 
BRANCH   9  12
ATOM     12  O   UNL     1      21.894   1.459 -22.242  1.00  0.00    -0.504 OA
ATOM     13  H   UNL     1      21.491   2.378 -22.390  1.00  0.00     0.293 HD
ENDBRANCH   9  12
BRANCH  11  14
ATOM     14  O   UNL     1      20.956  -1.123 -22.896  1.00  0.00    -0.504 OA
ATOM     15  H   UNL     1      20.433  -0.650 -23.624  1.00  0.00     0.293 HD
ENDBRANCH  11  14
ENDBRANCH   1   6
TORSDOF 5
ENDMDL
MODEL 3
REMARK VINA RESULT:    -4.726      1.870      2.488
REMARK INTER + INTRA:          -6.154
REMARK INTER:                  -5.965
REMARK INTRA:                  -0.189
REMARK UNBOUND:                -0.322
REMARK SMILES CCOC(=O)c1ccc(O)c(O)c1
REMARK SMILES IDX 4 1 5 2 3 3 2 4 1 5 6 6 13 7 7 8 11 9 8 10 9 11 12 12 10 14
REMARK H PARENT 12 13 10 15
REMARK Flexibility Score: inf
ROOT
ATOM      1  C   UNL     1       8.554  -6.554  -8.760  1.00  0.00     0.338 C 
ATOM      2  O   UNL     1       7.717  -6.876  -9.647  1.00  0.00    -0.246 OA
ENDROOT
BRANCH   1   3
ATOM      3  O   UNL     1       9.797  -6.028  -9.127  1.00  0.00    -0.462 OA
BRANCH   3   4
ATOM      4  C   UNL     1      11.021  -6.727  -8.919  1.00  0.00     0.230 C 
ATOM      5  C   UNL     1      12.150  -5.996  -9.627  1.00  0.00     0.049 C 
ENDBRANCH   3   4
ENDBRANCH   1   3
BRANCH   1   6
ATOM      6  C   UNL     1       8.223  -6.729  -7.328  1.00  0.00     0.064 A 
ATOM      7  C   UNL     1       8.195  -5.619  -6.465  1.00  0.00     0.065 A 
ATOM      8  C   UNL     1       7.932  -8.004  -6.810  1.00  0.00     0.020 A 
ATOM      9  C   UNL     1       7.882  -5.779  -5.107  1.00  0.00     0.158 A 
ATOM     10  C   UNL     1       7.620  -8.162  -5.457  1.00  0.00     0.051 A 
ATOM     11  C   UNL     1       7.594  -7.057  -4.602  1.00  0.00     0.157 A 
BRANCH   9  12
ATOM     12  O   UNL     1       7.857  -4.672  -4.259  1.00  0.00    -0.504 OA
ATOM     13  H   UNL     1       6.987  -4.218  -4.004  1.00  0.00     0.293 HD
ENDBRANCH   9  12
BRANCH  11  14
ATOM     14  O   UNL     1       7.279  -7.248  -3.257  1.00  0.00    -0.504 OA
ATOM     15  H   UNL     1       7.923  -7.006  -2.514  1.00  0.00     0.293 HD
ENDBRANCH  11  14
ENDBRANCH   1   6
TORSDOF 5
ENDMDL
MODEL 4
REMARK VINA RESULT:    -4.691     15.399     17.829
REMARK INTER + INTRA:          -6.110
REMARK INTER:                  -5.828
REMARK INTRA:                  -0.282
REMARK UNBOUND:                -0.322
REMARK SMILES CCOC(=O)c1ccc(O)c(O)c1
REMARK SMILES IDX 4 1 5 2 3 3 2 4 1 5 6 6 13 7 7 8 11 9 8 10 9 11 12 12 10 14
REMARK H PARENT 12 13 10 15
REMARK Flexibility Score: inf
ROOT
ATOM      1  C   UNL     1      20.864   0.611 -17.327  1.00  0.00     0.338 C 
ATOM      2  O   UNL     1      21.948   0.683 -16.685  1.00  0.00    -0.246 OA
ENDROOT
BRANCH   1   3
ATOM      3  O   UNL     1      19.661   0.972 -16.711  1.00  0.00    -0.462 OA
BRANCH   3   4
ATOM      4  C   UNL     1      19.103   0.240 -15.624  1.00  0.00     0.230 C 
ATOM      5  C   UNL     1      18.106  -0.778 -16.155  1.00  0.00     0.049 C 
ENDBRANCH   3   4
ENDBRANCH   1   3
BRANCH   1   6
ATOM      6  C   UNL     1      20.862   0.147 -18.732  1.00  0.00     0.064 A 
ATOM      7  C   UNL     1      21.349   0.979 -19.756  1.00  0.00     0.065 A 
ATOM      8  C   UNL     1      20.375  -1.129 -19.066  1.00  0.00     0.020 A 
ATOM      9  C   UNL     1      21.350   0.546 -21.089  1.00  0.00     0.158 A 
ATOM     10  C   UNL     1      20.377  -1.562 -20.394  1.00  0.00     0.051 A 
ATOM     11  C   UNL     1      20.861  -0.731 -21.409  1.00  0.00     0.157 A 
BRANCH   9  12
ATOM     12  O   UNL     1      21.835   1.379 -22.097  1.00  0.00    -0.504 OA
ATOM     13  H   UNL     1      21.211   1.846 -22.746  1.00  0.00     0.293 HD
ENDBRANCH   9  12
BRANCH  11  14
ATOM     14  O   UNL     1      20.849  -1.191 -22.725  1.00  0.00    -0.504 OA
ATOM     15  H   UNL     1      21.454  -1.939 -23.040  1.00  0.00     0.293 HD
ENDBRANCH  11  14
ENDBRANCH   1   6
TORSDOF 5
ENDMDL
MODEL 5
REMARK VINA RESULT:    -4.566     14.797     16.656
REMARK INTER + INTRA:          -5.956
REMARK INTER:                  -5.830
REMARK INTRA:                  -0.126
REMARK UNBOUND:                -0.322
REMARK SMILES CCOC(=O)c1ccc(O)c(O)c1
REMARK SMILES IDX 4 1 5 2 3 3 2 4 1 5 6 6 13 7 7 8 11 9 8 10 9 11 12 12 10 14
REMARK H PARENT 12 13 10 15
REMARK Flexibility Score: inf
ROOT
ATOM      1  C   UNL     1      20.613  -1.011 -19.733  1.00  0.00     0.338 C 
ATOM      2  O   UNL     1      20.614  -2.271 -19.798  1.00  0.00    -0.246 OA
ENDROOT
BRANCH   1   3
ATOM      3  O   UNL     1      20.842  -0.251 -20.884  1.00  0.00    -0.462 OA
BRANCH   3   4
ATOM      4  C   UNL     1      20.990  -0.833 -22.175  1.00  0.00     0.230 C 
ATOM      5  C   UNL     1      22.083  -0.104 -22.940  1.00  0.00     0.049 C 
ENDBRANCH   3   4
ENDBRANCH   1   3
BRANCH   1   6
ATOM      6  C   UNL     1      20.368  -0.335 -18.440  1.00  0.00     0.064 A 
ATOM      7  C   UNL     1      19.107  -0.417 -17.823  1.00  0.00     0.065 A 
ATOM      8  C   UNL     1      21.389   0.399 -17.809  1.00  0.00     0.020 A 
ATOM      9  C   UNL     1      18.868   0.222 -16.598  1.00  0.00     0.158 A 
ATOM     10  C   UNL     1      21.151   1.035 -16.588  1.00  0.00     0.051 A 
ATOM     11  C   UNL     1      19.896   0.951 -15.978  1.00  0.00     0.157 A 
BRANCH   9  12
ATOM     12  O   UNL     1      17.614   0.134 -15.994  1.00  0.00    -0.504 OA
ATOM     13  H   UNL     1      17.094   0.963 -15.728  1.00  0.00     0.293 HD
ENDBRANCH   9  12
BRANCH  11  14
ATOM     14  O   UNL     1      19.690   1.597 -14.760  1.00  0.00    -0.504 OA
ATOM     15  H   UNL     1      19.157   2.456 -14.689  1.00  0.00     0.293 HD
ENDBRANCH  11  14
ENDBRANCH   1   6
TORSDOF 5
ENDMDL
MODEL 6
REMARK VINA RESULT:    -4.485      1.997      2.846
REMARK INTER + INTRA:          -5.856
REMARK INTER:                  -5.522
REMARK INTRA:                  -0.334
REMARK UNBOUND:                -0.322
REMARK SMILES CCOC(=O)c1ccc(O)c(O)c1
REMARK SMILES IDX 4 1 5 2 3 3 2 4 1 5 6 6 13 7 7 8 11 9 8 10 9 11 12 12 10 14
REMARK H PARENT 12 13 10 15
REMARK Flexibility Score: inf
ROOT
ATOM      1  C   UNL     1      11.147  -6.702  -9.036  1.00  0.00     0.338 C 
ATOM      2  O   UNL     1      12.152  -5.987  -9.306  1.00  0.00    -0.246 OA
ENDROOT
BRANCH   1   3
ATOM      3  O   UNL     1      11.279  -8.092  -8.953  1.00  0.00    -0.462 OA
BRANCH   3   4
ATOM      4  C   UNL     1      10.519  -8.986  -9.760  1.00  0.00     0.230 C 
ATOM      5  C   UNL     1      10.857  -8.762 -11.225  1.00  0.00     0.049 C 
ENDBRANCH   3   4
ENDBRANCH   1   3
BRANCH   1   6
ATOM      6  C   UNL     1       9.828  -6.072  -8.804  1.00  0.00     0.064 A 
ATOM      7  C   UNL     1       9.315  -5.959  -7.500  1.00  0.00     0.065 A 
ATOM      8  C   UNL     1       9.070  -5.578  -9.880  1.00  0.00     0.020 A 
ATOM      9  C   UNL     1       8.065  -5.365  -7.274  1.00  0.00     0.158 A 
ATOM     10  C   UNL     1       7.826  -4.984  -9.655  1.00  0.00     0.051 A 
ATOM     11  C   UNL     1       7.317  -4.875  -8.357  1.00  0.00     0.157 A 
BRANCH   9  12
ATOM     12  O   UNL     1       7.564  -5.258  -5.976  1.00  0.00    -0.504 OA
ATOM     13  H   UNL     1       6.866  -5.902  -5.622  1.00  0.00     0.293 HD
ENDBRANCH   9  12
BRANCH  11  14
ATOM     14  O   UNL     1       6.073  -4.278  -8.164  1.00  0.00    -0.504 OA
ATOM     15  H   UNL     1       5.326  -4.356  -8.844  1.00  0.00     0.293 HD
ENDBRANCH  11  14
ENDBRANCH   1   6
TORSDOF 5
ENDMDL
MODEL 7
REMARK VINA RESULT:    -4.468     15.125     16.865
REMARK INTER + INTRA:          -5.835
REMARK INTER:                  -5.676
REMARK INTRA:                  -0.159
REMARK UNBOUND:                -0.322
REMARK SMILES CCOC(=O)c1ccc(O)c(O)c1
REMARK SMILES IDX 4 1 5 2 3 3 2 4 1 5 6 6 13 7 7 8 11 9 8 10 9 11 12 12 10 14
REMARK H PARENT 12 13 10 15
REMARK Flexibility Score: inf
ROOT
ATOM      1  C   UNL     1      20.362  -1.064 -19.715  1.00  0.00     0.338 C 
ATOM      2  O   UNL     1      20.340  -2.325 -19.754  1.00  0.00    -0.246 OA
ENDROOT
BRANCH   1   3
ATOM      3  O   UNL     1      20.437  -0.328 -20.902  1.00  0.00    -0.462 OA
BRANCH   3   4
ATOM      4  C   UNL     1      21.044  -0.837 -22.086  1.00  0.00     0.230 C 
ATOM      5  C   UNL     1      21.998   0.201 -22.655  1.00  0.00     0.049 C 
ENDBRANCH   3   4
ENDBRANCH   1   3
BRANCH   1   6
ATOM      6  C   UNL     1      20.308  -0.360 -18.414  1.00  0.00     0.064 A 
ATOM      7  C   UNL     1      21.431   0.343 -17.940  1.00  0.00     0.065 A 
ATOM      8  C   UNL     1      19.138  -0.381 -17.634  1.00  0.00     0.020 A 
ATOM      9  C   UNL     1      21.387   1.012 -16.709  1.00  0.00     0.158 A 
ATOM     10  C   UNL     1      19.094   0.286 -16.408  1.00  0.00     0.051 A 
ATOM     11  C   UNL     1      20.212   0.982 -15.939  1.00  0.00     0.157 A 
BRANCH   9  12
ATOM     12  O   UNL     1      22.505   1.705 -16.247  1.00  0.00    -0.504 OA
ATOM     13  H   UNL     1      23.102   2.229 -16.877  1.00  0.00     0.293 HD
ENDBRANCH   9  12
BRANCH  11  14
ATOM     14  O   UNL     1      20.137   1.638 -14.711  1.00  0.00    -0.504 OA
ATOM     15  H   UNL     1      19.305   1.608 -14.134  1.00  0.00     0.293 HD
ENDBRANCH  11  14
ENDBRANCH   1   6
TORSDOF 5
ENDMDL
MODEL 8
REMARK VINA RESULT:    -4.445      1.981      2.872
REMARK INTER + INTRA:          -5.807
REMARK INTER:                  -5.512
REMARK INTRA:                  -0.295
REMARK UNBOUND:                -0.322
REMARK SMILES CCOC(=O)c1ccc(O)c(O)c1
REMARK SMILES IDX 4 1 5 2 3 3 2 4 1 5 6 6 13 7 7 8 11 9 8 10 9 11 12 12 10 14
REMARK H PARENT 12 13 10 15
REMARK Flexibility Score: inf
ROOT
ATOM      1  C   UNL     1       9.995  -5.644 -10.881  1.00  0.00     0.338 C 
ATOM      2  O   UNL     1      11.025  -4.959 -11.131  1.00  0.00    -0.246 OA
ENDROOT
BRANCH   1   3
ATOM      3  O   UNL     1       9.461  -6.488 -11.861  1.00  0.00    -0.462 OA
BRANCH   3   4
ATOM      4  C   UNL     1       9.518  -7.908 -11.768  1.00  0.00     0.230 C 
ATOM      5  C   UNL     1      10.969  -8.361 -11.787  1.00  0.00     0.049 C 
ENDBRANCH   3   4
ENDBRANCH   1   3
BRANCH   1   6
ATOM      6  C   UNL     1       9.349  -5.557  -9.553  1.00  0.00     0.064 A 
ATOM      7  C   UNL     1       8.029  -5.086  -9.434  1.00  0.00     0.065 A 
ATOM      8  C   UNL     1      10.042  -5.943  -8.391  1.00  0.00     0.020 A 
ATOM      9  C   UNL     1       7.412  -5.000  -8.178  1.00  0.00     0.158 A 
ATOM     10  C   UNL     1       9.426  -5.858  -7.140  1.00  0.00     0.051 A 
ATOM     11  C   UNL     1       8.115  -5.389  -7.026  1.00  0.00     0.157 A 
BRANCH   9  12
ATOM     12  O   UNL     1       6.103  -4.531  -8.072  1.00  0.00    -0.504 OA
ATOM     13  H   UNL     1       5.348  -5.131  -7.758  1.00  0.00     0.293 HD
ENDBRANCH   9  12
BRANCH  11  14
ATOM     14  O   UNL     1       7.528  -5.315  -5.764  1.00  0.00    -0.504 OA
ATOM     15  H   UNL     1       7.112  -6.123  -5.315  1.00  0.00     0.293 HD
ENDBRANCH  11  14
ENDBRANCH   1   6
TORSDOF 5
ENDMDL
MODEL 9
REMARK VINA RESULT:    -4.380      2.471      2.851
REMARK INTER + INTRA:          -5.727
REMARK INTER:                  -5.581
REMARK INTRA:                  -0.146
REMARK UNBOUND:                -0.322
REMARK SMILES CCOC(=O)c1ccc(O)c(O)c1
REMARK SMILES IDX 4 1 5 2 3 3 2 4 1 5 6 6 13 7 7 8 11 9 8 10 9 11 12 12 10 14
REMARK H PARENT 12 13 10 15
REMARK Flexibility Score: inf
ROOT
ATOM      1  C   UNL     1      11.660  -6.882  -9.618  1.00  0.00     0.338 C 
ATOM      2  O   UNL     1      11.760  -7.769 -10.510  1.00  0.00    -0.246 OA
ENDROOT
BRANCH   1   3
ATOM      3  O   UNL     1      12.568  -5.819  -9.583  1.00  0.00    -0.462 OA
BRANCH   3   4
ATOM      4  C   UNL     1      13.232  -5.334 -10.746  1.00  0.00     0.230 C 
ATOM      5  C   UNL     1      14.558  -4.705 -10.349  1.00  0.00     0.049 C 
ENDBRANCH   3   4
ENDBRANCH   1   3
BRANCH   1   6
ATOM      6  C   UNL     1      10.580  -6.963  -8.609  1.00  0.00     0.064 A 
ATOM      7  C   UNL     1      10.064  -5.791  -8.027  1.00  0.00     0.065 A 
ATOM      8  C   UNL     1      10.056  -8.207  -8.218  1.00  0.00     0.020 A 
ATOM      9  C   UNL     1       9.041  -5.861  -7.070  1.00  0.00     0.158 A 
ATOM     10  C   UNL     1       9.037  -8.276  -7.264  1.00  0.00     0.051 A 
ATOM     11  C   UNL     1       8.526  -7.110  -6.687  1.00  0.00     0.157 A 
BRANCH   9  12
ATOM     12  O   UNL     1       8.536  -4.693  -6.498  1.00  0.00    -0.504 OA
ATOM     13  H   UNL     1       8.920  -4.313  -5.641  1.00  0.00     0.293 HD
ENDBRANCH   9  12
BRANCH  11  14
ATOM     14  O   UNL     1       7.509  -7.211  -5.739  1.00  0.00    -0.504 OA
ATOM     15  H   UNL     1       6.549  -7.401  -5.997  1.00  0.00     0.293 HD
ENDBRANCH  11  14
ENDBRANCH   1   6
TORSDOF 5
ENDMDL
