MODEL 1
REMARK VINA RESULT:    -6.492      0.000      0.000
REMARK INTER + INTRA:          -9.240
REMARK INTER:                  -8.770
REMARK INTRA:                  -0.471
REMARK UNBOUND:                -0.471
REMARK SMILES O=c1c(-c2ccc(O)cc2)coc2c([C@H]3O[C@H](CO)[C@H](O)[C@H](O)[C@H]3O)c(O)ccc12
REMARK SMILES IDX 3 1 11 2 12 3 13 4 30 5 2 6 1 7 29 8 28 9 26 10 14 11 4 12
REMARK SMILES IDX 5 13 6 14 7 15 10 16 9 17 8 18 15 20 24 21 16 22 22 23 17 24
REMARK SMILES IDX 20 25 25 26 23 28 18 30 19 31 21 33 27 35
REMARK H PARENT 8 19 25 27 23 29 19 32 21 34 27 36
REMARK Flexibility Score: inf
ROOT
ATOM      1  C   UNL     1      21.972  -5.207  16.611  1.00  0.00     0.065 A 
ATOM      2  C   UNL     1      22.847  -4.118  16.527  1.00  0.00     0.208 A 
ATOM      3  O   UNL     1      22.846  -3.172  17.466  1.00  0.00    -0.463 OA
ATOM      4  C   UNL     1      22.027  -3.191  18.512  1.00  0.00     0.147 A 
ATOM      5  C   UNL     1      21.111  -4.262  18.666  1.00  0.00     0.066 A 
ATOM      6  C   UNL     1      21.091  -5.282  17.700  1.00  0.00     0.200 A 
ATOM      7  O   UNL     1      20.291  -6.253  17.793  1.00  0.00    -0.288 OA
ATOM      8  C   UNL     1      20.238  -4.284  19.764  1.00  0.00     0.020 A 
ATOM      9  C   UNL     1      20.257  -3.250  20.695  1.00  0.00     0.047 A 
ATOM     10  C   UNL     1      21.160  -2.191  20.566  1.00  0.00     0.125 A 
ATOM     11  C   UNL     1      22.066  -2.151  19.480  1.00  0.00     0.069 A 
ENDROOT
BRANCH   1  12
ATOM     12  C   UNL     1      21.954  -6.235  15.553  1.00  0.00    -0.011 A 
ATOM     13  C   UNL     1      21.312  -5.978  14.337  1.00  0.00     0.013 A 
ATOM     14  C   UNL     1      21.255  -6.967  13.349  1.00  0.00     0.047 A 
ATOM     15  C   UNL     1      21.847  -8.218  13.574  1.00  0.00     0.115 A 
ATOM     16  C   UNL     1      22.545  -7.488  15.776  1.00  0.00     0.013 A 
ATOM     17  C   UNL     1      22.489  -8.477  14.795  1.00  0.00     0.047 A 
BRANCH  15  18
ATOM     18  O   UNL     1      21.819  -9.205  12.589  1.00  0.00    -0.508 OA
ATOM     19  H   UNL     1      21.307 -10.072  12.717  1.00  0.00     0.293 HD
ENDBRANCH  15  18
ENDBRANCH   1  12
BRANCH  11  20
ATOM     20  C   UNL     1      23.013  -0.960  19.375  1.00  0.00     0.188 C 
ATOM     21  C   UNL     1      24.506  -1.384  19.476  1.00  0.00     0.179 C 
ATOM     22  O   UNL     1      22.706   0.060  20.319  1.00  0.00    -0.362 OA
ATOM     23  C   UNL     1      25.434  -0.157  19.670  1.00  0.00     0.177 C 
ATOM     24  C   UNL     1      23.392   1.286  20.045  1.00  0.00     0.176 C 
ATOM     25  C   UNL     1      24.738   1.155  19.253  1.00  0.00     0.177 C 
BRANCH  21  26
ATOM     26  O   UNL     1      24.737  -2.290  20.529  1.00  0.00    -0.387 OA
ATOM     27  H   UNL     1      25.705  -2.232  20.776  1.00  0.00     0.211 HD
ENDBRANCH  21  26
BRANCH  23  28
ATOM     28  O   UNL     1      26.620  -0.345  18.942  1.00  0.00    -0.387 OA
ATOM     29  H   UNL     1      26.677  -1.311  18.724  1.00  0.00     0.211 HD
ENDBRANCH  23  28
BRANCH  24  30
ATOM     30  C   UNL     1      22.432   2.327  19.450  1.00  0.00     0.191 C 
BRANCH  30  31
ATOM     31  O   UNL     1      23.126   3.461  19.019  1.00  0.00    -0.394 OA
ATOM     32  H   UNL     1      22.447   4.183  18.933  1.00  0.00     0.210 HD
ENDBRANCH  30  31
ENDBRANCH  24  30
BRANCH  25  33
ATOM     33  O   UNL     1      24.511   1.165  17.864  1.00  0.00    -0.388 OA
ATOM     34  H   UNL     1      23.523   1.143  17.737  1.00  0.00     0.211 HD
ENDBRANCH  25  33
ENDBRANCH  11  20
BRANCH  10  35
ATOM     35  O   UNL     1      21.174  -1.173  21.526  1.00  0.00    -0.507 OA
ATOM     36  H   UNL     1      20.348  -0.928  22.064  1.00  0.00     0.293 HD
ENDBRANCH  10  35
TORSDOF 9
ENDMDL
MODEL 2
REMARK VINA RESULT:    -5.736      1.031      2.394
REMARK INTER + INTRA:          -8.219
REMARK INTER:                  -8.450
REMARK INTRA:                   0.230
REMARK UNBOUND:                -0.471
REMARK SMILES O=c1c(-c2ccc(O)cc2)coc2c([C@H]3O[C@H](CO)[C@H](O)[C@H](O)[C@H]3O)c(O)ccc12
REMARK SMILES IDX 3 1 11 2 12 3 13 4 30 5 2 6 1 7 29 8 28 9 26 10 14 11 4 12
REMARK SMILES IDX 5 13 6 14 7 15 10 16 9 17 8 18 15 20 24 21 16 22 22 23 17 24
REMARK SMILES IDX 20 25 25 26 23 28 18 30 19 31 21 33 27 35
REMARK H PARENT 8 19 25 27 23 29 19 32 21 34 27 36
REMARK Flexibility Score: inf
ROOT
ATOM      1  C   UNL     1      21.746  -5.481  16.861  1.00  0.00     0.065 A 
ATOM      2  C   UNL     1      22.682  -4.441  16.891  1.00  0.00     0.208 A 
ATOM      3  O   UNL     1      22.655  -3.528  17.861  1.00  0.00    -0.463 OA
ATOM      4  C   UNL     1      21.751  -3.535  18.836  1.00  0.00     0.147 A 
ATOM      5  C   UNL     1      20.769  -4.556  18.874  1.00  0.00     0.066 A 
ATOM      6  C   UNL     1      20.774  -5.541  17.871  1.00  0.00     0.200 A 
ATOM      7  O   UNL     1      19.918  -6.467  17.862  1.00  0.00    -0.288 OA
ATOM      8  C   UNL     1      19.807  -4.564  19.894  1.00  0.00     0.020 A 
ATOM      9  C   UNL     1      19.804  -3.565  20.862  1.00  0.00     0.047 A 
ATOM     10  C   UNL     1      20.771  -2.556  20.848  1.00  0.00     0.125 A 
ATOM     11  C   UNL     1      21.765  -2.532  19.842  1.00  0.00     0.069 A 
ENDROOT
BRANCH   1  12
ATOM     12  C   UNL     1      21.761  -6.470  15.768  1.00  0.00    -0.011 A 
ATOM     13  C   UNL     1      22.197  -7.777  16.011  1.00  0.00     0.013 A 
ATOM     14  C   UNL     1      22.254  -8.706  14.966  1.00  0.00     0.047 A 
ATOM     15  C   UNL     1      21.869  -8.329  13.671  1.00  0.00     0.115 A 
ATOM     16  C   UNL     1      21.377  -6.095  14.471  1.00  0.00     0.013 A 
ATOM     17  C   UNL     1      21.434  -7.016  13.426  1.00  0.00     0.047 A 
BRANCH  15  18
ATOM     18  O   UNL     1      21.898  -9.251  12.624  1.00  0.00    -0.508 OA
ATOM     19  H   UNL     1      21.226 -10.007  12.562  1.00  0.00     0.293 HD
ENDBRANCH  15  18
ENDBRANCH   1  12
BRANCH  11  20
ATOM     20  C   UNL     1      22.781  -1.394  19.860  1.00  0.00     0.188 C 
ATOM     21  C   UNL     1      22.099   0.004  19.892  1.00  0.00     0.179 C 
ATOM     22  O   UNL     1      23.713  -1.484  18.790  1.00  0.00    -0.362 OA
ATOM     23  C   UNL     1      23.116   1.140  19.608  1.00  0.00     0.177 C 
ATOM     24  C   UNL     1      24.829  -0.602  18.958  1.00  0.00     0.176 C 
ATOM     25  C   UNL     1      24.569   0.672  19.832  1.00  0.00     0.177 C 
BRANCH  21  26
ATOM     26  O   UNL     1      21.044   0.107  18.965  1.00  0.00    -0.387 OA
ATOM     27  H   UNL     1      21.393   0.582  18.156  1.00  0.00     0.211 HD
ENDBRANCH  21  26
BRANCH  23  28
ATOM     28  O   UNL     1      22.819   2.248  20.417  1.00  0.00    -0.387 OA
ATOM     29  H   UNL     1      21.831   2.315  20.469  1.00  0.00     0.211 HD
ENDBRANCH  23  28
BRANCH  24  30
ATOM     30  C   UNL     1      26.084  -1.383  19.375  1.00  0.00     0.191 C 
BRANCH  30  31
ATOM     31  O   UNL     1      27.067  -0.524  19.872  1.00  0.00    -0.394 OA
ATOM     32  H   UNL     1      26.738  -0.212  20.758  1.00  0.00     0.210 HD
ENDBRANCH  30  31
ENDBRANCH  24  30
BRANCH  25  33
ATOM     33  O   UNL     1      24.788   0.403  21.196  1.00  0.00    -0.388 OA
ATOM     34  H   UNL     1      25.056   1.264  21.617  1.00  0.00     0.211 HD
ENDBRANCH  25  33
ENDBRANCH  11  20
BRANCH  10  35
ATOM     35  O   UNL     1      20.759  -1.572  21.844  1.00  0.00    -0.507 OA
ATOM     36  H   UNL     1      19.895  -1.179  22.203  1.00  0.00     0.293 HD
ENDBRANCH  10  35
TORSDOF 9
ENDMDL
MODEL 3
REMARK VINA RESULT:    -5.727      3.544      6.618
REMARK INTER + INTRA:          -8.207
REMARK INTER:                  -7.633
REMARK INTRA:                  -0.574
REMARK UNBOUND:                -0.471
REMARK SMILES O=c1c(-c2ccc(O)cc2)coc2c([C@H]3O[C@H](CO)[C@H](O)[C@H](O)[C@H]3O)c(O)ccc12
REMARK SMILES IDX 3 1 11 2 12 3 13 4 30 5 2 6 1 7 29 8 28 9 26 10 14 11 4 12
REMARK SMILES IDX 5 13 6 14 7 15 10 16 9 17 8 18 15 20 24 21 16 22 22 23 17 24
REMARK SMILES IDX 20 25 25 26 23 28 18 30 19 31 21 33 27 35
REMARK H PARENT 8 19 25 27 23 29 19 32 21 34 27 36
REMARK Flexibility Score: inf
ROOT
ATOM      1  C   UNL     1      24.707  -1.114  15.918  1.00  0.00     0.065 A 
ATOM      2  C   UNL     1      23.549  -1.827  15.585  1.00  0.00     0.208 A 
ATOM      3  O   UNL     1      22.722  -2.263  16.535  1.00  0.00    -0.463 OA
ATOM      4  C   UNL     1      22.942  -2.067  17.831  1.00  0.00     0.147 A 
ATOM      5  C   UNL     1      24.094  -1.355  18.248  1.00  0.00     0.066 A 
ATOM      6  C   UNL     1      24.983  -0.872  17.272  1.00  0.00     0.200 A 
ATOM      7  O   UNL     1      26.023  -0.235  17.596  1.00  0.00    -0.288 OA
ATOM      8  C   UNL     1      24.335  -1.153  19.614  1.00  0.00     0.020 A 
ATOM      9  C   UNL     1      23.456  -1.661  20.564  1.00  0.00     0.047 A 
ATOM     10  C   UNL     1      22.309  -2.358  20.173  1.00  0.00     0.125 A 
ATOM     11  C   UNL     1      22.028  -2.561  18.801  1.00  0.00     0.069 A 
ENDROOT
BRANCH   1  12
ATOM     12  C   UNL     1      25.636  -0.661  14.866  1.00  0.00    -0.011 A 
ATOM     13  C   UNL     1      25.435   0.573  14.237  1.00  0.00     0.013 A 
ATOM     14  C   UNL     1      26.288   0.985  13.208  1.00  0.00     0.047 A 
ATOM     15  C   UNL     1      27.351   0.164  12.807  1.00  0.00     0.115 A 
ATOM     16  C   UNL     1      26.700  -1.481  14.462  1.00  0.00     0.013 A 
ATOM     17  C   UNL     1      27.551  -1.076  13.435  1.00  0.00     0.047 A 
BRANCH  15  18
ATOM     18  O   UNL     1      28.224   0.573  11.798  1.00  0.00    -0.508 OA
ATOM     19  H   UNL     1      28.135   0.234  10.847  1.00  0.00     0.293 HD
ENDBRANCH  15  18
ENDBRANCH   1  12
BRANCH  11  20
ATOM     20  C   UNL     1      20.775  -3.348  18.431  1.00  0.00     0.188 C 
ATOM     21  C   UNL     1      21.050  -4.876  18.321  1.00  0.00     0.179 C 
ATOM     22  O   UNL     1      20.155  -2.854  17.251  1.00  0.00    -0.362 OA
ATOM     23  C   UNL     1      19.862  -5.621  17.660  1.00  0.00     0.177 C 
ATOM     24  C   UNL     1      18.841  -3.389  17.055  1.00  0.00     0.176 C 
ATOM     25  C   UNL     1      18.566  -4.786  17.710  1.00  0.00     0.177 C 
BRANCH  21  26
ATOM     26  O   UNL     1      22.219  -5.159  17.589  1.00  0.00    -0.387 OA
ATOM     27  H   UNL     1      22.716  -4.299  17.461  1.00  0.00     0.211 HD
ENDBRANCH  21  26
BRANCH  23  28
ATOM     28  O   UNL     1      19.679  -6.863  18.288  1.00  0.00    -0.387 OA
ATOM     29  H   UNL     1      20.552  -7.333  18.264  1.00  0.00     0.211 HD
ENDBRANCH  23  28
BRANCH  24  30
ATOM     30  C   UNL     1      17.770  -2.339  17.385  1.00  0.00     0.191 C 
BRANCH  30  31
ATOM     31  O   UNL     1      18.062  -1.116  16.774  1.00  0.00    -0.394 OA
ATOM     32  H   UNL     1      18.893  -0.782  17.208  1.00  0.00     0.210 HD
ENDBRANCH  30  31
ENDBRANCH  24  30
BRANCH  25  33
ATOM     33  O   UNL     1      18.131  -4.644  19.040  1.00  0.00    -0.388 OA
ATOM     34  H   UNL     1      17.532  -3.848  19.061  1.00  0.00     0.211 HD
ENDBRANCH  25  33
ENDBRANCH  11  20
BRANCH  10  35
ATOM     35  O   UNL     1      21.428  -2.843  21.146  1.00  0.00    -0.507 OA
ATOM     36  H   UNL     1      20.764  -3.585  20.950  1.00  0.00     0.293 HD
ENDBRANCH  10  35
TORSDOF 9
ENDMDL
MODEL 4
REMARK VINA RESULT:    -5.710      1.909      8.315
REMARK INTER + INTRA:          -8.183
REMARK INTER:                  -7.475
REMARK INTRA:                  -0.708
REMARK UNBOUND:                -0.471
REMARK SMILES O=c1c(-c2ccc(O)cc2)coc2c([C@H]3O[C@H](CO)[C@H](O)[C@H](O)[C@H]3O)c(O)ccc12
REMARK SMILES IDX 3 1 11 2 12 3 13 4 30 5 2 6 1 7 29 8 28 9 26 10 14 11 4 12
REMARK SMILES IDX 5 13 6 14 7 15 10 16 9 17 8 18 15 20 24 21 16 22 22 23 17 24
REMARK SMILES IDX 20 25 25 26 23 28 18 30 19 31 21 33 27 35
REMARK H PARENT 8 19 25 27 23 29 19 32 21 34 27 36
REMARK Flexibility Score: inf
ROOT
ATOM      1  C   UNL     1      23.106  -2.784  18.041  1.00  0.00     0.065 A 
ATOM      2  C   UNL     1      23.217  -3.345  16.763  1.00  0.00     0.208 A 
ATOM      3  O   UNL     1      22.313  -4.219  16.323  1.00  0.00    -0.463 OA
ATOM      4  C   UNL     1      21.277  -4.618  17.054  1.00  0.00     0.147 A 
ATOM      5  C   UNL     1      21.097  -4.096  18.359  1.00  0.00     0.066 A 
ATOM      6  C   UNL     1      22.027  -3.164  18.852  1.00  0.00     0.200 A 
ATOM      7  O   UNL     1      21.909  -2.675  20.009  1.00  0.00    -0.288 OA
ATOM      8  C   UNL     1      20.011  -4.520  19.139  1.00  0.00     0.020 A 
ATOM      9  C   UNL     1      19.117  -5.463  18.641  1.00  0.00     0.047 A 
ATOM     10  C   UNL     1      19.272  -5.981  17.353  1.00  0.00     0.125 A 
ATOM     11  C   UNL     1      20.347  -5.559  16.536  1.00  0.00     0.069 A 
ENDROOT
BRANCH   1  12
ATOM     12  C   UNL     1      24.127  -1.841  18.536  1.00  0.00    -0.011 A 
ATOM     13  C   UNL     1      25.474  -2.216  18.561  1.00  0.00     0.013 A 
ATOM     14  C   UNL     1      26.439  -1.341  19.070  1.00  0.00     0.047 A 
ATOM     15  C   UNL     1      26.057  -0.081  19.554  1.00  0.00     0.115 A 
ATOM     16  C   UNL     1      23.747  -0.580  19.021  1.00  0.00     0.013 A 
ATOM     17  C   UNL     1      24.705   0.294  19.532  1.00  0.00     0.047 A 
BRANCH  15  18
ATOM     18  O   UNL     1      27.011   0.811  20.043  1.00  0.00    -0.508 OA
ATOM     19  H   UNL     1      26.750   1.621  20.596  1.00  0.00     0.293 HD
ENDBRANCH  15  18
ENDBRANCH   1  12
BRANCH  11  20
ATOM     20  C   UNL     1      20.481  -6.175  15.147  1.00  0.00     0.188 C 
ATOM     21  C   UNL     1      19.709  -5.366  14.066  1.00  0.00     0.179 C 
ATOM     22  O   UNL     1      20.105  -7.547  15.125  1.00  0.00    -0.362 OA
ATOM     23  C   UNL     1      19.602  -6.154  12.734  1.00  0.00     0.177 C 
ATOM     24  C   UNL     1      20.494  -8.204  13.914  1.00  0.00     0.176 C 
ATOM     25  C   UNL     1      20.650  -7.283  12.655  1.00  0.00     0.177 C 
BRANCH  21  26
ATOM     26  O   UNL     1      18.411  -5.016  14.483  1.00  0.00    -0.387 OA
ATOM     27  H   UNL     1      17.823  -5.001  13.674  1.00  0.00     0.211 HD
ENDBRANCH  21  26
BRANCH  23  28
ATOM     28  O   UNL     1      19.741  -5.269  11.653  1.00  0.00    -0.387 OA
ATOM     29  H   UNL     1      19.616  -4.352  12.009  1.00  0.00     0.211 HD
ENDBRANCH  23  28
BRANCH  24  30
ATOM     30  C   UNL     1      21.704  -9.119  14.154  1.00  0.00     0.191 C 
BRANCH  30  31
ATOM     31  O   UNL     1      22.371  -9.395  12.957  1.00  0.00    -0.394 OA
ATOM     32  H   UNL     1      23.287  -9.688  13.213  1.00  0.00     0.210 HD
ENDBRANCH  30  31
ENDBRANCH  24  30
BRANCH  25  33
ATOM     33  O   UNL     1      21.946  -6.741  12.582  1.00  0.00    -0.388 OA
ATOM     34  H   UNL     1      22.576  -7.512  12.539  1.00  0.00     0.211 HD
ENDBRANCH  25  33
ENDBRANCH  11  20
BRANCH  10  35
ATOM     35  O   UNL     1      18.348  -6.914  16.867  1.00  0.00    -0.507 OA
ATOM     36  H   UNL     1      17.824  -6.758  16.012  1.00  0.00     0.293 HD
ENDBRANCH  10  35
TORSDOF 9
ENDMDL
MODEL 5
REMARK VINA RESULT:    -5.646      3.527      6.818
REMARK INTER + INTRA:          -8.098
REMARK INTER:                  -7.698
REMARK INTRA:                  -0.400
REMARK UNBOUND:                -0.471
REMARK SMILES O=c1c(-c2ccc(O)cc2)coc2c([C@H]3O[C@H](CO)[C@H](O)[C@H](O)[C@H]3O)c(O)ccc12
REMARK SMILES IDX 3 1 11 2 12 3 13 4 30 5 2 6 1 7 29 8 28 9 26 10 14 11 4 12
REMARK SMILES IDX 5 13 6 14 7 15 10 16 9 17 8 18 15 20 24 21 16 22 22 23 17 24
REMARK SMILES IDX 20 25 25 26 23 28 18 30 19 31 21 33 27 35
REMARK H PARENT 8 19 25 27 23 29 19 32 21 34 27 36
REMARK Flexibility Score: inf
ROOT
ATOM      1  C   UNL     1      24.785  -1.055  15.904  1.00  0.00     0.065 A 
ATOM      2  C   UNL     1      23.620  -1.777  15.621  1.00  0.00     0.208 A 
ATOM      3  O   UNL     1      22.816  -2.183  16.602  1.00  0.00    -0.463 OA
ATOM      4  C   UNL     1      23.066  -1.947  17.886  1.00  0.00     0.147 A 
ATOM      5  C   UNL     1      24.227  -1.223  18.253  1.00  0.00     0.066 A 
ATOM      6  C   UNL     1      25.092  -0.770  17.242  1.00  0.00     0.200 A 
ATOM      7  O   UNL     1      26.140  -0.124  17.521  1.00  0.00    -0.288 OA
ATOM      8  C   UNL     1      24.500  -0.978  19.607  1.00  0.00     0.020 A 
ATOM      9  C   UNL     1      23.644  -1.456  20.593  1.00  0.00     0.047 A 
ATOM     10  C   UNL     1      22.488  -2.164  20.250  1.00  0.00     0.125 A 
ATOM     11  C   UNL     1      22.176  -2.411  18.893  1.00  0.00     0.069 A 
ENDROOT
BRANCH   1  12
ATOM     12  C   UNL     1      25.688  -0.635  14.816  1.00  0.00    -0.011 A 
ATOM     13  C   UNL     1      25.497   0.598  14.182  1.00  0.00     0.013 A 
ATOM     14  C   UNL     1      26.324   0.979  13.121  1.00  0.00     0.047 A 
ATOM     15  C   UNL     1      27.352   0.127  12.692  1.00  0.00     0.115 A 
ATOM     16  C   UNL     1      26.717  -1.486  14.385  1.00  0.00     0.013 A 
ATOM     17  C   UNL     1      27.543  -1.111  13.326  1.00  0.00     0.047 A 
BRANCH  15  18
ATOM     18  O   UNL     1      28.201   0.505  11.651  1.00  0.00    -0.508 OA
ATOM     19  H   UNL     1      28.827   1.298  11.734  1.00  0.00     0.293 HD
ENDBRANCH  15  18
ENDBRANCH   1  12
BRANCH  11  20
ATOM     20  C   UNL     1      20.915  -3.209  18.577  1.00  0.00     0.188 C 
ATOM     21  C   UNL     1      19.903  -2.396  17.718  1.00  0.00     0.179 C 
ATOM     22  O   UNL     1      20.293  -3.724  19.748  1.00  0.00    -0.362 OA
ATOM     23  C   UNL     1      18.519  -3.094  17.659  1.00  0.00     0.177 C 
ATOM     24  C   UNL     1      19.288  -4.700  19.453  1.00  0.00     0.176 C 
ATOM     25  C   UNL     1      18.615  -4.584  18.042  1.00  0.00     0.177 C 
BRANCH  21  26
ATOM     26  O   UNL     1      19.723  -1.085  18.199  1.00  0.00    -0.387 OA
ATOM     27  H   UNL     1      19.867  -0.456  17.433  1.00  0.00     0.211 HD
ENDBRANCH  21  26
BRANCH  23  28
ATOM     28  O   UNL     1      17.973  -2.944  16.374  1.00  0.00    -0.387 OA
ATOM     29  H   UNL     1      17.021  -3.216  16.429  1.00  0.00     0.211 HD
ENDBRANCH  23  28
BRANCH  24  30
ATOM     30  C   UNL     1      19.791  -6.115  19.775  1.00  0.00     0.191 C 
BRANCH  30  31
ATOM     31  O   UNL     1      20.889  -6.451  18.979  1.00  0.00    -0.394 OA
ATOM     32  H   UNL     1      21.278  -5.589  18.668  1.00  0.00     0.210 HD
ENDBRANCH  30  31
ENDBRANCH  24  30
BRANCH  25  33
ATOM     33  O   UNL     1      19.351  -5.290  17.072  1.00  0.00    -0.388 OA
ATOM     34  H   UNL     1      20.100  -5.737  17.552  1.00  0.00     0.211 HD
ENDBRANCH  25  33
ENDBRANCH  11  20
BRANCH  10  35
ATOM     35  O   UNL     1      21.631  -2.619  21.259  1.00  0.00    -0.507 OA
ATOM     36  H   UNL     1      21.212  -3.543  21.235  1.00  0.00     0.293 HD
ENDBRANCH  10  35
TORSDOF 9
ENDMDL
MODEL 6
REMARK VINA RESULT:    -5.517      1.971      8.004
REMARK INTER + INTRA:          -7.924
REMARK INTER:                  -7.706
REMARK INTRA:                  -0.217
REMARK UNBOUND:                -0.471
REMARK SMILES O=c1c(-c2ccc(O)cc2)coc2c([C@H]3O[C@H](CO)[C@H](O)[C@H](O)[C@H]3O)c(O)ccc12
REMARK SMILES IDX 3 1 11 2 12 3 13 4 30 5 2 6 1 7 29 8 28 9 26 10 14 11 4 12
REMARK SMILES IDX 5 13 6 14 7 15 10 16 9 17 8 18 15 20 24 21 16 22 22 23 17 24
REMARK SMILES IDX 20 25 25 26 23 28 18 30 19 31 21 33 27 35
REMARK H PARENT 8 19 25 27 23 29 19 32 21 34 27 36
REMARK Flexibility Score: inf
ROOT
ATOM      1  C   UNL     1      22.813  -2.850  18.135  1.00  0.00     0.065 A 
ATOM      2  C   UNL     1      22.899  -3.326  16.821  1.00  0.00     0.208 A 
ATOM      3  O   UNL     1      22.087  -4.293  16.394  1.00  0.00    -0.463 OA
ATOM      4  C   UNL     1      21.172  -4.865  17.170  1.00  0.00     0.147 A 
ATOM      5  C   UNL     1      21.025  -4.437  18.513  1.00  0.00     0.066 A 
ATOM      6  C   UNL     1      21.858  -3.413  18.994  1.00  0.00     0.200 A 
ATOM      7  O   UNL     1      21.766  -3.002  20.184  1.00  0.00    -0.288 OA
ATOM      8  C   UNL     1      20.067  -5.042  19.339  1.00  0.00     0.020 A 
ATOM      9  C   UNL     1      19.270  -6.072  18.851  1.00  0.00     0.047 A 
ATOM     10  C   UNL     1      19.393  -6.501  17.526  1.00  0.00     0.125 A 
ATOM     11  C   UNL     1      20.337  -5.897  16.663  1.00  0.00     0.069 A 
ENDROOT
BRANCH   1  12
ATOM     12  C   UNL     1      23.735  -1.802  18.612  1.00  0.00    -0.011 A 
ATOM     13  C   UNL     1      25.118  -1.984  18.506  1.00  0.00     0.013 A 
ATOM     14  C   UNL     1      25.995  -1.012  18.998  1.00  0.00     0.047 A 
ATOM     15  C   UNL     1      25.490   0.151  19.596  1.00  0.00     0.115 A 
ATOM     16  C   UNL     1      23.231  -0.638  19.211  1.00  0.00     0.013 A 
ATOM     17  C   UNL     1      24.102   0.333  19.706  1.00  0.00     0.047 A 
BRANCH  15  18
ATOM     18  O   UNL     1      26.352   1.140  20.070  1.00  0.00    -0.508 OA
ATOM     19  H   UNL     1      26.062   1.806  20.777  1.00  0.00     0.293 HD
ENDBRANCH  15  18
ENDBRANCH   1  12
BRANCH  11  20
ATOM     20  C   UNL     1      20.445  -6.420  15.234  1.00  0.00     0.188 C 
ATOM     21  C   UNL     1      21.649  -7.388  15.051  1.00  0.00     0.179 C 
ATOM     22  O   UNL     1      20.482  -5.370  14.275  1.00  0.00    -0.362 OA
ATOM     23  C   UNL     1      21.928  -7.672  13.552  1.00  0.00     0.177 C 
ATOM     24  C   UNL     1      20.296  -5.842  12.936  1.00  0.00     0.176 C 
ATOM     25  C   UNL     1      20.708  -7.331  12.671  1.00  0.00     0.177 C 
BRANCH  21  26
ATOM     26  O   UNL     1      22.829  -6.894  15.639  1.00  0.00    -0.387 OA
ATOM     27  H   UNL     1      23.535  -7.597  15.545  1.00  0.00     0.211 HD
ENDBRANCH  21  26
BRANCH  23  28
ATOM     28  O   UNL     1      22.298  -9.017  13.390  1.00  0.00    -0.387 OA
ATOM     29  H   UNL     1      21.572  -9.568  13.780  1.00  0.00     0.211 HD
ENDBRANCH  23  28
BRANCH  24  30
ATOM     30  C   UNL     1      18.887  -5.499  12.428  1.00  0.00     0.191 C 
BRANCH  30  31
ATOM     31  O   UNL     1      18.935  -4.494  11.459  1.00  0.00    -0.394 OA
ATOM     32  H   UNL     1      17.989  -4.301  11.216  1.00  0.00     0.210 HD
ENDBRANCH  30  31
ENDBRANCH  24  30
BRANCH  25  33
ATOM     33  O   UNL     1      19.644  -8.208  12.953  1.00  0.00    -0.388 OA
ATOM     34  H   UNL     1      19.369  -8.030  13.893  1.00  0.00     0.211 HD
ENDBRANCH  25  33
ENDBRANCH  11  20
BRANCH  10  35
ATOM     35  O   UNL     1      18.566  -7.525  17.050  1.00  0.00    -0.507 OA
ATOM     36  H   UNL     1      18.838  -8.502  17.095  1.00  0.00     0.293 HD
ENDBRANCH  10  35
TORSDOF 9
ENDMDL
MODEL 7
REMARK VINA RESULT:    -5.298      2.681      8.097
REMARK INTER + INTRA:          -7.628
REMARK INTER:                  -7.060
REMARK INTRA:                  -0.568
REMARK UNBOUND:                -0.471
REMARK SMILES O=c1c(-c2ccc(O)cc2)coc2c([C@H]3O[C@H](CO)[C@H](O)[C@H](O)[C@H]3O)c(O)ccc12
REMARK SMILES IDX 3 1 11 2 12 3 13 4 30 5 2 6 1 7 29 8 28 9 26 10 14 11 4 12
REMARK SMILES IDX 5 13 6 14 7 15 10 16 9 17 8 18 15 20 24 21 16 22 22 23 17 24
REMARK SMILES IDX 20 25 25 26 23 28 18 30 19 31 21 33 27 35
REMARK H PARENT 8 19 25 27 23 29 19 32 21 34 27 36
REMARK Flexibility Score: inf
ROOT
ATOM      1  C   UNL     1      23.024  -2.921  17.310  1.00  0.00     0.065 A 
ATOM      2  C   UNL     1      22.992  -3.970  16.384  1.00  0.00     0.208 A 
ATOM      3  O   UNL     1      21.845  -4.578  16.083  1.00  0.00    -0.463 OA
ATOM      4  C   UNL     1      20.683  -4.246  16.638  1.00  0.00     0.147 A 
ATOM      5  C   UNL     1      20.634  -3.194  17.587  1.00  0.00     0.066 A 
ATOM      6  C   UNL     1      21.825  -2.525  17.920  1.00  0.00     0.200 A 
ATOM      7  O   UNL     1      21.830  -1.584  18.761  1.00  0.00    -0.288 OA
ATOM      8  C   UNL     1      19.414  -2.844  18.182  1.00  0.00     0.020 A 
ATOM      9  C   UNL     1      18.252  -3.537  17.856  1.00  0.00     0.047 A 
ATOM     10  C   UNL     1      18.278  -4.570  16.916  1.00  0.00     0.125 A 
ATOM     11  C   UNL     1      19.491  -4.933  16.284  1.00  0.00     0.069 A 
ENDROOT
BRANCH   1  12
ATOM     12  C   UNL     1      24.301  -2.273  17.664  1.00  0.00    -0.011 A 
ATOM     13  C   UNL     1      25.039  -1.599  16.685  1.00  0.00     0.013 A 
ATOM     14  C   UNL     1      26.272  -1.022  17.007  1.00  0.00     0.047 A 
ATOM     15  C   UNL     1      26.769  -1.114  18.315  1.00  0.00     0.115 A 
ATOM     16  C   UNL     1      24.800  -2.364  18.972  1.00  0.00     0.013 A 
ATOM     17  C   UNL     1      26.030  -1.793  19.297  1.00  0.00     0.047 A 
BRANCH  15  18
ATOM     18  O   UNL     1      27.985  -0.522  18.657  1.00  0.00    -0.508 OA
ATOM     19  H   UNL     1      28.031   0.404  19.066  1.00  0.00     0.293 HD
ENDBRANCH  15  18
ENDBRANCH   1  12
BRANCH  11  20
ATOM     20  C   UNL     1      19.466  -6.084  15.284  1.00  0.00     0.188 C 
ATOM     21  C   UNL     1      19.767  -7.454  15.955  1.00  0.00     0.179 C 
ATOM     22  O   UNL     1      20.329  -5.856  14.176  1.00  0.00    -0.362 OA
ATOM     23  C   UNL     1      20.035  -8.558  14.899  1.00  0.00     0.177 C 
ATOM     24  C   UNL     1      20.103  -6.779  13.105  1.00  0.00     0.176 C 
ATOM     25  C   UNL     1      19.491  -8.163  13.511  1.00  0.00     0.177 C 
BRANCH  21  26
ATOM     26  O   UNL     1      20.870  -7.393  16.827  1.00  0.00    -0.387 OA
ATOM     27  H   UNL     1      21.446  -6.626  16.541  1.00  0.00     0.211 HD
ENDBRANCH  21  26
BRANCH  23  28
ATOM     28  O   UNL     1      19.469  -9.768  15.330  1.00  0.00    -0.387 OA
ATOM     29  H   UNL     1      20.005 -10.500  14.929  1.00  0.00     0.211 HD
ENDBRANCH  23  28
BRANCH  24  30
ATOM     30  C   UNL     1      19.357  -6.098  11.947  1.00  0.00     0.191 C 
BRANCH  30  31
ATOM     31  O   UNL     1      19.036  -7.019  10.946  1.00  0.00    -0.394 OA
ATOM     32  H   UNL     1      18.783  -6.481  10.148  1.00  0.00     0.210 HD
ENDBRANCH  30  31
ENDBRANCH  24  30
BRANCH  25  33
ATOM     33  O   UNL     1      18.085  -8.106  13.538  1.00  0.00    -0.388 OA
ATOM     34  H   UNL     1      17.822  -8.008  14.494  1.00  0.00     0.211 HD
ENDBRANCH  25  33
ENDBRANCH  11  20
BRANCH  10  35
ATOM     35  O   UNL     1      17.092  -5.239  16.590  1.00  0.00    -0.507 OA
ATOM     36  H   UNL     1      16.300  -5.272  17.223  1.00  0.00     0.293 HD
ENDBRANCH  10  35
TORSDOF 9
ENDMDL
MODEL 8
REMARK VINA RESULT:    -5.020      2.636      7.686
REMARK INTER + INTRA:          -7.252
REMARK INTER:                  -6.473
REMARK INTRA:                  -0.779
REMARK UNBOUND:                -0.471
REMARK SMILES O=c1c(-c2ccc(O)cc2)coc2c([C@H]3O[C@H](CO)[C@H](O)[C@H](O)[C@H]3O)c(O)ccc12
REMARK SMILES IDX 3 1 11 2 12 3 13 4 30 5 2 6 1 7 29 8 28 9 26 10 14 11 4 12
REMARK SMILES IDX 5 13 6 14 7 15 10 16 9 17 8 18 15 20 24 21 16 22 22 23 17 24
REMARK SMILES IDX 20 25 25 26 23 28 18 30 19 31 21 33 27 35
REMARK H PARENT 8 19 25 27 23 29 19 32 21 34 27 36
REMARK Flexibility Score: inf
ROOT
ATOM      1  C   UNL     1      23.515  -1.980  19.185  1.00  0.00     0.065 A 
ATOM      2  C   UNL     1      23.070  -2.535  17.980  1.00  0.00     0.208 A 
ATOM      3  O   UNL     1      21.855  -3.075  17.888  1.00  0.00    -0.463 OA
ATOM      4  C   UNL     1      21.010  -3.133  18.911  1.00  0.00     0.147 A 
ATOM      5  C   UNL     1      21.389  -2.593  20.166  1.00  0.00     0.066 A 
ATOM      6  C   UNL     1      22.659  -2.007  20.296  1.00  0.00     0.200 A 
ATOM      7  O   UNL     1      23.041  -1.516  21.394  1.00  0.00    -0.288 OA
ATOM      8  C   UNL     1      20.504  -2.659  21.252  1.00  0.00     0.020 A 
ATOM      9  C   UNL     1      19.261  -3.266  21.108  1.00  0.00     0.047 A 
ATOM     10  C   UNL     1      18.865  -3.796  19.876  1.00  0.00     0.125 A 
ATOM     11  C   UNL     1      19.728  -3.727  18.757  1.00  0.00     0.069 A 
ENDROOT
BRANCH   1  12
ATOM     12  C   UNL     1      24.872  -1.412  19.291  1.00  0.00    -0.011 A 
ATOM     13  C   UNL     1      25.991  -2.239  19.149  1.00  0.00     0.013 A 
ATOM     14  C   UNL     1      27.279  -1.712  19.293  1.00  0.00     0.047 A 
ATOM     15  C   UNL     1      27.451  -0.350  19.576  1.00  0.00     0.115 A 
ATOM     16  C   UNL     1      25.047  -0.049  19.575  1.00  0.00     0.013 A 
ATOM     17  C   UNL     1      26.329   0.481  19.722  1.00  0.00     0.047 A 
BRANCH  15  18
ATOM     18  O   UNL     1      28.730   0.195  19.699  1.00  0.00    -0.508 OA
ATOM     19  H   UNL     1      29.122   0.436  20.602  1.00  0.00     0.293 HD
ENDBRANCH  15  18
ENDBRANCH   1  12
BRANCH  11  20
ATOM     20  C   UNL     1      19.255  -4.342  17.444  1.00  0.00     0.188 C 
ATOM     21  C   UNL     1      18.396  -3.352  16.606  1.00  0.00     0.179 C 
ATOM     22  O   UNL     1      18.571  -5.574  17.639  1.00  0.00    -0.362 OA
ATOM     23  C   UNL     1      17.678  -4.072  15.434  1.00  0.00     0.177 C 
ATOM     24  C   UNL     1      18.378  -6.294  16.416  1.00  0.00     0.176 C 
ATOM     25  C   UNL     1      18.337  -5.428  15.110  1.00  0.00     0.177 C 
BRANCH  21  26
ATOM     26  O   UNL     1      17.427  -2.691  17.384  1.00  0.00    -0.387 OA
ATOM     27  H   UNL     1      17.302  -1.774  17.003  1.00  0.00     0.211 HD
ENDBRANCH  21  26
BRANCH  23  28
ATOM     28  O   UNL     1      17.672  -3.239  14.305  1.00  0.00    -0.387 OA
ATOM     29  H   UNL     1      18.421  -3.530  13.723  1.00  0.00     0.211 HD
ENDBRANCH  23  28
BRANCH  24  30
ATOM     30  C   UNL     1      19.341  -7.487  16.328  1.00  0.00     0.191 C 
BRANCH  30  31
ATOM     31  O   UNL     1      20.664  -7.079  16.517  1.00  0.00    -0.394 OA
ATOM     32  H   UNL     1      21.065  -7.016  15.608  1.00  0.00     0.210 HD
ENDBRANCH  30  31
ENDBRANCH  24  30
BRANCH  25  33
ATOM     33  O   UNL     1      19.632  -5.230  14.596  1.00  0.00    -0.388 OA
ATOM     34  H   UNL     1      20.263  -5.355  15.356  1.00  0.00     0.211 HD
ENDBRANCH  25  33
ENDBRANCH  11  20
BRANCH  10  35
ATOM     35  O   UNL     1      17.602  -4.385  19.750  1.00  0.00    -0.507 OA
ATOM     36  H   UNL     1      17.434  -5.357  19.988  1.00  0.00     0.293 HD
ENDBRANCH  10  35
TORSDOF 9
ENDMDL
MODEL 9
REMARK VINA RESULT:    -4.878      3.503      6.563
REMARK INTER + INTRA:          -7.060
REMARK INTER:                  -6.085
REMARK INTRA:                  -0.975
REMARK UNBOUND:                -0.471
REMARK SMILES O=c1c(-c2ccc(O)cc2)coc2c([C@H]3O[C@H](CO)[C@H](O)[C@H](O)[C@H]3O)c(O)ccc12
REMARK SMILES IDX 3 1 11 2 12 3 13 4 30 5 2 6 1 7 29 8 28 9 26 10 14 11 4 12
REMARK SMILES IDX 5 13 6 14 7 15 10 16 9 17 8 18 15 20 24 21 16 22 22 23 17 24
REMARK SMILES IDX 20 25 25 26 23 28 18 30 19 31 21 33 27 35
REMARK H PARENT 8 19 25 27 23 29 19 32 21 34 27 36
REMARK Flexibility Score: inf
ROOT
ATOM      1  C   UNL     1      18.916  -5.566  12.218  1.00  0.00     0.065 A 
ATOM      2  C   UNL     1      18.712  -4.728  13.320  1.00  0.00     0.208 A 
ATOM      3  O   UNL     1      19.422  -4.887  14.437  1.00  0.00    -0.463 OA
ATOM      4  C   UNL     1      20.340  -5.836  14.581  1.00  0.00     0.147 A 
ATOM      5  C   UNL     1      20.604  -6.726  13.509  1.00  0.00     0.066 A 
ATOM      6  C   UNL     1      19.880  -6.581  12.313  1.00  0.00     0.200 A 
ATOM      7  O   UNL     1      20.079  -7.351  11.334  1.00  0.00    -0.288 OA
ATOM      8  C   UNL     1      21.566  -7.735  13.659  1.00  0.00     0.020 A 
ATOM      9  C   UNL     1      22.253  -7.877  14.860  1.00  0.00     0.047 A 
ATOM     10  C   UNL     1      22.014  -7.003  15.924  1.00  0.00     0.125 A 
ATOM     11  C   UNL     1      21.064  -5.964  15.798  1.00  0.00     0.069 A 
ENDROOT
BRANCH   1  12
ATOM     12  C   UNL     1      18.106  -5.407  10.996  1.00  0.00    -0.011 A 
ATOM     13  C   UNL     1      17.102  -6.334  10.695  1.00  0.00     0.013 A 
ATOM     14  C   UNL     1      16.362  -6.210   9.515  1.00  0.00     0.047 A 
ATOM     15  C   UNL     1      16.621  -5.153   8.631  1.00  0.00     0.115 A 
ATOM     16  C   UNL     1      18.365  -4.350  10.110  1.00  0.00     0.013 A 
ATOM     17  C   UNL     1      17.631  -4.224   8.931  1.00  0.00     0.047 A 
BRANCH  15  18
ATOM     18  O   UNL     1      15.875  -5.003   7.462  1.00  0.00    -0.508 OA
ATOM     19  H   UNL     1      14.861  -5.001   7.474  1.00  0.00     0.293 HD
ENDBRANCH  15  18
ENDBRANCH   1  12
BRANCH  11  20
ATOM     20  C   UNL     1      20.826  -5.054  16.999  1.00  0.00     0.188 C 
ATOM     21  C   UNL     1      21.789  -3.832  17.012  1.00  0.00     0.179 C 
ATOM     22  O   UNL     1      20.880  -5.762  18.232  1.00  0.00    -0.362 OA
ATOM     23  C   UNL     1      21.746  -3.089  18.373  1.00  0.00     0.177 C 
ATOM     24  C   UNL     1      20.381  -4.990  19.330  1.00  0.00     0.176 C 
ATOM     25  C   UNL     1      20.471  -3.433  19.170  1.00  0.00     0.177 C 
BRANCH  21  26
ATOM     26  O   UNL     1      23.122  -4.197  16.744  1.00  0.00    -0.387 OA
ATOM     27  H   UNL     1      23.693  -3.830  17.479  1.00  0.00     0.211 HD
ENDBRANCH  21  26
BRANCH  23  28
ATOM     28  O   UNL     1      21.839  -1.705  18.155  1.00  0.00    -0.387 OA
ATOM     29  H   UNL     1      22.198  -1.303  18.987  1.00  0.00     0.211 HD
ENDBRANCH  23  28
BRANCH  24  30
ATOM     30  C   UNL     1      18.989  -5.481  19.754  1.00  0.00     0.191 C 
BRANCH  30  31
ATOM     31  O   UNL     1      18.423  -4.627  20.705  1.00  0.00    -0.394 OA
ATOM     32  H   UNL     1      19.108  -4.519  21.419  1.00  0.00     0.210 HD
ENDBRANCH  30  31
ENDBRANCH  24  30
BRANCH  25  33
ATOM     33  O   UNL     1      19.335  -2.927  18.513  1.00  0.00    -0.388 OA
ATOM     34  H   UNL     1      18.638  -2.791  19.211  1.00  0.00     0.211 HD
ENDBRANCH  25  33
ENDBRANCH  11  20
BRANCH  10  35
ATOM     35  O   UNL     1      22.732  -7.154  17.117  1.00  0.00    -0.507 OA
ATOM     36  H   UNL     1      23.481  -6.521  17.379  1.00  0.00     0.293 HD
ENDBRANCH  10  35
TORSDOF 9
ENDMDL
