MODEL 1
REMARK VINA RESULT:    -3.527      0.000      0.000
REMARK INTER + INTRA:          -5.623
REMARK INTER:                  -5.383
REMARK INTRA:                  -0.240
REMARK UNBOUND:                -0.240
REMARK SMILES CC1=CCC[C@@H](C)C(=O)C[C@H](C(C)C)C(=O)C1
REMARK SMILES IDX 8 1 9 2 6 3 7 4 5 5 4 6 3 7 2 8 1 9 10 11 11 12 15 13 16 14
REMARK SMILES IDX 17 15 12 17 13 18 14 19
REMARK H PARENT
REMARK Flexibility Score: 70.00
ROOT
ATOM      1  C   UNL     1       5.985  -3.230  -4.128  1.00  0.00     0.136 C 
ATOM      2  O   UNL     1       6.708  -3.395  -5.101  1.00  0.00    -0.299 OA
ENDROOT
BRANCH   1   3
ATOM      3  C   UNL     1       5.003  -4.339  -3.785  1.00  0.00     0.053 C 
ATOM      4  C   UNL     1       3.536  -3.886  -3.873  1.00  0.00     0.016 C 
BRANCH   3   5
ATOM      5  C   UNL     1       5.422  -5.118  -2.507  1.00  0.00     0.015 C 
BRANCH   5   6
ATOM      6  C   UNL     1       6.843  -5.713  -2.411  1.00  0.00     0.028 C 
BRANCH   6   7
ATOM      7  C   UNL     1       7.648  -5.388  -1.176  1.00  0.00    -0.028 C 
ATOM      8  C   UNL     1       8.562  -4.404  -1.046  1.00  0.00    -0.070 CG0
ATOM      9  C   UNL     1       9.383  -4.374   0.220  1.00  0.00     0.039 C 
ATOM     10  G   UNL     1       8.812  -3.346  -2.099  1.00  0.00     0.000 G0
ENDBRANCH   6   7
ENDBRANCH   5   6
ENDBRANCH   3   5
ENDBRANCH   1   3
BRANCH   1  11
ATOM     11  C   UNL     1       6.067  -1.908  -3.384  1.00  0.00     0.087 C 
BRANCH  11  12
ATOM     12  C   UNL     1       6.557  -1.938  -1.893  1.00  0.00     0.066 C 
BRANCH  12  13
ATOM     13  C   UNL     1       8.077  -2.060  -1.797  1.00  0.00     0.140 C 
ATOM     14  O   UNL     1       8.720  -1.073  -1.467  1.00  0.00    -0.299 OA
BRANCH  13  15
ATOM     15  C   UNL     1       8.831  -3.332  -2.098  1.00  0.00     0.106 CG0
ATOM     16  G   UNL     1       8.554  -4.382  -1.045  1.00  0.00     0.000 G0
ENDBRANCH  13  15
ENDBRANCH  12  13
BRANCH  12  17
ATOM     17  C   UNL     1       5.953  -0.851  -0.938  1.00  0.00    -0.006 C 
ATOM     18  C   UNL     1       4.739  -0.162  -1.593  1.00  0.00     0.008 C 
ATOM     19  C   UNL     1       5.500  -1.420   0.422  1.00  0.00     0.008 C 
ENDBRANCH  12  17
ENDBRANCH  11  12
ENDBRANCH   1  11
TORSDOF 1
ENDMDL
MODEL 2
REMARK VINA RESULT:    -3.502      1.856      4.148
REMARK INTER + INTRA:          -5.584
REMARK INTER:                  -5.514
REMARK INTRA:                  -0.070
REMARK UNBOUND:                -0.240
REMARK SMILES CC1=CCC[C@@H](C)C(=O)C[C@H](C(C)C)C(=O)C1
REMARK SMILES IDX 8 1 9 2 6 3 7 4 5 5 4 6 3 7 2 8 1 9 10 11 11 12 15 13 16 14
REMARK SMILES IDX 17 15 12 17 13 18 14 19
REMARK H PARENT
REMARK Flexibility Score: 70.00
ROOT
ATOM      1  C   UNL     1       5.846  -2.856   0.048  1.00  0.00     0.136 C 
ATOM      2  O   UNL     1       6.432  -3.415   0.965  1.00  0.00    -0.299 OA
ENDROOT
BRANCH   1   3
ATOM      3  C   UNL     1       6.011  -1.350  -0.078  1.00  0.00     0.053 C 
ATOM      4  C   UNL     1       4.671  -0.598  -0.057  1.00  0.00     0.016 C 
BRANCH   3   5
ATOM      5  C   UNL     1       7.016  -0.963  -1.199  1.00  0.00     0.015 C 
BRANCH   5   6
ATOM      6  C   UNL     1       8.286  -1.816  -1.409  1.00  0.00     0.028 C 
BRANCH   6   7
ATOM      7  C   UNL     1       8.494  -2.422  -2.776  1.00  0.00    -0.028 C 
ATOM      8  C   UNL     1       8.443  -3.734  -3.091  1.00  0.00    -0.070 CG0
ATOM      9  C   UNL     1       8.864  -4.135  -4.484  1.00  0.00     0.039 C 
ATOM     10  G   UNL     1       8.001  -4.812  -2.127  1.00  0.00     0.000 G0
ENDBRANCH   6   7
ENDBRANCH   5   6
ENDBRANCH   3   5
ENDBRANCH   1   3
BRANCH   1  11
ATOM     11  C   UNL     1       4.941  -3.688  -0.844  1.00  0.00     0.087 C 
BRANCH  11  12
ATOM     12  C   UNL     1       5.449  -4.019  -2.293  1.00  0.00     0.066 C 
BRANCH  12  13
ATOM     13  C   UNL     1       6.523  -5.104  -2.286  1.00  0.00     0.140 C 
ATOM     14  O   UNL     1       6.172  -6.271  -2.393  1.00  0.00    -0.299 OA
BRANCH  13  15
ATOM     15  C   UNL     1       7.998  -4.816  -2.142  1.00  0.00     0.106 CG0
ATOM     16  G   UNL     1       8.426  -3.723  -3.096  1.00  0.00     0.000 G0
ENDBRANCH  13  15
ENDBRANCH  12  13
BRANCH  12  17
ATOM     17  C   UNL     1       4.345  -4.235  -3.386  1.00  0.00    -0.006 C 
ATOM     18  C   UNL     1       2.948  -4.333  -2.741  1.00  0.00     0.008 C 
ATOM     19  C   UNL     1       4.305  -3.110  -4.440  1.00  0.00     0.008 C 
ENDBRANCH  12  17
ENDBRANCH  11  12
ENDBRANCH   1  11
TORSDOF 1
ENDMDL
MODEL 3
REMARK VINA RESULT:    -3.496      2.363      5.336
REMARK INTER + INTRA:          -5.574
REMARK INTER:                  -5.762
REMARK INTRA:                   0.187
REMARK UNBOUND:                -0.240
REMARK SMILES CC1=CCC[C@@H](C)C(=O)C[C@H](C(C)C)C(=O)C1
REMARK SMILES IDX 8 1 9 2 6 3 7 4 5 5 4 6 3 7 2 8 1 9 10 11 11 12 15 13 16 14
REMARK SMILES IDX 17 15 12 17 13 18 14 19
REMARK H PARENT
REMARK Flexibility Score: 70.00
ROOT
ATOM      1  C   UNL     1       6.333  -3.053   0.125  1.00  0.00     0.136 C 
ATOM      2  O   UNL     1       5.963  -3.763   1.049  1.00  0.00    -0.299 OA
ENDROOT
BRANCH   1   3
ATOM      3  C   UNL     1       6.134  -1.552   0.268  1.00  0.00     0.053 C 
ATOM      4  C   UNL     1       5.221  -1.180   1.447  1.00  0.00     0.016 C 
BRANCH   3   5
ATOM      5  C   UNL     1       5.835  -0.868  -1.096  1.00  0.00     0.015 C 
BRANCH   5   6
ATOM      6  C   UNL     1       4.484  -1.129  -1.796  1.00  0.00     0.028 C 
BRANCH   6   7
ATOM      7  C   UNL     1       4.527  -1.708  -3.189  1.00  0.00    -0.028 C 
ATOM      8  C   UNL     1       4.465  -3.015  -3.520  1.00  0.00    -0.070 CG0
ATOM      9  C   UNL     1       4.711  -3.385  -4.962  1.00  0.00     0.039 C 
ATOM     10  G   UNL     1       4.175  -4.119  -2.527  1.00  0.00     0.000 G0
ENDBRANCH   6   7
ENDBRANCH   5   6
ENDBRANCH   3   5
ENDBRANCH   1   3
BRANCH   1  11
ATOM     11  C   UNL     1       6.888  -3.721  -1.122  1.00  0.00     0.087 C 
BRANCH  11  12
ATOM     12  C   UNL     1       6.393  -5.173  -1.454  1.00  0.00     0.066 C 
BRANCH  12  13
ATOM     13  C   UNL     1       5.266  -5.168  -2.485  1.00  0.00     0.140 C 
ATOM     14  O   UNL     1       5.256  -6.042  -3.341  1.00  0.00    -0.299 OA
BRANCH  13  15
ATOM     15  C   UNL     1       4.167  -4.133  -2.513  1.00  0.00     0.106 CG0
ATOM     16  G   UNL     1       4.484  -3.040  -3.510  1.00  0.00     0.000 G0
ENDBRANCH  13  15
ENDBRANCH  12  13
BRANCH  12  17
ATOM     17  C   UNL     1       7.505  -6.240  -1.745  1.00  0.00    -0.006 C 
ATOM     18  C   UNL     1       8.880  -5.742  -1.258  1.00  0.00     0.008 C 
ATOM     19  C   UNL     1       7.229  -7.603  -1.080  1.00  0.00     0.008 C 
ENDBRANCH  12  17
ENDBRANCH  11  12
ENDBRANCH   1  11
TORSDOF 1
ENDMDL
MODEL 4
REMARK VINA RESULT:    -3.471      2.160      4.537
REMARK INTER + INTRA:          -5.537
REMARK INTER:                  -5.318
REMARK INTRA:                  -0.219
REMARK UNBOUND:                -0.240
REMARK SMILES CC1=CCC[C@@H](C)C(=O)C[C@H](C(C)C)C(=O)C1
REMARK SMILES IDX 8 1 9 2 6 3 7 4 5 5 4 6 3 7 2 8 1 9 10 11 11 12 15 13 16 14
REMARK SMILES IDX 17 15 12 17 13 18 14 19
REMARK H PARENT
REMARK Flexibility Score: 70.00
ROOT
ATOM      1  C   UNL     1       5.898  -3.266  -0.185  1.00  0.00     0.136 C 
ATOM      2  O   UNL     1       5.015  -4.111  -0.198  1.00  0.00    -0.299 OA
ENDROOT
BRANCH   1   3
ATOM      3  C   UNL     1       5.479  -1.813  -0.027  1.00  0.00     0.053 C 
ATOM      4  C   UNL     1       5.070  -1.462   1.413  1.00  0.00     0.016 C 
BRANCH   3   5
ATOM      5  C   UNL     1       4.520  -1.353  -1.162  1.00  0.00     0.015 C 
BRANCH   5   6
ATOM      6  C   UNL     1       4.975  -1.463  -2.632  1.00  0.00     0.028 C 
BRANCH   6   7
ATOM      7  C   UNL     1       4.383  -2.578  -3.459  1.00  0.00    -0.028 C 
ATOM      8  C   UNL     1       5.063  -3.485  -4.192  1.00  0.00    -0.070 CG0
ATOM      9  C   UNL     1       4.265  -4.399  -5.089  1.00  0.00     0.039 C 
ATOM     10  G   UNL     1       6.569  -3.624  -4.169  1.00  0.00     0.000 G0
ENDBRANCH   6   7
ENDBRANCH   5   6
ENDBRANCH   3   5
ENDBRANCH   1   3
BRANCH   1  11
ATOM     11  C   UNL     1       7.332  -3.717  -0.403  1.00  0.00     0.087 C 
BRANCH  11  12
ATOM     12  C   UNL     1       7.918  -3.613  -1.857  1.00  0.00     0.066 C 
BRANCH  12  13
ATOM     13  C   UNL     1       7.024  -4.309  -2.881  1.00  0.00     0.140 C 
ATOM     14  O   UNL     1       6.665  -5.457  -2.655  1.00  0.00    -0.299 OA
BRANCH  13  15
ATOM     15  C   UNL     1       6.566  -3.661  -4.165  1.00  0.00     0.106 CG0
ATOM     16  G   UNL     1       5.063  -3.487  -4.172  1.00  0.00     0.000 G0
ENDBRANCH  13  15
ENDBRANCH  12  13
BRANCH  12  17
ATOM     17  C   UNL     1       8.406  -2.194  -2.312  1.00  0.00    -0.006 C 
ATOM     18  C   UNL     1       8.833  -1.347  -1.096  1.00  0.00     0.008 C 
ATOM     19  C   UNL     1       9.593  -2.246  -3.296  1.00  0.00     0.008 C 
ENDBRANCH  12  17
ENDBRANCH  11  12
ENDBRANCH   1  11
TORSDOF 1
ENDMDL
MODEL 5
REMARK VINA RESULT:    -3.422      2.237      3.878
REMARK INTER + INTRA:          -5.462
REMARK INTER:                  -5.316
REMARK INTRA:                  -0.146
REMARK UNBOUND:                -0.240
REMARK SMILES CC1=CCC[C@@H](C)C(=O)C[C@H](C(C)C)C(=O)C1
REMARK SMILES IDX 8 1 9 2 6 3 7 4 5 5 4 6 3 7 2 8 1 9 10 11 11 12 15 13 16 14
REMARK SMILES IDX 17 15 12 17 13 18 14 19
REMARK H PARENT
REMARK Flexibility Score: 70.00
ROOT
ATOM      1  C   UNL     1       8.087  -2.006  -1.980  1.00  0.00     0.136 C 
ATOM      2  O   UNL     1       8.830  -1.039  -1.888  1.00  0.00    -0.299 OA
ENDROOT
BRANCH   1   3
ATOM      3  C   UNL     1       8.163  -2.832  -3.254  1.00  0.00     0.053 C 
ATOM      4  C   UNL     1       9.607  -3.107  -3.702  1.00  0.00     0.016 C 
BRANCH   3   5
ATOM      5  C   UNL     1       7.174  -2.325  -4.341  1.00  0.00     0.015 C 
BRANCH   5   6
ATOM      6  C   UNL     1       5.952  -3.188  -4.719  1.00  0.00     0.028 C 
BRANCH   6   7
ATOM      7  C   UNL     1       5.963  -4.633  -4.281  1.00  0.00    -0.028 C 
ATOM      8  C   UNL     1       5.314  -5.157  -3.219  1.00  0.00    -0.070 CG0
ATOM      9  C   UNL     1       5.611  -6.591  -2.857  1.00  0.00     0.039 C 
ATOM     10  G   UNL     1       4.323  -4.385  -2.376  1.00  0.00     0.000 G0
ENDBRANCH   6   7
ENDBRANCH   5   6
ENDBRANCH   3   5
ENDBRANCH   1   3
BRANCH   1  11
ATOM     11  C   UNL     1       7.096  -2.264  -0.858  1.00  0.00     0.087 C 
BRANCH  11  12
ATOM     12  C   UNL     1       5.569  -2.294  -1.224  1.00  0.00     0.066 C 
BRANCH  12  13
ATOM     13  C   UNL     1       5.005  -3.712  -1.193  1.00  0.00     0.140 C 
ATOM     14  O   UNL     1       5.107  -4.357  -0.159  1.00  0.00    -0.299 OA
BRANCH  13  15
ATOM     15  C   UNL     1       4.335  -4.369  -2.376  1.00  0.00     0.106 CG0
ATOM     16  G   UNL     1       5.337  -5.157  -3.191  1.00  0.00     0.000 G0
ENDBRANCH  13  15
ENDBRANCH  12  13
BRANCH  12  17
ATOM     17  C   UNL     1       4.658  -1.240  -0.504  1.00  0.00    -0.006 C 
ATOM     18  C   UNL     1       5.006  -1.151   0.996  1.00  0.00     0.008 C 
ATOM     19  C   UNL     1       4.775   0.176  -1.104  1.00  0.00     0.008 C 
ENDBRANCH  12  17
ENDBRANCH  11  12
ENDBRANCH   1  11
TORSDOF 1
ENDMDL
MODEL 6
REMARK VINA RESULT:    -3.345      2.188      4.349
REMARK INTER + INTRA:          -5.345
REMARK INTER:                  -5.141
REMARK INTRA:                  -0.204
REMARK UNBOUND:                -0.240
REMARK SMILES CC1=CCC[C@@H](C)C(=O)C[C@H](C(C)C)C(=O)C1
REMARK SMILES IDX 8 1 9 2 6 3 7 4 5 5 4 6 3 7 2 8 1 9 10 11 11 12 15 13 16 14
REMARK SMILES IDX 17 15 12 17 13 18 14 19
REMARK H PARENT
REMARK Flexibility Score: 70.00
ROOT
ATOM      1  C   UNL     1       8.239  -3.537  -1.273  1.00  0.00     0.136 C 
ATOM      2  O   UNL     1       8.882  -4.561  -1.091  1.00  0.00    -0.299 OA
ENDROOT
BRANCH   1   3
ATOM      3  C   UNL     1       8.883  -2.440  -2.107  1.00  0.00     0.053 C 
ATOM      4  C   UNL     1       9.328  -1.234  -1.265  1.00  0.00     0.016 C 
BRANCH   3   5
ATOM      5  C   UNL     1       8.073  -2.135  -3.399  1.00  0.00     0.015 C 
BRANCH   5   6
ATOM      6  C   UNL     1       7.820  -3.264  -4.421  1.00  0.00     0.028 C 
BRANCH   6   7
ATOM      7  C   UNL     1       6.443  -3.347  -5.033  1.00  0.00    -0.028 C 
ATOM      8  C   UNL     1       5.381  -4.019  -4.539  1.00  0.00    -0.070 CG0
ATOM      9  C   UNL     1       4.151  -4.119  -5.408  1.00  0.00     0.039 C 
ATOM     10  G   UNL     1       5.365  -4.677  -3.177  1.00  0.00     0.000 G0
ENDBRANCH   6   7
ENDBRANCH   5   6
ENDBRANCH   3   5
ENDBRANCH   1   3
BRANCH   1  11
ATOM     11  C   UNL     1       6.885  -3.404  -0.596  1.00  0.00     0.087 C 
BRANCH  11  12
ATOM     12  C   UNL     1       5.729  -2.714  -1.403  1.00  0.00     0.066 C 
BRANCH  12  13
ATOM     13  C   UNL     1       4.842  -3.735  -2.112  1.00  0.00     0.140 C 
ATOM     14  O   UNL     1       3.661  -3.796  -1.801  1.00  0.00    -0.299 OA
BRANCH  13  15
ATOM     15  C   UNL     1       5.348  -4.685  -3.171  1.00  0.00     0.106 CG0
ATOM     16  G   UNL     1       5.384  -4.009  -4.524  1.00  0.00     0.000 G0
ENDBRANCH  13  15
ENDBRANCH  12  13
BRANCH  12  17
ATOM     17  C   UNL     1       4.924  -1.597  -0.652  1.00  0.00    -0.006 C 
ATOM     18  C   UNL     1       5.304  -1.560   0.842  1.00  0.00     0.008 C 
ATOM     19  C   UNL     1       5.149  -0.188  -1.236  1.00  0.00     0.008 C 
ENDBRANCH  12  17
ENDBRANCH  11  12
ENDBRANCH   1  11
TORSDOF 1
ENDMDL
MODEL 7
REMARK VINA RESULT:    -3.320      1.517      1.997
REMARK INTER + INTRA:          -5.306
REMARK INTER:                  -5.267
REMARK INTRA:                  -0.039
REMARK UNBOUND:                -0.240
REMARK SMILES CC1=CCC[C@@H](C)C(=O)C[C@H](C(C)C)C(=O)C1
REMARK SMILES IDX 8 1 9 2 6 3 7 4 5 5 4 6 3 7 2 8 1 9 10 11 11 12 15 13 16 14
REMARK SMILES IDX 17 15 12 17 13 18 14 19
REMARK H PARENT
REMARK Flexibility Score: 70.00
ROOT
ATOM      1  C   UNL     1       4.716  -3.240  -3.248  1.00  0.00     0.136 C 
ATOM      2  O   UNL     1       4.127  -3.889  -2.394  1.00  0.00    -0.299 OA
ENDROOT
BRANCH   1   3
ATOM      3  C   UNL     1       4.694  -3.769  -4.673  1.00  0.00     0.053 C 
ATOM      4  C   UNL     1       3.281  -3.802  -5.276  1.00  0.00     0.016 C 
BRANCH   3   5
ATOM      5  C   UNL     1       5.558  -5.052  -4.835  1.00  0.00     0.015 C 
BRANCH   5   6
ATOM      6  C   UNL     1       6.797  -5.252  -3.937  1.00  0.00     0.028 C 
BRANCH   6   7
ATOM      7  C   UNL     1       8.049  -4.493  -4.306  1.00  0.00    -0.028 C 
ATOM      8  C   UNL     1       8.763  -3.679  -3.500  1.00  0.00    -0.070 CG0
ATOM      9  C   UNL     1       9.877  -2.876  -4.127  1.00  0.00     0.039 C 
ATOM     10  G   UNL     1       8.501  -3.524  -2.018  1.00  0.00     0.000 G0
ENDBRANCH   6   7
ENDBRANCH   5   6
ENDBRANCH   3   5
ENDBRANCH   1   3
BRANCH   1  11
ATOM     11  C   UNL     1       5.485  -2.005  -2.812  1.00  0.00     0.087 C 
BRANCH  11  12
ATOM     12  C   UNL     1       6.299  -2.086  -1.471  1.00  0.00     0.066 C 
BRANCH  12  13
ATOM     13  C   UNL     1       7.801  -2.202  -1.724  1.00  0.00     0.140 C 
ATOM     14  O   UNL     1       8.475  -1.181  -1.704  1.00  0.00    -0.299 OA
BRANCH  13  15
ATOM     15  C   UNL     1       8.500  -3.509  -2.008  1.00  0.00     0.106 CG0
ATOM     16  G   UNL     1       8.772  -3.661  -3.488  1.00  0.00     0.000 G0
ENDBRANCH  13  15
ENDBRANCH  12  13
BRANCH  12  17
ATOM     17  C   UNL     1       5.927  -1.039  -0.365  1.00  0.00    -0.006 C 
ATOM     18  C   UNL     1       4.957   0.023  -0.921  1.00  0.00     0.008 C 
ATOM     19  C   UNL     1       5.275  -1.674   0.879  1.00  0.00     0.008 C 
ENDBRANCH  12  17
ENDBRANCH  11  12
ENDBRANCH   1  11
TORSDOF 1
ENDMDL
MODEL 8
REMARK VINA RESULT:    -3.263      1.819      3.996
REMARK INTER + INTRA:          -5.219
REMARK INTER:                  -5.093
REMARK INTRA:                  -0.126
REMARK UNBOUND:                -0.240
REMARK SMILES CC1=CCC[C@@H](C)C(=O)C[C@H](C(C)C)C(=O)C1
REMARK SMILES IDX 8 1 9 2 6 3 7 4 5 5 4 6 3 7 2 8 1 9 10 11 11 12 15 13 16 14
REMARK SMILES IDX 17 15 12 17 13 18 14 19
REMARK H PARENT
REMARK Flexibility Score: 70.00
ROOT
ATOM      1  C   UNL     1       4.732  -2.087  -1.594  1.00  0.00     0.136 C 
ATOM      2  O   UNL     1       4.104  -1.180  -2.123  1.00  0.00    -0.299 OA
ENDROOT
BRANCH   1   3
ATOM      3  C   UNL     1       5.768  -1.708  -0.548  1.00  0.00     0.053 C 
ATOM      4  C   UNL     1       5.160  -0.971   0.656  1.00  0.00     0.016 C 
BRANCH   3   5
ATOM      5  C   UNL     1       7.041  -1.083  -1.185  1.00  0.00     0.015 C 
BRANCH   5   6
ATOM      6  C   UNL     1       8.027  -1.986  -1.957  1.00  0.00     0.028 C 
BRANCH   6   7
ATOM      7  C   UNL     1       8.415  -3.295  -1.314  1.00  0.00    -0.028 C 
ATOM      8  C   UNL     1       8.207  -4.531  -1.815  1.00  0.00    -0.070 CG0
ATOM      9  C   UNL     1       8.509  -5.709  -0.921  1.00  0.00     0.039 C 
ATOM     10  G   UNL     1       7.682  -4.794  -3.209  1.00  0.00     0.000 G0
ENDBRANCH   6   7
ENDBRANCH   5   6
ENDBRANCH   3   5
ENDBRANCH   1   3
BRANCH   1  11
ATOM     11  C   UNL     1       4.488  -3.508  -2.073  1.00  0.00     0.087 C 
BRANCH  11  12
ATOM     12  C   UNL     1       5.155  -3.948  -3.424  1.00  0.00     0.066 C 
BRANCH  12  13
ATOM     13  C   UNL     1       6.192  -5.050  -3.215  1.00  0.00     0.140 C 
ATOM     14  O   UNL     1       5.797  -6.191  -3.017  1.00  0.00    -0.299 OA
BRANCH  13  15
ATOM     15  C   UNL     1       7.681  -4.805  -3.228  1.00  0.00     0.106 CG0
ATOM     16  G   UNL     1       8.194  -4.540  -1.829  1.00  0.00     0.000 G0
ENDBRANCH  13  15
ENDBRANCH  12  13
BRANCH  12  17
ATOM     17  C   UNL     1       4.183  -4.221  -4.625  1.00  0.00    -0.006 C 
ATOM     18  C   UNL     1       3.602  -2.901  -5.169  1.00  0.00     0.008 C 
ATOM     19  C   UNL     1       4.858  -4.962  -5.797  1.00  0.00     0.008 C 
ENDBRANCH  12  17
ENDBRANCH  11  12
ENDBRANCH   1  11
TORSDOF 1
ENDMDL
MODEL 9
REMARK VINA RESULT:    -3.199     13.319     15.197
REMARK INTER + INTRA:          -5.122
REMARK INTER:                  -5.429
REMARK INTRA:                   0.307
REMARK UNBOUND:                -0.240
REMARK SMILES CC1=CCC[C@@H](C)C(=O)C[C@H](C(C)C)C(=O)C1
REMARK SMILES IDX 8 1 9 2 6 3 7 4 5 5 4 6 3 7 2 8 1 9 10 11 11 12 15 13 16 14
REMARK SMILES IDX 17 15 12 17 13 18 14 19
REMARK H PARENT
REMARK Flexibility Score: 70.00
ROOT
ATOM      1  C   UNL     1      -4.800  -6.418   2.266  1.00  0.00     0.136 C 
ATOM      2  O   UNL     1      -5.604  -5.506   2.392  1.00  0.00    -0.299 OA
ENDROOT
BRANCH   1   3
ATOM      3  C   UNL     1      -3.871  -6.375   1.062  1.00  0.00     0.053 C 
ATOM      4  C   UNL     1      -3.196  -5.007   0.877  1.00  0.00     0.016 C 
BRANCH   3   5
ATOM      5  C   UNL     1      -4.517  -7.017  -0.198  1.00  0.00     0.015 C 
BRANCH   5   6
ATOM      6  C   UNL     1      -5.171  -8.411  -0.091  1.00  0.00     0.028 C 
BRANCH   6   7
ATOM      7  C   UNL     1      -6.667  -8.489  -0.269  1.00  0.00    -0.028 C 
ATOM      8  C   UNL     1      -7.559  -8.986   0.615  1.00  0.00    -0.070 CG0
ATOM      9  C   UNL     1      -8.989  -9.135   0.157  1.00  0.00     0.039 C 
ATOM     10  G   UNL     1      -7.199  -9.406   2.023  1.00  0.00     0.000 G0
ENDBRANCH   6   7
ENDBRANCH   5   6
ENDBRANCH   3   5
ENDBRANCH   1   3
BRANCH   1  11
ATOM     11  C   UNL     1      -4.837  -7.558   3.269  1.00  0.00     0.087 C 
BRANCH  11  12
ATOM     12  C   UNL     1      -6.204  -7.859   3.982  1.00  0.00     0.066 C 
BRANCH  12  13
ATOM     13  C   UNL     1      -7.298  -8.224   2.981  1.00  0.00     0.140 C 
ATOM     14  O   UNL     1      -8.312  -7.540   2.951  1.00  0.00    -0.299 OA
BRANCH  13  15
ATOM     15  C   UNL     1      -7.202  -9.392   2.030  1.00  0.00     0.106 CG0
ATOM     16  G   UNL     1      -7.555  -8.969   0.622  1.00  0.00     0.000 G0
ENDBRANCH  13  15
ENDBRANCH  12  13
BRANCH  12  17
ATOM     17  C   UNL     1      -6.147  -8.812   5.225  1.00  0.00    -0.006 C 
ATOM     18  C   UNL     1      -5.102  -8.318   6.245  1.00  0.00     0.008 C 
ATOM     19  C   UNL     1      -7.500  -8.941   5.955  1.00  0.00     0.008 C 
ENDBRANCH  12  17
ENDBRANCH  11  12
ENDBRANCH   1  11
TORSDOF 1
ENDMDL
