MODEL 1
REMARK VINA RESULT:    -6.984      0.000      0.000
REMARK INTER + INTRA:         -10.869
REMARK INTER:                  -9.229
REMARK INTRA:                  -1.640
REMARK UNBOUND:                -1.640
REMARK SMILES C=C(CC[C@H](C)[C@@H]1CC[C@]2(C)[C@@H]3CC[C@H]4C(C)(C)[C@@H](O)CC[C@]45C[C@]35CC[C@@]12C)C(C)C
REMARK SMILES IDX 4 1 3 2 2 3 1 4 30 5 31 6 32 7 5 8 6 9 7 10 8 11 28 12 9 13
REMARK SMILES IDX 10 14 27 15 29 16 11 17 12 18 26 19 25 20 13 21 23 22 24 23
REMARK SMILES IDX 14 24 15 25 22 26 16 27 21 28 19 29 17 30 18 31 20 32
REMARK H PARENT 20 33
REMARK Flexibility Score: inf
ROOT
ATOM      1  C   UNL     1     185.003 192.386 189.232  1.00  0.00     0.008 C 
ENDROOT
BRANCH   1   2
ATOM      2  C   UNL     1     185.822 193.672 189.436  1.00  0.00     0.031 C 
BRANCH   2   3
ATOM      3  C   UNL     1     186.874 193.475 190.506  1.00  0.00    -0.075 C 
ATOM      4  C   UNL     1     186.511 192.974 191.701  1.00  0.00     0.008 C 
BRANCH   3   5
ATOM      5  C   UNL     1     188.324 193.841 190.216  1.00  0.00     0.008 C 
ATOM      6  C   UNL     1     188.431 195.228 189.572  1.00  0.00     0.012 C 
ATOM      7  C   UNL     1     189.002 192.775 189.346  1.00  0.00     0.012 C 
ENDBRANCH   3   5
ENDBRANCH   2   3
ENDBRANCH   1   2
BRANCH   1   8
ATOM      8  C   UNL     1     185.857 191.226 188.640  1.00  0.00    -0.010 C 
ATOM      9  C   UNL     1     185.948 191.406 187.110  1.00  0.00     0.008 C 
BRANCH   8  10
ATOM     10  C   UNL     1     185.251 189.829 189.027  1.00  0.00    -0.002 C 
ATOM     11  C   UNL     1     184.073 189.952 190.040  1.00  0.00     0.005 C 
ATOM     12  C   UNL     1     186.177 188.754 189.692  1.00  0.00    -0.024 C 
ATOM     13  C   UNL     1     184.154 188.753 191.004  1.00  0.00     0.008 C 
ATOM     14  C   UNL     1     185.131 187.773 190.334  1.00  0.00    -0.024 C 
ATOM     15  C   UNL     1     187.093 187.955 188.713  1.00  0.00     0.008 C 
ATOM     16  C   UNL     1     187.065 189.479 190.763  1.00  0.00     0.012 C 
ATOM     17  C   UNL     1     184.281 186.998 189.255  1.00  0.00     0.012 C 
ATOM     18  C   UNL     1     185.816 186.667 191.239  1.00  0.00     0.002 C 
ATOM     19  C   UNL     1     187.569 186.570 189.252  1.00  0.00     0.008 C 
ATOM     20  C   UNL     1     187.258 186.339 190.757  1.00  0.00    -0.020 C 
ATOM     21  C   UNL     1     185.729 186.855 192.758  1.00  0.00     0.005 C 
ATOM     22  C   UNL     1     187.836 185.105 191.486  1.00  0.00    -0.020 C 
ATOM     23  C   UNL     1     188.487 186.474 191.679  1.00  0.00     0.015 C 
ATOM     24  C   UNL     1     186.205 185.603 193.537  1.00  0.00     0.005 C 
ATOM     25  C   UNL     1     187.174 184.589 192.809  1.00  0.00     0.004 C 
ATOM     26  C   UNL     1     188.800 184.129 190.785  1.00  0.00     0.010 C 
ATOM     27  C   UNL     1     186.589 183.127 192.644  1.00  0.00    -0.006 C 
ATOM     28  C   UNL     1     188.153 182.761 190.610  1.00  0.00     0.033 C 
ATOM     29  C   UNL     1     187.655 182.205 191.955  1.00  0.00     0.120 C 
ATOM     30  C   UNL     1     185.272 183.119 191.827  1.00  0.00     0.014 C 
ATOM     31  C   UNL     1     186.298 182.517 194.043  1.00  0.00     0.014 C 
BRANCH  29  32
ATOM     32  O   UNL     1     187.132 180.914 191.754  1.00  0.00    -0.393 OA
ATOM     33  H   UNL     1     187.396 180.367 192.541  1.00  0.00     0.210 HD
ENDBRANCH  29  32
ENDBRANCH   8  10
ENDBRANCH   1   8
TORSDOF 6
ENDMDL
MODEL 2
REMARK VINA RESULT:    -6.827      2.352      4.894
REMARK INTER + INTRA:         -10.662
REMARK INTER:                  -8.908
REMARK INTRA:                  -1.754
REMARK UNBOUND:                -1.640
REMARK SMILES C=C(CC[C@H](C)[C@@H]1CC[C@]2(C)[C@@H]3CC[C@H]4C(C)(C)[C@@H](O)CC[C@]45C[C@]35CC[C@@]12C)C(C)C
REMARK SMILES IDX 4 1 3 2 2 3 1 4 30 5 31 6 32 7 5 8 6 9 7 10 8 11 28 12 9 13
REMARK SMILES IDX 10 14 27 15 29 16 11 17 12 18 26 19 25 20 13 21 23 22 24 23
REMARK SMILES IDX 14 24 15 25 22 26 16 27 21 28 19 29 17 30 18 31 20 32
REMARK H PARENT 20 33
REMARK Flexibility Score: inf
ROOT
ATOM      1  C   UNL     1     189.143 195.359 190.391  1.00  0.00     0.008 C 
ENDROOT
BRANCH   1   2
ATOM      2  C   UNL     1     188.942 196.781 190.943  1.00  0.00     0.031 C 
BRANCH   2   3
ATOM      3  C   UNL     1     188.767 196.755 192.446  1.00  0.00    -0.075 C 
ATOM      4  C   UNL     1     189.756 196.266 193.216  1.00  0.00     0.008 C 
BRANCH   3   5
ATOM      5  C   UNL     1     187.480 197.286 193.065  1.00  0.00     0.008 C 
ATOM      6  C   UNL     1     186.473 196.157 193.314  1.00  0.00     0.012 C 
ATOM      7  C   UNL     1     186.864 198.393 192.202  1.00  0.00     0.012 C 
ENDBRANCH   3   5
ENDBRANCH   2   3
ENDBRANCH   1   2
BRANCH   1   8
ATOM      8  C   UNL     1     187.864 194.809 189.691  1.00  0.00    -0.010 C 
ATOM      9  C   UNL     1     186.896 195.982 189.433  1.00  0.00     0.008 C 
BRANCH   8  10
ATOM     10  C   UNL     1     187.194 193.680 190.555  1.00  0.00    -0.002 C 
ATOM     11  C   UNL     1     188.111 193.197 191.718  1.00  0.00     0.005 C 
ATOM     12  C   UNL     1     186.769 192.341 189.861  1.00  0.00    -0.024 C 
ATOM     13  C   UNL     1     187.899 191.681 191.887  1.00  0.00     0.008 C 
ATOM     14  C   UNL     1     186.623 191.370 191.087  1.00  0.00    -0.024 C 
ATOM     15  C   UNL     1     185.419 192.385 189.080  1.00  0.00     0.008 C 
ATOM     16  C   UNL     1     187.922 191.916 188.886  1.00  0.00     0.012 C 
ATOM     17  C   UNL     1     185.424 191.760 192.035  1.00  0.00     0.012 C 
ATOM     18  C   UNL     1     186.368 189.870 190.643  1.00  0.00     0.002 C 
ATOM     19  C   UNL     1     184.736 190.996 188.884  1.00  0.00     0.008 C 
ATOM     20  C   UNL     1     185.636 189.791 189.274  1.00  0.00    -0.020 C 
ATOM     21  C   UNL     1     187.554 188.902 190.737  1.00  0.00     0.005 C 
ATOM     22  C   UNL     1     185.181 188.349 188.954  1.00  0.00    -0.020 C 
ATOM     23  C   UNL     1     186.223 189.029 188.067  1.00  0.00     0.015 C 
ATOM     24  C   UNL     1     187.131 187.427 190.522  1.00  0.00     0.005 C 
ATOM     25  C   UNL     1     185.792 187.136 189.736  1.00  0.00     0.004 C 
ATOM     26  C   UNL     1     183.887 188.065 188.166  1.00  0.00     0.010 C 
ATOM     27  C   UNL     1     184.694 186.363 190.575  1.00  0.00    -0.006 C 
ATOM     28  C   UNL     1     182.857 187.371 189.048  1.00  0.00     0.033 C 
ATOM     29  C   UNL     1     183.436 186.092 189.678  1.00  0.00     0.120 C 
ATOM     30  C   UNL     1     184.280 187.146 191.847  1.00  0.00     0.014 C 
ATOM     31  C   UNL     1     185.246 184.979 191.013  1.00  0.00     0.014 C 
BRANCH  29  32
ATOM     32  O   UNL     1     182.430 185.451 190.424  1.00  0.00    -0.393 OA
ATOM     33  H   UNL     1     182.547 184.473 190.290  1.00  0.00     0.210 HD
ENDBRANCH  29  32
ENDBRANCH   8  10
ENDBRANCH   1   8
TORSDOF 6
ENDMDL
MODEL 3
REMARK VINA RESULT:    -6.784      4.087      7.935
REMARK INTER + INTRA:         -10.605
REMARK INTER:                  -8.903
REMARK INTRA:                  -1.702
REMARK UNBOUND:                -1.640
REMARK SMILES C=C(CC[C@H](C)[C@@H]1CC[C@]2(C)[C@@H]3CC[C@H]4C(C)(C)[C@@H](O)CC[C@]45C[C@]35CC[C@@]12C)C(C)C
REMARK SMILES IDX 4 1 3 2 2 3 1 4 30 5 31 6 32 7 5 8 6 9 7 10 8 11 28 12 9 13
REMARK SMILES IDX 10 14 27 15 29 16 11 17 12 18 26 19 25 20 13 21 23 22 24 23
REMARK SMILES IDX 14 24 15 25 22 26 16 27 21 28 19 29 17 30 18 31 20 32
REMARK H PARENT 20 33
REMARK Flexibility Score: inf
ROOT
ATOM      1  C   UNL     1     189.449 199.078 192.233  1.00  0.00     0.008 C 
ENDROOT
BRANCH   1   2
ATOM      2  C   UNL     1     188.624 199.981 193.166  1.00  0.00     0.031 C 
BRANCH   2   3
ATOM      3  C   UNL     1     187.170 199.559 193.177  1.00  0.00    -0.075 C 
ATOM      4  C   UNL     1     186.522 199.400 192.008  1.00  0.00     0.008 C 
BRANCH   3   5
ATOM      5  C   UNL     1     186.465 199.316 194.505  1.00  0.00     0.008 C 
ATOM      6  C   UNL     1     187.111 200.125 195.636  1.00  0.00     0.012 C 
ATOM      7  C   UNL     1     186.425 197.822 194.848  1.00  0.00     0.012 C 
ENDBRANCH   3   5
ENDBRANCH   2   3
ENDBRANCH   1   2
BRANCH   1   8
ATOM      8  C   UNL     1     189.356 197.574 192.630  1.00  0.00    -0.010 C 
ATOM      9  C   UNL     1     190.511 197.245 193.599  1.00  0.00     0.008 C 
BRANCH   8  10
ATOM     10  C   UNL     1     189.386 196.656 191.356  1.00  0.00    -0.002 C 
ATOM     11  C   UNL     1     188.905 197.399 190.075  1.00  0.00     0.005 C 
ATOM     12  C   UNL     1     188.531 195.342 191.344  1.00  0.00    -0.024 C 
ATOM     13  C   UNL     1     188.118 196.393 189.213  1.00  0.00     0.008 C 
ATOM     14  C   UNL     1     188.454 195.016 189.809  1.00  0.00    -0.024 C 
ATOM     15  C   UNL     1     189.155 194.124 192.094  1.00  0.00     0.008 C 
ATOM     16  C   UNL     1     187.129 195.674 191.964  1.00  0.00     0.012 C 
ATOM     17  C   UNL     1     189.854 194.622 189.199  1.00  0.00     0.012 C 
ATOM     18  C   UNL     1     187.477 193.809 189.496  1.00  0.00     0.002 C 
ATOM     19  C   UNL     1     188.624 192.733 191.629  1.00  0.00     0.008 C 
ATOM     20  C   UNL     1     187.392 192.813 190.685  1.00  0.00    -0.020 C 
ATOM     21  C   UNL     1     186.100 194.157 188.916  1.00  0.00     0.005 C 
ATOM     22  C   UNL     1     186.630 191.524 190.297  1.00  0.00    -0.020 C 
ATOM     23  C   UNL     1     186.055 192.453 191.367  1.00  0.00     0.015 C 
ATOM     24  C   UNL     1     185.335 192.905 188.418  1.00  0.00     0.005 C 
ATOM     25  C   UNL     1     185.731 191.496 189.014  1.00  0.00     0.004 C 
ATOM     26  C   UNL     1     187.000 190.154 190.896  1.00  0.00     0.010 C 
ATOM     27  C   UNL     1     186.264 190.459 187.944  1.00  0.00    -0.006 C 
ATOM     28  C   UNL     1     187.557 189.227 189.824  1.00  0.00     0.033 C 
ATOM     29  C   UNL     1     186.578 189.090 188.644  1.00  0.00     0.120 C 
ATOM     30  C   UNL     1     187.526 190.981 187.210  1.00  0.00     0.014 C 
ATOM     31  C   UNL     1     185.163 190.184 186.884  1.00  0.00     0.014 C 
BRANCH  29  32
ATOM     32  O   UNL     1     187.102 188.172 187.715  1.00  0.00    -0.393 OA
ATOM     33  H   UNL     1     187.919 187.779 188.124  1.00  0.00     0.210 HD
ENDBRANCH  29  32
ENDBRANCH   8  10
ENDBRANCH   1   8
TORSDOF 6
ENDMDL
MODEL 4
REMARK VINA RESULT:    -6.761      3.671      7.464
REMARK INTER + INTRA:         -10.575
REMARK INTER:                  -8.878
REMARK INTRA:                  -1.697
REMARK UNBOUND:                -1.640
REMARK SMILES C=C(CC[C@H](C)[C@@H]1CC[C@]2(C)[C@@H]3CC[C@H]4C(C)(C)[C@@H](O)CC[C@]45C[C@]35CC[C@@]12C)C(C)C
REMARK SMILES IDX 4 1 3 2 2 3 1 4 30 5 31 6 32 7 5 8 6 9 7 10 8 11 28 12 9 13
REMARK SMILES IDX 10 14 27 15 29 16 11 17 12 18 26 19 25 20 13 21 23 22 24 23
REMARK SMILES IDX 14 24 15 25 22 26 16 27 21 28 19 29 17 30 18 31 20 32
REMARK H PARENT 20 33
REMARK Flexibility Score: inf
ROOT
ATOM      1  C   UNL     1     190.114 198.330 192.238  1.00  0.00     0.008 C 
ENDROOT
BRANCH   1   2
ATOM      2  C   UNL     1     189.524 199.629 192.814  1.00  0.00     0.031 C 
BRANCH   2   3
ATOM      3  C   UNL     1     189.235 199.480 194.292  1.00  0.00    -0.075 C 
ATOM      4  C   UNL     1     190.262 199.386 195.157  1.00  0.00     0.008 C 
BRANCH   3   5
ATOM      5  C   UNL     1     187.793 199.443 194.779  1.00  0.00     0.008 C 
ATOM      6  C   UNL     1     187.339 198.009 195.074  1.00  0.00     0.012 C 
ATOM      7  C   UNL     1     186.851 200.125 193.779  1.00  0.00     0.012 C 
ENDBRANCH   3   5
ENDBRANCH   2   3
ENDBRANCH   1   2
BRANCH   1   8
ATOM      8  C   UNL     1     189.148 197.635 191.232  1.00  0.00    -0.010 C 
ATOM      9  C   UNL     1     188.133 198.677 190.719  1.00  0.00     0.008 C 
BRANCH   8  10
ATOM     10  C   UNL     1     188.434 196.405 191.900  1.00  0.00    -0.002 C 
ATOM     11  C   UNL     1     189.348 195.669 192.924  1.00  0.00     0.005 C 
ATOM     12  C   UNL     1     187.913 195.240 190.990  1.00  0.00    -0.024 C 
ATOM     13  C   UNL     1     189.052 194.161 192.822  1.00  0.00     0.008 C 
ATOM     14  C   UNL     1     187.740 194.070 192.024  1.00  0.00    -0.024 C 
ATOM     15  C   UNL     1     186.549 195.499 190.278  1.00  0.00     0.008 C 
ATOM     16  C   UNL     1     189.015 194.940 189.914  1.00  0.00     0.012 C 
ATOM     17  C   UNL     1     186.590 194.345 193.068  1.00  0.00     0.012 C 
ATOM     18  C   UNL     1     187.386 192.693 191.325  1.00  0.00     0.002 C 
ATOM     19  C   UNL     1     185.781 194.208 189.856  1.00  0.00     0.008 C 
ATOM     20  C   UNL     1     186.618 192.905 189.990  1.00  0.00    -0.020 C 
ATOM     21  C   UNL     1     188.514 191.662 191.201  1.00  0.00     0.005 C 
ATOM     22  C   UNL     1     186.070 191.573 189.430  1.00  0.00    -0.020 C 
ATOM     23  C   UNL     1     187.129 192.347 188.646  1.00  0.00     0.015 C 
ATOM     24  C   UNL     1     188.000 190.276 190.737  1.00  0.00     0.005 C 
ATOM     25  C   UNL     1     186.627 190.207 189.957  1.00  0.00     0.004 C 
ATOM     26  C   UNL     1     184.743 191.508 188.649  1.00  0.00     0.010 C 
ATOM     27  C   UNL     1     185.506 189.353 190.680  1.00  0.00    -0.006 C 
ATOM     28  C   UNL     1     183.696 190.721 189.426  1.00  0.00     0.033 C 
ATOM     29  C   UNL     1     184.213 189.319 189.793  1.00  0.00     0.120 C 
ATOM     30  C   UNL     1     185.170 189.911 192.087  1.00  0.00     0.014 C 
ATOM     31  C   UNL     1     185.986 187.884 190.840  1.00  0.00     0.014 C 
BRANCH  29  32
ATOM     32  O   UNL     1     183.189 188.607 190.445  1.00  0.00    -0.393 OA
ATOM     33  H   UNL     1     182.692 188.105 189.745  1.00  0.00     0.210 HD
ENDBRANCH  29  32
ENDBRANCH   8  10
ENDBRANCH   1   8
TORSDOF 6
ENDMDL
MODEL 5
REMARK VINA RESULT:    -6.758      4.911     10.524
REMARK INTER + INTRA:         -10.571
REMARK INTER:                  -9.318
REMARK INTRA:                  -1.253
REMARK UNBOUND:                -1.640
REMARK SMILES C=C(CC[C@H](C)[C@@H]1CC[C@]2(C)[C@@H]3CC[C@H]4C(C)(C)[C@@H](O)CC[C@]45C[C@]35CC[C@@]12C)C(C)C
REMARK SMILES IDX 4 1 3 2 2 3 1 4 30 5 31 6 32 7 5 8 6 9 7 10 8 11 28 12 9 13
REMARK SMILES IDX 10 14 27 15 29 16 11 17 12 18 26 19 25 20 13 21 23 22 24 23
REMARK SMILES IDX 14 24 15 25 22 26 16 27 21 28 19 29 17 30 18 31 20 32
REMARK H PARENT 20 33
REMARK Flexibility Score: inf
ROOT
ATOM      1  C   UNL     1     185.003 191.885 188.982  1.00  0.00     0.008 C 
ENDROOT
BRANCH   1   2
ATOM      2  C   UNL     1     184.620 190.760 188.005  1.00  0.00     0.031 C 
BRANCH   2   3
ATOM      3  C   UNL     1     184.351 189.470 188.749  1.00  0.00    -0.075 C 
ATOM      4  C   UNL     1     183.881 188.406 188.072  1.00  0.00     0.008 C 
BRANCH   3   5
ATOM      5  C   UNL     1     184.620 189.392 190.246  1.00  0.00     0.008 C 
ATOM      6  C   UNL     1     185.838 188.511 190.550  1.00  0.00     0.012 C 
ATOM      7  C   UNL     1     183.382 188.905 191.008  1.00  0.00     0.012 C 
ENDBRANCH   3   5
ENDBRANCH   2   3
ENDBRANCH   1   2
BRANCH   1   8
ATOM      8  C   UNL     1     186.392 192.510 188.651  1.00  0.00    -0.010 C 
ATOM      9  C   UNL     1     187.198 191.507 187.801  1.00  0.00     0.008 C 
BRANCH   8  10
ATOM     10  C   UNL     1     187.156 192.905 189.966  1.00  0.00    -0.002 C 
ATOM     11  C   UNL     1     186.577 192.197 191.226  1.00  0.00     0.005 C 
ATOM     12  C   UNL     1     187.202 194.412 190.397  1.00  0.00    -0.024 C 
ATOM     13  C   UNL     1     186.656 193.189 192.403  1.00  0.00     0.008 C 
ATOM     14  C   UNL     1     187.594 194.305 191.915  1.00  0.00    -0.024 C 
ATOM     15  C   UNL     1     188.256 195.293 189.658  1.00  0.00     0.008 C 
ATOM     16  C   UNL     1     185.771 195.018 190.182  1.00  0.00     0.012 C 
ATOM     17  C   UNL     1     189.056 193.754 192.129  1.00  0.00     0.012 C 
ATOM     18  C   UNL     1     187.534 195.705 192.654  1.00  0.00     0.002 C 
ATOM     19  C   UNL     1     188.688 196.577 190.432  1.00  0.00     0.008 C 
ATOM     20  C   UNL     1     187.813 196.884 191.679  1.00  0.00    -0.020 C 
ATOM     21  C   UNL     1     186.328 195.964 193.565  1.00  0.00     0.005 C 
ATOM     22  C   UNL     1     187.987 198.221 192.436  1.00  0.00    -0.020 C 
ATOM     23  C   UNL     1     186.813 198.040 191.475  1.00  0.00     0.015 C 
ATOM     24  C   UNL     1     186.499 197.244 194.422  1.00  0.00     0.005 C 
ATOM     25  C   UNL     1     187.502 198.356 193.920  1.00  0.00     0.004 C 
ATOM     26  C   UNL     1     188.948 199.316 191.934  1.00  0.00     0.010 C 
ATOM     27  C   UNL     1     188.705 198.647 194.907  1.00  0.00    -0.006 C 
ATOM     28  C   UNL     1     190.108 199.504 192.903  1.00  0.00     0.033 C 
ATOM     29  C   UNL     1     189.601 199.796 194.326  1.00  0.00     0.120 C 
ATOM     30  C   UNL     1     189.564 197.382 195.164  1.00  0.00     0.014 C 
ATOM     31  C   UNL     1     188.155 199.147 196.272  1.00  0.00     0.014 C 
BRANCH  29  32
ATOM     32  O   UNL     1     190.704 200.032 195.168  1.00  0.00    -0.393 OA
ATOM     33  H   UNL     1     190.428 199.777 196.088  1.00  0.00     0.210 HD
ENDBRANCH  29  32
ENDBRANCH   8  10
ENDBRANCH   1   8
TORSDOF 6
ENDMDL
MODEL 6
REMARK VINA RESULT:    -6.726      4.076      9.340
REMARK INTER + INTRA:         -10.529
REMARK INTER:                  -8.832
REMARK INTRA:                  -1.697
REMARK UNBOUND:                -1.640
REMARK SMILES C=C(CC[C@H](C)[C@@H]1CC[C@]2(C)[C@@H]3CC[C@H]4C(C)(C)[C@@H](O)CC[C@]45C[C@]35CC[C@@]12C)C(C)C
REMARK SMILES IDX 4 1 3 2 2 3 1 4 30 5 31 6 32 7 5 8 6 9 7 10 8 11 28 12 9 13
REMARK SMILES IDX 10 14 27 15 29 16 11 17 12 18 26 19 25 20 13 21 23 22 24 23
REMARK SMILES IDX 14 24 15 25 22 26 16 27 21 28 19 29 17 30 18 31 20 32
REMARK H PARENT 20 33
REMARK Flexibility Score: inf
ROOT
ATOM      1  C   UNL     1     186.003 188.208 188.250  1.00  0.00     0.008 C 
ENDROOT
BRANCH   1   2
ATOM      2  C   UNL     1     185.558 187.002 189.094  1.00  0.00     0.031 C 
BRANCH   2   3
ATOM      3  C   UNL     1     184.117 187.153 189.531  1.00  0.00    -0.075 C 
ATOM      4  C   UNL     1     183.137 187.035 188.617  1.00  0.00     0.008 C 
BRANCH   3   5
ATOM      5  C   UNL     1     183.797 187.430 190.994  1.00  0.00     0.008 C 
ATOM      6  C   UNL     1     183.161 188.813 191.175  1.00  0.00     0.012 C 
ATOM      7  C   UNL     1     185.043 187.276 191.874  1.00  0.00     0.012 C 
ENDBRANCH   3   5
ENDBRANCH   2   3
ENDBRANCH   1   2
BRANCH   1   8
ATOM      8  C   UNL     1     187.172 188.997 188.913  1.00  0.00    -0.010 C 
ATOM      9  C   UNL     1     188.006 188.022 189.770  1.00  0.00     0.008 C 
BRANCH   8  10
ATOM     10  C   UNL     1     186.624 190.199 189.764  1.00  0.00    -0.002 C 
ATOM     11  C   UNL     1     185.272 190.748 189.219  1.00  0.00     0.005 C 
ATOM     12  C   UNL     1     187.498 191.492 189.908  1.00  0.00    -0.024 C 
ATOM     13  C   UNL     1     185.273 192.277 189.409  1.00  0.00     0.008 C 
ATOM     14  C   UNL     1     186.438 192.553 190.375  1.00  0.00    -0.024 C 
ATOM     15  C   UNL     1     188.645 191.417 190.964  1.00  0.00     0.008 C 
ATOM     16  C   UNL     1     188.106 191.821 188.500  1.00  0.00     0.012 C 
ATOM     17  C   UNL     1     185.872 192.256 191.817  1.00  0.00     0.012 C 
ATOM     18  C   UNL     1     187.033 194.021 190.424  1.00  0.00     0.002 C 
ATOM     19  C   UNL     1     189.127 192.801 191.500  1.00  0.00     0.008 C 
ATOM     20  C   UNL     1     188.561 194.013 190.709  1.00  0.00    -0.020 C 
ATOM     21  C   UNL     1     186.649 194.969 189.282  1.00  0.00     0.005 C 
ATOM     22  C   UNL     1     189.096 195.437 190.989  1.00  0.00    -0.020 C 
ATOM     23  C   UNL     1     189.581 194.672 189.758  1.00  0.00     0.015 C 
ATOM     24  C   UNL     1     187.075 196.433 189.561  1.00  0.00     0.005 C 
ATOM     25  C   UNL     1     188.246 196.691 190.591  1.00  0.00     0.004 C 
ATOM     26  C   UNL     1     190.253 195.687 191.975  1.00  0.00     0.010 C 
ATOM     27  C   UNL     1     187.828 197.544 191.858  1.00  0.00    -0.006 C 
ATOM     28  C   UNL     1     189.769 196.463 193.193  1.00  0.00     0.033 C 
ATOM     29  C   UNL     1     189.077 197.774 192.778  1.00  0.00     0.120 C 
ATOM     30  C   UNL     1     186.691 196.865 192.665  1.00  0.00     0.014 C 
ATOM     31  C   UNL     1     187.334 198.946 191.406  1.00  0.00     0.014 C 
BRANCH  29  32
ATOM     32  O   UNL     1     188.712 198.487 193.934  1.00  0.00    -0.393 OA
ATOM     33  H   UNL     1     189.550 198.690 194.428  1.00  0.00     0.210 HD
ENDBRANCH  29  32
ENDBRANCH   8  10
ENDBRANCH   1   8
TORSDOF 6
ENDMDL
MODEL 7
REMARK VINA RESULT:    -6.718      4.291      6.830
REMARK INTER + INTRA:         -10.519
REMARK INTER:                  -8.883
REMARK INTRA:                  -1.635
REMARK UNBOUND:                -1.640
REMARK SMILES C=C(CC[C@H](C)[C@@H]1CC[C@]2(C)[C@@H]3CC[C@H]4C(C)(C)[C@@H](O)CC[C@]45C[C@]35CC[C@@]12C)C(C)C
REMARK SMILES IDX 4 1 3 2 2 3 1 4 30 5 31 6 32 7 5 8 6 9 7 10 8 11 28 12 9 13
REMARK SMILES IDX 10 14 27 15 29 16 11 17 12 18 26 19 25 20 13 21 23 22 24 23
REMARK SMILES IDX 14 24 15 25 22 26 16 27 21 28 19 29 17 30 18 31 20 32
REMARK H PARENT 20 33
REMARK Flexibility Score: inf
ROOT
ATOM      1  C   UNL     1     186.482 196.068 193.764  1.00  0.00     0.008 C 
ENDROOT
BRANCH   1   2
ATOM      2  C   UNL     1     187.705 196.951 194.063  1.00  0.00     0.031 C 
BRANCH   2   3
ATOM      3  C   UNL     1     187.703 198.188 193.191  1.00  0.00    -0.075 C 
ATOM      4  C   UNL     1     186.766 199.133 193.393  1.00  0.00     0.008 C 
BRANCH   3   5
ATOM      5  C   UNL     1     188.759 198.349 192.106  1.00  0.00     0.008 C 
ATOM      6  C   UNL     1     188.119 198.494 190.721  1.00  0.00     0.012 C 
ATOM      7  C   UNL     1     189.762 197.190 192.132  1.00  0.00     0.012 C 
ENDBRANCH   3   5
ENDBRANCH   2   3
ENDBRANCH   1   2
BRANCH   1   8
ATOM      8  C   UNL     1     186.877 194.597 193.439  1.00  0.00    -0.010 C 
ATOM      9  C   UNL     1     188.000 194.160 194.403  1.00  0.00     0.008 C 
BRANCH   8  10
ATOM     10  C   UNL     1     187.311 194.451 191.936  1.00  0.00    -0.002 C 
ATOM     11  C   UNL     1     186.505 195.390 190.990  1.00  0.00     0.005 C 
ATOM     12  C   UNL     1     187.185 193.054 191.238  1.00  0.00    -0.024 C 
ATOM     13  C   UNL     1     186.272 194.638 189.666  1.00  0.00     0.008 C 
ATOM     14  C   UNL     1     187.237 193.442 189.716  1.00  0.00    -0.024 C 
ATOM     15  C   UNL     1     188.330 192.040 191.546  1.00  0.00     0.008 C 
ATOM     16  C   UNL     1     185.808 192.429 191.657  1.00  0.00     0.012 C 
ATOM     17  C   UNL     1     188.641 194.013 189.281  1.00  0.00     0.012 C 
ATOM     18  C   UNL     1     186.945 192.208 188.767  1.00  0.00     0.002 C 
ATOM     19  C   UNL     1     188.515 190.922 190.473  1.00  0.00     0.008 C 
ATOM     20  C   UNL     1     187.372 190.864 189.421  1.00  0.00    -0.020 C 
ATOM     21  C   UNL     1     185.556 192.136 188.121  1.00  0.00     0.005 C 
ATOM     22  C   UNL     1     187.307 189.693 188.414  1.00  0.00    -0.020 C 
ATOM     23  C   UNL     1     186.384 189.698 189.632  1.00  0.00     0.015 C 
ATOM     24  C   UNL     1     185.468 191.040 187.029  1.00  0.00     0.005 C 
ATOM     25  C   UNL     1     186.500 189.845 187.079  1.00  0.00     0.004 C 
ATOM     26  C   UNL     1     188.298 188.515 188.477  1.00  0.00     0.010 C 
ATOM     27  C   UNL     1     187.439 189.736 185.809  1.00  0.00    -0.006 C 
ATOM     28  C   UNL     1     189.204 188.504 187.253  1.00  0.00     0.033 C 
ATOM     29  C   UNL     1     188.382 188.491 185.952  1.00  0.00     0.120 C 
ATOM     30  C   UNL     1     188.282 191.020 185.600  1.00  0.00     0.014 C 
ATOM     31  C   UNL     1     186.576 189.508 184.537  1.00  0.00     0.014 C 
BRANCH  29  32
ATOM     32  O   UNL     1     189.258 188.410 184.854  1.00  0.00    -0.393 OA
ATOM     33  H   UNL     1     189.929 189.135 184.963  1.00  0.00     0.210 HD
ENDBRANCH  29  32
ENDBRANCH   8  10
ENDBRANCH   1   8
TORSDOF 6
ENDMDL
MODEL 8
REMARK VINA RESULT:    -6.678      2.224      4.663
REMARK INTER + INTRA:         -10.465
REMARK INTER:                  -8.792
REMARK INTRA:                  -1.673
REMARK UNBOUND:                -1.640
REMARK SMILES C=C(CC[C@H](C)[C@@H]1CC[C@]2(C)[C@@H]3CC[C@H]4C(C)(C)[C@@H](O)CC[C@]45C[C@]35CC[C@@]12C)C(C)C
REMARK SMILES IDX 4 1 3 2 2 3 1 4 30 5 31 6 32 7 5 8 6 9 7 10 8 11 28 12 9 13
REMARK SMILES IDX 10 14 27 15 29 16 11 17 12 18 26 19 25 20 13 21 23 22 24 23
REMARK SMILES IDX 14 24 15 25 22 26 16 27 21 28 19 29 17 30 18 31 20 32
REMARK H PARENT 20 33
REMARK Flexibility Score: inf
ROOT
ATOM      1  C   UNL     1     187.249 196.929 189.619  1.00  0.00     0.008 C 
ENDROOT
BRANCH   1   2
ATOM      2  C   UNL     1     186.542 197.413 190.897  1.00  0.00     0.031 C 
BRANCH   2   3
ATOM      3  C   UNL     1     187.544 197.959 191.892  1.00  0.00    -0.075 C 
ATOM      4  C   UNL     1     188.294 199.024 191.555  1.00  0.00     0.008 C 
BRANCH   3   5
ATOM      5  C   UNL     1     187.685 197.300 193.258  1.00  0.00     0.008 C 
ATOM      6  C   UNL     1     189.028 196.573 193.392  1.00  0.00     0.012 C 
ATOM      7  C   UNL     1     186.514 196.352 193.541  1.00  0.00     0.012 C 
ENDBRANCH   3   5
ENDBRANCH   2   3
ENDBRANCH   1   2
BRANCH   1   8
ATOM      8  C   UNL     1     188.205 195.729 189.889  1.00  0.00    -0.010 C 
ATOM      9  C   UNL     1     189.571 196.027 189.236  1.00  0.00     0.008 C 
BRANCH   8  10
ATOM     10  C   UNL     1     187.586 194.388 189.357  1.00  0.00    -0.002 C 
ATOM     11  C   UNL     1     186.034 194.457 189.232  1.00  0.00     0.005 C 
ATOM     12  C   UNL     1     187.816 193.067 190.169  1.00  0.00    -0.024 C 
ATOM     13  C   UNL     1     185.468 193.076 189.616  1.00  0.00     0.008 C 
ATOM     14  C   UNL     1     186.684 192.134 189.604  1.00  0.00    -0.024 C 
ATOM     15  C   UNL     1     189.199 192.377 189.957  1.00  0.00     0.008 C 
ATOM     16  C   UNL     1     187.626 193.398 191.691  1.00  0.00     0.012 C 
ATOM     17  C   UNL     1     186.909 191.751 188.091  1.00  0.00     0.012 C 
ATOM     18  C   UNL     1     186.576 190.768 190.398  1.00  0.00     0.002 C 
ATOM     19  C   UNL     1     189.223 190.852 190.287  1.00  0.00     0.008 C 
ATOM     20  C   UNL     1     187.942 190.344 191.006  1.00  0.00    -0.020 C 
ATOM     21  C   UNL     1     185.416 190.626 191.392  1.00  0.00     0.005 C 
ATOM     22  C   UNL     1     187.893 188.907 191.575  1.00  0.00    -0.020 C 
ATOM     23  C   UNL     1     188.130 190.088 192.516  1.00  0.00     0.015 C 
ATOM     24  C   UNL     1     185.261 189.177 191.917  1.00  0.00     0.005 C 
ATOM     25  C   UNL     1     186.514 188.216 191.853  1.00  0.00     0.004 C 
ATOM     26  C   UNL     1     189.122 187.978 191.535  1.00  0.00     0.010 C 
ATOM     27  C   UNL     1     186.309 186.930 190.953  1.00  0.00    -0.006 C 
ATOM     28  C   UNL     1     188.875 186.794 190.609  1.00  0.00     0.033 C 
ATOM     29  C   UNL     1     187.596 186.035 191.006  1.00  0.00     0.120 C 
ATOM     30  C   UNL     1     185.978 187.298 189.483  1.00  0.00     0.014 C 
ATOM     31  C   UNL     1     185.140 186.076 191.516  1.00  0.00     0.014 C 
BRANCH  29  32
ATOM     32  O   UNL     1     187.449 184.913 190.170  1.00  0.00    -0.393 OA
ATOM     33  H   UNL     1     187.763 184.123 190.685  1.00  0.00     0.210 HD
ENDBRANCH  29  32
ENDBRANCH   8  10
ENDBRANCH   1   8
TORSDOF 6
ENDMDL
MODEL 9
REMARK VINA RESULT:    -6.643      1.360      2.730
REMARK INTER + INTRA:         -10.419
REMARK INTER:                  -8.851
REMARK INTRA:                  -1.567
REMARK UNBOUND:                -1.640
REMARK SMILES C=C(CC[C@H](C)[C@@H]1CC[C@]2(C)[C@@H]3CC[C@H]4C(C)(C)[C@@H](O)CC[C@]45C[C@]35CC[C@@]12C)C(C)C
REMARK SMILES IDX 4 1 3 2 2 3 1 4 30 5 31 6 32 7 5 8 6 9 7 10 8 11 28 12 9 13
REMARK SMILES IDX 10 14 27 15 29 16 11 17 12 18 26 19 25 20 13 21 23 22 24 23
REMARK SMILES IDX 14 24 15 25 22 26 16 27 21 28 19 29 17 30 18 31 20 32
REMARK H PARENT 20 33
REMARK Flexibility Score: inf
ROOT
ATOM      1  C   UNL     1     184.483 191.545 188.894  1.00  0.00     0.008 C 
ENDROOT
BRANCH   1   2
ATOM      2  C   UNL     1     185.649 192.495 188.571  1.00  0.00     0.031 C 
BRANCH   2   3
ATOM      3  C   UNL     1     186.698 191.794 187.734  1.00  0.00    -0.075 C 
ATOM      4  C   UNL     1     186.327 191.172 186.601  1.00  0.00     0.008 C 
BRANCH   3   5
ATOM      5  C   UNL     1     188.153 191.808 188.183  1.00  0.00     0.008 C 
ATOM      6  C   UNL     1     188.605 190.422 188.656  1.00  0.00     0.012 C 
ATOM      7  C   UNL     1     188.390 192.866 189.267  1.00  0.00     0.012 C 
ENDBRANCH   3   5
ENDBRANCH   2   3
ENDBRANCH   1   2
BRANCH   1   8
ATOM      8  C   UNL     1     184.755 190.681 190.162  1.00  0.00    -0.010 C 
ATOM      9  C   UNL     1     185.626 191.497 191.140  1.00  0.00     0.008 C 
BRANCH   8  10
ATOM     10  C   UNL     1     185.434 189.318 189.777  1.00  0.00    -0.002 C 
ATOM     11  C   UNL     1     184.582 188.494 188.766  1.00  0.00     0.005 C 
ATOM     12  C   UNL     1     185.747 188.277 190.905  1.00  0.00    -0.024 C 
ATOM     13  C   UNL     1     184.736 187.003 189.124  1.00  0.00     0.008 C 
ATOM     14  C   UNL     1     185.937 186.951 190.084  1.00  0.00    -0.024 C 
ATOM     15  C   UNL     1     187.038 188.552 191.737  1.00  0.00     0.008 C 
ATOM     16  C   UNL     1     184.509 188.222 191.867  1.00  0.00     0.012 C 
ATOM     17  C   UNL     1     187.217 186.983 189.163  1.00  0.00     0.012 C 
ATOM     18  C   UNL     1     186.091 185.679 191.016  1.00  0.00     0.002 C 
ATOM     19  C   UNL     1     187.642 187.294 192.436  1.00  0.00     0.008 C 
ATOM     20  C   UNL     1     186.718 186.045 192.391  1.00  0.00    -0.020 C 
ATOM     21  C   UNL     1     184.872 184.758 191.149  1.00  0.00     0.005 C 
ATOM     22  C   UNL     1     187.084 184.783 193.205  1.00  0.00    -0.020 C 
ATOM     23  C   UNL     1     186.012 185.738 193.728  1.00  0.00     0.015 C 
ATOM     24  C   UNL     1     185.211 183.430 191.871  1.00  0.00     0.005 C 
ATOM     25  C   UNL     1     186.476 183.391 192.818  1.00  0.00     0.004 C 
ATOM     26  C   UNL     1     188.303 184.752 194.147  1.00  0.00     0.010 C 
ATOM     27  C   UNL     1     187.596 182.363 192.374  1.00  0.00    -0.006 C 
ATOM     28  C   UNL     1     189.362 183.786 193.631  1.00  0.00     0.033 C 
ATOM     29  C   UNL     1     188.772 182.381 193.411  1.00  0.00     0.120 C 
ATOM     30  C   UNL     1     188.135 182.671 190.954  1.00  0.00     0.014 C 
ATOM     31  C   UNL     1     187.015 180.922 192.372  1.00  0.00     0.014 C 
BRANCH  29  32
ATOM     32  O   UNL     1     189.800 181.510 193.004  1.00  0.00    -0.393 OA
ATOM     33  H   UNL     1     189.495 181.073 192.165  1.00  0.00     0.210 HD
ENDBRANCH  29  32
ENDBRANCH   8  10
ENDBRANCH   1   8
TORSDOF 6
ENDMDL
