MODEL 1
REMARK VINA RESULT:    -0.480      0.000      0.000
REMARK INTER + INTRA:          -1.760
REMARK INTER:                  -0.929
REMARK INTRA:                  -0.831
REMARK UNBOUND:                -0.831
REMARK SMILES CCCCCCCCCCCCCCCCCC(=O)[O-]
REMARK SMILES IDX 10 1 11 2 12 3 13 4 14 5 15 6 16 7 17 8 18 9 19 10 20 11
REMARK SMILES IDX 9 12 8 13 7 14 6 15 5 16 4 17 3 18 2 19 1 20
REMARK H PARENT
REMARK Flexibility Score: inf
ROOT
ATOM      1  C   UNL     1      -0.586   0.960  -0.460  1.00  0.00     0.000 C 
ENDROOT
BRANCH   1   2
ATOM      2  C   UNL     1       0.343  -0.251  -0.285  1.00  0.00     0.000 C 
BRANCH   2   3
ATOM      3  C   UNL     1       1.223  -0.499  -1.528  1.00  0.00     0.000 C 
BRANCH   3   4
ATOM      4  C   UNL     1       1.958   0.758  -2.022  1.00  0.00     0.000 C 
BRANCH   4   5
ATOM      5  C   UNL     1       2.981   1.291  -1.005  1.00  0.00     0.000 C 
BRANCH   5   6
ATOM      6  C   UNL     1       3.258   2.792  -1.178  1.00  0.00     0.000 C 
BRANCH   6   7
ATOM      7  C   UNL     1       2.501   3.654  -0.152  1.00  0.00     0.006 C 
BRANCH   7   8
ATOM      8  C   UNL     1       2.228   5.070  -0.677  1.00  0.00     0.053 C 
BRANCH   8   9
ATOM      9  C   UNL     1       3.358   6.004  -0.368  1.00  0.00     0.041 C 
ATOM     10  O   UNL     1       3.266   7.227  -0.653  1.00  0.00    -0.550 OA
ATOM     11  O   UNL     1       4.499   5.528   0.267  1.00  0.00    -0.550 OA
ENDBRANCH   8   9
ENDBRANCH   7   8
ENDBRANCH   6   7
ENDBRANCH   5   6
ENDBRANCH   4   5
ENDBRANCH   3   4
ENDBRANCH   2   3
ENDBRANCH   1   2
BRANCH   1  12
ATOM     12  C   UNL     1      -1.539   0.756  -1.644  1.00  0.00     0.000 C 
BRANCH  12  13
ATOM     13  C   UNL     1      -1.798  -0.739  -1.890  1.00  0.00    -0.000 C 
BRANCH  13  14
ATOM     14  C   UNL     1      -2.958  -1.285  -1.044  1.00  0.00    -0.000 C 
BRANCH  14  15
ATOM     15  C   UNL     1      -3.356  -2.716  -1.436  1.00  0.00    -0.000 C 
BRANCH  15  16
ATOM     16  C   UNL     1      -3.513  -3.602  -0.190  1.00  0.00    -0.000 C 
BRANCH  16  17
ATOM     17  C   UNL     1      -3.341  -5.099  -0.497  1.00  0.00    -0.000 C 
BRANCH  17  18
ATOM     18  C   UNL     1      -1.914  -5.516  -0.904  1.00  0.00    -0.000 C 
BRANCH  18  19
ATOM     19  C   UNL     1      -0.805  -4.824  -0.085  1.00  0.00    -0.003 C 
ATOM     20  C   UNL     1       0.006  -3.832  -0.918  1.00  0.00     0.004 C 
ENDBRANCH  18  19
ENDBRANCH  17  18
ENDBRANCH  16  17
ENDBRANCH  15  16
ENDBRANCH  14  15
ENDBRANCH  13  14
ENDBRANCH  12  13
ENDBRANCH   1  12
TORSDOF 16
ENDMDL
MODEL 2
REMARK VINA RESULT:    -0.351      4.756      9.068
REMARK INTER + INTRA:          -1.510
REMARK INTER:                  -0.852
REMARK INTRA:                  -0.658
REMARK UNBOUND:                -0.831
REMARK SMILES CCCCCCCCCCCCCCCCCC(=O)[O-]
REMARK SMILES IDX 10 1 11 2 12 3 13 4 14 5 15 6 16 7 17 8 18 9 19 10 20 11
REMARK SMILES IDX 9 12 8 13 7 14 6 15 5 16 4 17 3 18 2 19 1 20
REMARK H PARENT
REMARK Flexibility Score: inf
ROOT
ATOM      1  C   UNL     1       0.341  -1.176  -0.543  1.00  0.00     0.000 C 
ENDROOT
BRANCH   1   2
ATOM      2  C   UNL     1      -0.638  -0.016  -0.298  1.00  0.00     0.000 C 
BRANCH   2   3
ATOM      3  C   UNL     1      -1.448   0.343  -1.562  1.00  0.00     0.000 C 
BRANCH   3   4
ATOM      4  C   UNL     1      -2.240  -0.841  -2.143  1.00  0.00     0.000 C 
BRANCH   4   5
ATOM      5  C   UNL     1      -3.133  -1.533  -1.098  1.00  0.00     0.000 C 
BRANCH   5   6
ATOM      6  C   UNL     1      -3.225  -3.051  -1.314  1.00  0.00     0.000 C 
BRANCH   6   7
ATOM      7  C   UNL     1      -2.270  -3.836  -0.396  1.00  0.00     0.006 C 
BRANCH   7   8
ATOM      8  C   UNL     1      -2.185  -5.318  -0.783  1.00  0.00     0.053 C 
BRANCH   8   9
ATOM      9  C   UNL     1      -3.480  -6.031  -0.538  1.00  0.00     0.041 C 
ATOM     10  O   UNL     1      -4.445  -5.426  -0.002  1.00  0.00    -0.550 OA
ATOM     11  O   UNL     1      -3.629  -7.354  -0.933  1.00  0.00    -0.550 OA
ENDBRANCH   8   9
ENDBRANCH   7   8
ENDBRANCH   6   7
ENDBRANCH   5   6
ENDBRANCH   4   5
ENDBRANCH   3   4
ENDBRANCH   2   3
ENDBRANCH   1   2
BRANCH   1  12
ATOM     12  C   UNL     1       1.229  -0.898  -1.761  1.00  0.00     0.000 C 
BRANCH  12  13
ATOM     13  C   UNL     1       1.552   0.600  -1.876  1.00  0.00    -0.000 C 
BRANCH  13  14
ATOM     14  C   UNL     1       2.693   1.033  -0.942  1.00  0.00    -0.000 C 
BRANCH  14  15
ATOM     15  C   UNL     1       3.244   2.425  -1.285  1.00  0.00    -0.000 C 
BRANCH  15  16
ATOM     16  C   UNL     1       3.304   3.314  -0.033  1.00  0.00    -0.000 C 
BRANCH  16  17
ATOM     17  C   UNL     1       3.128   4.808  -0.354  1.00  0.00    -0.000 C 
BRANCH  17  18
ATOM     18  C   UNL     1       1.686   5.231  -0.696  1.00  0.00    -0.000 C 
BRANCH  18  19
ATOM     19  C   UNL     1       0.607   4.470   0.105  1.00  0.00    -0.003 C 
ATOM     20  C   UNL     1      -0.275   3.595  -0.786  1.00  0.00     0.004 C 
ENDBRANCH  18  19
ENDBRANCH  17  18
ENDBRANCH  16  17
ENDBRANCH  15  16
ENDBRANCH  14  15
ENDBRANCH  13  14
ENDBRANCH  12  13
ENDBRANCH   1  12
TORSDOF 16
ENDMDL
MODEL 3
REMARK VINA RESULT:    -0.208      0.763      1.325
REMARK INTER + INTRA:          -1.233
REMARK INTER:                  -0.281
REMARK INTRA:                  -0.952
REMARK UNBOUND:                -0.831
REMARK SMILES CCCCCCCCCCCCCCCCCC(=O)[O-]
REMARK SMILES IDX 10 1 11 2 12 3 13 4 14 5 15 6 16 7 17 8 18 9 19 10 20 11
REMARK SMILES IDX 9 12 8 13 7 14 6 15 5 16 4 17 3 18 2 19 1 20
REMARK H PARENT
REMARK Flexibility Score: inf
ROOT
ATOM      1  C   UNL     1      -0.027  -0.014   0.056  1.00  0.00     0.000 C 
ENDROOT
BRANCH   1   2
ATOM      2  C   UNL     1       0.214   1.111  -0.962  1.00  0.00     0.000 C 
BRANCH   2   3
ATOM      3  C   UNL     1       1.379   0.792  -1.924  1.00  0.00     0.000 C 
BRANCH   3   4
ATOM      4  C   UNL     1       2.663   0.343  -1.207  1.00  0.00     0.000 C 
BRANCH   4   5
ATOM      5  C   UNL     1       3.348   1.485  -0.437  1.00  0.00     0.000 C 
BRANCH   5   6
ATOM      6  C   UNL     1       3.135   2.854  -1.099  1.00  0.00     0.000 C 
BRANCH   6   7
ATOM      7  C   UNL     1       2.631   3.917  -0.107  1.00  0.00     0.006 C 
BRANCH   7   8
ATOM      8  C   UNL     1       2.414   5.279  -0.779  1.00  0.00     0.053 C 
BRANCH   8   9
ATOM      9  C   UNL     1       3.448   6.278  -0.356  1.00  0.00     0.041 C 
ATOM     10  O   UNL     1       4.588   5.893   0.013  1.00  0.00    -0.550 OA
ATOM     11  O   UNL     1       3.161   7.636  -0.404  1.00  0.00    -0.550 OA
ENDBRANCH   8   9
ENDBRANCH   7   8
ENDBRANCH   6   7
ENDBRANCH   5   6
ENDBRANCH   4   5
ENDBRANCH   3   4
ENDBRANCH   2   3
ENDBRANCH   1   2
BRANCH   1  12
ATOM     12  C   UNL     1      -0.375  -1.330  -0.651  1.00  0.00     0.000 C 
BRANCH  12  13
ATOM     13  C   UNL     1      -1.301  -1.081  -1.851  1.00  0.00    -0.000 C 
BRANCH  13  14
ATOM     14  C   UNL     1      -2.679  -0.543  -1.433  1.00  0.00    -0.000 C 
BRANCH  14  15
ATOM     15  C   UNL     1      -3.472  -1.542  -0.578  1.00  0.00    -0.000 C 
BRANCH  15  16
ATOM     16  C   UNL     1      -3.442  -2.944  -1.206  1.00  0.00    -0.000 C 
BRANCH  16  17
ATOM     17  C   UNL     1      -3.465  -4.068  -0.157  1.00  0.00    -0.000 C 
BRANCH  17  18
ATOM     18  C   UNL     1      -2.783  -5.378  -0.596  1.00  0.00    -0.000 C 
BRANCH  18  19
ATOM     19  C   UNL     1      -1.347  -5.186  -1.128  1.00  0.00    -0.003 C 
ATOM     20  C   UNL     1      -0.385  -4.689  -0.049  1.00  0.00     0.004 C 
ENDBRANCH  18  19
ENDBRANCH  17  18
ENDBRANCH  16  17
ENDBRANCH  15  16
ENDBRANCH  14  15
ENDBRANCH  13  14
ENDBRANCH  12  13
ENDBRANCH   1  12
TORSDOF 16
ENDMDL
MODEL 4
REMARK VINA RESULT:    -0.145      0.940      1.965
REMARK INTER + INTRA:          -1.111
REMARK INTER:                  -0.558
REMARK INTRA:                  -0.553
REMARK UNBOUND:                -0.831
REMARK SMILES CCCCCCCCCCCCCCCCCC(=O)[O-]
REMARK SMILES IDX 10 1 11 2 12 3 13 4 14 5 15 6 16 7 17 8 18 9 19 10 20 11
REMARK SMILES IDX 9 12 8 13 7 14 6 15 5 16 4 17 3 18 2 19 1 20
REMARK H PARENT
REMARK Flexibility Score: inf
ROOT
ATOM      1  C   UNL     1       0.350  -1.421  -0.746  1.00  0.00     0.000 C 
ENDROOT
BRANCH   1   2
ATOM      2  C   UNL     1       1.267  -1.105  -1.937  1.00  0.00     0.000 C 
BRANCH   2   3
ATOM      3  C   UNL     1       1.644   0.390  -2.005  1.00  0.00     0.000 C 
BRANCH   3   4
ATOM      4  C   UNL     1       2.919   0.741  -1.221  1.00  0.00     0.000 C 
BRANCH   4   5
ATOM      5  C   UNL     1       2.899   2.170  -0.654  1.00  0.00     0.000 C 
BRANCH   5   6
ATOM      6  C   UNL     1       1.522   2.838  -0.788  1.00  0.00     0.000 C 
BRANCH   6   7
ATOM      7  C   UNL     1       1.424   4.151   0.010  1.00  0.00     0.006 C 
BRANCH   7   8
ATOM      8  C   UNL     1       1.958   5.351  -0.784  1.00  0.00     0.053 C 
BRANCH   8   9
ATOM      9  C   UNL     1       3.331   5.747  -0.333  1.00  0.00     0.041 C 
ATOM     10  O   UNL     1       4.138   4.876   0.084  1.00  0.00    -0.550 OA
ATOM     11  O   UNL     1       3.729   7.076  -0.408  1.00  0.00    -0.550 OA
ENDBRANCH   8   9
ENDBRANCH   7   8
ENDBRANCH   6   7
ENDBRANCH   5   6
ENDBRANCH   4   5
ENDBRANCH   3   4
ENDBRANCH   2   3
ENDBRANCH   1   2
BRANCH   1  12
ATOM     12  C   UNL     1      -0.287  -0.143  -0.187  1.00  0.00     0.000 C 
BRANCH  12  13
ATOM     13  C   UNL     1      -1.369   0.393  -1.137  1.00  0.00    -0.000 C 
BRANCH  13  14
ATOM     14  C   UNL     1      -2.086  -0.726  -1.909  1.00  0.00    -0.000 C 
BRANCH  14  15
ATOM     15  C   UNL     1      -3.134  -1.456  -1.057  1.00  0.00    -0.000 C 
BRANCH  15  16
ATOM     16  C   UNL     1      -3.245  -2.932  -1.472  1.00  0.00    -0.000 C 
BRANCH  16  17
ATOM     17  C   UNL     1      -2.812  -3.899  -0.357  1.00  0.00    -0.000 C 
BRANCH  17  18
ATOM     18  C   UNL     1      -2.114  -5.182  -0.848  1.00  0.00    -0.000 C 
BRANCH  18  19
ATOM     19  C   UNL     1      -3.032  -6.422  -0.869  1.00  0.00    -0.003 C 
ATOM     20  C   UNL     1      -4.369  -6.173  -0.169  1.00  0.00     0.004 C 
ENDBRANCH  18  19
ENDBRANCH  17  18
ENDBRANCH  16  17
ENDBRANCH  15  16
ENDBRANCH  14  15
ENDBRANCH  13  14
ENDBRANCH  12  13
ENDBRANCH   1  12
TORSDOF 16
ENDMDL
MODEL 5
REMARK VINA RESULT:    -0.067      4.789      9.296
REMARK INTER + INTRA:          -0.961
REMARK INTER:                   0.114
REMARK INTRA:                  -1.076
REMARK UNBOUND:                -0.831
REMARK SMILES CCCCCCCCCCCCCCCCCC(=O)[O-]
REMARK SMILES IDX 10 1 11 2 12 3 13 4 14 5 15 6 16 7 17 8 18 9 19 10 20 11
REMARK SMILES IDX 9 12 8 13 7 14 6 15 5 16 4 17 3 18 2 19 1 20
REMARK H PARENT
REMARK Flexibility Score: inf
ROOT
ATOM      1  C   UNL     1      -0.404   0.743  -0.518  1.00  0.00     0.000 C 
ENDROOT
BRANCH   1   2
ATOM      2  C   UNL     1      -1.570   0.640  -1.513  1.00  0.00     0.000 C 
BRANCH   2   3
ATOM      3  C   UNL     1      -1.878  -0.820  -1.905  1.00  0.00     0.000 C 
BRANCH   3   4
ATOM      4  C   UNL     1      -3.214  -1.339  -1.347  1.00  0.00     0.000 C 
BRANCH   4   5
ATOM      5  C   UNL     1      -3.211  -2.857  -1.102  1.00  0.00     0.000 C 
BRANCH   5   6
ATOM      6  C   UNL     1      -2.130  -3.291  -0.101  1.00  0.00     0.000 C 
BRANCH   6   7
ATOM      7  C   UNL     1      -1.734  -4.770  -0.266  1.00  0.00     0.006 C 
BRANCH   7   8
ATOM      8  C   UNL     1      -2.622  -5.496  -1.284  1.00  0.00     0.053 C 
BRANCH   8   9
ATOM      9  C   UNL     1      -3.636  -6.370  -0.613  1.00  0.00     0.041 C 
ATOM     10  O   UNL     1      -3.506  -7.622  -0.631  1.00  0.00    -0.550 OA
ATOM     11  O   UNL     1      -4.707  -5.798   0.063  1.00  0.00    -0.550 OA
ENDBRANCH   8   9
ENDBRANCH   7   8
ENDBRANCH   6   7
ENDBRANCH   5   6
ENDBRANCH   4   5
ENDBRANCH   3   4
ENDBRANCH   2   3
ENDBRANCH   1   2
BRANCH   1  12
ATOM     12  C   UNL     1       0.304  -0.608  -0.358  1.00  0.00     0.000 C 
BRANCH  12  13
ATOM     13  C   UNL     1       1.456  -0.747  -1.365  1.00  0.00    -0.000 C 
BRANCH  13  14
ATOM     14  C   UNL     1       1.916   0.606  -1.928  1.00  0.00    -0.000 C 
BRANCH  14  15
ATOM     15  C   UNL     1       3.045   1.239  -1.101  1.00  0.00    -0.000 C 
BRANCH  15  16
ATOM     16  C   UNL     1       3.032   2.770  -1.239  1.00  0.00    -0.000 C 
BRANCH  16  17
ATOM     17  C   UNL     1       2.331   3.469  -0.062  1.00  0.00    -0.000 C 
BRANCH  17  18
ATOM     18  C   UNL     1       1.707   4.836  -0.400  1.00  0.00    -0.000 C 
BRANCH  18  19
ATOM     19  C   UNL     1       2.740   5.914  -0.790  1.00  0.00    -0.003 C 
ATOM     20  C   UNL     1       4.029   5.813   0.027  1.00  0.00     0.004 C 
ENDBRANCH  18  19
ENDBRANCH  17  18
ENDBRANCH  16  17
ENDBRANCH  15  16
ENDBRANCH  14  15
ENDBRANCH  13  14
ENDBRANCH  12  13
ENDBRANCH   1  12
TORSDOF 16
ENDMDL
MODEL 6
REMARK VINA RESULT:     0.319      4.637      8.849
REMARK INTER + INTRA:          -0.214
REMARK INTER:                   1.064
REMARK INTRA:                  -1.278
REMARK UNBOUND:                -0.831
REMARK SMILES CCCCCCCCCCCCCCCCCC(=O)[O-]
REMARK SMILES IDX 10 1 11 2 12 3 13 4 14 5 15 6 16 7 17 8 18 9 19 10 20 11
REMARK SMILES IDX 9 12 8 13 7 14 6 15 5 16 4 17 3 18 2 19 1 20
REMARK H PARENT
REMARK Flexibility Score: inf
ROOT
ATOM      1  C   UNL     1       1.132  -0.600  -1.899  1.00  0.00     0.000 C 
ENDROOT
BRANCH   1   2
ATOM      2  C   UNL     1       0.660  -0.702  -0.440  1.00  0.00     0.000 C 
BRANCH   2   3
ATOM      3  C   UNL     1      -0.832  -0.340  -0.281  1.00  0.00     0.000 C 
BRANCH   3   4
ATOM      4  C   UNL     1      -1.533  -0.017  -1.611  1.00  0.00     0.000 C 
BRANCH   4   5
ATOM      5  C   UNL     1      -2.275  -1.227  -2.205  1.00  0.00     0.000 C 
BRANCH   5   6
ATOM      6  C   UNL     1      -3.100  -1.986  -1.155  1.00  0.00     0.000 C 
BRANCH   6   7
ATOM      7  C   UNL     1      -2.410  -3.279  -0.685  1.00  0.00     0.006 C 
BRANCH   7   8
ATOM      8  C   UNL     1      -3.378  -4.215   0.052  1.00  0.00     0.053 C 
BRANCH   8   9
ATOM      9  C   UNL     1      -3.388  -5.587  -0.550  1.00  0.00     0.041 C 
ATOM     10  O   UNL     1      -2.386  -6.009  -1.185  1.00  0.00    -0.550 OA
ATOM     11  O   UNL     1      -4.493  -6.412  -0.379  1.00  0.00    -0.550 OA
ENDBRANCH   8   9
ENDBRANCH   7   8
ENDBRANCH   6   7
ENDBRANCH   5   6
ENDBRANCH   4   5
ENDBRANCH   3   4
ENDBRANCH   2   3
ENDBRANCH   1   2
BRANCH   1  12
ATOM     12  C   UNL     1       1.815   0.747  -2.164  1.00  0.00     0.000 C 
BRANCH  12  13
ATOM     13  C   UNL     1       2.734   1.136  -0.996  1.00  0.00    -0.000 C 
BRANCH  13  14
ATOM     14  C   UNL     1       3.363   2.526  -1.175  1.00  0.00    -0.000 C 
BRANCH  14  15
ATOM     15  C   UNL     1       3.375   3.344   0.124  1.00  0.00    -0.000 C 
BRANCH  15  16
ATOM     16  C   UNL     1       3.011   4.812  -0.150  1.00  0.00    -0.000 C 
BRANCH  16  17
ATOM     17  C   UNL     1       1.661   4.968  -0.870  1.00  0.00    -0.000 C 
BRANCH  17  18
ATOM     18  C   UNL     1       0.431   4.563  -0.034  1.00  0.00    -0.000 C 
BRANCH  18  19
ATOM     19  C   UNL     1      -0.133   3.172  -0.390  1.00  0.00    -0.003 C 
ATOM     20  C   UNL     1      -1.162   3.228  -1.519  1.00  0.00     0.004 C 
ENDBRANCH  18  19
ENDBRANCH  17  18
ENDBRANCH  16  17
ENDBRANCH  15  16
ENDBRANCH  14  15
ENDBRANCH  13  14
ENDBRANCH  12  13
ENDBRANCH   1  12
TORSDOF 16
ENDMDL
MODEL 7
REMARK VINA RESULT:     0.367      0.714      1.334
REMARK INTER + INTRA:          -0.121
REMARK INTER:                   0.813
REMARK INTRA:                  -0.934
REMARK UNBOUND:                -0.831
REMARK SMILES CCCCCCCCCCCCCCCCCC(=O)[O-]
REMARK SMILES IDX 10 1 11 2 12 3 13 4 14 5 15 6 16 7 17 8 18 9 19 10 20 11
REMARK SMILES IDX 9 12 8 13 7 14 6 15 5 16 4 17 3 18 2 19 1 20
REMARK H PARENT
REMARK Flexibility Score: inf
ROOT
ATOM      1  C   UNL     1      -1.109   0.378  -2.124  1.00  0.00     0.000 C 
ENDROOT
BRANCH   1   2
ATOM      2  C   UNL     1      -0.643   0.839  -0.734  1.00  0.00     0.000 C 
BRANCH   2   3
ATOM      3  C   UNL     1       0.786   0.358  -0.406  1.00  0.00     0.000 C 
BRANCH   3   4
ATOM      4  C   UNL     1       1.682   0.199  -1.646  1.00  0.00     0.000 C 
BRANCH   4   5
ATOM      5  C   UNL     1       2.365   1.513  -2.062  1.00  0.00     0.000 C 
BRANCH   5   6
ATOM      6  C   UNL     1       3.147   2.163  -0.911  1.00  0.00     0.000 C 
BRANCH   6   7
ATOM      7  C   UNL     1       2.275   3.105  -0.063  1.00  0.00     0.006 C 
BRANCH   7   8
ATOM      8  C   UNL     1       2.057   4.462  -0.745  1.00  0.00     0.053 C 
BRANCH   8   9
ATOM      9  C   UNL     1       3.136   5.440  -0.391  1.00  0.00     0.041 C 
ATOM     10  O   UNL     1       4.153   5.059   0.245  1.00  0.00    -0.550 OA
ATOM     11  O   UNL     1       3.031   6.765  -0.795  1.00  0.00    -0.550 OA
ENDBRANCH   8   9
ENDBRANCH   7   8
ENDBRANCH   6   7
ENDBRANCH   5   6
ENDBRANCH   4   5
ENDBRANCH   3   4
ENDBRANCH   2   3
ENDBRANCH   1   2
BRANCH   1  12
ATOM     12  C   UNL     1      -2.157  -0.735  -2.011  1.00  0.00     0.000 C 
BRANCH  12  13
ATOM     13  C   UNL     1      -2.654  -0.879  -0.564  1.00  0.00    -0.000 C 
BRANCH  13  14
ATOM     14  C   UNL     1      -3.787  -1.907  -0.427  1.00  0.00    -0.000 C 
BRANCH  14  15
ATOM     15  C   UNL     1      -3.509  -3.203  -1.204  1.00  0.00    -0.000 C 
BRANCH  15  16
ATOM     16  C   UNL     1      -3.286  -4.381  -0.242  1.00  0.00    -0.000 C 
BRANCH  16  17
ATOM     17  C   UNL     1      -2.271  -5.404  -0.779  1.00  0.00    -0.000 C 
BRANCH  17  18
ATOM     18  C   UNL     1      -0.815  -5.165  -0.337  1.00  0.00    -0.000 C 
BRANCH  18  19
ATOM     19  C   UNL     1      -0.517  -3.704   0.063  1.00  0.00    -0.003 C 
ATOM     20  C   UNL     1       0.207  -2.931  -1.039  1.00  0.00     0.004 C 
ENDBRANCH  18  19
ENDBRANCH  17  18
ENDBRANCH  16  17
ENDBRANCH  15  16
ENDBRANCH  14  15
ENDBRANCH  13  14
ENDBRANCH  12  13
ENDBRANCH   1  12
TORSDOF 16
ENDMDL
MODEL 8
REMARK VINA RESULT:     0.664      3.327      8.097
REMARK INTER + INTRA:           0.453
REMARK INTER:                   1.116
REMARK INTRA:                  -0.663
REMARK UNBOUND:                -0.831
REMARK SMILES CCCCCCCCCCCCCCCCCC(=O)[O-]
REMARK SMILES IDX 10 1 11 2 12 3 13 4 14 5 15 6 16 7 17 8 18 9 19 10 20 11
REMARK SMILES IDX 9 12 8 13 7 14 6 15 5 16 4 17 3 18 2 19 1 20
REMARK H PARENT
REMARK Flexibility Score: inf
ROOT
ATOM      1  C   UNL     1       0.144  -1.042   0.260  1.00  0.00     0.000 C 
ENDROOT
BRANCH   1   2
ATOM      2  C   UNL     1      -0.027  -1.902  -1.002  1.00  0.00     0.000 C 
BRANCH   2   3
ATOM      3  C   UNL     1       0.435  -3.359  -0.784  1.00  0.00     0.000 C 
BRANCH   3   4
ATOM      4  C   UNL     1      -0.580  -4.218  -0.013  1.00  0.00     0.000 C 
BRANCH   4   5
ATOM      5  C   UNL     1      -1.247  -5.290  -0.893  1.00  0.00     0.000 C 
BRANCH   5   6
ATOM      6  C   UNL     1      -2.766  -5.367  -0.680  1.00  0.00     0.000 C 
BRANCH   6   7
ATOM      7  C   UNL     1      -3.387  -3.995  -0.363  1.00  0.00     0.006 C 
BRANCH   7   8
ATOM      8  C   UNL     1      -3.390  -3.066  -1.584  1.00  0.00     0.053 C 
BRANCH   8   9
ATOM      9  C   UNL     1      -3.175  -1.635  -1.194  1.00  0.00     0.041 C 
ATOM     10  O   UNL     1      -3.545  -1.224  -0.063  1.00  0.00    -0.550 OA
ATOM     11  O   UNL     1      -2.534  -0.766  -2.067  1.00  0.00    -0.550 OA
ENDBRANCH   8   9
ENDBRANCH   7   8
ENDBRANCH   6   7
ENDBRANCH   5   6
ENDBRANCH   4   5
ENDBRANCH   3   4
ENDBRANCH   2   3
ENDBRANCH   1   2
BRANCH   1  12
ATOM     12  C   UNL     1      -0.015   0.448  -0.065  1.00  0.00     0.000 C 
BRANCH  12  13
ATOM     13  C   UNL     1       0.234   0.716  -1.557  1.00  0.00    -0.000 C 
BRANCH  13  14
ATOM     14  C   UNL     1       1.727   0.695  -1.921  1.00  0.00    -0.000 C 
BRANCH  14  15
ATOM     15  C   UNL     1       2.620   1.234  -0.793  1.00  0.00    -0.000 C 
BRANCH  15  16
ATOM     16  C   UNL     1       3.255   2.574  -1.192  1.00  0.00    -0.000 C 
BRANCH  16  17
ATOM     17  C   UNL     1       3.175   3.628  -0.074  1.00  0.00    -0.000 C 
BRANCH  17  18
ATOM     18  C   UNL     1       2.606   4.992  -0.511  1.00  0.00    -0.000 C 
BRANCH  18  19
ATOM     19  C   UNL     1       1.091   4.970  -0.800  1.00  0.00    -0.003 C 
ATOM     20  C   UNL     1       0.327   4.037   0.140  1.00  0.00     0.004 C 
ENDBRANCH  18  19
ENDBRANCH  17  18
ENDBRANCH  16  17
ENDBRANCH  15  16
ENDBRANCH  14  15
ENDBRANCH  13  14
ENDBRANCH  12  13
ENDBRANCH   1  12
TORSDOF 16
ENDMDL
MODEL 9
REMARK VINA RESULT:     0.803      3.198      8.060
REMARK INTER + INTRA:           0.722
REMARK INTER:                   2.232
REMARK INTRA:                  -1.509
REMARK UNBOUND:                -0.831
REMARK SMILES CCCCCCCCCCCCCCCCCC(=O)[O-]
REMARK SMILES IDX 10 1 11 2 12 3 13 4 14 5 15 6 16 7 17 8 18 9 19 10 20 11
REMARK SMILES IDX 9 12 8 13 7 14 6 15 5 16 4 17 3 18 2 19 1 20
REMARK H PARENT
REMARK Flexibility Score: inf
ROOT
ATOM      1  C   UNL     1      -1.187   0.595  -1.789  1.00  0.00     0.000 C 
ENDROOT
BRANCH   1   2
ATOM      2  C   UNL     1      -1.837  -0.740  -2.184  1.00  0.00     0.000 C 
BRANCH   2   3
ATOM      3  C   UNL     1      -2.640  -1.366  -1.024  1.00  0.00     0.000 C 
BRANCH   3   4
ATOM      4  C   UNL     1      -3.346  -2.679  -1.402  1.00  0.00     0.000 C 
BRANCH   4   5
ATOM      5  C   UNL     1      -3.620  -3.582  -0.187  1.00  0.00     0.000 C 
BRANCH   5   6
ATOM      6  C   UNL     1      -3.134  -5.023  -0.401  1.00  0.00     0.000 C 
BRANCH   6   7
ATOM      7  C   UNL     1      -1.781  -5.086  -1.132  1.00  0.00     0.006 C 
BRANCH   7   8
ATOM      8  C   UNL     1      -0.598  -4.860  -0.181  1.00  0.00     0.053 C 
BRANCH   8   9
ATOM      9  C   UNL     1       0.013  -3.505  -0.367  1.00  0.00     0.041 C 
ATOM     10  O   UNL     1       0.531  -3.189  -1.470  1.00  0.00    -0.550 OA
ATOM     11  O   UNL     1      -0.023  -2.580   0.669  1.00  0.00    -0.550 OA
ENDBRANCH   8   9
ENDBRANCH   7   8
ENDBRANCH   6   7
ENDBRANCH   5   6
ENDBRANCH   4   5
ENDBRANCH   3   4
ENDBRANCH   2   3
ENDBRANCH   1   2
BRANCH   1  12
ATOM     12  C   UNL     1      -0.590   0.519  -0.379  1.00  0.00     0.000 C 
BRANCH  12  13
ATOM     13  C   UNL     1       0.904   0.163  -0.433  1.00  0.00    -0.000 C 
BRANCH  13  14
ATOM     14  C   UNL     1       1.521   0.408  -1.818  1.00  0.00    -0.000 C 
BRANCH  14  15
ATOM     15  C   UNL     1       2.446   1.634  -1.846  1.00  0.00    -0.000 C 
BRANCH  15  16
ATOM     16  C   UNL     1       3.269   1.730  -0.552  1.00  0.00    -0.000 C 
BRANCH  16  17
ATOM     17  C   UNL     1       2.900   2.956   0.300  1.00  0.00    -0.000 C 
BRANCH  17  18
ATOM     18  C   UNL     1       2.971   4.305  -0.442  1.00  0.00    -0.000 C 
BRANCH  18  19
ATOM     19  C   UNL     1       1.591   4.939  -0.715  1.00  0.00    -0.003 C 
ATOM     20  C   UNL     1       0.445   4.136  -0.099  1.00  0.00     0.004 C 
ENDBRANCH  18  19
ENDBRANCH  17  18
ENDBRANCH  16  17
ENDBRANCH  15  16
ENDBRANCH  14  15
ENDBRANCH  13  14
ENDBRANCH  12  13
ENDBRANCH   1  12
TORSDOF 16
ENDMDL
