MODEL 1
REMARK VINA RESULT:    -5.304      0.000      0.000
REMARK INTER + INTRA:          -5.734
REMARK INTER:                  -5.769
REMARK INTRA:                   0.036
REMARK UNBOUND:                 0.036
REMARK SMILES C=C(C)[C@@H]1CC[C@H](C)C[C@H]1O
REMARK SMILES IDX 8 1 7 2 6 3 5 4 4 5 10 6 9 7 11 8 2 10 1 11 3 12
REMARK H PARENT 11 9
REMARK Flexibility Score: inf
ROOT
ATOM      1  C   UNL     1     135.407 122.699 138.122  1.00  0.00     0.008 C 
ATOM      2  C   UNL     1     135.997 124.085 138.429  1.00  0.00    -0.012 C 
ATOM      3  C   UNL     1     134.926 125.072 138.939  1.00  0.00     0.004 C 
ATOM      4  C   UNL     1     134.493 124.773 140.380  1.00  0.00     0.011 C 
ATOM      5  C   UNL     1     135.706 124.737 141.329  1.00  0.00     0.043 C 
ATOM      6  C   UNL     1     136.755 123.707 140.855  1.00  0.00     0.121 C 
ATOM      7  C   UNL     1     137.189 124.005 139.406  1.00  0.00     0.035 C 
ENDROOT
BRANCH   6   8
ATOM      8  O   UNL     1     137.876 123.766 141.698  1.00  0.00    -0.392 OA
ATOM      9  H   UNL     1     138.306 122.871 141.672  1.00  0.00     0.210 HD
ENDBRANCH   6   8
BRANCH   5  10
ATOM     10  C   UNL     1     135.262 124.463 142.762  1.00  0.00    -0.075 C 
ATOM     11  C   UNL     1     134.130 123.780 142.997  1.00  0.00     0.008 C 
ATOM     12  C   UNL     1     136.072 124.944 143.941  1.00  0.00     0.039 C 
ENDBRANCH   5  10
TORSDOF 2
ENDMDL
MODEL 2
REMARK VINA RESULT:    -5.076      1.801      2.653
REMARK INTER + INTRA:          -5.486
REMARK INTER:                  -5.288
REMARK INTRA:                  -0.198
REMARK UNBOUND:                 0.036
REMARK SMILES C=C(C)[C@@H]1CC[C@H](C)C[C@H]1O
REMARK SMILES IDX 8 1 7 2 6 3 5 4 4 5 10 6 9 7 11 8 2 10 1 11 3 12
REMARK H PARENT 11 9
REMARK Flexibility Score: inf
ROOT
ATOM      1  C   UNL     1     137.533 124.279 138.128  1.00  0.00     0.008 C 
ATOM      2  C   UNL     1     136.170 123.584 137.987  1.00  0.00    -0.012 C 
ATOM      3  C   UNL     1     136.074 122.312 138.855  1.00  0.00     0.004 C 
ATOM      4  C   UNL     1     135.923 122.631 140.348  1.00  0.00     0.011 C 
ATOM      5  C   UNL     1     134.720 123.562 140.598  1.00  0.00     0.043 C 
ATOM      6  C   UNL     1     134.842 124.864 139.776  1.00  0.00     0.121 C 
ATOM      7  C   UNL     1     134.996 124.543 138.276  1.00  0.00     0.035 C 
ENDROOT
BRANCH   6   8
ATOM      8  O   UNL     1     133.689 125.642 139.969  1.00  0.00    -0.392 OA
ATOM      9  H   UNL     1     132.915 125.087 139.688  1.00  0.00     0.210 HD
ENDBRANCH   6   8
BRANCH   5  10
ATOM     10  C   UNL     1     134.565 123.853 142.086  1.00  0.00    -0.075 C 
ATOM     11  C   UNL     1     135.530 124.513 142.748  1.00  0.00     0.008 C 
ATOM     12  C   UNL     1     133.338 123.416 142.849  1.00  0.00     0.039 C 
ENDBRANCH   5  10
TORSDOF 2
ENDMDL
MODEL 3
REMARK VINA RESULT:    -5.057      1.691      2.292
REMARK INTER + INTRA:          -5.465
REMARK INTER:                  -5.416
REMARK INTRA:                  -0.049
REMARK UNBOUND:                 0.036
REMARK SMILES C=C(C)[C@@H]1CC[C@H](C)C[C@H]1O
REMARK SMILES IDX 8 1 7 2 6 3 5 4 4 5 10 6 9 7 11 8 2 10 1 11 3 12
REMARK H PARENT 11 9
REMARK Flexibility Score: inf
ROOT
ATOM      1  C   UNL     1     135.975 124.100 137.542  1.00  0.00     0.008 C 
ATOM      2  C   UNL     1     136.706 123.158 138.512  1.00  0.00    -0.012 C 
ATOM      3  C   UNL     1     137.623 123.927 139.486  1.00  0.00     0.004 C 
ATOM      4  C   UNL     1     136.834 124.672 140.570  1.00  0.00     0.011 C 
ATOM      5  C   UNL     1     135.898 123.715 141.333  1.00  0.00     0.043 C 
ATOM      6  C   UNL     1     134.937 122.988 140.367  1.00  0.00     0.121 C 
ATOM      7  C   UNL     1     135.729 122.240 139.276  1.00  0.00     0.035 C 
ENDROOT
BRANCH   6   8
ATOM      8  O   UNL     1     134.161 122.067 141.092  1.00  0.00    -0.392 OA
ATOM      9  H   UNL     1     134.688 121.816 141.895  1.00  0.00     0.210 HD
ENDBRANCH   6   8
BRANCH   5  10
ATOM     10  C   UNL     1     135.136 124.461 142.423  1.00  0.00    -0.075 C 
ATOM     11  C   UNL     1     135.657 124.568 143.656  1.00  0.00     0.008 C 
ATOM     12  C   UNL     1     133.792 125.091 142.151  1.00  0.00     0.039 C 
ENDBRANCH   5  10
TORSDOF 2
ENDMDL
MODEL 4
REMARK VINA RESULT:    -4.968      1.662      3.954
REMARK INTER + INTRA:          -5.368
REMARK INTER:                  -5.174
REMARK INTRA:                  -0.194
REMARK UNBOUND:                 0.036
REMARK SMILES C=C(C)[C@@H]1CC[C@H](C)C[C@H]1O
REMARK SMILES IDX 8 1 7 2 6 3 5 4 4 5 10 6 9 7 11 8 2 10 1 11 3 12
REMARK H PARENT 11 9
REMARK Flexibility Score: inf
ROOT
ATOM      1  C   UNL     1     134.949 124.030 143.391  1.00  0.00     0.008 C 
ATOM      2  C   UNL     1     134.027 123.925 142.165  1.00  0.00    -0.012 C 
ATOM      3  C   UNL     1     134.169 125.143 141.228  1.00  0.00     0.004 C 
ATOM      4  C   UNL     1     135.479 125.119 140.429  1.00  0.00     0.011 C 
ATOM      5  C   UNL     1     135.629 123.800 139.648  1.00  0.00     0.043 C 
ATOM      6  C   UNL     1     135.549 122.579 140.591  1.00  0.00     0.121 C 
ATOM      7  C   UNL     1     134.233 122.604 141.395  1.00  0.00     0.035 C 
ENDROOT
BRANCH   6   8
ATOM      8  O   UNL     1     135.606 121.401 139.830  1.00  0.00    -0.392 OA
ATOM      9  H   UNL     1     135.763 120.653 140.465  1.00  0.00     0.210 HD
ENDBRANCH   6   8
BRANCH   5  10
ATOM     10  C   UNL     1     136.922 123.796 138.840  1.00  0.00    -0.075 C 
ATOM     11  C   UNL     1     136.878 123.780 137.498  1.00  0.00     0.008 C 
ATOM     12  C   UNL     1     138.271 123.812 139.516  1.00  0.00     0.039 C 
ENDBRANCH   5  10
TORSDOF 2
ENDMDL
MODEL 5
REMARK VINA RESULT:    -4.560      1.521      3.721
REMARK INTER + INTRA:          -4.924
REMARK INTER:                  -4.933
REMARK INTRA:                   0.008
REMARK UNBOUND:                 0.036
REMARK SMILES C=C(C)[C@@H]1CC[C@H](C)C[C@H]1O
REMARK SMILES IDX 8 1 7 2 6 3 5 4 4 5 10 6 9 7 11 8 2 10 1 11 3 12
REMARK H PARENT 11 9
REMARK Flexibility Score: inf
ROOT
ATOM      1  C   UNL     1     133.011 125.245 142.245  1.00  0.00     0.008 C 
ATOM      2  C   UNL     1     133.647 123.920 142.696  1.00  0.00    -0.012 C 
ATOM      3  C   UNL     1     133.819 122.931 141.524  1.00  0.00     0.004 C 
ATOM      4  C   UNL     1     134.962 123.330 140.582  1.00  0.00     0.011 C 
ATOM      5  C   UNL     1     136.283 123.504 141.356  1.00  0.00     0.043 C 
ATOM      6  C   UNL     1     136.132 124.539 142.493  1.00  0.00     0.121 C 
ATOM      7  C   UNL     1     134.982 124.139 143.438  1.00  0.00     0.035 C 
ENDROOT
BRANCH   6   8
ATOM      8  O   UNL     1     137.331 124.605 143.221  1.00  0.00    -0.392 OA
ATOM      9  H   UNL     1     137.690 123.680 143.272  1.00  0.00     0.210 HD
ENDBRANCH   6   8
BRANCH   5  10
ATOM     10  C   UNL     1     137.418 123.878 140.408  1.00  0.00    -0.075 C 
ATOM     11  C   UNL     1     137.157 124.562 139.282  1.00  0.00     0.008 C 
ATOM     12  C   UNL     1     138.847 123.495 140.704  1.00  0.00     0.039 C 
ENDBRANCH   5  10
TORSDOF 2
ENDMDL
MODEL 6
REMARK VINA RESULT:    -4.528      1.920      2.905
REMARK INTER + INTRA:          -4.889
REMARK INTER:                  -4.844
REMARK INTRA:                  -0.045
REMARK UNBOUND:                 0.036
REMARK SMILES C=C(C)[C@@H]1CC[C@H](C)C[C@H]1O
REMARK SMILES IDX 8 1 7 2 6 3 5 4 4 5 10 6 9 7 11 8 2 10 1 11 3 12
REMARK H PARENT 11 9
REMARK Flexibility Score: inf
ROOT
ATOM      1  C   UNL     1     134.409 125.224 138.215  1.00  0.00     0.008 C 
ATOM      2  C   UNL     1     135.301 124.063 137.746  1.00  0.00    -0.012 C 
ATOM      3  C   UNL     1     136.791 124.462 137.692  1.00  0.00     0.004 C 
ATOM      4  C   UNL     1     137.418 124.575 139.088  1.00  0.00     0.011 C 
ATOM      5  C   UNL     1     137.223 123.275 139.892  1.00  0.00     0.043 C 
ATOM      6  C   UNL     1     135.727 122.904 139.999  1.00  0.00     0.121 C 
ATOM      7  C   UNL     1     135.095 122.793 138.597  1.00  0.00     0.035 C 
ENDROOT
BRANCH   6   8
ATOM      8  O   UNL     1     135.601 121.674 140.665  1.00  0.00    -0.392 OA
ATOM      9  H   UNL     1     136.197 121.031 140.198  1.00  0.00     0.210 HD
ENDBRANCH   6   8
BRANCH   5  10
ATOM     10  C   UNL     1     137.870 123.389 141.267  1.00  0.00    -0.075 C 
ATOM     11  C   UNL     1     139.157 123.045 141.437  1.00  0.00     0.008 C 
ATOM     12  C   UNL     1     137.093 123.887 142.462  1.00  0.00     0.039 C 
ENDBRANCH   5  10
TORSDOF 2
ENDMDL
MODEL 7
REMARK VINA RESULT:    -4.434      1.731      4.223
REMARK INTER + INTRA:          -4.788
REMARK INTER:                  -4.663
REMARK INTRA:                  -0.125
REMARK UNBOUND:                 0.036
REMARK SMILES C=C(C)[C@@H]1CC[C@H](C)C[C@H]1O
REMARK SMILES IDX 8 1 7 2 6 3 5 4 4 5 10 6 9 7 11 8 2 10 1 11 3 12
REMARK H PARENT 11 9
REMARK Flexibility Score: inf
ROOT
ATOM      1  C   UNL     1     133.745 123.352 142.960  1.00  0.00     0.008 C 
ATOM      2  C   UNL     1     134.500 124.647 142.622  1.00  0.00    -0.012 C 
ATOM      3  C   UNL     1     136.030 124.445 142.630  1.00  0.00     0.004 C 
ATOM      4  C   UNL     1     136.524 123.663 141.406  1.00  0.00     0.011 C 
ATOM      5  C   UNL     1     136.062 124.330 140.096  1.00  0.00     0.043 C 
ATOM      6  C   UNL     1     134.525 124.479 140.058  1.00  0.00     0.121 C 
ATOM      7  C   UNL     1     134.028 125.264 141.289  1.00  0.00     0.035 C 
ENDROOT
BRANCH   6   8
ATOM      8  O   UNL     1     134.156 125.164 138.889  1.00  0.00    -0.392 OA
ATOM      9  H   UNL     1     133.297 124.770 138.583  1.00  0.00     0.210 HD
ENDBRANCH   6   8
BRANCH   5  10
ATOM     10  C   UNL     1     136.579 123.558 138.887  1.00  0.00    -0.075 C 
ATOM     11  C   UNL     1     135.988 122.409 138.519  1.00  0.00     0.008 C 
ATOM     12  C   UNL     1     137.752 124.056 138.079  1.00  0.00     0.039 C 
ENDBRANCH   5  10
TORSDOF 2
ENDMDL
MODEL 8
REMARK VINA RESULT:    -4.267      1.024      3.934
REMARK INTER + INTRA:          -4.606
REMARK INTER:                  -4.469
REMARK INTRA:                  -0.137
REMARK UNBOUND:                 0.036
REMARK SMILES C=C(C)[C@@H]1CC[C@H](C)C[C@H]1O
REMARK SMILES IDX 8 1 7 2 6 3 5 4 4 5 10 6 9 7 11 8 2 10 1 11 3 12
REMARK H PARENT 11 9
REMARK Flexibility Score: inf
ROOT
ATOM      1  C   UNL     1     135.712 125.927 143.953  1.00  0.00     0.008 C 
ATOM      2  C   UNL     1     135.643 124.398 143.819  1.00  0.00    -0.012 C 
ATOM      3  C   UNL     1     134.373 123.938 143.072  1.00  0.00     0.004 C 
ATOM      4  C   UNL     1     134.447 124.215 141.565  1.00  0.00     0.011 C 
ATOM      5  C   UNL     1     135.710 123.585 140.945  1.00  0.00     0.043 C 
ATOM      6  C   UNL     1     136.988 124.089 141.651  1.00  0.00     0.121 C 
ATOM      7  C   UNL     1     136.913 123.813 143.166  1.00  0.00     0.035 C 
ENDROOT
BRANCH   6   8
ATOM      8  O   UNL     1     138.105 123.430 141.113  1.00  0.00    -0.392 OA
ATOM      9  H   UNL     1     138.000 122.465 141.324  1.00  0.00     0.210 HD
ENDBRANCH   6   8
BRANCH   5  10
ATOM     10  C   UNL     1     135.761 123.846 139.444  1.00  0.00    -0.075 C 
ATOM     11  C   UNL     1     135.360 122.898 138.582  1.00  0.00     0.008 C 
ATOM     12  C   UNL     1     136.257 125.160 138.891  1.00  0.00     0.039 C 
ENDBRANCH   5  10
TORSDOF 2
ENDMDL
MODEL 9
REMARK VINA RESULT:    -3.892      1.901      3.088
REMARK INTER + INTRA:          -4.197
REMARK INTER:                  -4.145
REMARK INTRA:                  -0.053
REMARK UNBOUND:                 0.036
REMARK SMILES C=C(C)[C@@H]1CC[C@H](C)C[C@H]1O
REMARK SMILES IDX 8 1 7 2 6 3 5 4 4 5 10 6 9 7 11 8 2 10 1 11 3 12
REMARK H PARENT 11 9
REMARK Flexibility Score: inf
ROOT
ATOM      1  C   UNL     1     135.632 125.040 139.735  1.00  0.00     0.008 C 
ATOM      2  C   UNL     1     135.653 123.668 140.427  1.00  0.00    -0.012 C 
ATOM      3  C   UNL     1     137.031 123.351 141.045  1.00  0.00     0.004 C 
ATOM      4  C   UNL     1     137.302 124.163 142.319  1.00  0.00     0.011 C 
ATOM      5  C   UNL     1     136.176 123.969 143.352  1.00  0.00     0.043 C 
ATOM      6  C   UNL     1     134.801 124.342 142.755  1.00  0.00     0.121 C 
ATOM      7  C   UNL     1     134.528 123.528 141.475  1.00  0.00     0.035 C 
ENDROOT
BRANCH   6   8
ATOM      8  O   UNL     1     133.798 124.072 143.700  1.00  0.00    -0.392 OA
ATOM      9  H   UNL     1     133.696 123.085 143.740  1.00  0.00     0.210 HD
ENDBRANCH   6   8
BRANCH   5  10
ATOM     10  C   UNL     1     136.468 124.760 144.622  1.00  0.00    -0.075 C 
ATOM     11  C   UNL     1     137.167 124.198 145.621  1.00  0.00     0.008 C 
ATOM     12  C   UNL     1     135.986 126.181 144.790  1.00  0.00     0.039 C 
ENDBRANCH   5  10
TORSDOF 2
ENDMDL
