MODEL 1
REMARK VINA RESULT:    -7.151      0.000      0.000
REMARK INTER + INTRA:          -8.677
REMARK INTER:                  -8.405
REMARK INTRA:                  -0.272
REMARK UNBOUND:                -0.272
REMARK SMILES O=c1cc(-c2ccc(O)c(O)c2)oc2cc(O)cc(O)c12
REMARK SMILES IDX 4 1 3 2 2 3 1 4 21 5 19 6 18 7 16 8 15 9 14 10 13 11 5 12
REMARK SMILES IDX 6 13 7 14 8 15 12 16 10 17 9 18 11 20 20 22 17 24
REMARK H PARENT 9 19 11 21 20 23 17 25
REMARK Flexibility Score: inf
ROOT
ATOM      1  C   UNL     1     166.460 145.987 149.498  1.00  0.00     0.138 A 
ATOM      2  C   UNL     1     167.171 144.917 148.937  1.00  0.00     0.100 A 
ATOM      3  C   UNL     1     166.815 143.607 149.260  1.00  0.00     0.197 A 
ATOM      4  O   UNL     1     167.508 142.670 148.784  1.00  0.00    -0.289 OA
ATOM      5  C   UNL     1     165.719 143.368 150.123  1.00  0.00     0.107 A 
ATOM      6  C   UNL     1     165.244 142.074 150.496  1.00  0.00     0.134 A 
ATOM      7  C   UNL     1     164.211 141.963 151.436  1.00  0.00     0.093 A 
ATOM      8  C   UNL     1     163.598 143.098 151.972  1.00  0.00     0.123 A 
ATOM      9  C   UNL     1     164.021 144.364 151.576  1.00  0.00     0.094 A 
ATOM     10  C   UNL     1     165.072 144.509 150.666  1.00  0.00     0.146 A 
ATOM     11  O   UNL     1     165.455 145.736 150.329  1.00  0.00    -0.456 OA
ENDROOT
BRANCH   1  12
ATOM     12  C   UNL     1     166.793 147.401 149.186  1.00  0.00     0.021 A 
ATOM     13  C   UNL     1     165.809 148.320 148.777  1.00  0.00     0.016 A 
ATOM     14  C   UNL     1     166.153 149.641 148.480  1.00  0.00     0.051 A 
ATOM     15  C   UNL     1     167.484 150.065 148.579  1.00  0.00     0.157 A 
ATOM     16  C   UNL     1     168.130 147.831 149.269  1.00  0.00     0.062 A 
ATOM     17  C   UNL     1     168.477 149.154 148.974  1.00  0.00     0.158 A 
BRANCH  15  18
ATOM     18  O   UNL     1     167.823 151.385 148.285  1.00  0.00    -0.504 OA
ATOM     19  H   UNL     1     168.676 151.805 148.636  1.00  0.00     0.293 HD
ENDBRANCH  15  18
BRANCH  17  20
ATOM     20  O   UNL     1     169.811 149.543 149.078  1.00  0.00    -0.504 OA
ATOM     21  H   UNL     1     170.567 148.974 148.716  1.00  0.00     0.293 HD
ENDBRANCH  17  20
ENDBRANCH   1  12
BRANCH   6  22
ATOM     22  O   UNL     1     165.731 140.876 149.963  1.00  0.00    -0.507 OA
ATOM     23  H   UNL     1     166.495 140.340 150.344  1.00  0.00     0.293 HD
ENDBRANCH   6  22
BRANCH   8  24
ATOM     24  O   UNL     1     162.561 142.977 152.893  1.00  0.00    -0.508 OA
ATOM     25  H   UNL     1     162.682 143.239 153.865  1.00  0.00     0.293 HD
ENDBRANCH   8  24
TORSDOF 5
ENDMDL
MODEL 2
REMARK VINA RESULT:    -7.035      8.563     10.460
REMARK INTER + INTRA:          -8.542
REMARK INTER:                  -8.273
REMARK INTRA:                  -0.269
REMARK UNBOUND:                -0.272
REMARK SMILES O=c1cc(-c2ccc(O)c(O)c2)oc2cc(O)cc(O)c12
REMARK SMILES IDX 4 1 3 2 2 3 1 4 21 5 19 6 18 7 16 8 15 9 14 10 13 11 5 12
REMARK SMILES IDX 6 13 7 14 8 15 12 16 10 17 9 18 11 20 20 22 17 24
REMARK H PARENT 9 19 11 21 20 23 17 25
REMARK Flexibility Score: inf
ROOT
ATOM      1  C   UNL     1     173.296 144.766 154.879  1.00  0.00     0.138 A 
ATOM      2  C   UNL     1     174.536 145.412 154.966  1.00  0.00     0.100 A 
ATOM      3  C   UNL     1     174.747 146.372 155.957  1.00  0.00     0.197 A 
ATOM      4  O   UNL     1     175.851 146.974 155.974  1.00  0.00    -0.289 OA
ATOM      5  C   UNL     1     173.720 146.660 156.888  1.00  0.00     0.107 A 
ATOM      6  C   UNL     1     173.832 147.594 157.961  1.00  0.00     0.134 A 
ATOM      7  C   UNL     1     172.713 147.867 158.759  1.00  0.00     0.093 A 
ATOM      8  C   UNL     1     171.504 147.197 158.558  1.00  0.00     0.123 A 
ATOM      9  C   UNL     1     171.399 146.248 157.545  1.00  0.00     0.094 A 
ATOM     10  C   UNL     1     172.486 145.978 156.711  1.00  0.00     0.146 A 
ATOM     11  O   UNL     1     172.337 145.077 155.746  1.00  0.00    -0.456 OA
ENDROOT
BRANCH   1  12
ATOM     12  C   UNL     1     173.018 143.734 153.847  1.00  0.00     0.021 A 
ATOM     13  C   UNL     1     173.559 142.438 153.932  1.00  0.00     0.016 A 
ATOM     14  C   UNL     1     173.289 141.491 152.940  1.00  0.00     0.051 A 
ATOM     15  C   UNL     1     172.481 141.824 151.846  1.00  0.00     0.157 A 
ATOM     16  C   UNL     1     172.220 144.065 152.737  1.00  0.00     0.062 A 
ATOM     17  C   UNL     1     171.946 143.117 151.743  1.00  0.00     0.158 A 
BRANCH  15  18
ATOM     18  O   UNL     1     172.212 140.875 150.859  1.00  0.00    -0.504 OA
ATOM     19  H   UNL     1     171.286 140.774 150.460  1.00  0.00     0.293 HD
ENDBRANCH  15  18
BRANCH  17  20
ATOM     20  O   UNL     1     171.142 143.481 150.664  1.00  0.00    -0.504 OA
ATOM     21  H   UNL     1     171.512 143.580 149.727  1.00  0.00     0.293 HD
ENDBRANCH  17  20
ENDBRANCH   1  12
BRANCH   6  22
ATOM     22  O   UNL     1     175.014 148.260 158.301  1.00  0.00    -0.507 OA
ATOM     23  H   UNL     1     175.869 147.812 158.589  1.00  0.00     0.293 HD
ENDBRANCH   6  22
BRANCH   8  24
ATOM     24  O   UNL     1     170.401 147.464 159.367  1.00  0.00    -0.508 OA
ATOM     25  H   UNL     1     169.677 146.771 159.521  1.00  0.00     0.293 HD
ENDBRANCH   8  24
TORSDOF 5
ENDMDL
MODEL 3
REMARK VINA RESULT:    -7.035      2.350      3.872
REMARK INTER + INTRA:          -8.541
REMARK INTER:                  -8.277
REMARK INTRA:                  -0.263
REMARK UNBOUND:                -0.272
REMARK SMILES O=c1cc(-c2ccc(O)c(O)c2)oc2cc(O)cc(O)c12
REMARK SMILES IDX 4 1 3 2 2 3 1 4 21 5 19 6 18 7 16 8 15 9 14 10 13 11 5 12
REMARK SMILES IDX 6 13 7 14 8 15 12 16 10 17 9 18 11 20 20 22 17 24
REMARK H PARENT 9 19 11 21 20 23 17 25
REMARK Flexibility Score: inf
ROOT
ATOM      1  C   UNL     1     167.884 149.137 148.464  1.00  0.00     0.138 A 
ATOM      2  C   UNL     1     168.539 148.549 147.374  1.00  0.00     0.100 A 
ATOM      3  C   UNL     1     168.382 147.184 147.127  1.00  0.00     0.197 A 
ATOM      4  O   UNL     1     169.028 146.676 146.174  1.00  0.00    -0.289 OA
ATOM      5  C   UNL     1     167.534 146.413 147.957  1.00  0.00     0.107 A 
ATOM      6  C   UNL     1     167.270 145.021 147.781  1.00  0.00     0.134 A 
ATOM      7  C   UNL     1     166.490 144.341 148.726  1.00  0.00     0.093 A 
ATOM      8  C   UNL     1     165.917 145.015 149.807  1.00  0.00     0.123 A 
ATOM      9  C   UNL     1     166.128 146.383 149.959  1.00  0.00     0.094 A 
ATOM     10  C   UNL     1     166.929 147.082 149.053  1.00  0.00     0.146 A 
ATOM     11  O   UNL     1     167.118 148.384 149.246  1.00  0.00    -0.456 OA
ENDROOT
BRANCH   1  12
ATOM     12  C   UNL     1     168.012 150.584 148.771  1.00  0.00     0.021 A 
ATOM     13  C   UNL     1     166.951 151.484 148.559  1.00  0.00     0.016 A 
ATOM     14  C   UNL     1     167.105 152.842 148.847  1.00  0.00     0.051 A 
ATOM     15  C   UNL     1     168.321 153.327 149.345  1.00  0.00     0.157 A 
ATOM     16  C   UNL     1     169.235 151.081 149.258  1.00  0.00     0.062 A 
ATOM     17  C   UNL     1     169.391 152.442 149.550  1.00  0.00     0.158 A 
BRANCH  15  18
ATOM     18  O   UNL     1     168.470 154.683 149.634  1.00  0.00    -0.504 OA
ATOM     19  H   UNL     1     167.708 155.339 149.505  1.00  0.00     0.293 HD
ENDBRANCH  15  18
BRANCH  17  20
ATOM     20  O   UNL     1     170.615 152.892 150.040  1.00  0.00    -0.504 OA
ATOM     21  H   UNL     1     171.123 152.393 150.761  1.00  0.00     0.293 HD
ENDBRANCH  17  20
ENDBRANCH   1  12
BRANCH   6  22
ATOM     22  O   UNL     1     167.726 144.267 146.695  1.00  0.00    -0.507 OA
ATOM     23  H   UNL     1     167.493 143.302 146.520  1.00  0.00     0.293 HD
ENDBRANCH   6  22
BRANCH   8  24
ATOM     24  O   UNL     1     165.130 144.334 150.733  1.00  0.00    -0.508 OA
ATOM     25  H   UNL     1     165.251 144.466 151.730  1.00  0.00     0.293 HD
ENDBRANCH   8  24
TORSDOF 5
ENDMDL
MODEL 4
REMARK VINA RESULT:    -7.004      1.218      7.010
REMARK INTER + INTRA:          -8.504
REMARK INTER:                  -8.226
REMARK INTRA:                  -0.278
REMARK UNBOUND:                -0.272
REMARK SMILES O=c1cc(-c2ccc(O)c(O)c2)oc2cc(O)cc(O)c12
REMARK SMILES IDX 4 1 3 2 2 3 1 4 21 5 19 6 18 7 16 8 15 9 14 10 13 11 5 12
REMARK SMILES IDX 6 13 7 14 8 15 12 16 10 17 9 18 11 20 20 22 17 24
REMARK H PARENT 9 19 11 21 20 23 17 25
REMARK Flexibility Score: inf
ROOT
ATOM      1  C   UNL     1     166.819 146.113 149.830  1.00  0.00     0.138 A 
ATOM      2  C   UNL     1     168.217 146.010 149.847  1.00  0.00     0.100 A 
ATOM      3  C   UNL     1     168.994 147.081 149.404  1.00  0.00     0.197 A 
ATOM      4  O   UNL     1     170.243 146.936 149.379  1.00  0.00    -0.289 OA
ATOM      5  C   UNL     1     168.367 148.275 148.974  1.00  0.00     0.107 A 
ATOM      6  C   UNL     1     169.057 149.444 148.532  1.00  0.00     0.134 A 
ATOM      7  C   UNL     1     168.326 150.532 148.037  1.00  0.00     0.093 A 
ATOM      8  C   UNL     1     166.929 150.515 148.022  1.00  0.00     0.123 A 
ATOM      9  C   UNL     1     166.246 149.399 148.497  1.00  0.00     0.094 A 
ATOM     10  C   UNL     1     166.947 148.285 148.965  1.00  0.00     0.146 A 
ATOM     11  O   UNL     1     166.254 147.234 149.394  1.00  0.00    -0.456 OA
ENDROOT
BRANCH   1  12
ATOM     12  C   UNL     1     165.944 145.006 150.295  1.00  0.00     0.021 A 
ATOM     13  C   UNL     1     164.798 145.247 151.075  1.00  0.00     0.016 A 
ATOM     14  C   UNL     1     163.998 144.184 151.506  1.00  0.00     0.051 A 
ATOM     15  C   UNL     1     164.334 142.866 151.172  1.00  0.00     0.157 A 
ATOM     16  C   UNL     1     166.282 143.679 149.976  1.00  0.00     0.062 A 
ATOM     17  C   UNL     1     165.482 142.613 150.405  1.00  0.00     0.158 A 
BRANCH  15  18
ATOM     18  O   UNL     1     163.532 141.809 151.602  1.00  0.00    -0.504 OA
ATOM     19  H   UNL     1     163.170 141.769 152.548  1.00  0.00     0.293 HD
ENDBRANCH  15  18
BRANCH  17  20
ATOM     20  O   UNL     1     165.845 141.312 150.060  1.00  0.00    -0.504 OA
ATOM     21  H   UNL     1     166.288 140.684 150.721  1.00  0.00     0.293 HD
ENDBRANCH  17  20
ENDBRANCH   1  12
BRANCH   6  22
ATOM     22  O   UNL     1     170.446 149.598 148.579  1.00  0.00    -0.507 OA
ATOM     23  H   UNL     1     171.040 149.750 147.778  1.00  0.00     0.293 HD
ENDBRANCH   6  22
BRANCH   8  24
ATOM     24  O   UNL     1     166.211 151.608 147.543  1.00  0.00    -0.508 OA
ATOM     25  H   UNL     1     165.224 151.538 147.322  1.00  0.00     0.293 HD
ENDBRANCH   8  24
TORSDOF 5
ENDMDL
MODEL 5
REMARK VINA RESULT:    -6.960      1.815      7.274
REMARK INTER + INTRA:          -8.453
REMARK INTER:                  -8.137
REMARK INTRA:                  -0.316
REMARK UNBOUND:                -0.272
REMARK SMILES O=c1cc(-c2ccc(O)c(O)c2)oc2cc(O)cc(O)c12
REMARK SMILES IDX 4 1 3 2 2 3 1 4 21 5 19 6 18 7 16 8 15 9 14 10 13 11 5 12
REMARK SMILES IDX 6 13 7 14 8 15 12 16 10 17 9 18 11 20 20 22 17 24
REMARK H PARENT 9 19 11 21 20 23 17 25
REMARK Flexibility Score: inf
ROOT
ATOM      1  C   UNL     1     165.711 146.025 149.481  1.00  0.00     0.138 A 
ATOM      2  C   UNL     1     165.025 147.243 149.575  1.00  0.00     0.100 A 
ATOM      3  C   UNL     1     165.497 148.357 148.880  1.00  0.00     0.197 A 
ATOM      4  O   UNL     1     164.890 149.449 149.030  1.00  0.00    -0.289 OA
ATOM      5  C   UNL     1     166.643 148.240 148.058  1.00  0.00     0.107 A 
ATOM      6  C   UNL     1     167.196 149.299 147.277  1.00  0.00     0.134 A 
ATOM      7  C   UNL     1     168.392 149.090 146.578  1.00  0.00     0.093 A 
ATOM      8  C   UNL     1     169.024 147.844 146.587  1.00  0.00     0.123 A 
ATOM      9  C   UNL     1     168.465 146.791 147.306  1.00  0.00     0.094 A 
ATOM     10  C   UNL     1     167.292 146.977 148.040  1.00  0.00     0.146 A 
ATOM     11  O   UNL     1     166.803 145.949 148.727  1.00  0.00    -0.456 OA
ENDROOT
BRANCH   1  12
ATOM     12  C   UNL     1     165.252 144.806 150.196  1.00  0.00     0.021 A 
ATOM     13  C   UNL     1     164.286 144.867 151.218  1.00  0.00     0.016 A 
ATOM     14  C   UNL     1     163.881 143.706 151.880  1.00  0.00     0.051 A 
ATOM     15  C   UNL     1     164.437 142.466 151.539  1.00  0.00     0.157 A 
ATOM     16  C   UNL     1     165.816 143.560 149.869  1.00  0.00     0.062 A 
ATOM     17  C   UNL     1     165.410 142.394 150.530  1.00  0.00     0.158 A 
BRANCH  15  18
ATOM     18  O   UNL     1     164.028 141.309 152.201  1.00  0.00    -0.504 OA
ATOM     19  H   UNL     1     163.137 141.259 152.681  1.00  0.00     0.293 HD
ENDBRANCH  15  18
BRANCH  17  20
ATOM     20  O   UNL     1     165.986 141.177 150.170  1.00  0.00    -0.504 OA
ATOM     21  H   UNL     1     166.957 141.103 149.888  1.00  0.00     0.293 HD
ENDBRANCH  17  20
ENDBRANCH   1  12
BRANCH   6  22
ATOM     22  O   UNL     1     166.605 150.559 147.133  1.00  0.00    -0.507 OA
ATOM     23  H   UNL     1     165.990 150.990 147.805  1.00  0.00     0.293 HD
ENDBRANCH   6  22
BRANCH   8  24
ATOM     24  O   UNL     1     170.205 147.641 145.876  1.00  0.00    -0.508 OA
ATOM     25  H   UNL     1     170.986 148.283 145.951  1.00  0.00     0.293 HD
ENDBRANCH   8  24
TORSDOF 5
ENDMDL
MODEL 6
REMARK VINA RESULT:    -6.920      1.362      2.114
REMARK INTER + INTRA:          -8.406
REMARK INTER:                  -8.114
REMARK INTRA:                  -0.292
REMARK UNBOUND:                -0.272
REMARK SMILES O=c1cc(-c2ccc(O)c(O)c2)oc2cc(O)cc(O)c12
REMARK SMILES IDX 4 1 3 2 2 3 1 4 21 5 19 6 18 7 16 8 15 9 14 10 13 11 5 12
REMARK SMILES IDX 6 13 7 14 8 15 12 16 10 17 9 18 11 20 20 22 17 24
REMARK H PARENT 9 19 11 21 20 23 17 25
REMARK Flexibility Score: inf
ROOT
ATOM      1  C   UNL     1     167.120 147.259 149.082  1.00  0.00     0.138 A 
ATOM      2  C   UNL     1     167.889 146.266 148.461  1.00  0.00     0.100 A 
ATOM      3  C   UNL     1     167.608 144.921 148.705  1.00  0.00     0.197 A 
ATOM      4  O   UNL     1     168.352 144.055 148.176  1.00  0.00    -0.289 OA
ATOM      5  C   UNL     1     166.527 144.571 149.548  1.00  0.00     0.107 A 
ATOM      6  C   UNL     1     166.125 143.233 149.843  1.00  0.00     0.134 A 
ATOM      7  C   UNL     1     165.100 143.008 150.771  1.00  0.00     0.093 A 
ATOM      8  C   UNL     1     164.424 144.074 151.371  1.00  0.00     0.123 A 
ATOM      9  C   UNL     1     164.775 145.383 151.052  1.00  0.00     0.094 A 
ATOM     10  C   UNL     1     165.816 145.639 150.156  1.00  0.00     0.146 A 
ATOM     11  O   UNL     1     166.130 146.904 149.893  1.00  0.00    -0.456 OA
ENDROOT
BRANCH   1  12
ATOM     12  C   UNL     1     167.373 148.706 148.855  1.00  0.00     0.021 A 
ATOM     13  C   UNL     1     168.669 149.250 148.923  1.00  0.00     0.016 A 
ATOM     14  C   UNL     1     168.875 150.617 148.716  1.00  0.00     0.051 A 
ATOM     15  C   UNL     1     167.792 151.462 148.444  1.00  0.00     0.157 A 
ATOM     16  C   UNL     1     166.289 149.564 148.596  1.00  0.00     0.062 A 
ATOM     17  C   UNL     1     166.493 150.933 148.386  1.00  0.00     0.158 A 
BRANCH  15  18
ATOM     18  O   UNL     1     168.002 152.825 148.236  1.00  0.00    -0.504 OA
ATOM     19  H   UNL     1     168.680 153.347 148.780  1.00  0.00     0.293 HD
ENDBRANCH  15  18
BRANCH  17  20
ATOM     20  O   UNL     1     165.394 151.749 148.122  1.00  0.00    -0.504 OA
ATOM     21  H   UNL     1     164.537 151.687 148.659  1.00  0.00     0.293 HD
ENDBRANCH  17  20
ENDBRANCH   1  12
BRANCH   6  22
ATOM     22  O   UNL     1     166.678 142.097 149.242  1.00  0.00    -0.507 OA
ATOM     23  H   UNL     1     166.870 141.227 149.713  1.00  0.00     0.293 HD
ENDBRANCH   6  22
BRANCH   8  24
ATOM     24  O   UNL     1     163.395 143.841 152.281  1.00  0.00    -0.508 OA
ATOM     25  H   UNL     1     162.421 143.926 152.013  1.00  0.00     0.293 HD
ENDBRANCH   8  24
TORSDOF 5
ENDMDL
MODEL 7
REMARK VINA RESULT:    -6.909      2.232      3.369
REMARK INTER + INTRA:          -8.393
REMARK INTER:                  -8.117
REMARK INTRA:                  -0.275
REMARK UNBOUND:                -0.272
REMARK SMILES O=c1cc(-c2ccc(O)c(O)c2)oc2cc(O)cc(O)c12
REMARK SMILES IDX 4 1 3 2 2 3 1 4 21 5 19 6 18 7 16 8 15 9 14 10 13 11 5 12
REMARK SMILES IDX 6 13 7 14 8 15 12 16 10 17 9 18 11 20 20 22 17 24
REMARK H PARENT 9 19 11 21 20 23 17 25
REMARK Flexibility Score: inf
ROOT
ATOM      1  C   UNL     1     166.497 148.868 148.248  1.00  0.00     0.138 A 
ATOM      2  C   UNL     1     166.865 148.229 147.057  1.00  0.00     0.100 A 
ATOM      3  C   UNL     1     166.706 146.847 146.936  1.00  0.00     0.197 A 
ATOM      4  O   UNL     1     167.098 146.296 145.875  1.00  0.00    -0.289 OA
ATOM      5  C   UNL     1     166.142 146.109 148.003  1.00  0.00     0.107 A 
ATOM      6  C   UNL     1     165.901 144.701 147.981  1.00  0.00     0.134 A 
ATOM      7  C   UNL     1     165.429 144.064 149.136  1.00  0.00     0.093 A 
ATOM      8  C   UNL     1     165.134 144.790 150.292  1.00  0.00     0.123 A 
ATOM      9  C   UNL     1     165.319 146.171 150.307  1.00  0.00     0.094 A 
ATOM     10  C   UNL     1     165.821 146.831 149.183  1.00  0.00     0.146 A 
ATOM     11  O   UNL     1     165.998 148.147 149.246  1.00  0.00    -0.456 OA
ENDROOT
BRANCH   1  12
ATOM     12  C   UNL     1     166.640 150.335 148.430  1.00  0.00     0.021 A 
ATOM     13  C   UNL     1     165.608 151.118 148.979  1.00  0.00     0.016 A 
ATOM     14  C   UNL     1     165.767 152.498 149.128  1.00  0.00     0.051 A 
ATOM     15  C   UNL     1     166.955 153.121 148.726  1.00  0.00     0.157 A 
ATOM     16  C   UNL     1     167.825 150.970 148.014  1.00  0.00     0.062 A 
ATOM     17  C   UNL     1     167.988 152.353 148.164  1.00  0.00     0.158 A 
BRANCH  15  18
ATOM     18  O   UNL     1     167.112 154.498 148.878  1.00  0.00    -0.504 OA
ATOM     19  H   UNL     1     166.364 155.144 148.655  1.00  0.00     0.293 HD
ENDBRANCH  15  18
BRANCH  17  20
ATOM     20  O   UNL     1     169.181 152.942 147.749  1.00  0.00    -0.504 OA
ATOM     21  H   UNL     1     169.211 153.632 147.008  1.00  0.00     0.293 HD
ENDBRANCH  17  20
ENDBRANCH   1  12
BRANCH   6  22
ATOM     22  O   UNL     1     166.085 143.892 146.856  1.00  0.00    -0.507 OA
ATOM     23  H   UNL     1     166.908 143.342 146.665  1.00  0.00     0.293 HD
ENDBRANCH   6  22
BRANCH   8  24
ATOM     24  O   UNL     1     164.650 144.150 151.430  1.00  0.00    -0.508 OA
ATOM     25  H   UNL     1     164.974 143.227 151.698  1.00  0.00     0.293 HD
ENDBRANCH   8  24
TORSDOF 5
ENDMDL
MODEL 8
REMARK VINA RESULT:    -6.747      3.698      4.852
REMARK INTER + INTRA:          -8.203
REMARK INTER:                  -7.886
REMARK INTRA:                  -0.317
REMARK UNBOUND:                -0.272
REMARK SMILES O=c1cc(-c2ccc(O)c(O)c2)oc2cc(O)cc(O)c12
REMARK SMILES IDX 4 1 3 2 2 3 1 4 21 5 19 6 18 7 16 8 15 9 14 10 13 11 5 12
REMARK SMILES IDX 6 13 7 14 8 15 12 16 10 17 9 18 11 20 20 22 17 24
REMARK H PARENT 9 19 11 21 20 23 17 25
REMARK Flexibility Score: inf
ROOT
ATOM      1  C   UNL     1     167.967 149.083 148.405  1.00  0.00     0.138 A 
ATOM      2  C   UNL     1     166.880 148.568 147.687  1.00  0.00     0.100 A 
ATOM      3  C   UNL     1     166.817 147.201 147.414  1.00  0.00     0.197 A 
ATOM      4  O   UNL     1     165.856 146.778 146.719  1.00  0.00    -0.289 OA
ATOM      5  C   UNL     1     167.832 146.340 147.895  1.00  0.00     0.107 A 
ATOM      6  C   UNL     1     167.856 144.925 147.708  1.00  0.00     0.134 A 
ATOM      7  C   UNL     1     168.965 144.189 148.146  1.00  0.00     0.093 A 
ATOM      8  C   UNL     1     170.023 144.809 148.815  1.00  0.00     0.123 A 
ATOM      9  C   UNL     1     169.986 146.182 149.046  1.00  0.00     0.094 A 
ATOM     10  C   UNL     1     168.910 146.948 148.592  1.00  0.00     0.146 A 
ATOM     11  O   UNL     1     168.923 148.258 148.819  1.00  0.00    -0.456 OA
ENDROOT
BRANCH   1  12
ATOM     12  C   UNL     1     168.083 150.528 148.726  1.00  0.00     0.021 A 
ATOM     13  C   UNL     1     167.022 151.425 148.500  1.00  0.00     0.016 A 
ATOM     14  C   UNL     1     167.164 152.782 148.803  1.00  0.00     0.051 A 
ATOM     15  C   UNL     1     168.368 153.267 149.328  1.00  0.00     0.157 A 
ATOM     16  C   UNL     1     169.294 151.027 149.241  1.00  0.00     0.062 A 
ATOM     17  C   UNL     1     169.438 152.385 149.546  1.00  0.00     0.158 A 
BRANCH  15  18
ATOM     18  O   UNL     1     168.505 154.622 149.631  1.00  0.00    -0.504 OA
ATOM     19  H   UNL     1     168.839 154.932 150.536  1.00  0.00     0.293 HD
ENDBRANCH  15  18
BRANCH  17  20
ATOM     20  O   UNL     1     170.651 152.838 150.063  1.00  0.00    -0.504 OA
ATOM     21  H   UNL     1     170.911 152.692 151.032  1.00  0.00     0.293 HD
ENDBRANCH  17  20
ENDBRANCH   1  12
BRANCH   6  22
ATOM     22  O   UNL     1     166.817 144.193 147.124  1.00  0.00    -0.507 OA
ATOM     23  H   UNL     1     166.035 143.797 147.623  1.00  0.00     0.293 HD
ENDBRANCH   6  22
BRANCH   8  24
ATOM     24  O   UNL     1     171.114 144.067 149.261  1.00  0.00    -0.508 OA
ATOM     25  H   UNL     1     170.997 143.264 149.868  1.00  0.00     0.293 HD
ENDBRANCH   8  24
TORSDOF 5
ENDMDL
MODEL 9
REMARK VINA RESULT:    -6.720      2.419      4.560
REMARK INTER + INTRA:          -8.170
REMARK INTER:                  -7.876
REMARK INTRA:                  -0.294
REMARK UNBOUND:                -0.272
REMARK SMILES O=c1cc(-c2ccc(O)c(O)c2)oc2cc(O)cc(O)c12
REMARK SMILES IDX 4 1 3 2 2 3 1 4 21 5 19 6 18 7 16 8 15 9 14 10 13 11 5 12
REMARK SMILES IDX 6 13 7 14 8 15 12 16 10 17 9 18 11 20 20 22 17 24
REMARK H PARENT 9 19 11 21 20 23 17 25
REMARK Flexibility Score: inf
ROOT
ATOM      1  C   UNL     1     168.379 148.766 148.707  1.00  0.00     0.138 A 
ATOM      2  C   UNL     1     166.989 148.716 148.873  1.00  0.00     0.100 A 
ATOM      3  C   UNL     1     166.376 147.508 149.211  1.00  0.00     0.197 A 
ATOM      4  O   UNL     1     165.121 147.485 149.298  1.00  0.00    -0.289 OA
ATOM      5  C   UNL     1     167.166 146.352 149.416  1.00  0.00     0.107 A 
ATOM      6  C   UNL     1     166.655 145.074 149.795  1.00  0.00     0.134 A 
ATOM      7  C   UNL     1     167.525 143.978 149.873  1.00  0.00     0.093 A 
ATOM      8  C   UNL     1     168.894 144.127 149.642  1.00  0.00     0.123 A 
ATOM      9  C   UNL     1     169.409 145.380 149.320  1.00  0.00     0.094 A 
ATOM     10  C   UNL     1     168.563 146.485 149.201  1.00  0.00     0.146 A 
ATOM     11  O   UNL     1     169.095 147.659 148.875  1.00  0.00    -0.456 OA
ENDROOT
BRANCH   1  12
ATOM     12  C   UNL     1     169.084 150.024 148.352  1.00  0.00     0.021 A 
ATOM     13  C   UNL     1     170.447 150.036 148.001  1.00  0.00     0.016 A 
ATOM     14  C   UNL     1     171.086 151.237 147.682  1.00  0.00     0.051 A 
ATOM     15  C   UNL     1     170.379 152.446 147.715  1.00  0.00     0.157 A 
ATOM     16  C   UNL     1     168.385 151.244 148.397  1.00  0.00     0.062 A 
ATOM     17  C   UNL     1     169.022 152.448 148.077  1.00  0.00     0.158 A 
BRANCH  15  18
ATOM     18  O   UNL     1     171.020 153.642 147.395  1.00  0.00    -0.504 OA
ATOM     19  H   UNL     1     171.602 154.128 148.066  1.00  0.00     0.293 HD
ENDBRANCH  15  18
BRANCH  17  20
ATOM     20  O   UNL     1     168.292 153.634 148.124  1.00  0.00    -0.504 OA
ATOM     21  H   UNL     1     167.451 153.727 148.683  1.00  0.00     0.293 HD
ENDBRANCH  17  20
ENDBRANCH   1  12
BRANCH   6  22
ATOM     22  O   UNL     1     165.318 144.831 150.126  1.00  0.00    -0.507 OA
ATOM     23  H   UNL     1     164.772 145.379 150.772  1.00  0.00     0.293 HD
ENDBRANCH   6  22
BRANCH   8  24
ATOM     24  O   UNL     1     169.754 143.035 149.737  1.00  0.00    -0.508 OA
ATOM     25  H   UNL     1     170.005 142.634 150.634  1.00  0.00     0.293 HD
ENDBRANCH   8  24
TORSDOF 5
ENDMDL
