MODEL 1
REMARK VINA RESULT:    -3.942      0.000      0.000
REMARK INTER + INTRA:          -4.594
REMARK INTER:                  -4.864
REMARK INTRA:                   0.270
REMARK UNBOUND:                 0.270
REMARK SMILES C=C1[C@H]2CC[C@@H]3[C@@H]2C(C)(C)CCC[C@]13C
REMARK SMILES IDX 14 1 6 2 7 3 3 4 2 5 1 6 4 7 5 8 15 9 8 10 9 11 10 12 11 13
REMARK SMILES IDX 13 15 12 16
REMARK H PARENT
REMARK Flexibility Score: 80.00
ROOT
ATOM      1  C   UNL     1       0.544  16.027  15.552  1.00  0.00    -0.008 C 
ATOM      2  C   UNL     1       0.563  14.721  14.763  1.00  0.00     0.003 C 
ATOM      3  C   UNL     1       2.086  14.508  14.753  1.00  0.00     0.006 C 
ATOM      4  C   UNL     1       2.170  14.269  16.253  1.00  0.00     0.019 C 
ATOM      5  C   UNL     1       1.472  15.578  16.696  1.00  0.00    -0.068 C 
ATOM      6  C   UNL     1       1.704  16.231  17.838  1.00  0.00     0.009 C 
ATOM      7  C   UNL     1       1.185  13.135  16.490  1.00  0.00     0.008 C 
ATOM      8  C   UNL     1       0.050  13.471  15.523  1.00  0.00     0.005 C 
ATOM      9  C   UNL     1      -0.863  16.417  16.046  1.00  0.00     0.016 C 
ENDROOT
BRANCH   3  10
ATOM     10  C   UNL     1       2.632  14.339  13.319  1.00  0.00    -0.032 C 
ATOM     11  C   UNL     1       1.855  13.279  12.501  1.00  0.00     0.011 C 
ATOM     12  C   UNL     1       4.109  13.875  13.382  1.00  0.00     0.011 C 
BRANCH  10  13
ATOM     13  C   UNL     1       2.537  15.780  12.622  1.00  0.00     0.007 CG0
ATOM     14  G   UNL     1       1.397  16.800  13.071  1.00  0.00     0.000 G0
ENDBRANCH  10  13
ENDBRANCH   3  10
BRANCH   1  15
ATOM     15  C   UNL     1       1.173  17.159  14.607  1.00  0.00     0.011 C 
BRANCH  15  16
ATOM     16  C   UNL     1       1.393  16.801  13.066  1.00  0.00     0.001 CG0
ATOM     17  G   UNL     1       2.538  15.787  12.617  1.00  0.00     0.000 G0
ENDBRANCH  15  16
ENDBRANCH   1  15
TORSDOF 0
ENDMDL
MODEL 2
REMARK VINA RESULT:    -3.787      1.237      1.564
REMARK INTER + INTRA:          -4.404
REMARK INTER:                  -4.670
REMARK INTRA:                   0.267
REMARK UNBOUND:                 0.270
REMARK SMILES C=C1[C@H]2CC[C@@H]3[C@@H]2C(C)(C)CCC[C@]13C
REMARK SMILES IDX 14 1 6 2 7 3 3 4 2 5 1 6 4 7 5 8 15 9 8 10 9 11 10 12 11 13
REMARK SMILES IDX 13 15 12 16
REMARK H PARENT
REMARK Flexibility Score: 80.00
ROOT
ATOM      1  C   UNL     1       0.559  15.507  16.666  1.00  0.00    -0.008 C 
ATOM      2  C   UNL     1       0.274  14.833  15.326  1.00  0.00     0.003 C 
ATOM      3  C   UNL     1       1.705  14.871  14.767  1.00  0.00     0.006 C 
ATOM      4  C   UNL     1       2.248  13.890  15.794  1.00  0.00     0.019 C 
ATOM      5  C   UNL     1       1.781  14.655  17.056  1.00  0.00    -0.068 C 
ATOM      6  C   UNL     1       2.389  14.631  18.246  1.00  0.00     0.009 C 
ATOM      7  C   UNL     1       1.342  12.678  15.645  1.00  0.00     0.008 C 
ATOM      8  C   UNL     1      -0.025  13.313  15.391  1.00  0.00     0.005 C 
ATOM      9  C   UNL     1      -0.603  15.377  17.670  1.00  0.00     0.016 C 
ENDROOT
BRANCH   3  10
ATOM     10  C   UNL     1       1.763  15.564  13.388  1.00  0.00    -0.032 C 
ATOM     11  C   UNL     1       0.732  14.992  12.385  1.00  0.00     0.011 C 
ATOM     12  C   UNL     1       3.168  15.358  12.767  1.00  0.00     0.011 C 
BRANCH  10  13
ATOM     13  C   UNL     1       1.501  17.124  13.649  1.00  0.00     0.007 CG0
ATOM     14  G   UNL     1       0.601  17.576  14.885  1.00  0.00     0.000 G0
ENDBRANCH  10  13
ENDBRANCH   3  10
BRANCH   1  15
ATOM     15  C   UNL     1       0.904  17.042  16.357  1.00  0.00     0.011 C 
BRANCH  15  16
ATOM     16  C   UNL     1       0.610  17.587  14.885  1.00  0.00     0.001 CG0
ATOM     17  G   UNL     1       1.500  17.122  13.647  1.00  0.00     0.000 G0
ENDBRANCH  15  16
ENDBRANCH   1  15
TORSDOF 0
ENDMDL
MODEL 3
REMARK VINA RESULT:    -3.763      1.769      4.186
REMARK INTER + INTRA:          -4.374
REMARK INTER:                  -4.637
REMARK INTRA:                   0.263
REMARK UNBOUND:                 0.270
REMARK SMILES C=C1[C@H]2CC[C@@H]3[C@@H]2C(C)(C)CCC[C@]13C
REMARK SMILES IDX 14 1 6 2 7 3 3 4 2 5 1 6 4 7 5 8 15 9 8 10 9 11 10 12 11 13
REMARK SMILES IDX 13 15 12 16
REMARK H PARENT
REMARK Flexibility Score: 80.00
ROOT
ATOM      1  C   UNL     1       1.080  15.511  13.371  1.00  0.00    -0.008 C 
ATOM      2  C   UNL     1       0.098  15.722  14.521  1.00  0.00     0.003 C 
ATOM      3  C   UNL     1       1.036  16.504  15.454  1.00  0.00     0.006 C 
ATOM      4  C   UNL     1       1.110  17.716  14.539  1.00  0.00     0.019 C 
ATOM      5  C   UNL     1       1.569  16.968  13.264  1.00  0.00    -0.068 C 
ATOM      6  C   UNL     1       2.322  17.486  12.290  1.00  0.00     0.009 C 
ATOM      7  C   UNL     1      -0.347  18.099  14.333  1.00  0.00     0.008 C 
ATOM      8  C   UNL     1      -1.040  16.739  14.252  1.00  0.00     0.005 C 
ATOM      9  C   UNL     1       0.404  15.013  12.079  1.00  0.00     0.016 C 
ENDROOT
BRANCH   3  10
ATOM     10  C   UNL     1       1.138  15.847  16.847  1.00  0.00    -0.032 C 
ATOM     11  C   UNL     1      -0.246  15.540  17.469  1.00  0.00     0.011 C 
ATOM     12  C   UNL     1       1.871  16.807  17.817  1.00  0.00     0.011 C 
BRANCH  10  13
ATOM     13  C   UNL     1       1.990  14.502  16.656  1.00  0.00     0.007 CG0
ATOM     14  G   UNL     1       1.925  13.717  15.270  1.00  0.00     0.000 G0
ENDBRANCH  10  13
ENDBRANCH   3  10
BRANCH   1  15
ATOM     15  C   UNL     1       2.198  14.484  13.888  1.00  0.00     0.011 C 
BRANCH  15  16
ATOM     16  C   UNL     1       1.921  13.715  15.260  1.00  0.00     0.001 CG0
ATOM     17  G   UNL     1       1.976  14.485  16.655  1.00  0.00     0.000 G0
ENDBRANCH  15  16
ENDBRANCH   1  15
TORSDOF 0
ENDMDL
MODEL 4
REMARK VINA RESULT:    -3.727      1.455      3.213
REMARK INTER + INTRA:          -4.328
REMARK INTER:                  -4.589
REMARK INTRA:                   0.261
REMARK UNBOUND:                 0.270
REMARK SMILES C=C1[C@H]2CC[C@@H]3[C@@H]2C(C)(C)CCC[C@]13C
REMARK SMILES IDX 14 1 6 2 7 3 3 4 2 5 1 6 4 7 5 8 15 9 8 10 9 11 10 12 11 13
REMARK SMILES IDX 13 15 12 16
REMARK H PARENT
REMARK Flexibility Score: 80.00
ROOT
ATOM      1  C   UNL     1       1.180  15.791  16.696  1.00  0.00    -0.008 C 
ATOM      2  C   UNL     1       1.247  16.586  15.393  1.00  0.00     0.003 C 
ATOM      3  C   UNL     1       0.212  15.772  14.601  1.00  0.00     0.006 C 
ATOM      4  C   UNL     1      -0.956  16.206  15.474  1.00  0.00     0.019 C 
ATOM      5  C   UNL     1      -0.355  15.771  16.832  1.00  0.00    -0.068 C 
ATOM      6  C   UNL     1      -1.055  15.374  17.898  1.00  0.00     0.009 C 
ATOM      7  C   UNL     1      -0.895  17.725  15.424  1.00  0.00     0.008 C 
ATOM      8  C   UNL     1       0.609  17.998  15.437  1.00  0.00     0.005 C 
ATOM      9  C   UNL     1       1.872  16.501  17.876  1.00  0.00     0.016 C 
ENDROOT
BRANCH   3  10
ATOM     10  C   UNL     1       0.790  15.252  13.267  1.00  0.00    -0.032 C 
ATOM     11  C   UNL     1       1.462  16.368  12.430  1.00  0.00     0.011 C 
ATOM     12  C   UNL     1      -0.354  14.661  12.406  1.00  0.00     0.011 C 
BRANCH  10  13
ATOM     13  C   UNL     1       1.846  14.105  13.643  1.00  0.00     0.007 CG0
ATOM     14  G   UNL     1       2.617  14.169  15.037  1.00  0.00     0.000 G0
ENDBRANCH  10  13
ENDBRANCH   3  10
BRANCH   1  15
ATOM     15  C   UNL     1       1.829  14.355  16.406  1.00  0.00     0.011 C 
BRANCH  15  16
ATOM     16  C   UNL     1       2.624  14.163  15.034  1.00  0.00     0.001 CG0
ATOM     17  G   UNL     1       1.851  14.109  13.641  1.00  0.00     0.000 G0
ENDBRANCH  15  16
ENDBRANCH   1  15
TORSDOF 0
ENDMDL
MODEL 5
REMARK VINA RESULT:    -3.633      1.886      4.229
REMARK INTER + INTRA:          -4.213
REMARK INTER:                  -4.474
REMARK INTRA:                   0.261
REMARK UNBOUND:                 0.270
REMARK SMILES C=C1[C@H]2CC[C@@H]3[C@@H]2C(C)(C)CCC[C@]13C
REMARK SMILES IDX 14 1 6 2 7 3 3 4 2 5 1 6 4 7 5 8 15 9 8 10 9 11 10 12 11 13
REMARK SMILES IDX 13 15 12 16
REMARK H PARENT
REMARK Flexibility Score: 80.00
ROOT
ATOM      1  C   UNL     1       1.799  13.648  14.888  1.00  0.00    -0.008 C 
ATOM      2  C   UNL     1       0.579  14.537  14.657  1.00  0.00     0.003 C 
ATOM      3  C   UNL     1       1.295  15.895  14.743  1.00  0.00     0.006 C 
ATOM      4  C   UNL     1       2.092  15.677  13.466  1.00  0.00     0.019 C 
ATOM      5  C   UNL     1       2.731  14.325  13.865  1.00  0.00    -0.068 C 
ATOM      6  C   UNL     1       3.917  13.875  13.449  1.00  0.00     0.009 C 
ATOM      7  C   UNL     1       1.024  15.378  12.425  1.00  0.00     0.008 C 
ATOM      8  C   UNL     1       0.017  14.541  13.213  1.00  0.00     0.005 C 
ATOM      9  C   UNL     1       1.537  12.164  14.563  1.00  0.00     0.016 C 
ENDROOT
BRANCH   3  10
ATOM     10  C   UNL     1       0.650  16.817  15.800  1.00  0.00    -0.032 C 
ATOM     11  C   UNL     1      -0.884  16.942  15.630  1.00  0.00     0.011 C 
ATOM     12  C   UNL     1       1.241  18.243  15.669  1.00  0.00     0.011 C 
BRANCH  10  13
ATOM     13  C   UNL     1       1.018  16.198  17.232  1.00  0.00     0.007 CG0
ATOM     14  G   UNL     1       1.248  14.627  17.377  1.00  0.00     0.000 G0
ENDBRANCH  10  13
ENDBRANCH   3  10
BRANCH   1  15
ATOM     15  C   UNL     1       2.247  13.849  16.414  1.00  0.00     0.011 C 
BRANCH  15  16
ATOM     16  C   UNL     1       1.245  14.625  17.385  1.00  0.00     0.001 CG0
ATOM     17  G   UNL     1       1.009  16.194  17.233  1.00  0.00     0.000 G0
ENDBRANCH  15  16
ENDBRANCH   1  15
TORSDOF 0
ENDMDL
MODEL 6
REMARK VINA RESULT:    -3.588      1.270      3.581
REMARK INTER + INTRA:          -4.158
REMARK INTER:                  -4.417
REMARK INTRA:                   0.260
REMARK UNBOUND:                 0.270
REMARK SMILES C=C1[C@H]2CC[C@@H]3[C@@H]2C(C)(C)CCC[C@]13C
REMARK SMILES IDX 14 1 6 2 7 3 3 4 2 5 1 6 4 7 5 8 15 9 8 10 9 11 10 12 11 13
REMARK SMILES IDX 13 15 12 16
REMARK H PARENT
REMARK Flexibility Score: 80.00
ROOT
ATOM      1  C   UNL     1       1.230  14.203  14.932  1.00  0.00    -0.008 C 
ATOM      2  C   UNL     1       1.543  15.399  15.829  1.00  0.00     0.003 C 
ATOM      3  C   UNL     1       0.211  16.144  15.650  1.00  0.00     0.006 C 
ATOM      4  C   UNL     1      -0.603  15.085  16.376  1.00  0.00     0.019 C 
ATOM      5  C   UNL     1      -0.156  13.876  15.519  1.00  0.00    -0.068 C 
ATOM      6  C   UNL     1      -0.888  12.785  15.277  1.00  0.00     0.009 C 
ATOM      7  C   UNL     1       0.092  14.960  17.723  1.00  0.00     0.008 C 
ATOM      8  C   UNL     1       1.567  15.106  17.350  1.00  0.00     0.005 C 
ATOM      9  C   UNL     1       2.233  13.044  15.095  1.00  0.00     0.016 C 
ENDROOT
BRANCH   3  10
ATOM     10  C   UNL     1       0.426  17.594  15.163  1.00  0.00    -0.032 C 
ATOM     11  C   UNL     1       1.451  18.370  16.025  1.00  0.00     0.011 C 
ATOM     12  C   UNL     1      -0.914  18.367  15.239  1.00  0.00     0.011 C 
BRANCH  10  13
ATOM     13  C   UNL     1       0.919  17.495  13.640  1.00  0.00     0.007 CG0
ATOM     14  G   UNL     1       1.752  16.223  13.161  1.00  0.00     0.000 G0
ENDBRANCH  10  13
ENDBRANCH   3  10
BRANCH   1  15
ATOM     15  C   UNL     1       1.190  14.743  13.423  1.00  0.00     0.011 C 
BRANCH  15  16
ATOM     16  C   UNL     1       1.738  16.217  13.147  1.00  0.00     0.001 CG0
ATOM     17  G   UNL     1       0.919  17.498  13.627  1.00  0.00     0.000 G0
ENDBRANCH  15  16
ENDBRANCH   1  15
TORSDOF 0
ENDMDL
MODEL 7
REMARK VINA RESULT:    -3.503      1.030      3.750
REMARK INTER + INTRA:          -4.052
REMARK INTER:                  -4.321
REMARK INTRA:                   0.269
REMARK UNBOUND:                 0.270
REMARK SMILES C=C1[C@H]2CC[C@@H]3[C@@H]2C(C)(C)CCC[C@]13C
REMARK SMILES IDX 14 1 6 2 7 3 3 4 2 5 1 6 4 7 5 8 15 9 8 10 9 11 10 12 11 13
REMARK SMILES IDX 13 15 12 16
REMARK H PARENT
REMARK Flexibility Score: 80.00
ROOT
ATOM      1  C   UNL     1       2.777  14.336  13.078  1.00  0.00    -0.008 C 
ATOM      2  C   UNL     1       2.576  14.891  14.486  1.00  0.00     0.003 C 
ATOM      3  C   UNL     1       1.048  15.047  14.431  1.00  0.00     0.006 C 
ATOM      4  C   UNL     1       0.789  13.550  14.366  1.00  0.00     0.019 C 
ATOM      5  C   UNL     1       1.683  13.252  13.138  1.00  0.00    -0.068 C 
ATOM      6  C   UNL     1       1.482  12.273  12.252  1.00  0.00     0.009 C 
ATOM      7  C   UNL     1       1.514  13.009  15.589  1.00  0.00     0.008 C 
ATOM      8  C   UNL     1       2.772  13.875  15.641  1.00  0.00     0.005 C 
ATOM      9  C   UNL     1       4.184  13.749  12.852  1.00  0.00     0.016 C 
ENDROOT
BRANCH   3  10
ATOM     10  C   UNL     1       0.606  16.487  14.768  1.00  0.00    -0.032 C 
ATOM     11  C   UNL     1       1.236  17.017  16.079  1.00  0.00     0.011 C 
ATOM     12  C   UNL     1      -0.932  16.525  14.953  1.00  0.00     0.011 C 
BRANCH  10  13
ATOM     13  C   UNL     1       1.032  17.400  13.520  1.00  0.00     0.007 CG0
ATOM     14  G   UNL     1       2.311  17.004  12.655  1.00  0.00     0.000 G0
ENDBRANCH  10  13
ENDBRANCH   3  10
BRANCH   1  15
ATOM     15  C   UNL     1       2.460  15.526  12.052  1.00  0.00     0.011 C 
BRANCH  15  16
ATOM     16  C   UNL     1       2.310  17.000  12.649  1.00  0.00     0.001 CG0
ATOM     17  G   UNL     1       1.036  17.405  13.517  1.00  0.00     0.000 G0
ENDBRANCH  15  16
ENDBRANCH   1  15
TORSDOF 0
ENDMDL
MODEL 8
REMARK VINA RESULT:    -3.447      1.977      3.353
REMARK INTER + INTRA:          -3.983
REMARK INTER:                  -4.256
REMARK INTRA:                   0.273
REMARK UNBOUND:                 0.270
REMARK SMILES C=C1[C@H]2CC[C@@H]3[C@@H]2C(C)(C)CCC[C@]13C
REMARK SMILES IDX 14 1 6 2 7 3 3 4 2 5 1 6 4 7 5 8 15 9 8 10 9 11 10 12 11 13
REMARK SMILES IDX 13 15 12 16
REMARK H PARENT
REMARK Flexibility Score: 80.00
ROOT
ATOM      1  C   UNL     1       0.194  13.785  17.488  1.00  0.00    -0.008 C 
ATOM      2  C   UNL     1       1.634  13.882  16.989  1.00  0.00     0.003 C 
ATOM      3  C   UNL     1       1.402  14.931  15.890  1.00  0.00     0.006 C 
ATOM      4  C   UNL     1       1.063  16.042  16.872  1.00  0.00     0.019 C 
ATOM      5  C   UNL     1      -0.067  15.298  17.623  1.00  0.00    -0.068 C 
ATOM      6  C   UNL     1      -1.118  15.875  18.211  1.00  0.00     0.009 C 
ATOM      7  C   UNL     1       2.268  16.079  17.800  1.00  0.00     0.008 C 
ATOM      8  C   UNL     1       2.625  14.599  17.940  1.00  0.00     0.005 C 
ATOM      9  C   UNL     1       0.065  13.037  18.829  1.00  0.00     0.016 C 
ENDROOT
BRANCH   3  10
ATOM     10  C   UNL     1       1.905  14.442  14.515  1.00  0.00    -0.032 C 
ATOM     11  C   UNL     1       3.352  13.891  14.567  1.00  0.00     0.011 C 
ATOM     12  C   UNL     1       1.902  15.624  13.515  1.00  0.00     0.011 C 
BRANCH  10  13
ATOM     13  C   UNL     1       0.880  13.308  14.030  1.00  0.00     0.007 CG0
ATOM     14  G   UNL     1       0.126  12.412  15.111  1.00  0.00     0.000 G0
ENDBRANCH  10  13
ENDBRANCH   3  10
BRANCH   1  15
ATOM     15  C   UNL     1      -0.660  13.077  16.330  1.00  0.00     0.011 C 
BRANCH  15  16
ATOM     16  C   UNL     1       0.142  12.397  15.128  1.00  0.00     0.001 CG0
ATOM     17  G   UNL     1       0.877  13.288  14.028  1.00  0.00     0.000 G0
ENDBRANCH  15  16
ENDBRANCH   1  15
TORSDOF 0
ENDMDL
MODEL 9
REMARK VINA RESULT:    -3.252      2.366      3.743
REMARK INTER + INTRA:          -3.743
REMARK INTER:                  -4.003
REMARK INTRA:                   0.260
REMARK UNBOUND:                 0.270
REMARK SMILES C=C1[C@H]2CC[C@@H]3[C@@H]2C(C)(C)CCC[C@]13C
REMARK SMILES IDX 14 1 6 2 7 3 3 4 2 5 1 6 4 7 5 8 15 9 8 10 9 11 10 12 11 13
REMARK SMILES IDX 13 15 12 16
REMARK H PARENT
REMARK Flexibility Score: 80.00
ROOT
ATOM      1  C   UNL     1       1.041  14.641  16.237  1.00  0.00    -0.008 C 
ATOM      2  C   UNL     1       1.637  13.553  15.346  1.00  0.00     0.003 C 
ATOM      3  C   UNL     1       0.792  13.828  14.092  1.00  0.00     0.006 C 
ATOM      4  C   UNL     1       1.424  15.187  13.832  1.00  0.00     0.019 C 
ATOM      5  C   UNL     1       1.145  15.799  15.226  1.00  0.00    -0.068 C 
ATOM      6  C   UNL     1       0.951  17.097  15.478  1.00  0.00     0.009 C 
ATOM      7  C   UNL     1       2.913  14.883  13.768  1.00  0.00     0.008 C 
ATOM      8  C   UNL     1       3.081  13.813  14.847  1.00  0.00     0.005 C 
ATOM      9  C   UNL     1       1.861  14.893  17.517  1.00  0.00     0.016 C 
ENDROOT
BRANCH   3  10
ATOM     10  C   UNL     1       0.051  12.562  13.611  1.00  0.00    -0.032 C 
ATOM     11  C   UNL     1       0.988  11.338  13.461  1.00  0.00     0.011 C 
ATOM     12  C   UNL     1      -0.577  12.829  12.221  1.00  0.00     0.011 C 
BRANCH  10  13
ATOM     13  C   UNL     1      -1.101  12.270  14.688  1.00  0.00     0.007 CG0
ATOM     14  G   UNL     1      -0.896  12.721  16.203  1.00  0.00     0.000 G0
ENDBRANCH  10  13
ENDBRANCH   3  10
BRANCH   1  15
ATOM     15  C   UNL     1      -0.464  14.202  16.575  1.00  0.00     0.011 C 
BRANCH  15  16
ATOM     16  C   UNL     1      -0.900  12.709  16.213  1.00  0.00     0.001 CG0
ATOM     17  G   UNL     1      -1.112  12.264  14.697  1.00  0.00     0.000 G0
ENDBRANCH  15  16
ENDBRANCH   1  15
TORSDOF 0
ENDMDL
