MODEL 1
REMARK VINA RESULT:    -6.552      0.000      0.000
REMARK INTER + INTRA:         -10.958
REMARK INTER:                  -9.424
REMARK INTRA:                  -1.534
REMARK UNBOUND:                -1.534
REMARK SMILES O=c1c(O[C@H]2O[C@H](CO)[C@H](O)[C@@H](O)[C@@H]2O)c(-c2ccc(O)cc2)oc2cc(O)cc(O)c12
REMARK SMILES IDX 4 1 3 2 16 3 24 4 2 5 25 6 1 7 32 8 26 9 30 10 27 11 29 12
REMARK SMILES IDX 17 13 18 14 19 15 20 16 23 17 22 18 21 19 31 21 28 23 5 25
REMARK SMILES IDX 14 26 6 27 12 28 7 29 10 30 15 31 13 33 8 35 9 36 11 38
REMARK H PARENT 21 20 31 22 28 24 15 32 13 34 9 37 11 39
REMARK Flexibility Score: inf
ROOT
ATOM      1  O   UNL     1     -19.100  -2.225  13.559  1.00  0.00    -0.454 OA
ENDROOT
BRANCH   1   2
ATOM      2  C   UNL     1     -19.167  -2.436  14.952  1.00  0.00     0.214 A 
ATOM      3  C   UNL     1     -18.094  -3.105  15.572  1.00  0.00     0.180 A 
ATOM      4  O   UNL     1     -18.148  -3.414  16.863  1.00  0.00    -0.452 OA
ATOM      5  C   UNL     1     -20.262  -2.045  15.759  1.00  0.00     0.239 A 
ATOM      6  C   UNL     1     -19.169  -3.093  17.646  1.00  0.00     0.146 A 
ATOM      7  O   UNL     1     -21.220  -1.398  15.263  1.00  0.00    -0.285 OA
ATOM      8  C   UNL     1     -20.274  -2.381  17.130  1.00  0.00     0.111 A 
ATOM      9  C   UNL     1     -19.132  -3.462  18.994  1.00  0.00     0.094 A 
ATOM     10  C   UNL     1     -21.341  -2.045  18.001  1.00  0.00     0.134 A 
ATOM     11  C   UNL     1     -20.189  -3.130  19.847  1.00  0.00     0.123 A 
ATOM     12  C   UNL     1     -21.286  -2.424  19.350  1.00  0.00     0.093 A 
BRANCH   3  13
ATOM     13  C   UNL     1     -16.884  -3.493  14.818  1.00  0.00     0.021 A 
ATOM     14  C   UNL     1     -15.757  -2.654  14.826  1.00  0.00     0.016 A 
ATOM     15  C   UNL     1     -14.617  -2.995  14.091  1.00  0.00     0.047 A 
ATOM     16  C   UNL     1     -14.599  -4.169  13.327  1.00  0.00     0.115 A 
ATOM     17  C   UNL     1     -16.866  -4.658  14.033  1.00  0.00     0.016 A 
ATOM     18  C   UNL     1     -15.726  -4.997  13.298  1.00  0.00     0.047 A 
BRANCH  16  19
ATOM     19  O   UNL     1     -13.471  -4.519  12.588  1.00  0.00    -0.508 OA
ATOM     20  H   UNL     1     -12.690  -5.005  13.013  1.00  0.00     0.293 HD
ENDBRANCH  16  19
ENDBRANCH   3  13
BRANCH  10  21
ATOM     21  O   UNL     1     -22.455  -1.342  17.536  1.00  0.00    -0.507 OA
ATOM     22  H   UNL     1     -23.388  -1.537  17.878  1.00  0.00     0.293 HD
ENDBRANCH  10  21
BRANCH  11  23
ATOM     23  O   UNL     1     -20.160  -3.498  21.191  1.00  0.00    -0.508 OA
ATOM     24  H   UNL     1     -19.349  -3.320  21.771  1.00  0.00     0.293 HD
ENDBRANCH  11  23
ENDBRANCH   1   2
BRANCH   1  25
ATOM     25  C   UNL     1     -18.499  -1.114  12.881  1.00  0.00     0.339 C 
ATOM     26  C   UNL     1     -19.573  -0.298  12.127  1.00  0.00     0.214 C 
ATOM     27  O   UNL     1     -17.458  -1.537  12.012  1.00  0.00    -0.332 OA
ATOM     28  C   UNL     1     -20.097  -1.062  10.899  1.00  0.00     0.180 C 
ATOM     29  C   UNL     1     -17.951  -2.385  10.987  1.00  0.00     0.179 C 
ATOM     30  C   UNL     1     -18.927  -1.622  10.064  1.00  0.00     0.177 C 
BRANCH  26  31
ATOM     31  O   UNL     1     -19.030   0.930  11.712  1.00  0.00    -0.384 OA
ATOM     32  H   UNL     1     -18.054   0.788  11.588  1.00  0.00     0.211 HD
ENDBRANCH  26  31
BRANCH  28  33
ATOM     33  O   UNL     1     -20.934  -2.108  11.322  1.00  0.00    -0.387 OA
ATOM     34  H   UNL     1     -20.727  -2.276  12.278  1.00  0.00     0.211 HD
ENDBRANCH  28  33
BRANCH  29  35
ATOM     35  C   UNL     1     -16.768  -2.981  10.207  1.00  0.00     0.191 C 
BRANCH  35  36
ATOM     36  O   UNL     1     -17.155  -3.396   8.924  1.00  0.00    -0.394 OA
ATOM     37  H   UNL     1     -16.386  -3.226   8.322  1.00  0.00     0.210 HD
ENDBRANCH  35  36
ENDBRANCH  29  35
BRANCH  30  38
ATOM     38  O   UNL     1     -18.258  -0.570   9.413  1.00  0.00    -0.387 OA
ATOM     39  H   UNL     1     -18.058  -0.879   8.492  1.00  0.00     0.211 HD
ENDBRANCH  30  38
ENDBRANCH   1  25
TORSDOF 11
ENDMDL
MODEL 2
REMARK VINA RESULT:    -6.530      5.977      9.730
REMARK INTER + INTRA:         -10.927
REMARK INTER:                 -10.405
REMARK INTRA:                  -0.522
REMARK UNBOUND:                -1.534
REMARK SMILES O=c1c(O[C@H]2O[C@H](CO)[C@H](O)[C@@H](O)[C@@H]2O)c(-c2ccc(O)cc2)oc2cc(O)cc(O)c12
REMARK SMILES IDX 4 1 3 2 16 3 24 4 2 5 25 6 1 7 32 8 26 9 30 10 27 11 29 12
REMARK SMILES IDX 17 13 18 14 19 15 20 16 23 17 22 18 21 19 31 21 28 23 5 25
REMARK SMILES IDX 14 26 6 27 12 28 7 29 10 30 15 31 13 33 8 35 9 36 11 38
REMARK H PARENT 21 20 31 22 28 24 15 32 13 34 9 37 11 39
REMARK Flexibility Score: inf
ROOT
ATOM      1  O   UNL     1     -10.106  -5.383  10.424  1.00  0.00    -0.454 OA
ENDROOT
BRANCH   1   2
ATOM      2  C   UNL     1     -10.935  -4.711  11.347  1.00  0.00     0.214 A 
ATOM      3  C   UNL     1     -10.373  -4.315  12.576  1.00  0.00     0.180 A 
ATOM      4  O   UNL     1     -11.131  -3.766  13.517  1.00  0.00    -0.452 OA
ATOM      5  C   UNL     1     -12.307  -4.440  11.124  1.00  0.00     0.239 A 
ATOM      6  C   UNL     1     -12.426  -3.522  13.361  1.00  0.00     0.146 A 
ATOM      7  O   UNL     1     -12.843  -4.725  10.022  1.00  0.00    -0.285 OA
ATOM      8  C   UNL     1     -13.075  -3.840  12.147  1.00  0.00     0.111 A 
ATOM      9  C   UNL     1     -13.139  -2.938  14.412  1.00  0.00     0.094 A 
ATOM     10  C   UNL     1     -14.456  -3.555  12.012  1.00  0.00     0.134 A 
ATOM     11  C   UNL     1     -14.502  -2.662  14.273  1.00  0.00     0.123 A 
ATOM     12  C   UNL     1     -15.155  -2.969  13.078  1.00  0.00     0.093 A 
BRANCH   3  13
ATOM     13  C   UNL     1      -8.936  -4.503  12.866  1.00  0.00     0.021 A 
ATOM     14  C   UNL     1      -8.259  -5.619  12.347  1.00  0.00     0.016 A 
ATOM     15  C   UNL     1      -6.907  -5.824  12.640  1.00  0.00     0.047 A 
ATOM     16  C   UNL     1      -6.223  -4.923  13.467  1.00  0.00     0.115 A 
ATOM     17  C   UNL     1      -8.250  -3.615  13.710  1.00  0.00     0.016 A 
ATOM     18  C   UNL     1      -6.898  -3.821  14.002  1.00  0.00     0.047 A 
BRANCH  16  19
ATOM     19  O   UNL     1      -4.877  -5.116  13.768  1.00  0.00    -0.508 OA
ATOM     20  H   UNL     1      -4.371  -5.928  13.435  1.00  0.00     0.293 HD
ENDBRANCH  16  19
ENDBRANCH   3  13
BRANCH  10  21
ATOM     21  O   UNL     1     -15.140  -3.852  10.831  1.00  0.00    -0.507 OA
ATOM     22  H   UNL     1     -14.733  -4.441  10.114  1.00  0.00     0.293 HD
ENDBRANCH  10  21
BRANCH  11  23
ATOM     23  O   UNL     1     -15.219  -2.083  15.318  1.00  0.00    -0.508 OA
ATOM     24  H   UNL     1     -14.764  -1.787  16.173  1.00  0.00     0.293 HD
ENDBRANCH  11  23
ENDBRANCH   1   2
BRANCH   1  25
ATOM     25  C   UNL     1      -9.608  -4.874   9.180  1.00  0.00     0.339 C 
ATOM     26  C   UNL     1     -10.509  -5.333   8.011  1.00  0.00     0.214 C 
ATOM     27  O   UNL     1      -8.252  -5.245   8.972  1.00  0.00    -0.332 OA
ATOM     28  C   UNL     1     -10.339  -6.836   7.730  1.00  0.00     0.180 C 
ATOM     29  C   UNL     1      -8.107  -6.653   8.892  1.00  0.00     0.179 C 
ATOM     30  C   UNL     1      -8.845  -7.213   7.654  1.00  0.00     0.177 C 
BRANCH  26  31
ATOM     31  O   UNL     1     -10.188  -4.607   6.852  1.00  0.00    -0.384 OA
ATOM     32  H   UNL     1     -10.296  -5.226   6.083  1.00  0.00     0.211 HD
ENDBRANCH  26  31
BRANCH  28  33
ATOM     33  O   UNL     1     -10.974  -7.575   8.744  1.00  0.00    -0.387 OA
ATOM     34  H   UNL     1     -10.910  -7.038   9.576  1.00  0.00     0.211 HD
ENDBRANCH  28  33
BRANCH  29  35
ATOM     35  C   UNL     1      -6.612  -7.010   8.879  1.00  0.00     0.191 C 
BRANCH  35  36
ATOM     36  O   UNL     1      -6.366  -8.167   8.124  1.00  0.00    -0.394 OA
ATOM     37  H   UNL     1      -6.258  -8.914   8.768  1.00  0.00     0.210 HD
ENDBRANCH  35  36
ENDBRANCH  29  35
BRANCH  30  38
ATOM     38  O   UNL     1      -8.281  -6.693   6.476  1.00  0.00    -0.387 OA
ATOM     39  H   UNL     1      -8.625  -7.241   5.724  1.00  0.00     0.211 HD
ENDBRANCH  30  38
ENDBRANCH   1  25
TORSDOF 11
ENDMDL
MODEL 3
REMARK VINA RESULT:    -6.455      2.200      5.023
REMARK INTER + INTRA:         -10.819
REMARK INTER:                  -9.239
REMARK INTRA:                  -1.580
REMARK UNBOUND:                -1.534
REMARK SMILES O=c1c(O[C@H]2O[C@H](CO)[C@H](O)[C@@H](O)[C@@H]2O)c(-c2ccc(O)cc2)oc2cc(O)cc(O)c12
REMARK SMILES IDX 4 1 3 2 16 3 24 4 2 5 25 6 1 7 32 8 26 9 30 10 27 11 29 12
REMARK SMILES IDX 17 13 18 14 19 15 20 16 23 17 22 18 21 19 31 21 28 23 5 25
REMARK SMILES IDX 14 26 6 27 12 28 7 29 10 30 15 31 13 33 8 35 9 36 11 38
REMARK H PARENT 21 20 31 22 28 24 15 32 13 34 9 37 11 39
REMARK Flexibility Score: inf
ROOT
ATOM      1  O   UNL     1     -19.666  -2.084  14.143  1.00  0.00    -0.454 OA
ENDROOT
BRANCH   1   2
ATOM      2  C   UNL     1     -20.195  -2.122  15.450  1.00  0.00     0.214 A 
ATOM      3  C   UNL     1     -21.469  -1.561  15.666  1.00  0.00     0.180 A 
ATOM      4  O   UNL     1     -21.972  -1.485  16.893  1.00  0.00    -0.452 OA
ATOM      5  C   UNL     1     -19.508  -2.661  16.564  1.00  0.00     0.239 A 
ATOM      6  C   UNL     1     -21.348  -1.951  17.966  1.00  0.00     0.146 A 
ATOM      7  O   UNL     1     -18.392  -3.222  16.415  1.00  0.00    -0.285 OA
ATOM      8  C   UNL     1     -20.085  -2.573  17.850  1.00  0.00     0.111 A 
ATOM      9  C   UNL     1     -21.962  -1.825  19.216  1.00  0.00     0.094 A 
ATOM     10  C   UNL     1     -19.454  -3.069  19.018  1.00  0.00     0.134 A 
ATOM     11  C   UNL     1     -21.333  -2.314  20.365  1.00  0.00     0.123 A 
ATOM     12  C   UNL     1     -20.086  -2.933  20.263  1.00  0.00     0.093 A 
BRANCH   3  13
ATOM     13  C   UNL     1     -22.281  -1.033  14.550  1.00  0.00     0.021 A 
ATOM     14  C   UNL     1     -22.180   0.322  14.193  1.00  0.00     0.016 A 
ATOM     15  C   UNL     1     -22.967   0.840  13.159  1.00  0.00     0.047 A 
ATOM     16  C   UNL     1     -23.873   0.012  12.482  1.00  0.00     0.115 A 
ATOM     17  C   UNL     1     -23.205  -1.852  13.882  1.00  0.00     0.016 A 
ATOM     18  C   UNL     1     -23.991  -1.332  12.848  1.00  0.00     0.047 A 
BRANCH  16  19
ATOM     19  O   UNL     1     -24.663   0.516  11.453  1.00  0.00    -0.508 OA
ATOM     20  H   UNL     1     -24.733   0.043  10.559  1.00  0.00     0.293 HD
ENDBRANCH  16  19
ENDBRANCH   3  13
BRANCH  10  21
ATOM     21  O   UNL     1     -18.206  -3.691  18.952  1.00  0.00    -0.507 OA
ATOM     22  H   UNL     1     -17.415  -3.357  19.490  1.00  0.00     0.293 HD
ENDBRANCH  10  21
BRANCH  11  23
ATOM     23  O   UNL     1     -21.938  -2.189  21.614  1.00  0.00    -0.508 OA
ATOM     24  H   UNL     1     -22.545  -1.408  21.833  1.00  0.00     0.293 HD
ENDBRANCH  11  23
ENDBRANCH   1   2
BRANCH   1  25
ATOM     25  C   UNL     1     -19.794  -3.088  13.129  1.00  0.00     0.339 C 
ATOM     26  C   UNL     1     -18.690  -4.157  13.287  1.00  0.00     0.214 C 
ATOM     27  O   UNL     1     -19.787  -2.518  11.828  1.00  0.00    -0.332 OA
ATOM     28  C   UNL     1     -17.312  -3.602  12.889  1.00  0.00     0.180 C 
ATOM     29  C   UNL     1     -18.560  -1.861  11.557  1.00  0.00     0.179 C 
ATOM     30  C   UNL     1     -17.389  -2.869  11.534  1.00  0.00     0.177 C 
BRANCH  26  31
ATOM     31  O   UNL     1     -18.990  -5.271  12.486  1.00  0.00    -0.384 OA
ATOM     32  H   UNL     1     -18.186  -5.453  11.929  1.00  0.00     0.211 HD
ENDBRANCH  26  31
BRANCH  28  33
ATOM     33  O   UNL     1     -16.855  -2.726  13.888  1.00  0.00    -0.387 OA
ATOM     34  H   UNL     1     -17.658  -2.379  14.358  1.00  0.00     0.211 HD
ENDBRANCH  28  33
BRANCH  29  35
ATOM     35  C   UNL     1     -18.678  -1.086  10.234  1.00  0.00     0.191 C 
BRANCH  35  36
ATOM     36  O   UNL     1     -19.283  -1.865   9.235  1.00  0.00    -0.394 OA
ATOM     37  H   UNL     1     -19.846  -2.539   9.697  1.00  0.00     0.210 HD
ENDBRANCH  35  36
ENDBRANCH  29  35
BRANCH  30  38
ATOM     38  O   UNL     1     -17.571  -3.801  10.497  1.00  0.00    -0.387 OA
ATOM     39  H   UNL     1     -18.341  -3.486   9.956  1.00  0.00     0.211 HD
ENDBRANCH  30  38
ENDBRANCH   1  25
TORSDOF 11
ENDMDL
MODEL 4
REMARK VINA RESULT:    -6.386      1.335      2.712
REMARK INTER + INTRA:         -10.721
REMARK INTER:                  -9.226
REMARK INTRA:                  -1.494
REMARK UNBOUND:                -1.534
REMARK SMILES O=c1c(O[C@H]2O[C@H](CO)[C@H](O)[C@@H](O)[C@@H]2O)c(-c2ccc(O)cc2)oc2cc(O)cc(O)c12
REMARK SMILES IDX 4 1 3 2 16 3 24 4 2 5 25 6 1 7 32 8 26 9 30 10 27 11 29 12
REMARK SMILES IDX 17 13 18 14 19 15 20 16 23 17 22 18 21 19 31 21 28 23 5 25
REMARK SMILES IDX 14 26 6 27 12 28 7 29 10 30 15 31 13 33 8 35 9 36 11 38
REMARK H PARENT 21 20 31 22 28 24 15 32 13 34 9 37 11 39
REMARK Flexibility Score: inf
ROOT
ATOM      1  O   UNL     1     -17.536  -2.024  12.432  1.00  0.00    -0.454 OA
ENDROOT
BRANCH   1   2
ATOM      2  C   UNL     1     -17.889  -2.368  13.754  1.00  0.00     0.214 A 
ATOM      3  C   UNL     1     -17.027  -3.222  14.468  1.00  0.00     0.180 A 
ATOM      4  O   UNL     1     -17.358  -3.654  15.680  1.00  0.00    -0.452 OA
ATOM      5  C   UNL     1     -19.074  -1.932  14.393  1.00  0.00     0.239 A 
ATOM      6  C   UNL     1     -18.473  -3.294  16.302  1.00  0.00     0.146 A 
ATOM      7  O   UNL     1     -19.850  -1.126  13.818  1.00  0.00    -0.285 OA
ATOM      8  C   UNL     1     -19.382  -2.404  15.689  1.00  0.00     0.111 A 
ATOM      9  C   UNL     1     -18.732  -3.802  17.578  1.00  0.00     0.094 A 
ATOM     10  C   UNL     1     -20.558  -2.032  16.389  1.00  0.00     0.134 A 
ATOM     11  C   UNL     1     -19.895  -3.434  18.262  1.00  0.00     0.123 A 
ATOM     12  C   UNL     1     -20.800  -2.552  17.669  1.00  0.00     0.093 A 
BRANCH   3  13
ATOM     13  C   UNL     1     -15.740  -3.674  13.900  1.00  0.00     0.021 A 
ATOM     14  C   UNL     1     -15.671  -4.895  13.209  1.00  0.00     0.016 A 
ATOM     15  C   UNL     1     -14.452  -5.347  12.694  1.00  0.00     0.047 A 
ATOM     16  C   UNL     1     -13.287  -4.591  12.878  1.00  0.00     0.115 A 
ATOM     17  C   UNL     1     -14.565  -2.931  14.099  1.00  0.00     0.016 A 
ATOM     18  C   UNL     1     -13.346  -3.385  13.584  1.00  0.00     0.047 A 
BRANCH  16  19
ATOM     19  O   UNL     1     -12.066  -5.031  12.372  1.00  0.00    -0.508 OA
ATOM     20  H   UNL     1     -11.880  -6.015  12.222  1.00  0.00     0.293 HD
ENDBRANCH  16  19
ENDBRANCH   3  13
BRANCH  10  21
ATOM     21  O   UNL     1     -21.486  -1.156  15.823  1.00  0.00    -0.507 OA
ATOM     22  H   UNL     1     -22.327  -0.881  16.315  1.00  0.00     0.293 HD
ENDBRANCH  10  21
BRANCH  11  23
ATOM     23  O   UNL     1     -20.160  -3.938  19.534  1.00  0.00    -0.508 OA
ATOM     24  H   UNL     1     -20.497  -4.884  19.668  1.00  0.00     0.293 HD
ENDBRANCH  11  23
ENDBRANCH   1   2
BRANCH   1  25
ATOM     25  C   UNL     1     -18.001  -2.641  11.225  1.00  0.00     0.339 C 
ATOM     26  C   UNL     1     -16.837  -2.806  10.222  1.00  0.00     0.214 C 
ATOM     27  O   UNL     1     -19.084  -1.919  10.655  1.00  0.00    -0.332 OA
ATOM     28  C   UNL     1     -16.405  -1.451   9.636  1.00  0.00     0.180 C 
ATOM     29  C   UNL     1     -18.693  -0.607  10.284  1.00  0.00     0.179 C 
ATOM     30  C   UNL     1     -17.632  -0.646   9.161  1.00  0.00     0.177 C 
BRANCH  26  31
ATOM     31  O   UNL     1     -17.230  -3.658   9.176  1.00  0.00    -0.384 OA
ATOM     32  H   UNL     1     -18.213  -3.781   9.256  1.00  0.00     0.211 HD
ENDBRANCH  26  31
BRANCH  28  33
ATOM     33  O   UNL     1     -15.699  -0.726  10.610  1.00  0.00    -0.387 OA
ATOM     34  H   UNL     1     -16.358  -0.151  11.079  1.00  0.00     0.211 HD
ENDBRANCH  28  33
BRANCH  29  35
ATOM     35  C   UNL     1     -19.937   0.197   9.872  1.00  0.00     0.191 C 
BRANCH  35  36
ATOM     36  O   UNL     1     -20.819  -0.579   9.103  1.00  0.00    -0.394 OA
ATOM     37  H   UNL     1     -20.372  -1.450   8.944  1.00  0.00     0.210 HD
ENDBRANCH  35  36
ENDBRANCH  29  35
BRANCH  30  38
ATOM     38  O   UNL     1     -18.171  -1.236   8.004  1.00  0.00    -0.387 OA
ATOM     39  H   UNL     1     -19.143  -1.035   8.001  1.00  0.00     0.211 HD
ENDBRANCH  30  38
ENDBRANCH   1  25
TORSDOF 11
ENDMDL
MODEL 5
REMARK VINA RESULT:    -6.270      2.176      5.025
REMARK INTER + INTRA:         -10.553
REMARK INTER:                  -9.153
REMARK INTRA:                  -1.400
REMARK UNBOUND:                -1.534
REMARK SMILES O=c1c(O[C@H]2O[C@H](CO)[C@H](O)[C@@H](O)[C@@H]2O)c(-c2ccc(O)cc2)oc2cc(O)cc(O)c12
REMARK SMILES IDX 4 1 3 2 16 3 24 4 2 5 25 6 1 7 32 8 26 9 30 10 27 11 29 12
REMARK SMILES IDX 17 13 18 14 19 15 20 16 23 17 22 18 21 19 31 21 28 23 5 25
REMARK SMILES IDX 14 26 6 27 12 28 7 29 10 30 15 31 13 33 8 35 9 36 11 38
REMARK H PARENT 21 20 31 22 28 24 15 32 13 34 9 37 11 39
REMARK Flexibility Score: inf
ROOT
ATOM      1  O   UNL     1     -19.841  -2.139  14.391  1.00  0.00    -0.454 OA
ENDROOT
BRANCH   1   2
ATOM      2  C   UNL     1     -20.342  -2.140  15.710  1.00  0.00     0.214 A 
ATOM      3  C   UNL     1     -21.595  -1.541  15.943  1.00  0.00     0.180 A 
ATOM      4  O   UNL     1     -22.069  -1.429  17.178  1.00  0.00    -0.452 OA
ATOM      5  C   UNL     1     -19.645  -2.677  16.818  1.00  0.00     0.239 A 
ATOM      6  C   UNL     1     -21.434  -1.892  18.246  1.00  0.00     0.146 A 
ATOM      7  O   UNL     1     -18.547  -3.270  16.655  1.00  0.00    -0.285 OA
ATOM      8  C   UNL     1     -20.191  -2.550  18.115  1.00  0.00     0.111 A 
ATOM      9  C   UNL     1     -22.017  -1.727  19.506  1.00  0.00     0.094 A 
ATOM     10  C   UNL     1     -19.548  -3.042  19.278  1.00  0.00     0.134 A 
ATOM     11  C   UNL     1     -21.376  -2.212  20.650  1.00  0.00     0.123 A 
ATOM     12  C   UNL     1     -20.149  -2.867  20.533  1.00  0.00     0.093 A 
BRANCH   3  13
ATOM     13  C   UNL     1     -22.417  -1.011  14.835  1.00  0.00     0.021 A 
ATOM     14  C   UNL     1     -23.212  -1.886  14.075  1.00  0.00     0.016 A 
ATOM     15  C   UNL     1     -23.970  -1.401  13.004  1.00  0.00     0.047 A 
ATOM     16  C   UNL     1     -23.929  -0.040  12.673  1.00  0.00     0.115 A 
ATOM     17  C   UNL     1     -22.365   0.348  14.484  1.00  0.00     0.016 A 
ATOM     18  C   UNL     1     -23.123   0.831  13.413  1.00  0.00     0.047 A 
BRANCH  16  19
ATOM     19  O   UNL     1     -24.677   0.455  11.608  1.00  0.00    -0.508 OA
ATOM     20  H   UNL     1     -25.307  -0.139  11.082  1.00  0.00     0.293 HD
ENDBRANCH  16  19
ENDBRANCH   3  13
BRANCH  10  21
ATOM     21  O   UNL     1     -18.318  -3.698  19.197  1.00  0.00    -0.507 OA
ATOM     22  H   UNL     1     -17.770  -3.698  18.345  1.00  0.00     0.293 HD
ENDBRANCH  10  21
BRANCH  11  23
ATOM     23  O   UNL     1     -21.950  -2.048  21.910  1.00  0.00    -0.508 OA
ATOM     24  H   UNL     1     -21.567  -2.505  22.729  1.00  0.00     0.293 HD
ENDBRANCH  11  23
ENDBRANCH   1   2
BRANCH   1  25
ATOM     25  C   UNL     1     -19.004  -1.146  13.785  1.00  0.00     0.339 C 
ATOM     26  C   UNL     1     -19.194  -1.145  12.251  1.00  0.00     0.214 C 
ATOM     27  O   UNL     1     -17.641  -1.326  14.143  1.00  0.00    -0.332 OA
ATOM     28  C   UNL     1     -18.570  -2.396  11.609  1.00  0.00     0.180 C 
ATOM     29  C   UNL     1     -17.145  -2.572  13.683  1.00  0.00     0.179 C 
ATOM     30  C   UNL     1     -17.139  -2.626  12.139  1.00  0.00     0.177 C 
BRANCH  26  31
ATOM     31  O   UNL     1     -18.600   0.003  11.701  1.00  0.00    -0.384 OA
ATOM     32  H   UNL     1     -18.045   0.414  12.416  1.00  0.00     0.211 HD
ENDBRANCH  26  31
BRANCH  28  33
ATOM     33  O   UNL     1     -19.375  -3.513  11.886  1.00  0.00    -0.387 OA
ATOM     34  H   UNL     1     -19.215  -4.172  11.162  1.00  0.00     0.211 HD
ENDBRANCH  28  33
BRANCH  29  35
ATOM     35  C   UNL     1     -15.745  -2.810  14.271  1.00  0.00     0.191 C 
BRANCH  35  36
ATOM     36  O   UNL     1     -15.684  -2.434  15.622  1.00  0.00    -0.394 OA
ATOM     37  H   UNL     1     -16.523  -2.749  16.047  1.00  0.00     0.210 HD
ENDBRANCH  35  36
ENDBRANCH  29  35
BRANCH  30  38
ATOM     38  O   UNL     1     -16.275  -1.646  11.621  1.00  0.00    -0.387 OA
ATOM     39  H   UNL     1     -16.834  -1.013  11.099  1.00  0.00     0.211 HD
ENDBRANCH  30  38
ENDBRANCH   1  25
TORSDOF 11
ENDMDL
MODEL 6
REMARK VINA RESULT:    -6.181      0.941      2.020
REMARK INTER + INTRA:         -10.425
REMARK INTER:                  -9.379
REMARK INTRA:                  -1.046
REMARK UNBOUND:                -1.534
REMARK SMILES O=c1c(O[C@H]2O[C@H](CO)[C@H](O)[C@@H](O)[C@@H]2O)c(-c2ccc(O)cc2)oc2cc(O)cc(O)c12
REMARK SMILES IDX 4 1 3 2 16 3 24 4 2 5 25 6 1 7 32 8 26 9 30 10 27 11 29 12
REMARK SMILES IDX 17 13 18 14 19 15 20 16 23 17 22 18 21 19 31 21 28 23 5 25
REMARK SMILES IDX 14 26 6 27 12 28 7 29 10 30 15 31 13 33 8 35 9 36 11 38
REMARK H PARENT 21 20 31 22 28 24 15 32 13 34 9 37 11 39
REMARK Flexibility Score: inf
ROOT
ATOM      1  O   UNL     1     -18.911  -1.946  13.589  1.00  0.00    -0.454 OA
ENDROOT
BRANCH   1   2
ATOM      2  C   UNL     1     -19.052  -2.268  14.956  1.00  0.00     0.214 A 
ATOM      3  C   UNL     1     -18.015  -2.992  15.575  1.00  0.00     0.180 A 
ATOM      4  O   UNL     1     -18.138  -3.404  16.832  1.00  0.00    -0.452 OA
ATOM      5  C   UNL     1     -20.187  -1.936  15.732  1.00  0.00     0.239 A 
ATOM      6  C   UNL     1     -19.197  -3.139  17.584  1.00  0.00     0.146 A 
ATOM      7  O   UNL     1     -21.116  -1.244  15.241  1.00  0.00    -0.285 OA
ATOM      8  C   UNL     1     -20.272  -2.381  17.070  1.00  0.00     0.111 A 
ATOM      9  C   UNL     1     -19.233  -3.616  18.898  1.00  0.00     0.094 A 
ATOM     10  C   UNL     1     -21.383  -2.108  17.908  1.00  0.00     0.134 A 
ATOM     11  C   UNL     1     -20.332  -3.346  19.718  1.00  0.00     0.123 A 
ATOM     12  C   UNL     1     -21.400  -2.595  19.223  1.00  0.00     0.093 A 
BRANCH   3  13
ATOM     13  C   UNL     1     -16.768  -3.326  14.856  1.00  0.00     0.021 A 
ATOM     14  C   UNL     1     -15.745  -2.369  14.748  1.00  0.00     0.016 A 
ATOM     15  C   UNL     1     -14.573  -2.663  14.044  1.00  0.00     0.047 A 
ATOM     16  C   UNL     1     -14.419  -3.911  13.426  1.00  0.00     0.115 A 
ATOM     17  C   UNL     1     -16.615  -4.568  14.217  1.00  0.00     0.016 A 
ATOM     18  C   UNL     1     -15.443  -4.860  13.512  1.00  0.00     0.047 A 
BRANCH  16  19
ATOM     19  O   UNL     1     -13.258  -4.216  12.719  1.00  0.00    -0.508 OA
ATOM     20  H   UNL     1     -13.121  -3.902  11.766  1.00  0.00     0.293 HD
ENDBRANCH  16  19
ENDBRANCH   3  13
BRANCH  10  21
ATOM     21  O   UNL     1     -22.468  -1.363  17.443  1.00  0.00    -0.507 OA
ATOM     22  H   UNL     1     -23.256  -1.141  18.041  1.00  0.00     0.293 HD
ENDBRANCH  10  21
BRANCH  11  23
ATOM     23  O   UNL     1     -20.375  -3.820  21.028  1.00  0.00    -0.508 OA
ATOM     24  H   UNL     1     -20.814  -4.704  21.257  1.00  0.00     0.293 HD
ENDBRANCH  11  23
ENDBRANCH   1   2
BRANCH   1  25
ATOM     25  C   UNL     1     -18.847  -2.861  12.488  1.00  0.00     0.339 C 
ATOM     26  C   UNL     1     -17.801  -2.387  11.454  1.00  0.00     0.214 C 
ATOM     27  O   UNL     1     -20.123  -3.049  11.893  1.00  0.00    -0.332 OA
ATOM     28  C   UNL     1     -18.291  -1.143  10.692  1.00  0.00     0.180 C 
ATOM     29  C   UNL     1     -20.625  -1.838  11.351  1.00  0.00     0.179 C 
ATOM     30  C   UNL     1     -19.735  -1.345  10.188  1.00  0.00     0.177 C 
BRANCH  26  31
ATOM     31  O   UNL     1     -17.540  -3.418  10.537  1.00  0.00    -0.384 OA
ATOM     32  H   UNL     1     -16.551  -3.501  10.468  1.00  0.00     0.211 HD
ENDBRANCH  26  31
BRANCH  28  33
ATOM     33  O   UNL     1     -18.226  -0.022  11.538  1.00  0.00    -0.387 OA
ATOM     34  H   UNL     1     -18.503   0.763  10.998  1.00  0.00     0.211 HD
ENDBRANCH  28  33
BRANCH  29  35
ATOM     35  C   UNL     1     -22.084  -2.044  10.911  1.00  0.00     0.191 C 
BRANCH  35  36
ATOM     36  O   UNL     1     -22.252  -3.269  10.246  1.00  0.00    -0.394 OA
ATOM     37  H   UNL     1     -22.904  -3.797  10.776  1.00  0.00     0.210 HD
ENDBRANCH  35  36
ENDBRANCH  29  35
BRANCH  30  38
ATOM     38  O   UNL     1     -19.747  -2.279   9.137  1.00  0.00    -0.387 OA
ATOM     39  H   UNL     1     -18.972  -2.070   8.554  1.00  0.00     0.211 HD
ENDBRANCH  30  38
ENDBRANCH   1  25
TORSDOF 11
ENDMDL
MODEL 7
REMARK VINA RESULT:    -6.172      4.127      9.216
REMARK INTER + INTRA:         -10.412
REMARK INTER:                  -8.770
REMARK INTRA:                  -1.642
REMARK UNBOUND:                -1.534
REMARK SMILES O=c1c(O[C@H]2O[C@H](CO)[C@H](O)[C@@H](O)[C@@H]2O)c(-c2ccc(O)cc2)oc2cc(O)cc(O)c12
REMARK SMILES IDX 4 1 3 2 16 3 24 4 2 5 25 6 1 7 32 8 26 9 30 10 27 11 29 12
REMARK SMILES IDX 17 13 18 14 19 15 20 16 23 17 22 18 21 19 31 21 28 23 5 25
REMARK SMILES IDX 14 26 6 27 12 28 7 29 10 30 15 31 13 33 8 35 9 36 11 38
REMARK H PARENT 21 20 31 22 28 24 15 32 13 34 9 37 11 39
REMARK Flexibility Score: inf
ROOT
ATOM      1  O   UNL     1     -12.847  -2.860  12.987  1.00  0.00    -0.454 OA
ENDROOT
BRANCH   1   2
ATOM      2  C   UNL     1     -12.406  -3.798  12.030  1.00  0.00     0.214 A 
ATOM      3  C   UNL     1     -13.379  -4.507  11.300  1.00  0.00     0.180 A 
ATOM      4  O   UNL     1     -13.020  -5.468  10.456  1.00  0.00    -0.452 OA
ATOM      5  C   UNL     1     -11.043  -4.092  11.784  1.00  0.00     0.239 A 
ATOM      6  C   UNL     1     -11.757  -5.795  10.219  1.00  0.00     0.146 A 
ATOM      7  O   UNL     1     -10.136  -3.449  12.371  1.00  0.00    -0.285 OA
ATOM      8  C   UNL     1     -10.704  -5.112  10.867  1.00  0.00     0.111 A 
ATOM      9  C   UNL     1     -11.481  -6.821   9.311  1.00  0.00     0.094 A 
ATOM     10  C   UNL     1      -9.366  -5.481  10.580  1.00  0.00     0.134 A 
ATOM     11  C   UNL     1     -10.160  -7.183   9.034  1.00  0.00     0.123 A 
ATOM     12  C   UNL     1      -9.110  -6.514   9.665  1.00  0.00     0.093 A 
BRANCH   3  13
ATOM     13  C   UNL     1     -14.821  -4.219  11.450  1.00  0.00     0.021 A 
ATOM     14  C   UNL     1     -15.528  -4.742  12.545  1.00  0.00     0.016 A 
ATOM     15  C   UNL     1     -16.899  -4.501  12.681  1.00  0.00     0.047 A 
ATOM     16  C   UNL     1     -17.580  -3.750  11.714  1.00  0.00     0.115 A 
ATOM     17  C   UNL     1     -15.513  -3.484  10.474  1.00  0.00     0.016 A 
ATOM     18  C   UNL     1     -16.884  -3.245  10.610  1.00  0.00     0.047 A 
BRANCH  16  19
ATOM     19  O   UNL     1     -18.945  -3.505  11.836  1.00  0.00    -0.508 OA
ATOM     20  H   UNL     1     -19.611  -3.882  11.172  1.00  0.00     0.293 HD
ENDBRANCH  16  19
ENDBRANCH   3  13
BRANCH  10  21
ATOM     21  O   UNL     1      -8.293  -4.835  11.196  1.00  0.00    -0.507 OA
ATOM     22  H   UNL     1      -7.627  -4.286  10.667  1.00  0.00     0.293 HD
ENDBRANCH  10  21
BRANCH  11  23
ATOM     23  O   UNL     1      -9.877  -8.207   8.132  1.00  0.00    -0.508 OA
ATOM     24  H   UNL     1      -9.984  -9.182   8.386  1.00  0.00     0.293 HD
ENDBRANCH  11  23
ENDBRANCH   1   2
BRANCH   1  25
ATOM     25  C   UNL     1     -12.889  -1.435  12.845  1.00  0.00     0.339 C 
ATOM     26  C   UNL     1     -12.129  -0.755  14.006  1.00  0.00     0.214 C 
ATOM     27  O   UNL     1     -14.226  -0.961  12.747  1.00  0.00    -0.332 OA
ATOM     28  C   UNL     1     -12.901  -0.878  15.330  1.00  0.00     0.180 C 
ATOM     29  C   UNL     1     -14.964  -1.247  13.925  1.00  0.00     0.179 C 
ATOM     30  C   UNL     1     -14.381  -0.486  15.137  1.00  0.00     0.177 C 
BRANCH  26  31
ATOM     31  O   UNL     1     -11.929   0.604  13.710  1.00  0.00    -0.384 OA
ATOM     32  H   UNL     1     -10.980   0.810  13.921  1.00  0.00     0.211 HD
ENDBRANCH  26  31
BRANCH  28  33
ATOM     33  O   UNL     1     -12.807  -2.197  15.805  1.00  0.00    -0.387 OA
ATOM     34  H   UNL     1     -12.151  -2.666  15.227  1.00  0.00     0.211 HD
ENDBRANCH  28  33
BRANCH  29  35
ATOM     35  C   UNL     1     -16.445  -0.908  13.691  1.00  0.00     0.191 C 
BRANCH  35  36
ATOM     36  O   UNL     1     -17.092  -0.576  14.891  1.00  0.00    -0.394 OA
ATOM     37  H   UNL     1     -18.038  -0.857  14.796  1.00  0.00     0.210 HD
ENDBRANCH  35  36
ENDBRANCH  29  35
BRANCH  30  38
ATOM     38  O   UNL     1     -14.486   0.901  14.937  1.00  0.00    -0.387 OA
ATOM     39  H   UNL     1     -14.124   1.092  14.033  1.00  0.00     0.211 HD
ENDBRANCH  30  38
ENDBRANCH   1  25
TORSDOF 11
ENDMDL
MODEL 8
REMARK VINA RESULT:    -6.070      4.600      5.325
REMARK INTER + INTRA:         -10.266
REMARK INTER:                  -8.786
REMARK INTRA:                  -1.479
REMARK UNBOUND:                -1.534
REMARK SMILES O=c1c(O[C@H]2O[C@H](CO)[C@H](O)[C@@H](O)[C@@H]2O)c(-c2ccc(O)cc2)oc2cc(O)cc(O)c12
REMARK SMILES IDX 4 1 3 2 16 3 24 4 2 5 25 6 1 7 32 8 26 9 30 10 27 11 29 12
REMARK SMILES IDX 17 13 18 14 19 15 20 16 23 17 22 18 21 19 31 21 28 23 5 25
REMARK SMILES IDX 14 26 6 27 12 28 7 29 10 30 15 31 13 33 8 35 9 36 11 38
REMARK H PARENT 21 20 31 22 28 24 15 32 13 34 9 37 11 39
REMARK Flexibility Score: inf
ROOT
ATOM      1  O   UNL     1     -15.472  -1.446  12.023  1.00  0.00    -0.454 OA
ENDROOT
BRANCH   1   2
ATOM      2  C   UNL     1     -14.760  -1.136  13.201  1.00  0.00     0.214 A 
ATOM      3  C   UNL     1     -13.835  -2.081  13.684  1.00  0.00     0.180 A 
ATOM      4  O   UNL     1     -13.210  -1.881  14.839  1.00  0.00    -0.452 OA
ATOM      5  C   UNL     1     -14.945   0.055  13.943  1.00  0.00     0.239 A 
ATOM      6  C   UNL     1     -13.377  -0.794  15.580  1.00  0.00     0.146 A 
ATOM      7  O   UNL     1     -15.720   0.954  13.526  1.00  0.00    -0.285 OA
ATOM      8  C   UNL     1     -14.249   0.234  15.159  1.00  0.00     0.111 A 
ATOM      9  C   UNL     1     -12.671  -0.676  16.780  1.00  0.00     0.094 A 
ATOM     10  C   UNL     1     -14.394   1.387  15.972  1.00  0.00     0.134 A 
ATOM     11  C   UNL     1     -12.820   0.462  17.579  1.00  0.00     0.123 A 
ATOM     12  C   UNL     1     -13.677   1.487  17.173  1.00  0.00     0.093 A 
BRANCH   3  13
ATOM     13  C   UNL     1     -13.535  -3.321  12.939  1.00  0.00     0.021 A 
ATOM     14  C   UNL     1     -14.317  -4.469  13.150  1.00  0.00     0.016 A 
ATOM     15  C   UNL     1     -14.024  -5.658  12.473  1.00  0.00     0.047 A 
ATOM     16  C   UNL     1     -12.936  -5.714  11.592  1.00  0.00     0.115 A 
ATOM     17  C   UNL     1     -12.434  -3.391  12.070  1.00  0.00     0.016 A 
ATOM     18  C   UNL     1     -12.142  -4.580  11.395  1.00  0.00     0.047 A 
BRANCH  16  19
ATOM     19  O   UNL     1     -12.631  -6.892  10.914  1.00  0.00    -0.508 OA
ATOM     20  H   UNL     1     -13.262  -7.285  10.226  1.00  0.00     0.293 HD
ENDBRANCH  16  19
ENDBRANCH   3  13
BRANCH  10  21
ATOM     21  O   UNL     1     -15.244   2.429  15.597  1.00  0.00    -0.507 OA
ATOM     22  H   UNL     1     -16.164   2.253  15.212  1.00  0.00     0.293 HD
ENDBRANCH  10  21
BRANCH  11  23
ATOM     23  O   UNL     1     -12.122   0.585  18.778  1.00  0.00    -0.508 OA
ATOM     24  H   UNL     1     -11.920  -0.221  19.359  1.00  0.00     0.293 HD
ENDBRANCH  11  23
ENDBRANCH   1   2
BRANCH   1  25
ATOM     25  C   UNL     1     -16.877  -1.698  11.903  1.00  0.00     0.339 C 
ATOM     26  C   UNL     1     -17.128  -3.165  11.487  1.00  0.00     0.214 C 
ATOM     27  O   UNL     1     -17.494  -0.787  11.004  1.00  0.00    -0.332 OA
ATOM     28  C   UNL     1     -16.725  -3.409  10.023  1.00  0.00     0.180 C 
ATOM     29  C   UNL     1     -16.972  -0.920   9.692  1.00  0.00     0.179 C 
ATOM     30  C   UNL     1     -17.304  -2.312   9.106  1.00  0.00     0.177 C 
BRANCH  26  31
ATOM     31  O   UNL     1     -18.488  -3.478  11.651  1.00  0.00    -0.384 OA
ATOM     32  H   UNL     1     -18.549  -4.466  11.740  1.00  0.00     0.211 HD
ENDBRANCH  26  31
BRANCH  28  33
ATOM     33  O   UNL     1     -15.323  -3.434   9.923  1.00  0.00    -0.387 OA
ATOM     34  H   UNL     1     -14.972  -3.631  10.830  1.00  0.00     0.211 HD
ENDBRANCH  28  33
BRANCH  29  35
ATOM     35  C   UNL     1     -17.512   0.218   8.811  1.00  0.00     0.191 C 
BRANCH  35  36
ATOM     36  O   UNL     1     -18.002  -0.267   7.588  1.00  0.00    -0.394 OA
ATOM     37  H   UNL     1     -17.267  -0.785   7.169  1.00  0.00     0.210 HD
ENDBRANCH  35  36
ENDBRANCH  29  35
BRANCH  30  38
ATOM     38  O   UNL     1     -18.696  -2.471   8.991  1.00  0.00    -0.387 OA
ATOM     39  H   UNL     1     -18.947  -2.179   8.077  1.00  0.00     0.211 HD
ENDBRANCH  30  38
ENDBRANCH   1  25
TORSDOF 11
ENDMDL
MODEL 9
REMARK VINA RESULT:    -5.835      4.777      6.208
REMARK INTER + INTRA:          -9.928
REMARK INTER:                  -8.255
REMARK INTRA:                  -1.673
REMARK UNBOUND:                -1.534
REMARK SMILES O=c1c(O[C@H]2O[C@H](CO)[C@H](O)[C@@H](O)[C@@H]2O)c(-c2ccc(O)cc2)oc2cc(O)cc(O)c12
REMARK SMILES IDX 4 1 3 2 16 3 24 4 2 5 25 6 1 7 32 8 26 9 30 10 27 11 29 12
REMARK SMILES IDX 17 13 18 14 19 15 20 16 23 17 22 18 21 19 31 21 28 23 5 25
REMARK SMILES IDX 14 26 6 27 12 28 7 29 10 30 15 31 13 33 8 35 9 36 11 38
REMARK H PARENT 21 20 31 22 28 24 15 32 13 34 9 37 11 39
REMARK Flexibility Score: inf
ROOT
ATOM      1  O   UNL     1     -15.104   0.950  14.665  1.00  0.00    -0.454 OA
ENDROOT
BRANCH   1   2
ATOM      2  C   UNL     1     -14.130   0.731  15.661  1.00  0.00     0.214 A 
ATOM      3  C   UNL     1     -13.645  -0.580  15.837  1.00  0.00     0.180 A 
ATOM      4  O   UNL     1     -12.799  -0.858  16.821  1.00  0.00    -0.452 OA
ATOM      5  C   UNL     1     -13.634   1.744  16.516  1.00  0.00     0.239 A 
ATOM      6  C   UNL     1     -12.334   0.055  17.663  1.00  0.00     0.146 A 
ATOM      7  O   UNL     1     -13.995   2.940  16.365  1.00  0.00    -0.285 OA
ATOM      8  C   UNL     1     -12.724   1.407  17.542  1.00  0.00     0.111 A 
ATOM      9  C   UNL     1     -11.445  -0.338  18.667  1.00  0.00     0.094 A 
ATOM     10  C   UNL     1     -12.197   2.358  18.452  1.00  0.00     0.134 A 
ATOM     11  C   UNL     1     -10.931   0.604  19.564  1.00  0.00     0.123 A 
ATOM     12  C   UNL     1     -11.306   1.944  19.454  1.00  0.00     0.093 A 
BRANCH   3  13
ATOM     13  C   UNL     1     -14.062  -1.684  14.948  1.00  0.00     0.021 A 
ATOM     14  C   UNL     1     -15.283  -2.340  15.174  1.00  0.00     0.016 A 
ATOM     15  C   UNL     1     -15.674  -3.407  14.358  1.00  0.00     0.047 A 
ATOM     16  C   UNL     1     -14.839  -3.839  13.319  1.00  0.00     0.115 A 
ATOM     17  C   UNL     1     -13.222  -2.135  13.917  1.00  0.00     0.016 A 
ATOM     18  C   UNL     1     -13.613  -3.203  13.102  1.00  0.00     0.047 A 
BRANCH  16  19
ATOM     19  O   UNL     1     -15.215  -4.902  12.501  1.00  0.00    -0.508 OA
ATOM     20  H   UNL     1     -14.802  -5.821  12.604  1.00  0.00     0.293 HD
ENDBRANCH  16  19
ENDBRANCH   3  13
BRANCH  10  21
ATOM     21  O   UNL     1     -12.554   3.705  18.372  1.00  0.00    -0.507 OA
ATOM     22  H   UNL     1     -11.899   4.412  18.058  1.00  0.00     0.293 HD
ENDBRANCH  10  21
BRANCH  11  23
ATOM     23  O   UNL     1     -10.046   0.219  20.569  1.00  0.00    -0.508 OA
ATOM     24  H   UNL     1      -9.263  -0.395  20.379  1.00  0.00     0.293 HD
ENDBRANCH  11  23
ENDBRANCH   1   2
BRANCH   1  25
ATOM     25  C   UNL     1     -14.899   1.517  13.365  1.00  0.00     0.339 C 
ATOM     26  C   UNL     1     -15.860   2.706  13.138  1.00  0.00     0.214 C 
ATOM     27  O   UNL     1     -15.029   0.537  12.343  1.00  0.00    -0.332 OA
ATOM     28  C   UNL     1     -17.310   2.227  12.954  1.00  0.00     0.180 C 
ATOM     29  C   UNL     1     -16.337  -0.011  12.315  1.00  0.00     0.179 C 
ATOM     30  C   UNL     1     -17.378   1.067  11.939  1.00  0.00     0.177 C 
BRANCH  26  31
ATOM     31  O   UNL     1     -15.462   3.426  11.999  1.00  0.00    -0.384 OA
ATOM     32  H   UNL     1     -14.777   2.877  11.533  1.00  0.00     0.211 HD
ENDBRANCH  26  31
BRANCH  28  33
ATOM     33  O   UNL     1     -17.826   1.816  14.195  1.00  0.00    -0.387 OA
ATOM     34  H   UNL     1     -18.192   2.625  14.639  1.00  0.00     0.211 HD
ENDBRANCH  28  33
BRANCH  29  35
ATOM     35  C   UNL     1     -16.368  -1.203  11.345  1.00  0.00     0.191 C 
BRANCH  35  36
ATOM     36  O   UNL     1     -15.689  -0.912  10.152  1.00  0.00    -0.394 OA
ATOM     37  H   UNL     1     -15.230  -1.745   9.871  1.00  0.00     0.210 HD
ENDBRANCH  35  36
ENDBRANCH  29  35
BRANCH  30  38
ATOM     38  O   UNL     1     -17.129   1.552  10.643  1.00  0.00    -0.387 OA
ATOM     39  H   UNL     1     -17.995   1.537  10.157  1.00  0.00     0.211 HD
ENDBRANCH  30  38
ENDBRANCH   1  25
TORSDOF 11
ENDMDL
