MODEL 1
REMARK VINA RESULT:    -7.569      0.000      0.000
REMARK INTER + INTRA:         -13.309
REMARK INTER:                 -11.552
REMARK INTRA:                  -1.757
REMARK UNBOUND:                -1.757
REMARK SMILES CC(=O)CCC=C(C)CCC=C(C)CCC=C(C)C
REMARK SMILES IDX 10 1 11 2 12 3 13 4 14 5 15 6 16 7 18 8 17 9 19 10 9 11 7 12
REMARK SMILES IDX 6 13 8 14 5 15 4 16 2 17 3 18 1 19
REMARK H PARENT
REMARK Flexibility Score: inf
ROOT
ATOM      1  C   UNL     1      16.218  24.600   6.296  1.00  0.00     0.032 C 
ENDROOT
BRANCH   1   2
ATOM      2  C   UNL     1      16.379  25.357   4.999  1.00  0.00    -0.028 C 
ATOM      3  C   UNL     1      17.553  25.557   4.360  1.00  0.00    -0.077 C 
ATOM      4  C   UNL     1      17.546  26.365   3.088  1.00  0.00     0.039 C 
BRANCH   3   5
ATOM      5  C   UNL     1      18.861  24.948   4.823  1.00  0.00     0.034 C 
BRANCH   5   6
ATOM      6  C   UNL     1      19.860  26.045   5.206  1.00  0.00     0.032 C 
BRANCH   6   7
ATOM      7  C   UNL     1      20.985  26.120   4.203  1.00  0.00    -0.028 C 
ATOM      8  C   UNL     1      20.311  28.386   3.377  1.00  0.00     0.039 C 
ATOM      9  C   UNL     1      21.218  27.181   3.398  1.00  0.00    -0.080 C 
ATOM     10  C   UNL     1      22.391  27.161   2.453  1.00  0.00     0.039 C 
ENDBRANCH   6   7
ENDBRANCH   5   6
ENDBRANCH   3   5
ENDBRANCH   1   2
BRANCH   1  11
ATOM     11  C   UNL     1      15.948  25.544   7.476  1.00  0.00     0.034 C 
BRANCH  11  12
ATOM     12  C   UNL     1      17.232  26.095   8.063  1.00  0.00    -0.077 C 
ATOM     13  C   UNL     1      17.886  25.376   9.003  1.00  0.00    -0.028 C 
ATOM     14  C   UNL     1      17.730  27.444   7.599  1.00  0.00     0.039 C 
BRANCH  13  15
ATOM     15  C   UNL     1      19.186  25.793   9.649  1.00  0.00     0.035 C 
BRANCH  15  16
ATOM     16  C   UNL     1      19.014  26.114  11.140  1.00  0.00     0.079 C 
BRANCH  16  17
ATOM     17  C   UNL     1      19.080  27.595  11.406  1.00  0.00     0.130 C 
ATOM     18  O   UNL     1      20.156  28.125  11.637  1.00  0.00    -0.300 OA
ATOM     19  C   UNL     1      17.837  28.431  11.354  1.00  0.00     0.087 C 
ENDBRANCH  16  17
ENDBRANCH  15  16
ENDBRANCH  13  15
ENDBRANCH  11  12
ENDBRANCH   1  11
TORSDOF 9
ENDMDL
MODEL 2
REMARK VINA RESULT:    -7.262      1.397      1.987
REMARK INTER + INTRA:         -12.840
REMARK INTER:                 -11.641
REMARK INTRA:                  -1.200
REMARK UNBOUND:                -1.757
REMARK SMILES CC(=O)CCC=C(C)CCC=C(C)CCC=C(C)C
REMARK SMILES IDX 10 1 11 2 12 3 13 4 14 5 15 6 16 7 18 8 17 9 19 10 9 11 7 12
REMARK SMILES IDX 6 13 8 14 5 15 4 16 2 17 3 18 1 19
REMARK H PARENT
REMARK Flexibility Score: inf
ROOT
ATOM      1  C   UNL     1      16.675  25.378   7.925  1.00  0.00     0.032 C 
ENDROOT
BRANCH   1   2
ATOM      2  C   UNL     1      16.336  25.518   6.460  1.00  0.00    -0.028 C 
ATOM      3  C   UNL     1      17.242  25.582   5.458  1.00  0.00    -0.077 C 
ATOM      4  C   UNL     1      16.737  25.753   4.049  1.00  0.00     0.039 C 
BRANCH   3   5
ATOM      5  C   UNL     1      18.732  25.417   5.678  1.00  0.00     0.034 C 
BRANCH   5   6
ATOM      6  C   UNL     1      19.468  26.726   5.375  1.00  0.00     0.032 C 
BRANCH   6   7
ATOM      7  C   UNL     1      20.655  26.478   4.478  1.00  0.00    -0.028 C 
ATOM      8  C   UNL     1      20.155  28.440   3.004  1.00  0.00     0.039 C 
ATOM      9  C   UNL     1      20.994  27.261   3.429  1.00  0.00    -0.080 C 
ATOM     10  C   UNL     1      22.221  26.936   2.617  1.00  0.00     0.039 C 
ENDBRANCH   6   7
ENDBRANCH   5   6
ENDBRANCH   3   5
ENDBRANCH   1   2
BRANCH   1  11
ATOM     11  C   UNL     1      17.039  26.730   8.555  1.00  0.00     0.034 C 
BRANCH  11  12
ATOM     12  C   UNL     1      18.174  26.602   9.550  1.00  0.00    -0.077 C 
ATOM     13  C   UNL     1      18.258  27.488  10.569  1.00  0.00    -0.028 C 
ATOM     14  C   UNL     1      19.195  25.504   9.361  1.00  0.00     0.039 C 
BRANCH  13  15
ATOM     15  C   UNL     1      19.318  27.459  11.644  1.00  0.00     0.035 C 
BRANCH  15  16
ATOM     16  C   UNL     1      18.748  27.796  13.028  1.00  0.00     0.079 C 
BRANCH  16  17
ATOM     17  C   UNL     1      17.894  29.036  12.997  1.00  0.00     0.130 C 
ATOM     18  O   UNL     1      16.682  28.944  13.125  1.00  0.00    -0.300 OA
ATOM     19  C   UNL     1      18.523  30.388  12.845  1.00  0.00     0.087 C 
ENDBRANCH  16  17
ENDBRANCH  15  16
ENDBRANCH  13  15
ENDBRANCH  11  12
ENDBRANCH   1  11
TORSDOF 9
ENDMDL
MODEL 3
REMARK VINA RESULT:    -6.958      1.470      2.626
REMARK INTER + INTRA:         -12.377
REMARK INTER:                 -11.328
REMARK INTRA:                  -1.048
REMARK UNBOUND:                -1.757
REMARK SMILES CC(=O)CCC=C(C)CCC=C(C)CCC=C(C)C
REMARK SMILES IDX 10 1 11 2 12 3 13 4 14 5 15 6 16 7 18 8 17 9 19 10 9 11 7 12
REMARK SMILES IDX 6 13 8 14 5 15 4 16 2 17 3 18 1 19
REMARK H PARENT
REMARK Flexibility Score: inf
ROOT
ATOM      1  C   UNL     1      17.554  26.836   7.697  1.00  0.00     0.032 C 
ENDROOT
BRANCH   1   2
ATOM      2  C   UNL     1      16.380  26.589   6.780  1.00  0.00    -0.028 C 
ATOM      3  C   UNL     1      16.424  25.856   5.645  1.00  0.00    -0.077 C 
ATOM      4  C   UNL     1      15.167  25.733   4.824  1.00  0.00     0.039 C 
BRANCH   3   5
ATOM      5  C   UNL     1      17.656  25.094   5.200  1.00  0.00     0.034 C 
BRANCH   5   6
ATOM      6  C   UNL     1      17.970  25.391   3.730  1.00  0.00     0.032 C 
BRANCH   6   7
ATOM      7  C   UNL     1      18.615  26.747   3.582  1.00  0.00    -0.028 C 
ATOM      8  C   UNL     1      20.943  25.830   3.691  1.00  0.00     0.039 C 
ATOM      9  C   UNL     1      19.950  26.954   3.530  1.00  0.00    -0.080 C 
ATOM     10  C   UNL     1      20.485  28.351   3.351  1.00  0.00     0.039 C 
ENDBRANCH   6   7
ENDBRANCH   5   6
ENDBRANCH   3   5
ENDBRANCH   1   2
BRANCH   1  11
ATOM     11  C   UNL     1      17.508  25.930   8.936  1.00  0.00     0.034 C 
BRANCH  11  12
ATOM     12  C   UNL     1      18.614  26.259   9.917  1.00  0.00    -0.077 C 
ATOM     13  C   UNL     1      18.517  27.383  10.663  1.00  0.00    -0.028 C 
ATOM     14  C   UNL     1      19.807  25.337  10.015  1.00  0.00     0.039 C 
BRANCH  13  15
ATOM     15  C   UNL     1      19.530  27.816  11.697  1.00  0.00     0.035 C 
BRANCH  15  16
ATOM     16  C   UNL     1      18.878  28.129  13.051  1.00  0.00     0.079 C 
BRANCH  16  17
ATOM     17  C   UNL     1      17.896  29.267  12.951  1.00  0.00     0.130 C 
ATOM     18  O   UNL     1      16.698  29.048  13.053  1.00  0.00    -0.300 OA
ATOM     19  C   UNL     1      18.380  30.673  12.764  1.00  0.00     0.087 C 
ENDBRANCH  16  17
ENDBRANCH  15  16
ENDBRANCH  13  15
ENDBRANCH  11  12
ENDBRANCH   1  11
TORSDOF 9
ENDMDL
MODEL 4
REMARK VINA RESULT:    -6.943      2.287      7.064
REMARK INTER + INTRA:         -12.353
REMARK INTER:                 -11.383
REMARK INTRA:                  -0.970
REMARK UNBOUND:                -1.757
REMARK SMILES CC(=O)CCC=C(C)CCC=C(C)CCC=C(C)C
REMARK SMILES IDX 10 1 11 2 12 3 13 4 14 5 15 6 16 7 18 8 17 9 19 10 9 11 7 12
REMARK SMILES IDX 6 13 8 14 5 15 4 16 2 17 3 18 1 19
REMARK H PARENT
REMARK Flexibility Score: inf
ROOT
ATOM      1  C   UNL     1      16.586  26.032   7.538  1.00  0.00     0.032 C 
ENDROOT
BRANCH   1   2
ATOM      2  C   UNL     1      17.851  25.500   8.171  1.00  0.00    -0.028 C 
ATOM      3  C   UNL     1      18.473  26.049   9.238  1.00  0.00    -0.077 C 
ATOM      4  C   UNL     1      19.747  25.412   9.728  1.00  0.00     0.039 C 
BRANCH   3   5
ATOM      5  C   UNL     1      17.912  27.229  10.006  1.00  0.00     0.034 C 
BRANCH   5   6
ATOM      6  C   UNL     1      18.406  27.211  11.456  1.00  0.00     0.032 C 
BRANCH   6   7
ATOM      7  C   UNL     1      18.801  28.596  11.905  1.00  0.00    -0.028 C 
ATOM      8  C   UNL     1      16.539  29.109  12.851  1.00  0.00     0.039 C 
ATOM      9  C   UNL     1      17.981  29.447  12.563  1.00  0.00    -0.080 C 
ATOM     10  C   UNL     1      18.490  30.798  12.991  1.00  0.00     0.039 C 
ENDBRANCH   6   7
ENDBRANCH   5   6
ENDBRANCH   3   5
ENDBRANCH   1   2
BRANCH   1  11
ATOM     11  C   UNL     1      16.228  25.266   6.256  1.00  0.00     0.034 C 
BRANCH  11  12
ATOM     12  C   UNL     1      17.332  25.348   5.222  1.00  0.00    -0.077 C 
ATOM     13  C   UNL     1      17.525  26.510   4.557  1.00  0.00    -0.028 C 
ATOM     14  C   UNL     1      18.168  24.121   4.944  1.00  0.00     0.039 C 
BRANCH  13  15
ATOM     15  C   UNL     1      18.603  26.737   3.524  1.00  0.00     0.035 C 
BRANCH  15  16
ATOM     16  C   UNL     1      19.903  27.261   4.150  1.00  0.00     0.079 C 
BRANCH  16  17
ATOM     17  C   UNL     1      21.112  26.534   3.623  1.00  0.00     0.130 C 
ATOM     18  O   UNL     1      21.292  25.361   3.915  1.00  0.00    -0.300 OA
ATOM     19  C   UNL     1      22.078  27.229   2.713  1.00  0.00     0.087 C 
ENDBRANCH  16  17
ENDBRANCH  15  16
ENDBRANCH  13  15
ENDBRANCH  11  12
ENDBRANCH   1  11
TORSDOF 9
ENDMDL
MODEL 5
REMARK VINA RESULT:    -6.932      1.308      2.221
REMARK INTER + INTRA:         -12.337
REMARK INTER:                 -11.103
REMARK INTRA:                  -1.234
REMARK UNBOUND:                -1.757
REMARK SMILES CC(=O)CCC=C(C)CCC=C(C)CCC=C(C)C
REMARK SMILES IDX 10 1 11 2 12 3 13 4 14 5 15 6 16 7 18 8 17 9 19 10 9 11 7 12
REMARK SMILES IDX 6 13 8 14 5 15 4 16 2 17 3 18 1 19
REMARK H PARENT
REMARK Flexibility Score: inf
ROOT
ATOM      1  C   UNL     1      16.566  26.180   4.358  1.00  0.00     0.032 C 
ENDROOT
BRANCH   1   2
ATOM      2  C   UNL     1      17.449  24.969   4.169  1.00  0.00    -0.028 C 
ATOM      3  C   UNL     1      18.594  24.732   4.846  1.00  0.00    -0.077 C 
ATOM      4  C   UNL     1      19.377  23.488   4.513  1.00  0.00     0.039 C 
BRANCH   3   5
ATOM      5  C   UNL     1      19.090  25.619   5.969  1.00  0.00     0.034 C 
BRANCH   5   6
ATOM      6  C   UNL     1      19.612  26.949   5.415  1.00  0.00     0.032 C 
BRANCH   6   7
ATOM      7  C   UNL     1      20.798  26.724   4.510  1.00  0.00    -0.028 C 
ATOM      8  C   UNL     1      20.059  28.443   2.846  1.00  0.00     0.039 C 
ATOM      9  C   UNL     1      21.028  27.412   3.369  1.00  0.00    -0.080 C 
ATOM     10  C   UNL     1      22.264  27.125   2.557  1.00  0.00     0.039 C 
ENDBRANCH   6   7
ENDBRANCH   5   6
ENDBRANCH   3   5
ENDBRANCH   1   2
BRANCH   1  11
ATOM     11  C   UNL     1      15.312  25.846   5.180  1.00  0.00     0.034 C 
BRANCH  11  12
ATOM     12  C   UNL     1      15.660  25.415   6.590  1.00  0.00    -0.077 C 
ATOM     13  C   UNL     1      16.369  26.256   7.377  1.00  0.00    -0.028 C 
ATOM     14  C   UNL     1      15.228  24.048   7.067  1.00  0.00     0.039 C 
BRANCH  13  15
ATOM     15  C   UNL     1      16.759  25.966   8.808  1.00  0.00     0.035 C 
BRANCH  15  16
ATOM     16  C   UNL     1      17.910  26.861   9.287  1.00  0.00     0.079 C 
BRANCH  16  17
ATOM     17  C   UNL     1      18.815  26.143  10.253  1.00  0.00     0.130 C 
ATOM     18  O   UNL     1      19.696  25.409   9.832  1.00  0.00    -0.300 OA
ATOM     19  C   UNL     1      18.667  26.352  11.730  1.00  0.00     0.087 C 
ENDBRANCH  16  17
ENDBRANCH  15  16
ENDBRANCH  13  15
ENDBRANCH  11  12
ENDBRANCH   1  11
TORSDOF 9
ENDMDL
MODEL 6
REMARK VINA RESULT:    -6.843      2.419      6.092
REMARK INTER + INTRA:         -12.201
REMARK INTER:                 -11.395
REMARK INTRA:                  -0.806
REMARK UNBOUND:                -1.757
REMARK SMILES CC(=O)CCC=C(C)CCC=C(C)CCC=C(C)C
REMARK SMILES IDX 10 1 11 2 12 3 13 4 14 5 15 6 16 7 18 8 17 9 19 10 9 11 7 12
REMARK SMILES IDX 6 13 8 14 5 15 4 16 2 17 3 18 1 19
REMARK H PARENT
REMARK Flexibility Score: inf
ROOT
ATOM      1  C   UNL     1      15.596  26.147   4.821  1.00  0.00     0.032 C 
ENDROOT
BRANCH   1   2
ATOM      2  C   UNL     1      15.275  25.012   5.764  1.00  0.00    -0.028 C 
ATOM      3  C   UNL     1      15.602  24.977   7.075  1.00  0.00    -0.077 C 
ATOM      4  C   UNL     1      15.234  23.752   7.871  1.00  0.00     0.039 C 
BRANCH   3   5
ATOM      5  C   UNL     1      16.255  26.139   7.795  1.00  0.00     0.034 C 
BRANCH   5   6
ATOM      6  C   UNL     1      17.668  25.763   8.254  1.00  0.00     0.032 C 
BRANCH   6   7
ATOM      7  C   UNL     1      18.114  26.644   9.394  1.00  0.00    -0.028 C 
ATOM      8  C   UNL     1      19.948  25.087  10.091  1.00  0.00     0.039 C 
ATOM      9  C   UNL     1      19.158  26.368  10.207  1.00  0.00    -0.080 C 
ATOM     10  C   UNL     1      19.535  27.335  11.298  1.00  0.00     0.039 C 
ENDBRANCH   6   7
ENDBRANCH   5   6
ENDBRANCH   3   5
ENDBRANCH   1   2
BRANCH   1  11
ATOM     11  C   UNL     1      16.638  25.736   3.771  1.00  0.00     0.034 C 
BRANCH  11  12
ATOM     12  C   UNL     1      17.998  25.487   4.392  1.00  0.00    -0.077 C 
ATOM     13  C   UNL     1      18.870  26.516   4.497  1.00  0.00    -0.028 C 
ATOM     14  C   UNL     1      18.350  24.092   4.852  1.00  0.00     0.039 C 
BRANCH  13  15
ATOM     15  C   UNL     1      20.243  26.415   5.118  1.00  0.00     0.035 C 
BRANCH  15  16
ATOM     16  C   UNL     1      21.328  26.108   4.077  1.00  0.00     0.079 C 
BRANCH  16  17
ATOM     17  C   UNL     1      21.513  27.246   3.107  1.00  0.00     0.130 C 
ATOM     18  O   UNL     1      22.435  27.220   2.306  1.00  0.00    -0.300 OA
ATOM     19  C   UNL     1      20.550  28.395   3.092  1.00  0.00     0.087 C 
ENDBRANCH  16  17
ENDBRANCH  15  16
ENDBRANCH  13  15
ENDBRANCH  11  12
ENDBRANCH   1  11
TORSDOF 9
ENDMDL
MODEL 7
REMARK VINA RESULT:    -6.839      1.634      3.376
REMARK INTER + INTRA:         -12.195
REMARK INTER:                 -10.398
REMARK INTRA:                  -1.797
REMARK UNBOUND:                -1.757
REMARK SMILES CC(=O)CCC=C(C)CCC=C(C)CCC=C(C)C
REMARK SMILES IDX 10 1 11 2 12 3 13 4 14 5 15 6 16 7 18 8 17 9 19 10 9 11 7 12
REMARK SMILES IDX 6 13 8 14 5 15 4 16 2 17 3 18 1 19
REMARK H PARENT
REMARK Flexibility Score: inf
ROOT
ATOM      1  C   UNL     1      16.944  26.759   8.060  1.00  0.00     0.032 C 
ENDROOT
BRANCH   1   2
ATOM      2  C   UNL     1      16.329  25.397   7.839  1.00  0.00    -0.028 C 
ATOM      3  C   UNL     1      15.523  25.071   6.804  1.00  0.00    -0.077 C 
ATOM      4  C   UNL     1      14.965  23.672   6.747  1.00  0.00     0.039 C 
BRANCH   3   5
ATOM      5  C   UNL     1      15.213  26.020   5.664  1.00  0.00     0.034 C 
BRANCH   5   6
ATOM      6  C   UNL     1      16.017  25.644   4.416  1.00  0.00     0.032 C 
BRANCH   6   7
ATOM      7  C   UNL     1      17.363  26.326   4.419  1.00  0.00    -0.028 C 
ATOM      8  C   UNL     1      18.609  24.220   4.954  1.00  0.00     0.039 C 
ATOM      9  C   UNL     1      18.538  25.691   4.627  1.00  0.00    -0.080 C 
ATOM     10  C   UNL     1      19.828  26.468   4.579  1.00  0.00     0.039 C 
ENDBRANCH   6   7
ENDBRANCH   5   6
ENDBRANCH   3   5
ENDBRANCH   1   2
BRANCH   1  11
ATOM     11  C   UNL     1      18.468  26.674   8.224  1.00  0.00     0.034 C 
BRANCH  11  12
ATOM     12  C   UNL     1      18.864  26.303   9.638  1.00  0.00    -0.077 C 
ATOM     13  C   UNL     1      18.430  27.070  10.665  1.00  0.00    -0.028 C 
ATOM     14  C   UNL     1      19.754  25.102   9.860  1.00  0.00     0.039 C 
BRANCH  13  15
ATOM     15  C   UNL     1      18.726  26.799  12.121  1.00  0.00     0.035 C 
BRANCH  15  16
ATOM     16  C   UNL     1      19.165  28.066  12.867  1.00  0.00     0.079 C 
BRANCH  16  17
ATOM     17  C   UNL     1      18.074  29.105  12.900  1.00  0.00     0.130 C 
ATOM     18  O   UNL     1      16.921  28.770  13.124  1.00  0.00    -0.300 OA
ATOM     19  C   UNL     1      18.399  30.553  12.694  1.00  0.00     0.087 C 
ENDBRANCH  16  17
ENDBRANCH  15  16
ENDBRANCH  13  15
ENDBRANCH  11  12
ENDBRANCH   1  11
TORSDOF 9
ENDMDL
MODEL 8
REMARK VINA RESULT:    -6.713      1.394      3.660
REMARK INTER + INTRA:         -12.002
REMARK INTER:                 -10.350
REMARK INTRA:                  -1.652
REMARK UNBOUND:                -1.757
REMARK SMILES CC(=O)CCC=C(C)CCC=C(C)CCC=C(C)C
REMARK SMILES IDX 10 1 11 2 12 3 13 4 14 5 15 6 16 7 18 8 17 9 19 10 9 11 7 12
REMARK SMILES IDX 6 13 8 14 5 15 4 16 2 17 3 18 1 19
REMARK H PARENT
REMARK Flexibility Score: inf
ROOT
ATOM      1  C   UNL     1      19.270  26.782   6.705  1.00  0.00     0.032 C 
ENDROOT
BRANCH   1   2
ATOM      2  C   UNL     1      20.318  26.496   5.656  1.00  0.00    -0.028 C 
ATOM      3  C   UNL     1      20.156  26.688   4.327  1.00  0.00    -0.077 C 
ATOM      4  C   UNL     1      21.293  26.321   3.409  1.00  0.00     0.039 C 
BRANCH   3   5
ATOM      5  C   UNL     1      18.915  27.318   3.727  1.00  0.00     0.034 C 
BRANCH   5   6
ATOM      6  C   UNL     1      17.951  26.238   3.225  1.00  0.00     0.032 C 
BRANCH   6   7
ATOM      7  C   UNL     1      16.815  26.040   4.197  1.00  0.00    -0.028 C 
ATOM      8  C   UNL     1      17.775  23.926   5.137  1.00  0.00     0.039 C 
ATOM      9  C   UNL     1      16.740  25.023   5.085  1.00  0.00    -0.080 C 
ATOM     10  C   UNL     1      15.572  24.939   6.031  1.00  0.00     0.039 C 
ENDBRANCH   6   7
ENDBRANCH   5   6
ENDBRANCH   3   5
ENDBRANCH   1   2
BRANCH   1  11
ATOM     11  C   UNL     1      19.228  25.685   7.779  1.00  0.00     0.034 C 
BRANCH  11  12
ATOM     12  C   UNL     1      18.574  26.171   9.057  1.00  0.00    -0.077 C 
ATOM     13  C   UNL     1      19.247  26.057  10.224  1.00  0.00    -0.028 C 
ATOM     14  C   UNL     1      17.177  26.743   8.994  1.00  0.00     0.039 C 
BRANCH  13  15
ATOM     15  C   UNL     1      18.727  26.524  11.562  1.00  0.00     0.035 C 
BRANCH  15  16
ATOM     16  C   UNL     1      19.280  27.903  11.949  1.00  0.00     0.079 C 
BRANCH  16  17
ATOM     17  C   UNL     1      18.178  28.887  12.243  1.00  0.00     0.130 C 
ATOM     18  O   UNL     1      17.025  28.617  11.945  1.00  0.00    -0.300 OA
ATOM     19  C   UNL     1      18.482  30.182  12.933  1.00  0.00     0.087 C 
ENDBRANCH  16  17
ENDBRANCH  15  16
ENDBRANCH  13  15
ENDBRANCH  11  12
ENDBRANCH   1  11
TORSDOF 9
ENDMDL
MODEL 9
REMARK VINA RESULT:    -6.246      2.493      7.450
REMARK INTER + INTRA:         -11.290
REMARK INTER:                 -10.293
REMARK INTRA:                  -0.997
REMARK UNBOUND:                -1.757
REMARK SMILES CC(=O)CCC=C(C)CCC=C(C)CCC=C(C)C
REMARK SMILES IDX 10 1 11 2 12 3 13 4 14 5 15 6 16 7 18 8 17 9 19 10 9 11 7 12
REMARK SMILES IDX 6 13 8 14 5 15 4 16 2 17 3 18 1 19
REMARK H PARENT
REMARK Flexibility Score: inf
ROOT
ATOM      1  C   UNL     1      17.798  26.812   8.781  1.00  0.00     0.032 C 
ENDROOT
BRANCH   1   2
ATOM      2  C   UNL     1      17.974  26.114  10.109  1.00  0.00    -0.028 C 
ATOM      3  C   UNL     1      18.569  26.655  11.195  1.00  0.00    -0.077 C 
ATOM      4  C   UNL     1      18.693  25.810  12.437  1.00  0.00     0.039 C 
BRANCH   3   5
ATOM      5  C   UNL     1      19.051  28.090  11.246  1.00  0.00     0.034 C 
BRANCH   5   6
ATOM      6  C   UNL     1      18.588  28.768  12.540  1.00  0.00     0.032 C 
BRANCH   6   7
ATOM      7  C   UNL     1      18.068  30.156  12.262  1.00  0.00    -0.028 C 
ATOM      8  C   UNL     1      15.714  29.377  11.909  1.00  0.00     0.039 C 
ATOM      9  C   UNL     1      16.772  30.448  12.009  1.00  0.00    -0.080 C 
ATOM     10  C   UNL     1      16.358  31.877  11.774  1.00  0.00     0.039 C 
ENDBRANCH   6   7
ENDBRANCH   5   6
ENDBRANCH   3   5
ENDBRANCH   1   2
BRANCH   1  11
ATOM     11  C   UNL     1      16.747  26.113   7.907  1.00  0.00     0.034 C 
BRANCH  11  12
ATOM     12  C   UNL     1      17.065  26.241   6.431  1.00  0.00    -0.077 C 
ATOM     13  C   UNL     1      18.351  26.406   6.048  1.00  0.00    -0.028 C 
ATOM     14  C   UNL     1      15.932  26.206   5.431  1.00  0.00     0.039 C 
BRANCH  13  15
ATOM     15  C   UNL     1      18.810  26.519   4.614  1.00  0.00     0.035 C 
BRANCH  15  16
ATOM     16  C   UNL     1      20.124  27.303   4.487  1.00  0.00     0.079 C 
BRANCH  16  17
ATOM     17  C   UNL     1      21.153  26.548   3.686  1.00  0.00     0.130 C 
ATOM     18  O   UNL     1      21.329  25.357   3.892  1.00  0.00    -0.300 OA
ATOM     19  C   UNL     1      21.937  27.240   2.613  1.00  0.00     0.087 C 
ENDBRANCH  16  17
ENDBRANCH  15  16
ENDBRANCH  13  15
ENDBRANCH  11  12
ENDBRANCH   1  11
TORSDOF 9
ENDMDL
