MODEL 1
REMARK VINA RESULT:    -5.049      0.000      0.000
REMARK INTER + INTRA:          -9.482
REMARK INTER:                  -7.853
REMARK INTRA:                  -1.629
REMARK UNBOUND:                -1.629
REMARK SMILES COc1cc(CNC(=O)CCCCC=CC(C)C)ccc1O
REMARK SMILES IDX 11 1 12 2 13 3 14 4 15 5 16 6 17 7 18 8 10 9 8 10 9 11 7 12
REMARK SMILES IDX 6 14 5 15 4 16 19 17 3 18 20 19 21 20 2 21 1 22 22 23
REMARK H PARENT 7 13 22 24
REMARK Flexibility Score: inf
ROOT
ATOM      1  C   UNL     1      27.457 -51.242 -10.681  1.00  0.00     0.010 C 
ENDROOT
BRANCH   1   2
ATOM      2  C   UNL     1      28.981 -51.085 -10.793  1.00  0.00     0.005 C 
BRANCH   2   3
ATOM      3  C   UNL     1      29.609 -52.114 -11.746  1.00  0.00     0.027 C 
BRANCH   3   4
ATOM      4  C   UNL     1      30.886 -51.583 -12.345  1.00  0.00    -0.031 C 
ATOM      5  C   UNL     1      32.118 -51.822 -11.854  1.00  0.00    -0.028 C 
BRANCH   5   6
ATOM      6  C   UNL     1      32.404 -52.591 -10.582  1.00  0.00     0.005 C 
ATOM      7  C   UNL     1      32.471 -51.626  -9.395  1.00  0.00     0.012 C 
ATOM      8  C   UNL     1      33.722 -53.361 -10.722  1.00  0.00     0.012 C 
ENDBRANCH   5   6
ENDBRANCH   3   4
ENDBRANCH   2   3
ENDBRANCH   1   2
BRANCH   1   9
ATOM      9  C   UNL     1      27.046 -52.230  -9.584  1.00  0.00     0.100 C 
BRANCH   9  10
ATOM     10  C   UNL     1      27.006 -53.626 -10.129  1.00  0.00     0.220 C 
ATOM     11  O   UNL     1      26.324 -53.869 -11.162  1.00  0.00    -0.275 OA
ATOM     12  N   UNL     1      27.776 -54.663  -9.506  1.00  0.00    -0.352 N 
ATOM     13  H   UNL     1      28.377 -54.425  -8.685  1.00  0.00     0.163 HD
BRANCH  12  14
ATOM     14  C   UNL     1      27.779 -56.040  -9.995  1.00  0.00     0.151 C 
BRANCH  14  15
ATOM     15  C   UNL     1      28.849 -56.220 -11.038  1.00  0.00    -0.025 A 
ATOM     16  C   UNL     1      28.555 -56.894 -12.234  1.00  0.00     0.056 A 
ATOM     17  C   UNL     1      30.133 -55.694 -10.840  1.00  0.00     0.009 A 
ATOM     18  C   UNL     1      29.542 -57.050 -13.228  1.00  0.00     0.160 A 
ATOM     19  C   UNL     1      31.115 -55.847 -11.821  1.00  0.00     0.050 A 
ATOM     20  C   UNL     1      30.824 -56.523 -13.013  1.00  0.00     0.157 A 
BRANCH  18  21
ATOM     21  O   UNL     1      29.287 -57.720 -14.435  1.00  0.00    -0.493 OA
ATOM     22  C   UNL     1      28.060 -58.367 -14.754  1.00  0.00     0.278 C 
ENDBRANCH  18  21
BRANCH  20  23
ATOM     23  O   UNL     1      31.804 -56.675 -13.992  1.00  0.00    -0.504 OA
ATOM     24  H   UNL     1      32.612 -57.269 -13.845  1.00  0.00     0.293 HD
ENDBRANCH  20  23
ENDBRANCH  14  15
ENDBRANCH  12  14
ENDBRANCH   9  10
ENDBRANCH   1   9
TORSDOF 10
ENDMDL
MODEL 2
REMARK VINA RESULT:    -4.974     12.360     14.505
REMARK INTER + INTRA:          -9.365
REMARK INTER:                  -7.244
REMARK INTRA:                  -2.121
REMARK UNBOUND:                -1.629
REMARK SMILES COc1cc(CNC(=O)CCCCC=CC(C)C)ccc1O
REMARK SMILES IDX 11 1 12 2 13 3 14 4 15 5 16 6 17 7 18 8 10 9 8 10 9 11 7 12
REMARK SMILES IDX 6 14 5 15 4 16 19 17 3 18 20 19 21 20 2 21 1 22 22 23
REMARK H PARENT 7 13 22 24
REMARK Flexibility Score: inf
ROOT
ATOM      1  C   UNL     1      32.602 -69.925  -7.982  1.00  0.00     0.010 C 
ENDROOT
BRANCH   1   2
ATOM      2  C   UNL     1      33.079 -70.913  -6.907  1.00  0.00     0.005 C 
BRANCH   2   3
ATOM      3  C   UNL     1      34.380 -70.459  -6.226  1.00  0.00     0.027 C 
BRANCH   3   4
ATOM      4  C   UNL     1      34.115 -69.341  -5.251  1.00  0.00    -0.031 C 
ATOM      5  C   UNL     1      34.676 -68.118  -5.317  1.00  0.00    -0.028 C 
BRANCH   5   6
ATOM      6  C   UNL     1      35.722 -67.704  -6.331  1.00  0.00     0.005 C 
ATOM      7  C   UNL     1      36.707 -66.722  -5.692  1.00  0.00     0.012 C 
ATOM      8  C   UNL     1      35.045 -67.069  -7.550  1.00  0.00     0.012 C 
ENDBRANCH   5   6
ENDBRANCH   3   4
ENDBRANCH   2   3
ENDBRANCH   1   2
BRANCH   1   9
ATOM      9  C   UNL     1      31.127 -69.540  -7.816  1.00  0.00     0.100 C 
BRANCH   9  10
ATOM     10  C   UNL     1      30.988 -68.435  -6.813  1.00  0.00     0.220 C 
ATOM     11  O   UNL     1      30.764 -68.718  -5.605  1.00  0.00    -0.275 OA
ATOM     12  N   UNL     1      31.156 -67.070  -7.220  1.00  0.00    -0.352 N 
ATOM     13  H   UNL     1      31.396 -66.863  -8.216  1.00  0.00     0.163 HD
BRANCH  12  14
ATOM     14  C   UNL     1      31.035 -65.952  -6.287  1.00  0.00     0.151 C 
BRANCH  14  15
ATOM     15  C   UNL     1      32.248 -65.067  -6.374  1.00  0.00    -0.025 A 
ATOM     16  C   UNL     1      32.565 -64.429  -7.583  1.00  0.00     0.056 A 
ATOM     17  C   UNL     1      33.053 -64.848  -5.247  1.00  0.00     0.009 A 
ATOM     18  C   UNL     1      33.686 -63.579  -7.672  1.00  0.00     0.160 A 
ATOM     19  C   UNL     1      34.166 -64.008  -5.329  1.00  0.00     0.050 A 
ATOM     20  C   UNL     1      34.485 -63.375  -6.538  1.00  0.00     0.157 A 
BRANCH  18  21
ATOM     21  O   UNL     1      34.036 -62.927  -8.864  1.00  0.00    -0.493 OA
ATOM     22  C   UNL     1      33.399 -61.753  -9.358  1.00  0.00     0.278 C 
ENDBRANCH  18  21
BRANCH  20  23
ATOM     23  O   UNL     1      35.596 -62.537  -6.620  1.00  0.00    -0.504 OA
ATOM     24  H   UNL     1      35.979 -62.251  -7.514  1.00  0.00     0.293 HD
ENDBRANCH  20  23
ENDBRANCH  14  15
ENDBRANCH  12  14
ENDBRANCH   9  10
ENDBRANCH   1   9
TORSDOF 10
ENDMDL
MODEL 3
REMARK VINA RESULT:    -4.869     12.213     14.717
REMARK INTER + INTRA:          -9.202
REMARK INTER:                  -7.638
REMARK INTRA:                  -1.564
REMARK UNBOUND:                -1.629
REMARK SMILES COc1cc(CNC(=O)CCCCC=CC(C)C)ccc1O
REMARK SMILES IDX 11 1 12 2 13 3 14 4 15 5 16 6 17 7 18 8 10 9 8 10 9 11 7 12
REMARK SMILES IDX 6 14 5 15 4 16 19 17 3 18 20 19 21 20 2 21 1 22 22 23
REMARK H PARENT 7 13 22 24
REMARK Flexibility Score: inf
ROOT
ATOM      1  C   UNL     1      33.203 -69.809  -7.427  1.00  0.00     0.010 C 
ENDROOT
BRANCH   1   2
ATOM      2  C   UNL     1      32.205 -70.912  -7.044  1.00  0.00     0.005 C 
BRANCH   2   3
ATOM      3  C   UNL     1      30.804 -70.358  -6.741  1.00  0.00     0.027 C 
BRANCH   3   4
ATOM      4  C   UNL     1      30.764 -68.864  -6.930  1.00  0.00    -0.031 C 
ATOM      5  C   UNL     1      30.899 -67.963  -5.937  1.00  0.00    -0.028 C 
BRANCH   5   6
ATOM      6  C   UNL     1      31.028 -68.312  -4.469  1.00  0.00     0.005 C 
ATOM      7  C   UNL     1      29.837 -67.745  -3.693  1.00  0.00     0.012 C 
ATOM      8  C   UNL     1      32.344 -67.757  -3.914  1.00  0.00     0.012 C 
ENDBRANCH   5   6
ENDBRANCH   3   4
ENDBRANCH   2   3
ENDBRANCH   1   2
BRANCH   1   9
ATOM      9  C   UNL     1      34.376 -69.709  -6.445  1.00  0.00     0.100 C 
BRANCH   9  10
ATOM     10  C   UNL     1      34.956 -68.327  -6.466  1.00  0.00     0.220 C 
ATOM     11  O   UNL     1      35.758 -67.977  -5.558  1.00  0.00    -0.275 OA
ATOM     12  N   UNL     1      34.636 -67.429  -7.538  1.00  0.00    -0.352 N 
ATOM     13  H   UNL     1      34.013 -67.762  -8.309  1.00  0.00     0.163 HD
BRANCH  12  14
ATOM     14  C   UNL     1      35.173 -66.073  -7.612  1.00  0.00     0.151 C 
BRANCH  14  15
ATOM     15  C   UNL     1      34.058 -65.066  -7.531  1.00  0.00    -0.025 A 
ATOM     16  C   UNL     1      34.171 -63.840  -8.206  1.00  0.00     0.056 A 
ATOM     17  C   UNL     1      32.890 -65.352  -6.810  1.00  0.00     0.009 A 
ATOM     18  C   UNL     1      33.124 -62.897  -8.156  1.00  0.00     0.160 A 
ATOM     19  C   UNL     1      31.850 -64.421  -6.757  1.00  0.00     0.050 A 
ATOM     20  C   UNL     1      31.964 -63.195  -7.426  1.00  0.00     0.157 A 
BRANCH  18  21
ATOM     21  O   UNL     1      33.201 -61.660  -8.815  1.00  0.00    -0.493 OA
ATOM     22  C   UNL     1      33.379 -61.504 -10.218  1.00  0.00     0.278 C 
ENDBRANCH  18  21
BRANCH  20  23
ATOM     23  O   UNL     1      30.926 -62.266  -7.373  1.00  0.00    -0.504 OA
ATOM     24  H   UNL     1      30.182 -62.263  -8.061  1.00  0.00     0.293 HD
ENDBRANCH  20  23
ENDBRANCH  14  15
ENDBRANCH  12  14
ENDBRANCH   9  10
ENDBRANCH   1   9
TORSDOF 10
ENDMDL
MODEL 4
REMARK VINA RESULT:    -4.844     14.122     16.384
REMARK INTER + INTRA:          -9.163
REMARK INTER:                  -7.303
REMARK INTRA:                  -1.860
REMARK UNBOUND:                -1.629
REMARK SMILES COc1cc(CNC(=O)CCCCC=CC(C)C)ccc1O
REMARK SMILES IDX 11 1 12 2 13 3 14 4 15 5 16 6 17 7 18 8 10 9 8 10 9 11 7 12
REMARK SMILES IDX 6 14 5 15 4 16 19 17 3 18 20 19 21 20 2 21 1 22 22 23
REMARK H PARENT 7 13 22 24
REMARK Flexibility Score: inf
ROOT
ATOM      1  C   UNL     1      35.584 -69.807  -4.566  1.00  0.00     0.010 C 
ENDROOT
BRANCH   1   2
ATOM      2  C   UNL     1      35.177 -70.438  -3.226  1.00  0.00     0.005 C 
BRANCH   2   3
ATOM      3  C   UNL     1      34.587 -69.411  -2.247  1.00  0.00     0.027 C 
BRANCH   3   4
ATOM      4  C   UNL     1      33.824 -68.342  -2.985  1.00  0.00    -0.031 C 
ATOM      5  C   UNL     1      32.483 -68.204  -2.960  1.00  0.00    -0.028 C 
BRANCH   5   6
ATOM      6  C   UNL     1      31.533 -69.150  -2.257  1.00  0.00     0.005 C 
ATOM      7  C   UNL     1      31.267 -70.372  -3.140  1.00  0.00     0.012 C 
ATOM      8  C   UNL     1      30.222 -68.426  -1.932  1.00  0.00     0.012 C 
ENDBRANCH   5   6
ENDBRANCH   3   4
ENDBRANCH   2   3
ENDBRANCH   1   2
BRANCH   1   9
ATOM      9  C   UNL     1      35.290 -70.721  -5.761  1.00  0.00     0.100 C 
BRANCH   9  10
ATOM     10  C   UNL     1      33.956 -70.384  -6.358  1.00  0.00     0.220 C 
ATOM     11  O   UNL     1      32.951 -71.088  -6.068  1.00  0.00    -0.275 OA
ATOM     12  N   UNL     1      33.820 -69.240  -7.213  1.00  0.00    -0.352 N 
ATOM     13  H   UNL     1      34.656 -68.639  -7.393  1.00  0.00     0.163 HD
BRANCH  12  14
ATOM     14  C   UNL     1      32.546 -68.862  -7.820  1.00  0.00     0.151 C 
BRANCH  14  15
ATOM     15  C   UNL     1      31.929 -67.716  -7.064  1.00  0.00    -0.025 A 
ATOM     16  C   UNL     1      32.421 -66.414  -7.243  1.00  0.00     0.056 A 
ATOM     17  C   UNL     1      30.844 -67.932  -6.203  1.00  0.00     0.009 A 
ATOM     18  C   UNL     1      31.838 -65.328  -6.558  1.00  0.00     0.160 A 
ATOM     19  C   UNL     1      30.263 -66.860  -5.521  1.00  0.00     0.050 A 
ATOM     20  C   UNL     1      30.757 -65.561  -5.695  1.00  0.00     0.157 A 
BRANCH  18  21
ATOM     21  O   UNL     1      32.304 -64.013  -6.708  1.00  0.00    -0.493 OA
ATOM     22  C   UNL     1      32.166 -63.239  -7.896  1.00  0.00     0.278 C 
ENDBRANCH  18  21
BRANCH  20  23
ATOM     23  O   UNL     1      30.177 -64.491  -5.015  1.00  0.00    -0.504 OA
ATOM     24  H   UNL     1      29.794 -64.602  -4.083  1.00  0.00     0.293 HD
ENDBRANCH  20  23
ENDBRANCH  14  15
ENDBRANCH  12  14
ENDBRANCH   9  10
ENDBRANCH   1   9
TORSDOF 10
ENDMDL
MODEL 5
REMARK VINA RESULT:    -4.770     12.421     14.639
REMARK INTER + INTRA:          -9.049
REMARK INTER:                  -7.003
REMARK INTRA:                  -2.045
REMARK UNBOUND:                -1.629
REMARK SMILES COc1cc(CNC(=O)CCCCC=CC(C)C)ccc1O
REMARK SMILES IDX 11 1 12 2 13 3 14 4 15 5 16 6 17 7 18 8 10 9 8 10 9 11 7 12
REMARK SMILES IDX 6 14 5 15 4 16 19 17 3 18 20 19 21 20 2 21 1 22 22 23
REMARK H PARENT 7 13 22 24
REMARK Flexibility Score: inf
ROOT
ATOM      1  C   UNL     1      32.502 -69.759  -7.996  1.00  0.00     0.010 C 
ENDROOT
BRANCH   1   2
ATOM      2  C   UNL     1      33.024 -70.774  -6.967  1.00  0.00     0.005 C 
BRANCH   2   3
ATOM      3  C   UNL     1      34.343 -70.328  -6.318  1.00  0.00     0.027 C 
BRANCH   3   4
ATOM      4  C   UNL     1      34.105 -69.223  -5.321  1.00  0.00    -0.031 C 
ATOM      5  C   UNL     1      34.642 -67.990  -5.403  1.00  0.00    -0.028 C 
BRANCH   5   6
ATOM      6  C   UNL     1      35.632 -67.550  -6.461  1.00  0.00     0.005 C 
ATOM      7  C   UNL     1      36.627 -66.554  -5.861  1.00  0.00     0.012 C 
ATOM      8  C   UNL     1      34.888 -66.920  -7.643  1.00  0.00     0.012 C 
ENDBRANCH   5   6
ENDBRANCH   3   4
ENDBRANCH   2   3
ENDBRANCH   1   2
BRANCH   1   9
ATOM      9  C   UNL     1      31.040 -69.370  -7.750  1.00  0.00     0.100 C 
BRANCH   9  10
ATOM     10  C   UNL     1      30.957 -68.281  -6.723  1.00  0.00     0.220 C 
ATOM     11  O   UNL     1      30.727 -68.579  -5.520  1.00  0.00    -0.275 OA
ATOM     12  N   UNL     1      31.186 -66.917  -7.102  1.00  0.00    -0.352 N 
ATOM     13  H   UNL     1      31.431 -66.701  -8.095  1.00  0.00     0.163 HD
BRANCH  12  14
ATOM     14  C   UNL     1      31.122 -65.815  -6.145  1.00  0.00     0.151 C 
BRANCH  14  15
ATOM     15  C   UNL     1      32.217 -64.821  -6.421  1.00  0.00    -0.025 A 
ATOM     16  C   UNL     1      33.204 -64.580  -5.452  1.00  0.00     0.056 A 
ATOM     17  C   UNL     1      32.280 -64.153  -7.651  1.00  0.00     0.009 A 
ATOM     18  C   UNL     1      34.248 -63.667  -5.707  1.00  0.00     0.160 A 
ATOM     19  C   UNL     1      33.311 -63.246  -7.908  1.00  0.00     0.050 A 
ATOM     20  C   UNL     1      34.294 -63.001  -6.940  1.00  0.00     0.157 A 
BRANCH  18  21
ATOM     21  O   UNL     1      35.251 -63.397  -4.762  1.00  0.00    -0.493 OA
ATOM     22  C   UNL     1      35.117 -62.476  -3.685  1.00  0.00     0.278 C 
ENDBRANCH  18  21
BRANCH  20  23
ATOM     23  O   UNL     1      35.323 -62.098  -7.197  1.00  0.00    -0.504 OA
ATOM     24  H   UNL     1      35.923 -61.753  -6.456  1.00  0.00     0.293 HD
ENDBRANCH  20  23
ENDBRANCH  14  15
ENDBRANCH  12  14
ENDBRANCH   9  10
ENDBRANCH   1   9
TORSDOF 10
ENDMDL
MODEL 6
REMARK VINA RESULT:    -4.631     13.400     15.415
REMARK INTER + INTRA:          -8.832
REMARK INTER:                  -7.323
REMARK INTRA:                  -1.509
REMARK UNBOUND:                -1.629
REMARK SMILES COc1cc(CNC(=O)CCCCC=CC(C)C)ccc1O
REMARK SMILES IDX 11 1 12 2 13 3 14 4 15 5 16 6 17 7 18 8 10 9 8 10 9 11 7 12
REMARK SMILES IDX 6 14 5 15 4 16 19 17 3 18 20 19 21 20 2 21 1 22 22 23
REMARK H PARENT 7 13 22 24
REMARK Flexibility Score: inf
ROOT
ATOM      1  C   UNL     1      35.604 -69.753  -5.230  1.00  0.00     0.010 C 
ENDROOT
BRANCH   1   2
ATOM      2  C   UNL     1      34.815 -69.043  -4.120  1.00  0.00     0.005 C 
BRANCH   2   3
ATOM      3  C   UNL     1      35.442 -67.698  -3.721  1.00  0.00     0.027 C 
BRANCH   3   4
ATOM      4  C   UNL     1      36.840 -67.573  -4.269  1.00  0.00    -0.031 C 
ATOM      5  C   UNL     1      37.209 -66.707  -5.234  1.00  0.00    -0.028 C 
BRANCH   5   6
ATOM      6  C   UNL     1      36.262 -65.787  -5.974  1.00  0.00     0.005 C 
ATOM      7  C   UNL     1      35.676 -66.511  -7.188  1.00  0.00     0.012 C 
ATOM      8  C   UNL     1      37.001 -64.518  -6.410  1.00  0.00     0.012 C 
ENDBRANCH   5   6
ENDBRANCH   3   4
ENDBRANCH   2   3
ENDBRANCH   1   2
BRANCH   1   9
ATOM      9  C   UNL     1      34.846 -70.947  -5.821  1.00  0.00     0.100 C 
BRANCH   9  10
ATOM     10  C   UNL     1      33.536 -70.499  -6.398  1.00  0.00     0.220 C 
ATOM     11  O   UNL     1      32.473 -71.079  -6.048  1.00  0.00    -0.275 OA
ATOM     12  N   UNL     1      33.493 -69.387  -7.302  1.00  0.00    -0.352 N 
ATOM     13  H   UNL     1      34.381 -68.886  -7.533  1.00  0.00     0.163 HD
BRANCH  12  14
ATOM     14  C   UNL     1      32.247 -68.904  -7.893  1.00  0.00     0.151 C 
BRANCH  14  15
ATOM     15  C   UNL     1      31.724 -67.727  -7.115  1.00  0.00    -0.025 A 
ATOM     16  C   UNL     1      32.126 -66.426  -7.458  1.00  0.00     0.056 A 
ATOM     17  C   UNL     1      30.813 -67.913  -6.066  1.00  0.00     0.009 A 
ATOM     18  C   UNL     1      31.626 -65.313  -6.752  1.00  0.00     0.160 A 
ATOM     19  C   UNL     1      30.316 -66.814  -5.362  1.00  0.00     0.050 A 
ATOM     20  C   UNL     1      30.720 -65.516  -5.701  1.00  0.00     0.157 A 
BRANCH  18  21
ATOM     21  O   UNL     1      32.007 -63.998  -7.064  1.00  0.00    -0.493 OA
ATOM     22  C   UNL     1      33.300 -63.454  -6.821  1.00  0.00     0.278 C 
ENDBRANCH  18  21
BRANCH  20  23
ATOM     23  O   UNL     1      30.223 -64.420  -4.999  1.00  0.00    -0.504 OA
ATOM     24  H   UNL     1      30.832 -63.820  -4.454  1.00  0.00     0.293 HD
ENDBRANCH  20  23
ENDBRANCH  14  15
ENDBRANCH  12  14
ENDBRANCH   9  10
ENDBRANCH   1   9
TORSDOF 10
ENDMDL
MODEL 7
REMARK VINA RESULT:    -4.575     12.453     14.633
REMARK INTER + INTRA:          -8.744
REMARK INTER:                  -6.629
REMARK INTRA:                  -2.116
REMARK UNBOUND:                -1.629
REMARK SMILES COc1cc(CNC(=O)CCCCC=CC(C)C)ccc1O
REMARK SMILES IDX 11 1 12 2 13 3 14 4 15 5 16 6 17 7 18 8 10 9 8 10 9 11 7 12
REMARK SMILES IDX 6 14 5 15 4 16 19 17 3 18 20 19 21 20 2 21 1 22 22 23
REMARK H PARENT 7 13 22 24
REMARK Flexibility Score: inf
ROOT
ATOM      1  C   UNL     1      31.602 -68.619  -8.133  1.00  0.00     0.010 C 
ENDROOT
BRANCH   1   2
ATOM      2  C   UNL     1      32.280 -69.998  -8.144  1.00  0.00     0.005 C 
BRANCH   2   3
ATOM      3  C   UNL     1      32.554 -70.529  -6.728  1.00  0.00     0.027 C 
BRANCH   3   4
ATOM      4  C   UNL     1      34.033 -70.711  -6.500  1.00  0.00    -0.031 C 
ATOM      5  C   UNL     1      34.875 -69.728  -6.125  1.00  0.00    -0.028 C 
BRANCH   5   6
ATOM      6  C   UNL     1      34.483 -68.275  -5.956  1.00  0.00     0.005 C 
ATOM      7  C   UNL     1      35.599 -67.370  -6.486  1.00  0.00     0.012 C 
ATOM      8  C   UNL     1      34.205 -67.977  -4.479  1.00  0.00     0.012 C 
ENDBRANCH   5   6
ENDBRANCH   3   4
ENDBRANCH   2   3
ENDBRANCH   1   2
BRANCH   1   9
ATOM      9  C   UNL     1      30.889 -68.323  -6.809  1.00  0.00     0.100 C 
BRANCH   9  10
ATOM     10  C   UNL     1      31.001 -66.867  -6.471  1.00  0.00     0.220 C 
ATOM     11  O   UNL     1      30.377 -66.411  -5.475  1.00  0.00    -0.275 OA
ATOM     12  N   UNL     1      31.850 -66.013  -7.250  1.00  0.00    -0.352 N 
ATOM     13  H   UNL     1      32.401 -66.425  -8.036  1.00  0.00     0.163 HD
BRANCH  12  14
ATOM     14  C   UNL     1      32.001 -64.587  -6.966  1.00  0.00     0.151 C 
BRANCH  14  15
ATOM     15  C   UNL     1      33.405 -64.293  -6.510  1.00  0.00    -0.025 A 
ATOM     16  C   UNL     1      34.373 -63.888  -7.442  1.00  0.00     0.056 A 
ATOM     17  C   UNL     1      33.749 -64.390  -5.155  1.00  0.00     0.009 A 
ATOM     18  C   UNL     1      35.685 -63.587  -7.025  1.00  0.00     0.160 A 
ATOM     19  C   UNL     1      35.049 -64.095  -4.736  1.00  0.00     0.050 A 
ATOM     20  C   UNL     1      36.017 -63.695  -5.667  1.00  0.00     0.157 A 
BRANCH  18  21
ATOM     21  O   UNL     1      36.681 -63.182  -7.927  1.00  0.00    -0.493 OA
ATOM     22  C   UNL     1      36.811 -63.670  -9.259  1.00  0.00     0.278 C 
ENDBRANCH  18  21
BRANCH  20  23
ATOM     23  O   UNL     1      37.313 -63.400  -5.249  1.00  0.00    -0.504 OA
ATOM     24  H   UNL     1      37.830 -64.027  -4.644  1.00  0.00     0.293 HD
ENDBRANCH  20  23
ENDBRANCH  14  15
ENDBRANCH  12  14
ENDBRANCH   9  10
ENDBRANCH   1   9
TORSDOF 10
ENDMDL
MODEL 8
REMARK VINA RESULT:    -4.567     13.177     15.183
REMARK INTER + INTRA:          -8.733
REMARK INTER:                  -6.885
REMARK INTRA:                  -1.848
REMARK UNBOUND:                -1.629
REMARK SMILES COc1cc(CNC(=O)CCCCC=CC(C)C)ccc1O
REMARK SMILES IDX 11 1 12 2 13 3 14 4 15 5 16 6 17 7 18 8 10 9 8 10 9 11 7 12
REMARK SMILES IDX 6 14 5 15 4 16 19 17 3 18 20 19 21 20 2 21 1 22 22 23
REMARK H PARENT 7 13 22 24
REMARK Flexibility Score: inf
ROOT
ATOM      1  C   UNL     1      33.436 -70.974  -5.820  1.00  0.00     0.010 C 
ENDROOT
BRANCH   1   2
ATOM      2  C   UNL     1      34.928 -70.630  -5.936  1.00  0.00     0.005 C 
BRANCH   2   3
ATOM      3  C   UNL     1      35.298 -69.352  -5.166  1.00  0.00     0.027 C 
BRANCH   3   4
ATOM      4  C   UNL     1      35.364 -68.166  -6.093  1.00  0.00    -0.031 C 
ATOM      5  C   UNL     1      36.190 -67.113  -5.931  1.00  0.00    -0.028 C 
BRANCH   5   6
ATOM      6  C   UNL     1      37.118 -66.920  -4.750  1.00  0.00     0.005 C 
ATOM      7  C   UNL     1      36.593 -65.795  -3.855  1.00  0.00     0.012 C 
ATOM      8  C   UNL     1      38.532 -66.598  -5.245  1.00  0.00     0.012 C 
ENDBRANCH   5   6
ENDBRANCH   3   4
ENDBRANCH   2   3
ENDBRANCH   1   2
BRANCH   1   9
ATOM      9  C   UNL     1      32.742 -71.056  -7.185  1.00  0.00     0.100 C 
BRANCH   9  10
ATOM     10  C   UNL     1      32.164 -69.723  -7.555  1.00  0.00     0.220 C 
ATOM     11  O   UNL     1      32.325 -69.281  -8.725  1.00  0.00    -0.275 OA
ATOM     12  N   UNL     1      31.395 -68.983  -6.598  1.00  0.00    -0.352 N 
ATOM     13  H   UNL     1      31.228 -69.396  -5.653  1.00  0.00     0.163 HD
BRANCH  12  14
ATOM     14  C   UNL     1      30.804 -67.682  -6.904  1.00  0.00     0.151 C 
BRANCH  14  15
ATOM     15  C   UNL     1      31.706 -66.576  -6.426  1.00  0.00    -0.025 A 
ATOM     16  C   UNL     1      31.964 -65.474  -7.258  1.00  0.00     0.056 A 
ATOM     17  C   UNL     1      32.270 -66.619  -5.144  1.00  0.00     0.009 A 
ATOM     18  C   UNL     1      32.789 -64.421  -6.814  1.00  0.00     0.160 A 
ATOM     19  C   UNL     1      33.089 -65.579  -4.700  1.00  0.00     0.050 A 
ATOM     20  C   UNL     1      33.351 -64.481  -5.530  1.00  0.00     0.157 A 
BRANCH  18  21
ATOM     21  O   UNL     1      33.072 -63.305  -7.617  1.00  0.00    -0.493 OA
ATOM     22  C   UNL     1      34.142 -63.236  -8.554  1.00  0.00     0.278 C 
ENDBRANCH  18  21
BRANCH  20  23
ATOM     23  O   UNL     1      34.168 -63.443  -5.087  1.00  0.00    -0.504 OA
ATOM     24  H   UNL     1      33.914 -62.874  -4.287  1.00  0.00     0.293 HD
ENDBRANCH  20  23
ENDBRANCH  14  15
ENDBRANCH  12  14
ENDBRANCH   9  10
ENDBRANCH   1   9
TORSDOF 10
ENDMDL
MODEL 9
REMARK VINA RESULT:    -4.527     12.030     14.620
REMARK INTER + INTRA:          -8.670
REMARK INTER:                  -7.178
REMARK INTRA:                  -1.492
REMARK UNBOUND:                -1.629
REMARK SMILES COc1cc(CNC(=O)CCCCC=CC(C)C)ccc1O
REMARK SMILES IDX 11 1 12 2 13 3 14 4 15 5 16 6 17 7 18 8 10 9 8 10 9 11 7 12
REMARK SMILES IDX 6 14 5 15 4 16 19 17 3 18 20 19 21 20 2 21 1 22 22 23
REMARK H PARENT 7 13 22 24
REMARK Flexibility Score: inf
ROOT
ATOM      1  C   UNL     1      35.179 -69.074  -5.319  1.00  0.00     0.010 C 
ENDROOT
BRANCH   1   2
ATOM      2  C   UNL     1      34.519 -70.423  -5.642  1.00  0.00     0.005 C 
BRANCH   2   3
ATOM      3  C   UNL     1      33.592 -70.346  -6.865  1.00  0.00     0.027 C 
BRANCH   3   4
ATOM      4  C   UNL     1      32.172 -70.679  -6.485  1.00  0.00    -0.031 C 
ATOM      5  C   UNL     1      31.274 -69.786  -6.024  1.00  0.00    -0.028 C 
BRANCH   5   6
ATOM      6  C   UNL     1      31.576 -68.330  -5.737  1.00  0.00     0.005 C 
ATOM      7  C   UNL     1      31.273 -68.015  -4.270  1.00  0.00     0.012 C 
ATOM      8  C   UNL     1      30.747 -67.433  -6.662  1.00  0.00     0.012 C 
ENDBRANCH   5   6
ENDBRANCH   3   4
ENDBRANCH   2   3
ENDBRANCH   1   2
BRANCH   1   9
ATOM      9  C   UNL     1      35.228 -68.136  -6.530  1.00  0.00     0.100 C 
BRANCH   9  10
ATOM     10  C   UNL     1      35.300 -66.708  -6.080  1.00  0.00     0.220 C 
ATOM     11  O   UNL     1      36.342 -66.036  -6.312  1.00  0.00    -0.275 OA
ATOM     12  N   UNL     1      34.173 -66.100  -5.433  1.00  0.00    -0.352 N 
ATOM     13  H   UNL     1      33.301 -66.660  -5.302  1.00  0.00     0.163 HD
BRANCH  12  14
ATOM     14  C   UNL     1      34.185 -64.713  -4.976  1.00  0.00     0.151 C 
BRANCH  14  15
ATOM     15  C   UNL     1      33.744 -63.795  -6.085  1.00  0.00    -0.025 A 
ATOM     16  C   UNL     1      34.495 -62.649  -6.385  1.00  0.00     0.056 A 
ATOM     17  C   UNL     1      32.603 -64.091  -6.843  1.00  0.00     0.009 A 
ATOM     18  C   UNL     1      34.106 -61.793  -7.436  1.00  0.00     0.160 A 
ATOM     19  C   UNL     1      32.211 -63.246  -7.884  1.00  0.00     0.050 A 
ATOM     20  C   UNL     1      32.958 -62.099  -8.181  1.00  0.00     0.157 A 
BRANCH  18  21
ATOM     21  O   UNL     1      34.829 -60.636  -7.764  1.00  0.00    -0.493 OA
ATOM     22  C   UNL     1      35.425 -59.760  -6.813  1.00  0.00     0.278 C 
ENDBRANCH  18  21
BRANCH  20  23
ATOM     23  O   UNL     1      32.567 -61.256  -9.220  1.00  0.00    -0.504 OA
ATOM     24  H   UNL     1      32.624 -61.548 -10.189  1.00  0.00     0.293 HD
ENDBRANCH  20  23
ENDBRANCH  14  15
ENDBRANCH  12  14
ENDBRANCH   9  10
ENDBRANCH   1   9
TORSDOF 10
ENDMDL
