MODEL 1
REMARK VINA RESULT:    -5.716      0.000      0.000
REMARK INTER + INTRA:          -6.326
REMARK INTER:                  -6.050
REMARK INTRA:                  -0.275
REMARK UNBOUND:                -0.275
REMARK SMILES CC(C)[C@H]1CC[C@H](C)[C@H]2C=C[C@@H](C)C[C@@H]21
REMARK SMILES IDX 8 1 7 2 6 3 5 4 4 5 15 6 9 7 10 8 11 9 12 10 14 11 13 12
REMARK SMILES IDX 2 13 1 14 3 15
REMARK H PARENT
REMARK Flexibility Score: inf
ROOT
ATOM      1  C   UNL     1      33.125  10.758  33.335  1.00  0.00     0.008 C 
ATOM      2  C   UNL     1      32.317  11.022  32.051  1.00  0.00    -0.007 C 
ATOM      3  C   UNL     1      33.125  11.961  31.138  1.00  0.00     0.004 C 
ATOM      4  C   UNL     1      32.374  12.252  29.839  1.00  0.00     0.004 C 
ATOM      5  C   UNL     1      32.094  10.951  29.052  1.00  0.00    -0.005 C 
ATOM      6  C   UNL     1      31.278   9.962  29.941  1.00  0.00    -0.000 C 
ATOM      7  C   UNL     1      31.979   9.703  31.307  1.00  0.00     0.018 C 
ATOM      8  C   UNL     1      31.060   8.817  32.123  1.00  0.00    -0.027 C 
ATOM      9  C   UNL     1      30.518   7.736  31.551  1.00  0.00    -0.028 C 
ATOM     10  C   UNL     1      30.908   7.366  30.140  1.00  0.00     0.008 C 
ATOM     11  C   UNL     1      30.980   8.612  29.210  1.00  0.00     0.012 C 
ATOM     12  C   UNL     1      29.968   6.298  29.573  1.00  0.00     0.012 C 
ENDROOT
BRANCH   5  13
ATOM     13  C   UNL     1      31.433  11.231  27.657  1.00  0.00    -0.014 C 
ATOM     14  C   UNL     1      30.111  12.013  27.734  1.00  0.00     0.007 C 
ATOM     15  C   UNL     1      32.402  11.932  26.692  1.00  0.00     0.007 C 
ENDBRANCH   5  13
TORSDOF 1
ENDMDL
MODEL 2
REMARK VINA RESULT:    -5.665      0.856      4.603
REMARK INTER + INTRA:          -6.271
REMARK INTER:                  -6.157
REMARK INTRA:                  -0.114
REMARK UNBOUND:                -0.275
REMARK SMILES CC(C)[C@H]1CC[C@H](C)[C@H]2C=C[C@@H](C)C[C@@H]21
REMARK SMILES IDX 8 1 7 2 6 3 5 4 4 5 15 6 9 7 10 8 11 9 12 10 14 11 13 12
REMARK SMILES IDX 2 13 1 14 3 15
REMARK H PARENT
REMARK Flexibility Score: inf
ROOT
ATOM      1  C   UNL     1      30.290   6.599  29.670  1.00  0.00     0.008 C 
ATOM      2  C   UNL     1      30.490   7.970  30.341  1.00  0.00    -0.007 C 
ATOM      3  C   UNL     1      31.249   7.771  31.665  1.00  0.00     0.004 C 
ATOM      4  C   UNL     1      31.486   9.104  32.375  1.00  0.00     0.004 C 
ATOM      5  C   UNL     1      32.315  10.066  31.493  1.00  0.00    -0.005 C 
ATOM      6  C   UNL     1      31.586  10.297  30.133  1.00  0.00    -0.000 C 
ATOM      7  C   UNL     1      31.260   8.952  29.419  1.00  0.00     0.018 C 
ATOM      8  C   UNL     1      30.470   9.286  28.170  1.00  0.00    -0.027 C 
ATOM      9  C   UNL     1      30.903  10.264  27.366  1.00  0.00    -0.028 C 
ATOM     10  C   UNL     1      32.216  10.946  27.665  1.00  0.00     0.008 C 
ATOM     11  C   UNL     1      32.385  11.247  29.182  1.00  0.00     0.012 C 
ATOM     12  C   UNL     1      32.380  12.214  26.822  1.00  0.00     0.012 C 
ENDROOT
BRANCH   5  13
ATOM     13  C   UNL     1      32.677  11.396  32.243  1.00  0.00    -0.014 C 
ATOM     14  C   UNL     1      31.562  12.455  32.217  1.00  0.00     0.007 C 
ATOM     15  C   UNL     1      33.120  11.136  33.692  1.00  0.00     0.007 C 
ENDBRANCH   5  13
TORSDOF 1
ENDMDL
MODEL 3
REMARK VINA RESULT:    -5.637      1.736      4.213
REMARK INTER + INTRA:          -6.241
REMARK INTER:                  -5.971
REMARK INTRA:                  -0.270
REMARK UNBOUND:                -0.275
REMARK SMILES CC(C)[C@H]1CC[C@H](C)[C@H]2C=C[C@@H](C)C[C@@H]21
REMARK SMILES IDX 8 1 7 2 6 3 5 4 4 5 15 6 9 7 10 8 11 9 12 10 14 11 13 12
REMARK SMILES IDX 2 13 1 14 3 15
REMARK H PARENT
REMARK Flexibility Score: inf
ROOT
ATOM      1  C   UNL     1      30.982   7.828  34.505  1.00  0.00     0.008 C 
ATOM      2  C   UNL     1      31.282   7.816  32.995  1.00  0.00    -0.007 C 
ATOM      3  C   UNL     1      30.132   7.102  32.263  1.00  0.00     0.004 C 
ATOM      4  C   UNL     1      30.371   7.068  30.754  1.00  0.00     0.004 C 
ATOM      5  C   UNL     1      30.487   8.497  30.174  1.00  0.00    -0.005 C 
ATOM      6  C   UNL     1      31.642   9.265  30.890  1.00  0.00    -0.000 C 
ATOM      7  C   UNL     1      31.469   9.252  32.437  1.00  0.00     0.018 C 
ATOM      8  C   UNL     1      32.686   9.931  33.031  1.00  0.00    -0.027 C 
ATOM      9  C   UNL     1      33.100  11.095  32.517  1.00  0.00    -0.028 C 
ATOM     10  C   UNL     1      32.293  11.755  31.426  1.00  0.00     0.008 C 
ATOM     11  C   UNL     1      31.799  10.729  30.365  1.00  0.00     0.012 C 
ATOM     12  C   UNL     1      33.080  12.896  30.774  1.00  0.00     0.012 C 
ENDROOT
BRANCH   5  13
ATOM     13  C   UNL     1      30.612   8.496  28.611  1.00  0.00    -0.014 C 
ATOM     14  C   UNL     1      31.008   7.136  28.013  1.00  0.00     0.007 C 
ATOM     15  C   UNL     1      29.333   9.014  27.932  1.00  0.00     0.007 C 
ENDBRANCH   5  13
TORSDOF 1
ENDMDL
MODEL 4
REMARK VINA RESULT:    -5.630      1.424      3.177
REMARK INTER + INTRA:          -6.234
REMARK INTER:                  -5.958
REMARK INTRA:                  -0.276
REMARK UNBOUND:                -0.275
REMARK SMILES CC(C)[C@H]1CC[C@H](C)[C@H]2C=C[C@@H](C)C[C@@H]21
REMARK SMILES IDX 8 1 7 2 6 3 5 4 4 5 15 6 9 7 10 8 11 9 12 10 14 11 13 12
REMARK SMILES IDX 2 13 1 14 3 15
REMARK H PARENT
REMARK Flexibility Score: inf
ROOT
ATOM      1  C   UNL     1      33.125  12.573  30.764  1.00  0.00     0.008 C 
ATOM      2  C   UNL     1      32.038  11.542  30.410  1.00  0.00    -0.007 C 
ATOM      3  C   UNL     1      32.185  11.151  28.929  1.00  0.00     0.004 C 
ATOM      4  C   UNL     1      31.135  10.119  28.520  1.00  0.00     0.004 C 
ATOM      5  C   UNL     1      31.260   8.830  29.366  1.00  0.00    -0.005 C 
ATOM      6  C   UNL     1      31.121   9.177  30.880  1.00  0.00    -0.000 C 
ATOM      7  C   UNL     1      32.127  10.283  31.313  1.00  0.00     0.018 C 
ATOM      8  C   UNL     1      31.839  10.612  32.764  1.00  0.00    -0.027 C 
ATOM      9  C   UNL     1      31.684   9.613  33.640  1.00  0.00    -0.028 C 
ATOM     10  C   UNL     1      31.897   8.188  33.190  1.00  0.00     0.008 C 
ATOM     11  C   UNL     1      31.261   7.916  31.796  1.00  0.00     0.012 C 
ATOM     12  C   UNL     1      31.384   7.197  34.240  1.00  0.00     0.012 C 
ENDROOT
BRANCH   5  13
ATOM     13  C   UNL     1      30.275   7.707  28.887  1.00  0.00    -0.014 C 
ATOM     14  C   UNL     1      28.878   8.221  28.497  1.00  0.00     0.007 C 
ATOM     15  C   UNL     1      30.867   6.874  27.738  1.00  0.00     0.007 C 
ENDBRANCH   5  13
TORSDOF 1
ENDMDL
MODEL 5
REMARK VINA RESULT:    -5.529      1.102      4.235
REMARK INTER + INTRA:          -6.127
REMARK INTER:                  -5.919
REMARK INTRA:                  -0.208
REMARK UNBOUND:                -0.275
REMARK SMILES CC(C)[C@H]1CC[C@H](C)[C@H]2C=C[C@@H](C)C[C@@H]21
REMARK SMILES IDX 8 1 7 2 6 3 5 4 4 5 15 6 9 7 10 8 11 9 12 10 14 11 13 12
REMARK SMILES IDX 2 13 1 14 3 15
REMARK H PARENT
REMARK Flexibility Score: inf
ROOT
ATOM      1  C   UNL     1      33.125  10.865  33.436  1.00  0.00     0.008 C 
ATOM      2  C   UNL     1      32.677   9.894  32.328  1.00  0.00    -0.007 C 
ATOM      3  C   UNL     1      31.828   8.776  32.959  1.00  0.00     0.004 C 
ATOM      4  C   UNL     1      31.345   7.783  31.902  1.00  0.00     0.004 C 
ATOM      5  C   UNL     1      30.482   8.485  30.829  1.00  0.00    -0.005 C 
ATOM      6  C   UNL     1      31.302   9.633  30.161  1.00  0.00    -0.000 C 
ATOM      7  C   UNL     1      31.874  10.623  31.219  1.00  0.00     0.018 C 
ATOM      8  C   UNL     1      32.728  11.630  30.476  1.00  0.00    -0.027 C 
ATOM      9  C   UNL     1      32.246  12.203  29.368  1.00  0.00    -0.028 C 
ATOM     10  C   UNL     1      30.830  11.910  28.934  1.00  0.00     0.008 C 
ATOM     11  C   UNL     1      30.476  10.402  29.077  1.00  0.00     0.012 C 
ATOM     12  C   UNL     1      30.578  12.410  27.508  1.00  0.00     0.012 C 
ENDROOT
BRANCH   5  13
ATOM     13  C   UNL     1      29.873   7.471  29.799  1.00  0.00    -0.014 C 
ATOM     14  C   UNL     1      30.890   6.915  28.787  1.00  0.00     0.007 C 
ATOM     15  C   UNL     1      29.142   6.312  30.498  1.00  0.00     0.007 C 
ENDBRANCH   5  13
TORSDOF 1
ENDMDL
MODEL 6
REMARK VINA RESULT:    -5.485      1.500      4.321
REMARK INTER + INTRA:          -6.081
REMARK INTER:                  -5.818
REMARK INTRA:                  -0.263
REMARK UNBOUND:                -0.275
REMARK SMILES CC(C)[C@H]1CC[C@H](C)[C@H]2C=C[C@@H](C)C[C@@H]21
REMARK SMILES IDX 8 1 7 2 6 3 5 4 4 5 15 6 9 7 10 8 11 9 12 10 14 11 13 12
REMARK SMILES IDX 2 13 1 14 3 15
REMARK H PARENT
REMARK Flexibility Score: inf
ROOT
ATOM      1  C   UNL     1      33.122  13.041  30.743  1.00  0.00     0.008 C 
ATOM      2  C   UNL     1      33.015  11.595  31.258  1.00  0.00    -0.007 C 
ATOM      3  C   UNL     1      32.828  11.622  32.785  1.00  0.00     0.004 C 
ATOM      4  C   UNL     1      32.705  10.209  33.355  1.00  0.00     0.004 C 
ATOM      5  C   UNL     1      31.497   9.464  32.743  1.00  0.00    -0.005 C 
ATOM      6  C   UNL     1      31.639   9.413  31.190  1.00  0.00    -0.000 C 
ATOM      7  C   UNL     1      31.843  10.832  30.584  1.00  0.00     0.018 C 
ATOM      8  C   UNL     1      32.069  10.658  29.096  1.00  0.00    -0.027 C 
ATOM      9  C   UNL     1      31.252   9.858  28.401  1.00  0.00    -0.028 C 
ATOM     10  C   UNL     1      30.067   9.225  29.090  1.00  0.00     0.008 C 
ATOM     11  C   UNL     1      30.433   8.689  30.505  1.00  0.00     0.012 C 
ATOM     12  C   UNL     1      29.448   8.127  28.220  1.00  0.00     0.012 C 
ENDROOT
BRANCH   5  13
ATOM     13  C   UNL     1      31.274   8.055  33.397  1.00  0.00    -0.014 C 
ATOM     14  C   UNL     1      32.415   7.056  33.142  1.00  0.00     0.007 C 
ATOM     15  C   UNL     1      30.997   8.160  34.906  1.00  0.00     0.007 C 
ENDBRANCH   5  13
TORSDOF 1
ENDMDL
MODEL 7
REMARK VINA RESULT:    -5.445      0.905      4.668
REMARK INTER + INTRA:          -6.038
REMARK INTER:                  -5.801
REMARK INTRA:                  -0.237
REMARK UNBOUND:                -0.275
REMARK SMILES CC(C)[C@H]1CC[C@H](C)[C@H]2C=C[C@@H](C)C[C@@H]21
REMARK SMILES IDX 8 1 7 2 6 3 5 4 4 5 15 6 9 7 10 8 11 9 12 10 14 11 13 12
REMARK SMILES IDX 2 13 1 14 3 15
REMARK H PARENT
REMARK Flexibility Score: inf
ROOT
ATOM      1  C   UNL     1      32.461  12.235  26.673  1.00  0.00     0.008 C 
ATOM      2  C   UNL     1      31.501  11.389  27.529  1.00  0.00    -0.007 C 
ATOM      3  C   UNL     1      31.203  10.072  26.792  1.00  0.00     0.004 C 
ATOM      4  C   UNL     1      30.258   9.184  27.601  1.00  0.00     0.004 C 
ATOM      5  C   UNL     1      30.867   8.830  28.977  1.00  0.00    -0.005 C 
ATOM      6  C   UNL     1      31.191  10.138  29.764  1.00  0.00    -0.000 C 
ATOM      7  C   UNL     1      32.091  11.100  28.935  1.00  0.00     0.018 C 
ATOM      8  C   UNL     1      32.258  12.370  29.746  1.00  0.00    -0.027 C 
ATOM      9  C   UNL     1      32.571  12.279  31.043  1.00  0.00    -0.028 C 
ATOM     10  C   UNL     1      32.847  10.924  31.649  1.00  0.00     0.008 C 
ATOM     11  C   UNL     1      31.832   9.849  31.161  1.00  0.00     0.012 C 
ATOM     12  C   UNL     1      32.885  11.002  33.178  1.00  0.00     0.012 C 
ENDROOT
BRANCH   5  13
ATOM     13  C   UNL     1      29.973   7.821  29.780  1.00  0.00    -0.014 C 
ATOM     14  C   UNL     1      28.652   7.458  29.082  1.00  0.00     0.007 C 
ATOM     15  C   UNL     1      30.741   6.541  30.149  1.00  0.00     0.007 C 
ENDBRANCH   5  13
TORSDOF 1
ENDMDL
MODEL 8
REMARK VINA RESULT:    -5.441      1.142      3.902
REMARK INTER + INTRA:          -6.035
REMARK INTER:                  -5.760
REMARK INTRA:                  -0.274
REMARK UNBOUND:                -0.275
REMARK SMILES CC(C)[C@H]1CC[C@H](C)[C@H]2C=C[C@@H](C)C[C@@H]21
REMARK SMILES IDX 8 1 7 2 6 3 5 4 4 5 15 6 9 7 10 8 11 9 12 10 14 11 13 12
REMARK SMILES IDX 2 13 1 14 3 15
REMARK H PARENT
REMARK Flexibility Score: inf
ROOT
ATOM      1  C   UNL     1      32.079  11.602  26.736  1.00  0.00     0.008 C 
ATOM      2  C   UNL     1      32.378  11.088  28.156  1.00  0.00    -0.007 C 
ATOM      3  C   UNL     1      32.242  12.256  29.149  1.00  0.00     0.004 C 
ATOM      4  C   UNL     1      32.519  11.802  30.581  1.00  0.00     0.004 C 
ATOM      5  C   UNL     1      31.534  10.693  31.017  1.00  0.00    -0.005 C 
ATOM      6  C   UNL     1      31.633   9.484  30.035  1.00  0.00    -0.000 C 
ATOM      7  C   UNL     1      31.431   9.926  28.556  1.00  0.00     0.018 C 
ATOM      8  C   UNL     1      31.646   8.702  27.688  1.00  0.00    -0.027 C 
ATOM      9  C   UNL     1      31.049   7.553  28.022  1.00  0.00    -0.028 C 
ATOM     10  C   UNL     1      30.100   7.520  29.196  1.00  0.00     0.008 C 
ATOM     11  C   UNL     1      30.642   8.332  30.407  1.00  0.00     0.012 C 
ATOM     12  C   UNL     1      29.767   6.079  29.594  1.00  0.00     0.012 C 
ENDROOT
BRANCH   5  13
ATOM     13  C   UNL     1      31.717  10.293  32.523  1.00  0.00    -0.014 C 
ATOM     14  C   UNL     1      33.125  10.566  33.079  1.00  0.00     0.007 C 
ATOM     15  C   UNL     1      30.660  10.952  33.424  1.00  0.00     0.007 C 
ENDBRANCH   5  13
TORSDOF 1
ENDMDL
MODEL 9
REMARK VINA RESULT:    -5.313      1.091      3.750
REMARK INTER + INTRA:          -5.898
REMARK INTER:                  -5.624
REMARK INTRA:                  -0.274
REMARK UNBOUND:                -0.275
REMARK SMILES CC(C)[C@H]1CC[C@H](C)[C@H]2C=C[C@@H](C)C[C@@H]21
REMARK SMILES IDX 8 1 7 2 6 3 5 4 4 5 15 6 9 7 10 8 11 9 12 10 14 11 13 12
REMARK SMILES IDX 2 13 1 14 3 15
REMARK H PARENT
REMARK Flexibility Score: inf
ROOT
ATOM      1  C   UNL     1      29.357   6.493  30.682  1.00  0.00     0.008 C 
ATOM      2  C   UNL     1      30.273   7.528  30.004  1.00  0.00    -0.007 C 
ATOM      3  C   UNL     1      29.520   8.161  28.820  1.00  0.00     0.004 C 
ATOM      4  C   UNL     1      30.380   9.207  28.111  1.00  0.00     0.004 C 
ATOM      5  C   UNL     1      30.785  10.344  29.077  1.00  0.00    -0.005 C 
ATOM      6  C   UNL     1      31.551   9.750  30.300  1.00  0.00    -0.000 C 
ATOM      7  C   UNL     1      30.733   8.625  31.000  1.00  0.00     0.018 C 
ATOM      8  C   UNL     1      31.604   8.055  32.101  1.00  0.00    -0.027 C 
ATOM      9  C   UNL     1      32.241   8.891  32.928  1.00  0.00    -0.028 C 
ATOM     10  C   UNL     1      32.003  10.377  32.813  1.00  0.00     0.008 C 
ATOM     11  C   UNL     1      31.972  10.849  31.330  1.00  0.00     0.012 C 
ATOM     12  C   UNL     1      33.035  11.164  33.627  1.00  0.00     0.012 C 
ENDROOT
BRANCH   5  13
ATOM     13  C   UNL     1      31.566  11.493  28.348  1.00  0.00    -0.014 C 
ATOM     14  C   UNL     1      32.354  11.030  27.110  1.00  0.00     0.007 C 
ATOM     15  C   UNL     1      30.645  12.666  27.974  1.00  0.00     0.007 C 
ENDBRANCH   5  13
TORSDOF 1
ENDMDL
