MODEL 1
REMARK VINA RESULT:     2.748      0.000      0.000
REMARK INTER + INTRA:           2.667
REMARK INTER:                   2.989
REMARK INTRA:                  -0.322
REMARK UNBOUND:                -0.322
REMARK SMILES C[C@H]1[C@H](C)CC[C@]2(C(=O)[O-])CC[C@@]3(C)C(=CC[C@H]4[C@@]5(C)CC[C@@H](O)C(C)(C)[C@H]5CC[C@]43C)[C@H]12
REMARK SMILES IDX 7 1 6 2 11 3 33 4 5 5 12 6 15 7 2 8 3 9 13 10 16 11 1 12
REMARK SMILES IDX 4 13 14 14 31 15 17 16 18 17 30 18 32 19 19 20 29 21 28 22
REMARK SMILES IDX 21 23 20 24 25 25 22 26 23 27 26 28 27 29 8 30 9 31 10 32
REMARK SMILES IDX 24 33
REMARK H PARENT 24 34
REMARK Flexibility Score: inf
ROOT
ATOM      1  C   UNL     1      -4.076  21.788 -14.229  1.00  0.00     0.017 C 
ATOM      2  C   UNL     1      -4.188  20.689 -13.144  1.00  0.00     0.014 C 
ATOM      3  C   UNL     1      -3.013  21.314 -15.256  1.00  0.00     0.014 C 
ATOM      4  C   UNL     1      -3.644  23.164 -13.565  1.00  0.00     0.030 C 
ATOM      5  C   UNL     1      -5.293  20.991 -12.129  1.00  0.00     0.004 C 
ATOM      6  C   UNL     1      -2.566  22.466 -16.163  1.00  0.00     0.013 C 
ATOM      7  C   UNL     1      -2.166  23.537 -13.911  1.00  0.00    -0.063 C 
ATOM      8  C   UNL     1      -4.034  23.263 -12.034  1.00  0.00    -0.003 C 
ATOM      9  C   UNL     1      -5.339  22.477 -11.687  1.00  0.00    -0.011 C 
ATOM     10  C   UNL     1      -1.758  23.582 -15.395  1.00  0.00    -0.006 C 
ATOM     11  C   UNL     1      -1.295  23.957 -12.972  1.00  0.00    -0.027 C 
ATOM     12  C   UNL     1      -4.177  24.748 -11.616  1.00  0.00     0.008 C 
ATOM     13  C   UNL     1      -5.677  22.537 -10.182  1.00  0.00     0.008 C 
ATOM     14  C   UNL     1      -2.251  24.967 -15.924  1.00  0.00     0.017 C 
ATOM     15  C   UNL     1      -0.161  23.427 -15.617  1.00  0.00    -0.020 C 
ATOM     16  C   UNL     1       0.143  24.283 -13.209  1.00  0.00     0.032 C 
ATOM     17  C   UNL     1       0.635  24.409 -14.676  1.00  0.00     0.006 C 
ATOM     18  C   UNL     1       0.322  21.998 -15.250  1.00  0.00     0.008 C 
ATOM     19  C   UNL     1       0.151  23.723 -17.125  1.00  0.00     0.012 C 
ATOM     20  C   UNL     1       2.241  24.336 -14.780  1.00  0.00    -0.025 C 
ATOM     21  C   UNL     1       1.830  21.755 -15.399  1.00  0.00     0.005 C 
ATOM     22  C   UNL     1       2.817  22.848 -14.862  1.00  0.00     0.003 C 
ATOM     23  C   UNL     1       2.899  25.125 -13.587  1.00  0.00     0.010 C 
ATOM     24  C   UNL     1       2.699  25.124 -16.056  1.00  0.00     0.012 C 
ATOM     25  C   UNL     1       3.736  22.363 -13.661  1.00  0.00    -0.006 C 
ATOM     26  C   UNL     1       4.405  24.910 -13.421  1.00  0.00     0.033 C 
ATOM     27  C   UNL     1       4.856  23.429 -13.397  1.00  0.00     0.120 C 
ATOM     28  C   UNL     1       2.931  22.050 -12.369  1.00  0.00     0.014 C 
ATOM     29  C   UNL     1       4.476  21.044 -14.052  1.00  0.00     0.014 C 
ENDROOT
BRANCH   1  30
ATOM     30  C   UNL     1      -5.423  21.896 -14.954  1.00  0.00     0.048 C 
ATOM     31  O   UNL     1      -5.982  23.020 -15.074  1.00  0.00    -0.550 OA
ATOM     32  O   UNL     1      -6.012  20.798 -15.567  1.00  0.00    -0.550 OA
ENDBRANCH   1  30
BRANCH  27  33
ATOM     33  O   UNL     1       5.502  23.154 -12.174  1.00  0.00    -0.393 OA
ATOM     34  H   UNL     1       4.872  22.632 -11.612  1.00  0.00     0.210 HD
ENDBRANCH  27  33
TORSDOF 2
ENDMDL
