MODEL 1
REMARK VINA RESULT:    -6.947      0.000      0.000
REMARK INTER + INTRA:          -7.150
REMARK INTER:                  -7.150
REMARK INTRA:                   0.000
REMARK UNBOUND:                 0.000
REMARK SMILES CC1(C)CC[C@@]2(C)CC[C@@]3(C)C(=CC[C@H]4[C@]5(C)CC[C@H](O)C(C)(C)[C@@H]5CC[C@@]43C)[C@H]2C1
REMARK SMILES IDX 1 1 2 2 4 3 5 4 6 5 8 6 9 7 10 8 12 9 13 10 14 11 15 12
REMARK SMILES IDX 28 13 27 14 26 15 25 16 16 17 18 18 19 19 20 20 22 21 23 22
REMARK SMILES IDX 24 23 17 24 29 25 30 26 31 27 11 28 7 29 3 30 21 31
REMARK H PARENT 21 32
REMARK Flexibility Score: inf
ROOT
ATOM      1  C   UNL     1     138.413 132.371 134.103  1.00  0.00     0.011 C 
ATOM      2  C   UNL     1     137.402 131.918 135.180  1.00  0.00    -0.035 C 
ATOM      3  C   UNL     1     137.838 130.533 135.710  1.00  0.00     0.007 C 
ATOM      4  C   UNL     1     136.960 130.045 136.865  1.00  0.00     0.008 C 
ATOM      5  C   UNL     1     136.857 131.041 138.067  1.00  0.00    -0.026 C 
ATOM      6  C   UNL     1     138.141 130.951 138.978  1.00  0.00     0.008 C 
ATOM      7  C   UNL     1     138.928 132.263 139.245  1.00  0.00     0.012 C 
ATOM      8  C   UNL     1     138.092 133.580 139.510  1.00  0.00    -0.006 C 
ATOM      9  C   UNL     1     136.749 133.469 138.767  1.00  0.00    -0.064 C 
ATOM     10  C   UNL     1     135.653 134.121 139.209  1.00  0.00    -0.027 C 
ATOM     11  C   UNL     1     135.510 134.690 140.594  1.00  0.00     0.032 C 
ATOM     12  C   UNL     1     136.843 135.020 141.310  1.00  0.00     0.006 C 
ATOM     13  C   UNL     1     137.877 133.864 141.093  1.00  0.00    -0.020 C 
ATOM     14  C   UNL     1     139.200 134.361 141.737  1.00  0.00     0.008 C 
ATOM     15  C   UNL     1     139.145 134.669 143.234  1.00  0.00     0.005 C 
ATOM     16  C   UNL     1     137.759 135.004 143.863  1.00  0.00     0.003 C 
ATOM     17  C   UNL     1     136.719 135.622 142.816  1.00  0.00    -0.025 C 
ATOM     18  C   UNL     1     136.976 137.160 142.724  1.00  0.00     0.010 C 
ATOM     19  C   UNL     1     137.000 137.894 144.068  1.00  0.00     0.033 C 
ATOM     20  C   UNL     1     138.081 137.336 145.010  1.00  0.00     0.120 C 
ATOM     21  C   UNL     1     137.923 135.800 145.251  1.00  0.00    -0.006 C 
ATOM     22  C   UNL     1     139.163 135.291 146.053  1.00  0.00     0.014 C 
ATOM     23  C   UNL     1     136.713 135.549 146.215  1.00  0.00     0.014 C 
ATOM     24  C   UNL     1     135.268 135.392 143.342  1.00  0.00     0.012 C 
ATOM     25  C   UNL     1     137.393 132.564 141.797  1.00  0.00     0.012 C 
ATOM     26  C   UNL     1     136.590 132.502 137.582  1.00  0.00     0.022 C 
ATOM     27  C   UNL     1     137.442 132.921 136.354  1.00  0.00     0.015 C 
ATOM     28  C   UNL     1     138.885 134.760 138.841  1.00  0.00     0.017 C 
ATOM     29  C   UNL     1     135.619 130.568 138.884  1.00  0.00     0.012 C 
ATOM     30  C   UNL     1     136.003 131.871 134.521  1.00  0.00     0.011 C 
ENDROOT
BRANCH  20  31
ATOM     31  O   UNL     1     139.350 137.633 144.485  1.00  0.00    -0.393 OA
ATOM     32  H   UNL     1     139.961 136.898 144.756  1.00  0.00     0.210 HD
ENDBRANCH  20  31
TORSDOF 1
ENDMDL
MODEL 2
REMARK VINA RESULT:    -6.650      2.531      8.180
REMARK INTER + INTRA:          -6.844
REMARK INTER:                  -6.844
REMARK INTRA:                   0.000
REMARK UNBOUND:                 0.000
REMARK SMILES CC1(C)CC[C@@]2(C)CC[C@@]3(C)C(=CC[C@H]4[C@]5(C)CC[C@H](O)C(C)(C)[C@@H]5CC[C@@]43C)[C@H]2C1
REMARK SMILES IDX 1 1 2 2 4 3 5 4 6 5 8 6 9 7 10 8 12 9 13 10 14 11 15 12
REMARK SMILES IDX 28 13 27 14 26 15 25 16 16 17 18 18 19 19 20 20 22 21 23 22
REMARK SMILES IDX 24 23 17 24 29 25 30 26 31 27 11 28 7 29 3 30 21 31
REMARK H PARENT 21 32
REMARK Flexibility Score: inf
ROOT
ATOM      1  C   UNL     1     135.994 136.745 144.747  1.00  0.00     0.011 C 
ATOM      2  C   UNL     1     137.318 136.165 144.204  1.00  0.00    -0.035 C 
ATOM      3  C   UNL     1     137.624 134.851 144.959  1.00  0.00     0.007 C 
ATOM      4  C   UNL     1     138.863 134.136 144.415  1.00  0.00     0.008 C 
ATOM      5  C   UNL     1     138.821 133.843 142.879  1.00  0.00    -0.026 C 
ATOM      6  C   UNL     1     137.934 132.576 142.577  1.00  0.00     0.008 C 
ATOM      7  C   UNL     1     136.761 132.740 141.571  1.00  0.00     0.012 C 
ATOM      8  C   UNL     1     137.019 133.616 140.280  1.00  0.00    -0.006 C 
ATOM      9  C   UNL     1     138.079 134.681 140.610  1.00  0.00    -0.064 C 
ATOM     10  C   UNL     1     138.881 135.187 139.649  1.00  0.00    -0.027 C 
ATOM     11  C   UNL     1     139.091 134.551 138.303  1.00  0.00     0.032 C 
ATOM     12  C   UNL     1     137.943 133.628 137.826  1.00  0.00     0.006 C 
ATOM     13  C   UNL     1     137.455 132.716 139.002  1.00  0.00    -0.020 C 
ATOM     14  C   UNL     1     136.231 131.938 138.447  1.00  0.00     0.008 C 
ATOM     15  C   UNL     1     136.496 131.042 137.236  1.00  0.00     0.005 C 
ATOM     16  C   UNL     1     137.726 131.371 136.336  1.00  0.00     0.003 C 
ATOM     17  C   UNL     1     138.150 132.912 136.379  1.00  0.00    -0.025 C 
ATOM     18  C   UNL     1     137.271 133.688 135.348  1.00  0.00     0.010 C 
ATOM     19  C   UNL     1     137.256 133.097 133.935  1.00  0.00     0.033 C 
ATOM     20  C   UNL     1     136.748 131.646 133.924  1.00  0.00     0.120 C 
ATOM     21  C   UNL     1     137.572 130.720 134.874  1.00  0.00    -0.006 C 
ATOM     22  C   UNL     1     136.871 129.325 134.945  1.00  0.00     0.014 C 
ATOM     23  C   UNL     1     138.964 130.416 134.221  1.00  0.00     0.014 C 
ATOM     24  C   UNL     1     139.646 133.043 135.953  1.00  0.00     0.012 C 
ATOM     25  C   UNL     1     138.577 131.723 139.421  1.00  0.00     0.012 C 
ATOM     26  C   UNL     1     138.345 135.092 142.069  1.00  0.00     0.022 C 
ATOM     27  C   UNL     1     137.140 135.833 142.706  1.00  0.00     0.015 C 
ATOM     28  C   UNL     1     135.682 134.385 139.981  1.00  0.00     0.017 C 
ATOM     29  C   UNL     1     140.295 133.540 142.481  1.00  0.00     0.012 C 
ATOM     30  C   UNL     1     138.421 137.227 144.423  1.00  0.00     0.011 C 
ENDROOT
BRANCH  20  31
ATOM     31  O   UNL     1     135.385 131.631 134.267  1.00  0.00    -0.393 OA
ATOM     32  H   UNL     1     135.310 131.195 135.157  1.00  0.00     0.210 HD
ENDBRANCH  20  31
TORSDOF 1
ENDMDL
MODEL 3
REMARK VINA RESULT:    -6.641     11.235     13.754
REMARK INTER + INTRA:          -6.835
REMARK INTER:                  -6.835
REMARK INTRA:                   0.000
REMARK UNBOUND:                 0.000
REMARK SMILES CC1(C)CC[C@@]2(C)CC[C@@]3(C)C(=CC[C@H]4[C@]5(C)CC[C@H](O)C(C)(C)[C@@H]5CC[C@@]43C)[C@H]2C1
REMARK SMILES IDX 1 1 2 2 4 3 5 4 6 5 8 6 9 7 10 8 12 9 13 10 14 11 15 12
REMARK SMILES IDX 28 13 27 14 26 15 25 16 16 17 18 18 19 19 20 20 22 21 23 22
REMARK SMILES IDX 24 23 17 24 29 25 30 26 31 27 11 28 7 29 3 30 21 31
REMARK H PARENT 21 32
REMARK Flexibility Score: inf
ROOT
ATOM      1  C   UNL     1     123.162 121.923 144.695  1.00  0.00     0.011 C 
ATOM      2  C   UNL     1     124.552 121.739 145.342  1.00  0.00    -0.035 C 
ATOM      3  C   UNL     1     125.353 120.720 144.500  1.00  0.00     0.007 C 
ATOM      4  C   UNL     1     126.791 120.551 144.996  1.00  0.00     0.008 C 
ATOM      5  C   UNL     1     127.605 121.883 145.091  1.00  0.00    -0.026 C 
ATOM      6  C   UNL     1     128.126 122.322 143.670  1.00  0.00     0.008 C 
ATOM      7  C   UNL     1     127.753 123.746 143.174  1.00  0.00     0.012 C 
ATOM      8  C   UNL     1     127.805 124.927 144.225  1.00  0.00    -0.006 C 
ATOM      9  C   UNL     1     127.515 124.355 145.624  1.00  0.00    -0.064 C 
ATOM     10  C   UNL     1     128.005 124.947 146.733  1.00  0.00    -0.027 C 
ATOM     11  C   UNL     1     129.129 125.945 146.732  1.00  0.00     0.032 C 
ATOM     12  C   UNL     1     129.328 126.709 145.399  1.00  0.00     0.006 C 
ATOM     13  C   UNL     1     129.217 125.724 144.187  1.00  0.00    -0.020 C 
ATOM     14  C   UNL     1     129.302 126.614 142.917  1.00  0.00     0.008 C 
ATOM     15  C   UNL     1     130.587 127.425 142.749  1.00  0.00     0.005 C 
ATOM     16  C   UNL     1     131.422 127.749 144.024  1.00  0.00     0.003 C 
ATOM     17  C   UNL     1     130.548 127.785 145.363  1.00  0.00    -0.025 C 
ATOM     18  C   UNL     1     129.916 129.207 145.495  1.00  0.00     0.010 C 
ATOM     19  C   UNL     1     130.908 130.369 145.380  1.00  0.00     0.033 C 
ATOM     20  C   UNL     1     131.656 130.357 144.037  1.00  0.00     0.120 C 
ATOM     21  C   UNL     1     132.397 129.005 143.782  1.00  0.00    -0.006 C 
ATOM     22  C   UNL     1     132.961 129.012 142.325  1.00  0.00     0.014 C 
ATOM     23  C   UNL     1     133.674 128.936 144.687  1.00  0.00     0.014 C 
ATOM     24  C   UNL     1     131.482 127.541 146.589  1.00  0.00     0.012 C 
ATOM     25  C   UNL     1     130.393 124.705 144.207  1.00  0.00     0.012 C 
ATOM     26  C   UNL     1     126.777 123.014 145.781  1.00  0.00     0.022 C 
ATOM     27  C   UNL     1     125.301 123.090 145.308  1.00  0.00     0.015 C 
ATOM     28  C   UNL     1     126.617 125.894 143.876  1.00  0.00     0.017 C 
ATOM     29  C   UNL     1     128.825 121.552 146.001  1.00  0.00     0.012 C 
ATOM     30  C   UNL     1     124.334 121.247 146.792  1.00  0.00     0.011 C 
ENDROOT
BRANCH  20  31
ATOM     31  O   UNL     1     130.750 130.636 143.000  1.00  0.00    -0.393 OA
ATOM     32  H   UNL     1     130.994 131.523 142.626  1.00  0.00     0.210 HD
ENDBRANCH  20  31
TORSDOF 1
ENDMDL
MODEL 4
REMARK VINA RESULT:    -6.608      9.842     13.933
REMARK INTER + INTRA:          -6.801
REMARK INTER:                  -6.801
REMARK INTRA:                   0.000
REMARK UNBOUND:                 0.000
REMARK SMILES CC1(C)CC[C@@]2(C)CC[C@@]3(C)C(=CC[C@H]4[C@]5(C)CC[C@H](O)C(C)(C)[C@@H]5CC[C@@]43C)[C@H]2C1
REMARK SMILES IDX 1 1 2 2 4 3 5 4 6 5 8 6 9 7 10 8 12 9 13 10 14 11 15 12
REMARK SMILES IDX 28 13 27 14 26 15 25 16 16 17 18 18 19 19 20 20 22 21 23 22
REMARK SMILES IDX 24 23 17 24 29 25 30 26 31 27 11 28 7 29 3 30 21 31
REMARK H PARENT 21 32
REMARK Flexibility Score: inf
ROOT
ATOM      1  C   UNL     1     128.471 124.618 147.086  1.00  0.00     0.011 C 
ATOM      2  C   UNL     1     128.491 123.611 145.915  1.00  0.00    -0.035 C 
ATOM      3  C   UNL     1     127.031 123.269 145.540  1.00  0.00     0.007 C 
ATOM      4  C   UNL     1     126.939 122.361 144.310  1.00  0.00     0.008 C 
ATOM      5  C   UNL     1     127.675 122.908 143.043  1.00  0.00    -0.026 C 
ATOM      6  C   UNL     1     126.804 124.005 142.322  1.00  0.00     0.008 C 
ATOM      7  C   UNL     1     127.453 125.395 142.079  1.00  0.00     0.012 C 
ATOM      8  C   UNL     1     128.966 125.429 141.619  1.00  0.00    -0.006 C 
ATOM      9  C   UNL     1     129.680 124.187 142.179  1.00  0.00    -0.064 C 
ATOM     10  C   UNL     1     130.751 123.656 141.552  1.00  0.00    -0.027 C 
ATOM     11  C   UNL     1     131.127 123.952 140.126  1.00  0.00     0.032 C 
ATOM     12  C   UNL     1     130.607 125.304 139.577  1.00  0.00     0.006 C 
ATOM     13  C   UNL     1     129.117 125.527 140.006  1.00  0.00    -0.020 C 
ATOM     14  C   UNL     1     128.751 126.954 139.515  1.00  0.00     0.008 C 
ATOM     15  C   UNL     1     128.847 127.192 138.008  1.00  0.00     0.005 C 
ATOM     16  C   UNL     1     129.783 126.263 137.177  1.00  0.00     0.003 C 
ATOM     17  C   UNL     1     130.985 125.644 138.031  1.00  0.00    -0.025 C 
ATOM     18  C   UNL     1     132.150 126.684 138.057  1.00  0.00     0.010 C 
ATOM     19  C   UNL     1     132.581 127.207 136.684  1.00  0.00     0.033 C 
ATOM     20  C   UNL     1     131.421 127.884 135.935  1.00  0.00     0.120 C 
ATOM     21  C   UNL     1     130.186 126.940 135.775  1.00  0.00    -0.006 C 
ATOM     22  C   UNL     1     129.000 127.766 135.182  1.00  0.00     0.014 C 
ATOM     23  C   UNL     1     130.494 125.867 134.675  1.00  0.00     0.014 C 
ATOM     24  C   UNL     1     131.494 124.346 137.331  1.00  0.00     0.012 C 
ATOM     25  C   UNL     1     128.193 124.474 139.329  1.00  0.00     0.012 C 
ATOM     26  C   UNL     1     129.104 123.436 143.393  1.00  0.00     0.022 C 
ATOM     27  C   UNL     1     129.161 124.280 144.694  1.00  0.00     0.015 C 
ATOM     28  C   UNL     1     129.621 126.678 142.310  1.00  0.00     0.017 C 
ATOM     29  C   UNL     1     127.831 121.679 142.100  1.00  0.00     0.012 C 
ATOM     30  C   UNL     1     129.276 122.363 146.381  1.00  0.00     0.011 C 
ENDROOT
BRANCH  20  31
ATOM     31  O   UNL     1     131.065 129.066 136.605  1.00  0.00    -0.393 OA
ATOM     32  H   UNL     1     131.905 129.563 136.793  1.00  0.00     0.210 HD
ENDBRANCH  20  31
TORSDOF 1
ENDMDL
MODEL 5
REMARK VINA RESULT:    -6.561      3.037      6.366
REMARK INTER + INTRA:          -6.752
REMARK INTER:                  -6.752
REMARK INTRA:                   0.000
REMARK UNBOUND:                 0.000
REMARK SMILES CC1(C)CC[C@@]2(C)CC[C@@]3(C)C(=CC[C@H]4[C@]5(C)CC[C@H](O)C(C)(C)[C@@H]5CC[C@@]43C)[C@H]2C1
REMARK SMILES IDX 1 1 2 2 4 3 5 4 6 5 8 6 9 7 10 8 12 9 13 10 14 11 15 12
REMARK SMILES IDX 28 13 27 14 26 15 25 16 16 17 18 18 19 19 20 20 22 21 23 22
REMARK SMILES IDX 24 23 17 24 29 25 30 26 31 27 11 28 7 29 3 30 21 31
REMARK H PARENT 21 32
REMARK Flexibility Score: inf
ROOT
ATOM      1  C   UNL     1     135.139 128.908 130.093  1.00  0.00     0.011 C 
ATOM      2  C   UNL     1     136.585 129.230 130.530  1.00  0.00    -0.035 C 
ATOM      3  C   UNL     1     137.008 130.564 129.875  1.00  0.00     0.007 C 
ATOM      4  C   UNL     1     138.391 131.031 130.336  1.00  0.00     0.008 C 
ATOM      5  C   UNL     1     138.551 131.153 131.888  1.00  0.00    -0.026 C 
ATOM      6  C   UNL     1     137.903 132.491 132.412  1.00  0.00     0.008 C 
ATOM      7  C   UNL     1     136.828 132.381 133.528  1.00  0.00     0.012 C 
ATOM      8  C   UNL     1     137.079 131.337 134.690  1.00  0.00    -0.006 C 
ATOM      9  C   UNL     1     137.925 130.177 134.137  1.00  0.00    -0.064 C 
ATOM     10  C   UNL     1     138.733 129.458 134.943  1.00  0.00    -0.027 C 
ATOM     11  C   UNL     1     139.175 129.903 136.311  1.00  0.00     0.032 C 
ATOM     12  C   UNL     1     138.235 130.919 137.006  1.00  0.00     0.006 C 
ATOM     13  C   UNL     1     137.775 132.017 135.988  1.00  0.00    -0.020 C 
ATOM     14  C   UNL     1     136.747 132.892 136.756  1.00  0.00     0.008 C 
ATOM     15  C   UNL     1     137.268 133.599 138.008  1.00  0.00     0.005 C 
ATOM     16  C   UNL     1     138.518 133.001 138.721  1.00  0.00     0.003 C 
ATOM     17  C   UNL     1     138.695 131.430 138.480  1.00  0.00    -0.025 C 
ATOM     18  C   UNL     1     137.818 130.675 139.528  1.00  0.00     0.010 C 
ATOM     19  C   UNL     1     138.037 131.099 140.983  1.00  0.00     0.033 C 
ATOM     20  C   UNL     1     137.760 132.597 141.194  1.00  0.00     0.120 C 
ATOM     21  C   UNL     1     138.615 133.499 140.248  1.00  0.00    -0.006 C 
ATOM     22  C   UNL     1     138.131 134.977 140.394  1.00  0.00     0.014 C 
ATOM     23  C   UNL     1     140.096 133.528 140.759  1.00  0.00     0.014 C 
ATOM     24  C   UNL     1     140.189 131.043 138.713  1.00  0.00     0.012 C 
ATOM     25  C   UNL     1     138.987 132.883 135.539  1.00  0.00     0.012 C 
ATOM     26  C   UNL     1     137.975 129.900 132.624  1.00  0.00     0.022 C 
ATOM     27  C   UNL     1     136.613 129.413 132.064  1.00  0.00     0.015 C 
ATOM     28  C   UNL     1     135.678 130.736 135.068  1.00  0.00     0.017 C 
ATOM     29  C   UNL     1     140.087 131.199 132.137  1.00  0.00     0.012 C 
ATOM     30  C   UNL     1     137.485 128.055 130.082  1.00  0.00     0.011 C 
ENDROOT
BRANCH  20  31
ATOM     31  O   UNL     1     136.388 132.843 141.016  1.00  0.00    -0.393 OA
ATOM     32  H   UNL     1     135.935 132.618 141.872  1.00  0.00     0.210 HD
ENDBRANCH  20  31
TORSDOF 1
ENDMDL
MODEL 6
REMARK VINA RESULT:    -6.552      2.602      4.919
REMARK INTER + INTRA:          -6.743
REMARK INTER:                  -6.743
REMARK INTRA:                   0.000
REMARK UNBOUND:                 0.000
REMARK SMILES CC1(C)CC[C@@]2(C)CC[C@@]3(C)C(=CC[C@H]4[C@]5(C)CC[C@H](O)C(C)(C)[C@@H]5CC[C@@]43C)[C@H]2C1
REMARK SMILES IDX 1 1 2 2 4 3 5 4 6 5 8 6 9 7 10 8 12 9 13 10 14 11 15 12
REMARK SMILES IDX 28 13 27 14 26 15 25 16 16 17 18 18 19 19 20 20 22 21 23 22
REMARK SMILES IDX 24 23 17 24 29 25 30 26 31 27 11 28 7 29 3 30 21 31
REMARK H PARENT 21 32
REMARK Flexibility Score: inf
ROOT
ATOM      1  C   UNL     1     139.446 130.647 130.018  1.00  0.00     0.011 C 
ATOM      2  C   UNL     1     138.092 130.726 130.757  1.00  0.00    -0.035 C 
ATOM      3  C   UNL     1     137.571 129.288 130.982  1.00  0.00     0.007 C 
ATOM      4  C   UNL     1     136.284 129.253 131.809  1.00  0.00     0.008 C 
ATOM      5  C   UNL     1     136.381 129.982 133.190  1.00  0.00    -0.026 C 
ATOM      6  C   UNL     1     137.110 129.072 134.251  1.00  0.00     0.008 C 
ATOM      7  C   UNL     1     138.353 129.662 134.973  1.00  0.00     0.012 C 
ATOM      8  C   UNL     1     138.291 131.178 135.420  1.00  0.00    -0.006 C 
ATOM      9  C   UNL     1     137.362 131.939 134.458  1.00  0.00    -0.064 C 
ATOM     10  C   UNL     1     136.694 133.040 134.860  1.00  0.00    -0.027 C 
ATOM     11  C   UNL     1     136.483 133.422 136.299  1.00  0.00     0.032 C 
ATOM     12  C   UNL     1     137.528 132.850 137.290  1.00  0.00     0.006 C 
ATOM     13  C   UNL     1     137.819 131.347 136.963  1.00  0.00    -0.020 C 
ATOM     14  C   UNL     1     138.961 130.924 137.926  1.00  0.00     0.008 C 
ATOM     15  C   UNL     1     138.655 131.030 139.421  1.00  0.00     0.005 C 
ATOM     16  C   UNL     1     137.535 132.017 139.872  1.00  0.00     0.003 C 
ATOM     17  C   UNL     1     137.316 133.234 138.857  1.00  0.00    -0.025 C 
ATOM     18  C   UNL     1     138.350 134.351 139.205  1.00  0.00     0.010 C 
ATOM     19  C   UNL     1     138.373 134.777 140.676  1.00  0.00     0.033 C 
ATOM     20  C   UNL     1     138.686 133.598 141.612  1.00  0.00     0.120 C 
ATOM     21  C   UNL     1     137.691 132.409 141.424  1.00  0.00    -0.006 C 
ATOM     22  C   UNL     1     138.197 131.195 142.267  1.00  0.00     0.014 C 
ATOM     23  C   UNL     1     136.314 132.779 142.073  1.00  0.00     0.014 C 
ATOM     24  C   UNL     1     135.879 133.810 139.054  1.00  0.00     0.012 C 
ATOM     25  C   UNL     1     136.553 130.480 137.220  1.00  0.00     0.012 C 
ATOM     26  C   UNL     1     137.064 131.380 133.056  1.00  0.00     0.022 C 
ATOM     27  C   UNL     1     138.315 131.383 132.138  1.00  0.00     0.015 C 
ATOM     28  C   UNL     1     139.733 131.768 135.218  1.00  0.00     0.017 C 
ATOM     29  C   UNL     1     134.906 130.204 133.638  1.00  0.00     0.012 C 
ATOM     30  C   UNL     1     137.127 131.560 129.881  1.00  0.00     0.011 C 
ENDROOT
BRANCH  20  31
ATOM     31  O   UNL     1     140.012 133.181 141.403  1.00  0.00    -0.393 OA
ATOM     32  H   UNL     1     140.051 132.210 141.609  1.00  0.00     0.210 HD
ENDBRANCH  20  31
TORSDOF 1
ENDMDL
MODEL 7
REMARK VINA RESULT:    -6.295     10.399     13.361
REMARK INTER + INTRA:          -6.479
REMARK INTER:                  -6.479
REMARK INTRA:                   0.000
REMARK UNBOUND:                 0.000
REMARK SMILES CC1(C)CC[C@@]2(C)CC[C@@]3(C)C(=CC[C@H]4[C@]5(C)CC[C@H](O)C(C)(C)[C@@H]5CC[C@@]43C)[C@H]2C1
REMARK SMILES IDX 1 1 2 2 4 3 5 4 6 5 8 6 9 7 10 8 12 9 13 10 14 11 15 12
REMARK SMILES IDX 28 13 27 14 26 15 25 16 16 17 18 18 19 19 20 20 22 21 23 22
REMARK SMILES IDX 24 23 17 24 29 25 30 26 31 27 11 28 7 29 3 30 21 31
REMARK H PARENT 21 32
REMARK Flexibility Score: inf
ROOT
ATOM      1  C   UNL     1     133.375 126.463 136.536  1.00  0.00     0.011 C 
ATOM      2  C   UNL     1     132.083 127.039 137.155  1.00  0.00    -0.035 C 
ATOM      3  C   UNL     1     130.905 126.737 136.201  1.00  0.00     0.007 C 
ATOM      4  C   UNL     1     129.555 127.170 136.779  1.00  0.00     0.008 C 
ATOM      5  C   UNL     1     129.233 126.577 138.190  1.00  0.00    -0.026 C 
ATOM      6  C   UNL     1     128.724 125.090 138.067  1.00  0.00     0.008 C 
ATOM      7  C   UNL     1     129.480 124.001 138.877  1.00  0.00     0.012 C 
ATOM      8  C   UNL     1     129.933 124.362 140.349  1.00  0.00    -0.006 C 
ATOM      9  C   UNL     1     130.178 125.879 140.431  1.00  0.00    -0.064 C 
ATOM     10  C   UNL     1     130.036 126.546 141.596  1.00  0.00    -0.027 C 
ATOM     11  C   UNL     1     129.303 126.008 142.793  1.00  0.00     0.032 C 
ATOM     12  C   UNL     1     129.212 124.463 142.868  1.00  0.00     0.006 C 
ATOM     13  C   UNL     1     128.859 123.871 141.462  1.00  0.00    -0.020 C 
ATOM     14  C   UNL     1     128.924 122.329 141.631  1.00  0.00     0.008 C 
ATOM     15  C   UNL     1     127.960 121.723 142.652  1.00  0.00     0.005 C 
ATOM     16  C   UNL     1     127.425 122.643 143.791  1.00  0.00     0.003 C 
ATOM     17  C   UNL     1     128.410 123.852 144.145  1.00  0.00    -0.025 C 
ATOM     18  C   UNL     1     129.479 123.330 145.158  1.00  0.00     0.010 C 
ATOM     19  C   UNL     1     128.910 122.623 146.391  1.00  0.00     0.033 C 
ATOM     20  C   UNL     1     128.050 121.406 146.012  1.00  0.00     0.120 C 
ATOM     21  C   UNL     1     126.888 121.780 145.037  1.00  0.00    -0.006 C 
ATOM     22  C   UNL     1     126.195 120.464 144.558  1.00  0.00     0.014 C 
ATOM     23  C   UNL     1     125.769 122.535 145.832  1.00  0.00     0.014 C 
ATOM     24  C   UNL     1     127.593 124.992 144.830  1.00  0.00     0.012 C 
ATOM     25  C   UNL     1     127.427 124.304 141.034  1.00  0.00     0.012 C 
ATOM     26  C   UNL     1     130.456 126.695 139.156  1.00  0.00     0.022 C 
ATOM     27  C   UNL     1     131.813 126.327 138.500  1.00  0.00     0.015 C 
ATOM     28  C   UNL     1     131.322 123.665 140.578  1.00  0.00     0.017 C 
ATOM     29  C   UNL     1     128.084 127.464 138.753  1.00  0.00     0.012 C 
ATOM     30  C   UNL     1     132.293 128.560 137.351  1.00  0.00     0.011 C 
ENDROOT
BRANCH  20  31
ATOM     31  O   UNL     1     128.874 120.414 145.453  1.00  0.00    -0.393 OA
ATOM     32  H   UNL     1     128.583 120.284 144.513  1.00  0.00     0.210 HD
ENDBRANCH  20  31
TORSDOF 1
ENDMDL
MODEL 8
REMARK VINA RESULT:    -6.230      9.618     13.723
REMARK INTER + INTRA:          -6.412
REMARK INTER:                  -6.412
REMARK INTRA:                   0.000
REMARK UNBOUND:                 0.000
REMARK SMILES CC1(C)CC[C@@]2(C)CC[C@@]3(C)C(=CC[C@H]4[C@]5(C)CC[C@H](O)C(C)(C)[C@@H]5CC[C@@]43C)[C@H]2C1
REMARK SMILES IDX 1 1 2 2 4 3 5 4 6 5 8 6 9 7 10 8 12 9 13 10 14 11 15 12
REMARK SMILES IDX 28 13 27 14 26 15 25 16 16 17 18 18 19 19 20 20 22 21 23 22
REMARK SMILES IDX 24 23 17 24 29 25 30 26 31 27 11 28 7 29 3 30 21 31
REMARK H PARENT 21 32
REMARK Flexibility Score: inf
ROOT
ATOM      1  C   UNL     1     128.497 121.547 146.003  1.00  0.00     0.011 C 
ATOM      2  C   UNL     1     127.637 122.572 145.231  1.00  0.00    -0.035 C 
ATOM      3  C   UNL     1     127.648 123.906 146.010  1.00  0.00     0.007 C 
ATOM      4  C   UNL     1     126.912 125.025 145.267  1.00  0.00     0.008 C 
ATOM      5  C   UNL     1     127.422 125.281 143.810  1.00  0.00    -0.026 C 
ATOM      6  C   UNL     1     128.747 126.135 143.825  1.00  0.00     0.008 C 
ATOM      7  C   UNL     1     129.988 125.552 143.095  1.00  0.00     0.012 C 
ATOM      8  C   UNL     1     129.752 124.830 141.708  1.00  0.00    -0.006 C 
ATOM      9  C   UNL     1     128.336 124.227 141.700  1.00  0.00    -0.064 C 
ATOM     10  C   UNL     1     127.662 124.049 140.544  1.00  0.00    -0.027 C 
ATOM     11  C   UNL     1     128.020 124.717 139.246  1.00  0.00     0.032 C 
ATOM     12  C   UNL     1     129.500 125.155 139.118  1.00  0.00     0.006 C 
ATOM     13  C   UNL     1     129.984 125.826 140.448  1.00  0.00    -0.020 C 
ATOM     14  C   UNL     1     131.499 126.101 140.249  1.00  0.00     0.008 C 
ATOM     15  C   UNL     1     131.868 127.030 139.092  1.00  0.00     0.005 C 
ATOM     16  C   UNL     1     130.855 127.174 137.916  1.00  0.00     0.003 C 
ATOM     17  C   UNL     1     129.913 125.895 137.729  1.00  0.00    -0.025 C 
ATOM     18  C   UNL     1     130.678 124.850 136.856  1.00  0.00     0.010 C 
ATOM     19  C   UNL     1     131.240 125.393 135.539  1.00  0.00     0.033 C 
ATOM     20  C   UNL     1     132.218 126.558 135.768  1.00  0.00     0.120 C 
ATOM     21  C   UNL     1     131.575 127.722 136.587  1.00  0.00    -0.006 C 
ATOM     22  C   UNL     1     132.688 128.763 136.933  1.00  0.00     0.014 C 
ATOM     23  C   UNL     1     130.583 128.514 135.669  1.00  0.00     0.014 C 
ATOM     24  C   UNL     1     128.617 126.321 136.971  1.00  0.00     0.012 C 
ATOM     25  C   UNL     1     129.224 127.161 140.691  1.00  0.00     0.012 C 
ATOM     26  C   UNL     1     127.601 123.944 143.021  1.00  0.00     0.022 C 
ATOM     27  C   UNL     1     128.274 122.814 143.844  1.00  0.00     0.015 C 
ATOM     28  C   UNL     1     130.758 123.624 141.649  1.00  0.00     0.017 C 
ATOM     29  C   UNL     1     126.293 126.103 143.122  1.00  0.00     0.012 C 
ATOM     30  C   UNL     1     126.209 121.987 145.106  1.00  0.00     0.011 C 
ENDROOT
BRANCH  20  31
ATOM     31  O   UNL     1     133.373 126.073 136.406  1.00  0.00    -0.393 OA
ATOM     32  H   UNL     1     133.243 126.196 137.383  1.00  0.00     0.210 HD
ENDBRANCH  20  31
TORSDOF 1
ENDMDL
MODEL 9
REMARK VINA RESULT:    -6.098      9.788     13.897
REMARK INTER + INTRA:          -6.276
REMARK INTER:                  -6.276
REMARK INTRA:                   0.000
REMARK UNBOUND:                 0.000
REMARK SMILES CC1(C)CC[C@@]2(C)CC[C@@]3(C)C(=CC[C@H]4[C@]5(C)CC[C@H](O)C(C)(C)[C@@H]5CC[C@@]43C)[C@H]2C1
REMARK SMILES IDX 1 1 2 2 4 3 5 4 6 5 8 6 9 7 10 8 12 9 13 10 14 11 15 12
REMARK SMILES IDX 28 13 27 14 26 15 25 16 16 17 18 18 19 19 20 20 22 21 23 22
REMARK SMILES IDX 24 23 17 24 29 25 30 26 31 27 11 28 7 29 3 30 21 31
REMARK H PARENT 21 32
REMARK Flexibility Score: inf
ROOT
ATOM      1  C   UNL     1     124.590 124.378 145.334  1.00  0.00     0.011 C 
ATOM      2  C   UNL     1     126.117 124.605 145.392  1.00  0.00    -0.035 C 
ATOM      3  C   UNL     1     126.806 123.243 145.634  1.00  0.00     0.007 C 
ATOM      4  C   UNL     1     128.333 123.343 145.595  1.00  0.00     0.008 C 
ATOM      5  C   UNL     1     128.908 123.979 144.287  1.00  0.00    -0.026 C 
ATOM      6  C   UNL     1     128.928 122.925 143.116  1.00  0.00     0.008 C 
ATOM      7  C   UNL     1     128.201 123.301 141.796  1.00  0.00     0.012 C 
ATOM      8  C   UNL     1     128.349 124.786 141.273  1.00  0.00    -0.006 C 
ATOM      9  C   UNL     1     128.563 125.715 142.480  1.00  0.00    -0.064 C 
ATOM     10  C   UNL     1     129.240 126.876 142.354  1.00  0.00    -0.027 C 
ATOM     11  C   UNL     1     130.137 127.209 141.194  1.00  0.00     0.032 C 
ATOM     12  C   UNL     1     129.824 126.449 139.881  1.00  0.00     0.006 C 
ATOM     13  C   UNL     1     129.542 124.938 140.183  1.00  0.00    -0.020 C 
ATOM     14  C   UNL     1     129.118 124.314 138.826  1.00  0.00     0.008 C 
ATOM     15  C   UNL     1     130.151 124.384 137.701  1.00  0.00     0.005 C 
ATOM     16  C   UNL     1     131.245 125.492 137.778  1.00  0.00     0.003 C 
ATOM     17  C   UNL     1     130.789 126.777 138.613  1.00  0.00    -0.025 C 
ATOM     18  C   UNL     1     129.994 127.722 137.657  1.00  0.00     0.010 C 
ATOM     19  C   UNL     1     130.707 128.065 136.346  1.00  0.00     0.033 C 
ATOM     20  C   UNL     1     131.039 126.808 135.525  1.00  0.00     0.120 C 
ATOM     21  C   UNL     1     131.891 125.778 136.334  1.00  0.00    -0.006 C 
ATOM     22  C   UNL     1     132.014 124.464 135.497  1.00  0.00     0.014 C 
ATOM     23  C   UNL     1     133.364 126.300 136.446  1.00  0.00     0.014 C 
ATOM     24  C   UNL     1     132.057 127.534 139.118  1.00  0.00     0.012 C 
ATOM     25  C   UNL     1     130.828 124.242 140.715  1.00  0.00     0.012 C 
ATOM     26  C   UNL     1     128.132 125.275 143.890  1.00  0.00     0.022 C 
ATOM     27  C   UNL     1     126.591 125.153 144.027  1.00  0.00     0.015 C 
ATOM     28  C   UNL     1     126.969 125.181 140.636  1.00  0.00     0.017 C 
ATOM     29  C   UNL     1     130.372 124.379 144.638  1.00  0.00     0.012 C 
ATOM     30  C   UNL     1     126.400 125.607 146.536  1.00  0.00     0.011 C 
ENDROOT
BRANCH  20  31
ATOM     31  O   UNL     1     129.844 126.224 135.071  1.00  0.00    -0.393 OA
ATOM     32  H   UNL     1     129.371 126.906 134.526  1.00  0.00     0.210 HD
ENDBRANCH  20  31
TORSDOF 1
ENDMDL
