MODEL 1
REMARK VINA RESULT:    -5.121      0.000      0.000
REMARK INTER + INTRA:          -7.615
REMARK INTER:                  -6.917
REMARK INTRA:                  -0.698
REMARK UNBOUND:                -0.698
REMARK SMILES CC(=O)CCC=C(C)CCC=C(C)C
REMARK SMILES IDX 7 1 6 2 8 3 9 4 10 5 11 6 13 7 12 8 14 9 5 10 4 11 2 12 3 13
REMARK SMILES IDX 1 14
REMARK H PARENT
REMARK Flexibility Score: inf
ROOT
ATOM      1  C   UNL     1      -9.309 -24.379 -17.016  1.00  0.00    -0.077 C 
ATOM      2  C   UNL     1      -9.271 -25.189 -18.099  1.00  0.00    -0.028 C 
ATOM      3  C   UNL     1      -9.864 -24.845 -15.690  1.00  0.00     0.039 C 
ENDROOT
BRANCH   1   4
ATOM      4  C   UNL     1      -8.791 -22.962 -17.142  1.00  0.00     0.034 C 
BRANCH   4   5
ATOM      5  C   UNL     1      -8.015 -22.550 -15.886  1.00  0.00     0.032 C 
BRANCH   5   6
ATOM      6  C   UNL     1      -6.621 -22.084 -16.232  1.00  0.00    -0.028 C 
ATOM      7  C   UNL     1      -4.190 -22.315 -16.518  1.00  0.00     0.039 C 
ATOM      8  C   UNL     1      -5.536 -22.882 -16.150  1.00  0.00    -0.080 C 
ATOM      9  C   UNL     1      -5.645 -24.320 -15.699  1.00  0.00     0.039 C 
ENDBRANCH   5   6
ENDBRANCH   4   5
ENDBRANCH   1   4
BRANCH   2  10
ATOM     10  C   UNL     1      -9.715 -26.631 -18.104  1.00  0.00     0.035 C 
BRANCH  10  11
ATOM     11  C   UNL     1      -8.539 -27.559 -18.444  1.00  0.00     0.079 C 
BRANCH  11  12
ATOM     12  C   UNL     1      -8.945 -28.955 -18.860  1.00  0.00     0.130 C 
ATOM     13  O   UNL     1      -8.322 -29.901 -18.402  1.00  0.00    -0.300 OA
ATOM     14  C   UNL     1     -10.082 -29.231 -19.805  1.00  0.00     0.087 C 
ENDBRANCH  11  12
ENDBRANCH  10  11
ENDBRANCH   2  10
TORSDOF 6
ENDMDL
MODEL 2
REMARK VINA RESULT:    -4.955      1.609      2.100
REMARK INTER + INTRA:          -7.392
REMARK INTER:                  -6.781
REMARK INTRA:                  -0.611
REMARK UNBOUND:                -0.698
REMARK SMILES CC(=O)CCC=C(C)CCC=C(C)C
REMARK SMILES IDX 7 1 6 2 8 3 9 4 10 5 11 6 13 7 12 8 14 9 5 10 4 11 2 12 3 13
REMARK SMILES IDX 1 14
REMARK H PARENT
REMARK Flexibility Score: inf
ROOT
ATOM      1  C   UNL     1      -8.016 -24.763 -16.881  1.00  0.00    -0.077 C 
ATOM      2  C   UNL     1      -7.971 -25.840 -17.698  1.00  0.00    -0.028 C 
ATOM      3  C   UNL     1      -9.326 -24.173 -16.410  1.00  0.00     0.039 C 
ENDROOT
BRANCH   1   4
ATOM      4  C   UNL     1      -6.718 -24.123 -16.438  1.00  0.00     0.034 C 
BRANCH   4   5
ATOM      5  C   UNL     1      -6.927 -22.644 -16.095  1.00  0.00     0.032 C 
BRANCH   5   6
ATOM      6  C   UNL     1      -5.982 -21.762 -16.875  1.00  0.00    -0.028 C 
ATOM      7  C   UNL     1      -5.328 -20.232 -18.686  1.00  0.00     0.039 C 
ATOM      8  C   UNL     1      -6.352 -21.084 -17.982  1.00  0.00    -0.080 C 
ATOM      9  C   UNL     1      -7.760 -21.163 -18.524  1.00  0.00     0.039 C 
ENDBRANCH   5   6
ENDBRANCH   4   5
ENDBRANCH   1   4
BRANCH   2  10
ATOM     10  C   UNL     1      -9.182 -26.598 -18.182  1.00  0.00     0.035 C 
BRANCH  10  11
ATOM     11  C   UNL     1      -8.787 -28.002 -18.664  1.00  0.00     0.079 C 
BRANCH  11  12
ATOM     12  C   UNL     1      -9.954 -28.933 -18.901  1.00  0.00     0.130 C 
ATOM     13  O   UNL     1     -10.662 -29.229 -17.949  1.00  0.00    -0.300 OA
ATOM     14  C   UNL     1     -10.286 -29.506 -20.251  1.00  0.00     0.087 C 
ENDBRANCH  11  12
ENDBRANCH  10  11
ENDBRANCH   2  10
TORSDOF 6
ENDMDL
MODEL 3
REMARK VINA RESULT:    -4.951      1.624      1.996
REMARK INTER + INTRA:          -7.385
REMARK INTER:                  -6.698
REMARK INTRA:                  -0.687
REMARK UNBOUND:                -0.698
REMARK SMILES CC(=O)CCC=C(C)CCC=C(C)C
REMARK SMILES IDX 7 1 6 2 8 3 9 4 10 5 11 6 13 7 12 8 14 9 5 10 4 11 2 12 3 13
REMARK SMILES IDX 1 14
REMARK H PARENT
REMARK Flexibility Score: inf
ROOT
ATOM      1  C   UNL     1     -10.174 -25.477 -16.482  1.00  0.00    -0.077 C 
ATOM      2  C   UNL     1      -9.595 -25.868 -17.640  1.00  0.00    -0.028 C 
ATOM      3  C   UNL     1     -11.351 -26.218 -15.889  1.00  0.00     0.039 C 
ENDROOT
BRANCH   1   4
ATOM      4  C   UNL     1      -9.636 -24.257 -15.767  1.00  0.00     0.034 C 
BRANCH   4   5
ATOM      5  C   UNL     1      -8.201 -23.952 -16.210  1.00  0.00     0.032 C 
BRANCH   5   6
ATOM      6  C   UNL     1      -8.072 -22.534 -16.713  1.00  0.00    -0.028 C 
ATOM      7  C   UNL     1      -7.456 -20.776 -18.318  1.00  0.00     0.039 C 
ATOM      8  C   UNL     1      -7.538 -22.225 -17.913  1.00  0.00    -0.080 C 
ATOM      9  C   UNL     1      -7.025 -23.294 -18.849  1.00  0.00     0.039 C 
ENDBRANCH   5   6
ENDBRANCH   4   5
ENDBRANCH   1   4
BRANCH   2  10
ATOM     10  C   UNL     1     -10.004 -27.085 -18.432  1.00  0.00     0.035 C 
BRANCH  10  11
ATOM     11  C   UNL     1      -8.828 -28.065 -18.566  1.00  0.00     0.079 C 
BRANCH  11  12
ATOM     12  C   UNL     1      -9.233 -29.486 -18.885  1.00  0.00     0.130 C 
ATOM     13  O   UNL     1      -9.170 -30.321 -17.994  1.00  0.00    -0.300 OA
ATOM     14  C   UNL     1      -9.713 -29.917 -20.244  1.00  0.00     0.087 C 
ENDBRANCH  11  12
ENDBRANCH  10  11
ENDBRANCH   2  10
TORSDOF 6
ENDMDL
MODEL 4
REMARK VINA RESULT:    -4.852      2.620      6.490
REMARK INTER + INTRA:          -7.252
REMARK INTER:                  -6.370
REMARK INTRA:                  -0.882
REMARK UNBOUND:                -0.698
REMARK SMILES CC(=O)CCC=C(C)CCC=C(C)C
REMARK SMILES IDX 7 1 6 2 8 3 9 4 10 5 11 6 13 7 12 8 14 9 5 10 4 11 2 12 3 13
REMARK SMILES IDX 1 14
REMARK H PARENT
REMARK Flexibility Score: inf
ROOT
ATOM      1  C   UNL     1      -7.993 -25.114 -17.863  1.00  0.00    -0.077 C 
ATOM      2  C   UNL     1      -7.884 -24.412 -16.711  1.00  0.00    -0.028 C 
ATOM      3  C   UNL     1      -6.779 -25.577 -18.634  1.00  0.00     0.039 C 
ENDROOT
BRANCH   1   4
ATOM      4  C   UNL     1      -9.372 -25.433 -18.400  1.00  0.00     0.034 C 
BRANCH   4   5
ATOM      5  C   UNL     1      -9.884 -26.764 -17.838  1.00  0.00     0.032 C 
BRANCH   5   6
ATOM      6  C   UNL     1     -10.352 -27.680 -18.943  1.00  0.00    -0.028 C 
ATOM      7  C   UNL     1     -10.236 -29.635 -20.431  1.00  0.00     0.039 C 
ATOM      8  C   UNL     1      -9.679 -28.790 -19.314  1.00  0.00    -0.080 C 
ATOM      9  C   UNL     1      -8.391 -29.197 -18.638  1.00  0.00     0.039 C 
ENDBRANCH   5   6
ENDBRANCH   4   5
ENDBRANCH   1   4
BRANCH   2  10
ATOM     10  C   UNL     1      -6.577 -24.061 -16.045  1.00  0.00     0.035 C 
BRANCH  10  11
ATOM     11  C   UNL     1      -6.399 -22.537 -15.971  1.00  0.00     0.079 C 
BRANCH  11  12
ATOM     12  C   UNL     1      -6.069 -21.881 -17.293  1.00  0.00     0.130 C 
ATOM     13  O   UNL     1      -4.972 -22.095 -17.789  1.00  0.00    -0.300 OA
ATOM     14  C   UNL     1      -7.028 -20.984 -18.026  1.00  0.00     0.087 C 
ENDBRANCH  11  12
ENDBRANCH  10  11
ENDBRANCH   2  10
TORSDOF 6
ENDMDL
MODEL 5
REMARK VINA RESULT:    -4.821      2.757      6.543
REMARK INTER + INTRA:          -7.210
REMARK INTER:                  -6.224
REMARK INTRA:                  -0.986
REMARK UNBOUND:                -0.698
REMARK SMILES CC(=O)CCC=C(C)CCC=C(C)C
REMARK SMILES IDX 7 1 6 2 8 3 9 4 10 5 11 6 13 7 12 8 14 9 5 10 4 11 2 12 3 13
REMARK SMILES IDX 1 14
REMARK H PARENT
REMARK Flexibility Score: inf
ROOT
ATOM      1  C   UNL     1      -6.737 -25.980 -18.791  1.00  0.00    -0.077 C 
ATOM      2  C   UNL     1      -7.785 -25.674 -17.993  1.00  0.00    -0.028 C 
ATOM      3  C   UNL     1      -5.886 -24.911 -19.437  1.00  0.00     0.039 C 
ENDROOT
BRANCH   1   4
ATOM      4  C   UNL     1      -6.416 -27.436 -19.055  1.00  0.00     0.034 C 
BRANCH   4   5
ATOM      5  C   UNL     1      -7.456 -28.352 -18.402  1.00  0.00     0.032 C 
BRANCH   5   6
ATOM      6  C   UNL     1      -8.319 -29.029 -19.440  1.00  0.00    -0.028 C 
ATOM      7  C   UNL     1     -10.427 -29.619 -20.560  1.00  0.00     0.039 C 
ATOM      8  C   UNL     1      -9.661 -28.898 -19.481  1.00  0.00    -0.080 C 
ATOM      9  C   UNL     1     -10.404 -28.051 -18.475  1.00  0.00     0.039 C 
ENDBRANCH   5   6
ENDBRANCH   4   5
ENDBRANCH   1   4
BRANCH   2  10
ATOM     10  C   UNL     1      -8.191 -24.271 -17.616  1.00  0.00     0.035 C 
BRANCH  10  11
ATOM     11  C   UNL     1      -7.801 -23.965 -16.162  1.00  0.00     0.079 C 
BRANCH  11  12
ATOM     12  C   UNL     1      -6.404 -23.411 -15.993  1.00  0.00     0.130 C 
ATOM     13  O   UNL     1      -6.231 -22.213 -16.162  1.00  0.00    -0.300 OA
ATOM     14  C   UNL     1      -5.223 -24.265 -15.622  1.00  0.00     0.087 C 
ENDBRANCH  11  12
ENDBRANCH  10  11
ENDBRANCH   2  10
TORSDOF 6
ENDMDL
MODEL 6
REMARK VINA RESULT:    -4.783      2.743      6.486
REMARK INTER + INTRA:          -7.159
REMARK INTER:                  -6.249
REMARK INTRA:                  -0.910
REMARK UNBOUND:                -0.698
REMARK SMILES CC(=O)CCC=C(C)CCC=C(C)C
REMARK SMILES IDX 7 1 6 2 8 3 9 4 10 5 11 6 13 7 12 8 14 9 5 10 4 11 2 12 3 13
REMARK SMILES IDX 1 14
REMARK H PARENT
REMARK Flexibility Score: inf
ROOT
ATOM      1  C   UNL     1      -7.233 -25.568 -18.330  1.00  0.00    -0.077 C 
ATOM      2  C   UNL     1      -6.651 -24.393 -18.663  1.00  0.00    -0.028 C 
ATOM      3  C   UNL     1      -8.690 -25.654 -17.939  1.00  0.00     0.039 C 
ENDROOT
BRANCH   1   4
ATOM      4  C   UNL     1      -6.396 -26.829 -18.338  1.00  0.00     0.034 C 
BRANCH   4   5
ATOM      5  C   UNL     1      -7.002 -27.881 -19.274  1.00  0.00     0.032 C 
BRANCH   5   6
ATOM      6  C   UNL     1      -7.456 -29.101 -18.506  1.00  0.00    -0.028 C 
ATOM      7  C   UNL     1      -9.065 -30.801 -17.754  1.00  0.00     0.039 C 
ATOM      8  C   UNL     1      -8.718 -29.577 -18.561  1.00  0.00    -0.080 C 
ATOM      9  C   UNL     1      -9.778 -28.913 -19.407  1.00  0.00     0.039 C 
ENDBRANCH   5   6
ENDBRANCH   4   5
ENDBRANCH   1   4
BRANCH   2  10
ATOM     10  C   UNL     1      -7.373 -23.071 -18.734  1.00  0.00     0.035 C 
BRANCH  10  11
ATOM     11  C   UNL     1      -6.773 -22.070 -17.736  1.00  0.00     0.079 C 
BRANCH  11  12
ATOM     12  C   UNL     1      -7.125 -22.341 -16.290  1.00  0.00     0.130 C 
ATOM     13  O   UNL     1      -6.214 -22.446 -15.482  1.00  0.00    -0.300 OA
ATOM     14  C   UNL     1      -8.541 -22.483 -15.804  1.00  0.00     0.087 C 
ENDBRANCH  11  12
ENDBRANCH  10  11
ENDBRANCH   2  10
TORSDOF 6
ENDMDL
MODEL 7
REMARK VINA RESULT:    -4.769      1.703      2.718
REMARK INTER + INTRA:          -7.140
REMARK INTER:                  -6.042
REMARK INTRA:                  -1.098
REMARK UNBOUND:                -0.698
REMARK SMILES CC(=O)CCC=C(C)CCC=C(C)C
REMARK SMILES IDX 7 1 6 2 8 3 9 4 10 5 11 6 13 7 12 8 14 9 5 10 4 11 2 12 3 13
REMARK SMILES IDX 1 14
REMARK H PARENT
REMARK Flexibility Score: inf
ROOT
ATOM      1  C   UNL     1      -6.553 -24.849 -17.174  1.00  0.00    -0.077 C 
ATOM      2  C   UNL     1      -7.904 -24.839 -17.230  1.00  0.00    -0.028 C 
ATOM      3  C   UNL     1      -5.713 -25.435 -18.285  1.00  0.00     0.039 C 
ENDROOT
BRANCH   1   4
ATOM      4  C   UNL     1      -5.865 -24.267 -15.958  1.00  0.00     0.034 C 
BRANCH   4   5
ATOM      5  C   UNL     1      -6.234 -22.792 -15.773  1.00  0.00     0.032 C 
BRANCH   5   6
ATOM      6  C   UNL     1      -5.443 -21.907 -16.708  1.00  0.00    -0.028 C 
ATOM      7  C   UNL     1      -5.125 -20.353 -18.586  1.00  0.00     0.039 C 
ATOM      8  C   UNL     1      -6.008 -21.204 -17.711  1.00  0.00    -0.080 C 
ATOM      9  C   UNL     1      -7.495 -21.255 -17.971  1.00  0.00     0.039 C 
ENDBRANCH   5   6
ENDBRANCH   4   5
ENDBRANCH   1   4
BRANCH   2  10
ATOM     10  C   UNL     1      -8.716 -25.348 -18.395  1.00  0.00     0.035 C 
BRANCH  10  11
ATOM     11  C   UNL     1      -9.753 -26.379 -17.925  1.00  0.00     0.079 C 
BRANCH  11  12
ATOM     12  C   UNL     1      -9.476 -27.795 -18.379  1.00  0.00     0.130 C 
ATOM     13  O   UNL     1     -10.401 -28.593 -18.385  1.00  0.00    -0.300 OA
ATOM     14  C   UNL     1      -8.118 -28.262 -18.827  1.00  0.00     0.087 C 
ENDBRANCH  11  12
ENDBRANCH  10  11
ENDBRANCH   2  10
TORSDOF 6
ENDMDL
MODEL 8
REMARK VINA RESULT:    -4.684      2.050      3.220
REMARK INTER + INTRA:          -7.025
REMARK INTER:                  -5.996
REMARK INTRA:                  -1.029
REMARK UNBOUND:                -0.698
REMARK SMILES CC(=O)CCC=C(C)CCC=C(C)C
REMARK SMILES IDX 7 1 6 2 8 3 9 4 10 5 11 6 13 7 12 8 14 9 5 10 4 11 2 12 3 13
REMARK SMILES IDX 1 14
REMARK H PARENT
REMARK Flexibility Score: inf
ROOT
ATOM      1  C   UNL     1      -5.596 -24.832 -16.904  1.00  0.00    -0.077 C 
ATOM      2  C   UNL     1      -6.837 -25.007 -17.412  1.00  0.00    -0.028 C 
ATOM      3  C   UNL     1      -4.376 -25.456 -17.543  1.00  0.00     0.039 C 
ENDROOT
BRANCH   1   4
ATOM      4  C   UNL     1      -5.426 -23.997 -15.653  1.00  0.00     0.034 C 
BRANCH   4   5
ATOM      5  C   UNL     1      -6.163 -22.660 -15.783  1.00  0.00     0.032 C 
BRANCH   5   6
ATOM      6  C   UNL     1      -5.480 -21.751 -16.778  1.00  0.00    -0.028 C 
ATOM      7  C   UNL     1      -5.350 -20.276 -18.740  1.00  0.00     0.039 C 
ATOM      8  C   UNL     1      -6.128 -21.164 -17.805  1.00  0.00    -0.080 C 
ATOM      9  C   UNL     1      -7.606 -21.379 -18.033  1.00  0.00     0.039 C 
ENDBRANCH   5   6
ENDBRANCH   4   5
ENDBRANCH   1   4
BRANCH   2  10
ATOM     10  C   UNL     1      -7.145 -25.779 -18.671  1.00  0.00     0.035 C 
BRANCH  10  11
ATOM     11  C   UNL     1      -7.835 -27.110 -18.335  1.00  0.00     0.079 C 
BRANCH  11  12
ATOM     12  C   UNL     1      -7.083 -28.338 -18.799  1.00  0.00     0.130 C 
ATOM     13  O   UNL     1      -7.425 -28.866 -19.847  1.00  0.00    -0.300 OA
ATOM     14  C   UNL     1      -5.934 -28.934 -18.033  1.00  0.00     0.087 C 
ENDBRANCH  11  12
ENDBRANCH  10  11
ENDBRANCH   2  10
TORSDOF 6
ENDMDL
MODEL 9
REMARK VINA RESULT:    -4.673      1.649      2.508
REMARK INTER + INTRA:          -7.010
REMARK INTER:                  -6.407
REMARK INTRA:                  -0.603
REMARK UNBOUND:                -0.698
REMARK SMILES CC(=O)CCC=C(C)CCC=C(C)C
REMARK SMILES IDX 7 1 6 2 8 3 9 4 10 5 11 6 13 7 12 8 14 9 5 10 4 11 2 12 3 13
REMARK SMILES IDX 1 14
REMARK H PARENT
REMARK Flexibility Score: inf
ROOT
ATOM      1  C   UNL     1      -9.356 -26.695 -18.115  1.00  0.00    -0.077 C 
ATOM      2  C   UNL     1      -8.222 -27.365 -18.421  1.00  0.00    -0.028 C 
ATOM      3  C   UNL     1     -10.678 -27.404 -17.933  1.00  0.00     0.039 C 
ENDROOT
BRANCH   1   4
ATOM      4  C   UNL     1      -9.301 -25.190 -17.962  1.00  0.00     0.034 C 
BRANCH   4   5
ATOM      5  C   UNL     1      -8.121 -24.773 -17.078  1.00  0.00     0.032 C 
BRANCH   5   6
ATOM      6  C   UNL     1      -7.302 -23.686 -17.733  1.00  0.00    -0.028 C 
ATOM      7  C   UNL     1      -6.320 -21.442 -17.944  1.00  0.00     0.039 C 
ATOM      8  C   UNL     1      -7.160 -22.452 -17.206  1.00  0.00    -0.080 C 
ATOM      9  C   UNL     1      -7.820 -22.068 -15.903  1.00  0.00     0.039 C 
ENDBRANCH   5   6
ENDBRANCH   4   5
ENDBRANCH   1   4
BRANCH   2  10
ATOM     10  C   UNL     1      -8.127 -28.864 -18.563  1.00  0.00     0.035 C 
BRANCH  10  11
ATOM     11  C   UNL     1      -8.358 -29.286 -20.022  1.00  0.00     0.079 C 
BRANCH  11  12
ATOM     12  C   UNL     1      -9.568 -30.168 -20.233  1.00  0.00     0.130 C 
ATOM     13  O   UNL     1      -9.458 -31.366 -20.011  1.00  0.00    -0.300 OA
ATOM     14  C   UNL     1     -10.897 -29.640 -20.697  1.00  0.00     0.087 C 
ENDBRANCH  11  12
ENDBRANCH  10  11
ENDBRANCH   2  10
TORSDOF 6
ENDMDL
