MODEL 1
REMARK VINA RESULT:    -2.942      0.000      0.000
REMARK INTER + INTRA:          -3.200
REMARK INTER:                  -3.200
REMARK INTRA:                   0.000
REMARK UNBOUND:                 0.000
REMARK SMILES [NH3+]CC(=O)[O-]
REMARK SMILES IDX 2 1 1 2 3 6 4 7 5 8
REMARK H PARENT 1 3 1 4 1 5
REMARK Flexibility Score: inf
ROOT
ATOM      1  C   UNL     1     122.028 156.222 158.693  1.00  0.00     0.312 C 
ENDROOT
BRANCH   1   2
ATOM      2  N   UNL     1     123.088 156.187 157.689  1.00  0.00    -0.353 N 
ATOM      3  H   UNL     1     123.800 155.463 157.944  1.00  0.00     0.344 HD
ATOM      4  H   UNL     1     123.554 157.122 157.651  1.00  0.00     0.344 HD
ATOM      5  H   UNL     1     122.686 155.970 156.748  1.00  0.00     0.344 HD
ENDBRANCH   1   2
BRANCH   1   6
ATOM      6  C   UNL     1     120.971 155.207 158.381  1.00  0.00     0.096 C 
ATOM      7  O   UNL     1     120.127 155.430 157.473  1.00  0.00    -0.544 OA
ATOM      8  O   UNL     1     120.886 154.039 159.127  1.00  0.00    -0.544 OA
ENDBRANCH   1   6
TORSDOF 2
ENDMDL
MODEL 2
REMARK VINA RESULT:    -2.930      1.168      1.880
REMARK INTER + INTRA:          -3.187
REMARK INTER:                  -3.187
REMARK INTRA:                   0.000
REMARK UNBOUND:                 0.000
REMARK SMILES [NH3+]CC(=O)[O-]
REMARK SMILES IDX 2 1 1 2 3 6 4 7 5 8
REMARK H PARENT 1 3 1 4 1 5
REMARK Flexibility Score: inf
ROOT
ATOM      1  C   UNL     1     122.038 156.269 158.665  1.00  0.00     0.312 C 
ENDROOT
BRANCH   1   2
ATOM      2  N   UNL     1     123.161 156.160 157.736  1.00  0.00    -0.353 N 
ATOM      3  H   UNL     1     123.040 155.320 157.123  1.00  0.00     0.344 HD
ATOM      4  H   UNL     1     124.047 156.056 158.281  1.00  0.00     0.344 HD
ATOM      5  H   UNL     1     123.225 157.022 157.146  1.00  0.00     0.344 HD
ENDBRANCH   1   2
BRANCH   1   6
ATOM      6  C   UNL     1     120.748 156.414 157.919  1.00  0.00     0.096 C 
ATOM      7  O   UNL     1     120.121 155.392 157.533  1.00  0.00    -0.544 OA
ATOM      8  O   UNL     1     120.263 157.677 157.605  1.00  0.00    -0.544 OA
ENDBRANCH   1   6
TORSDOF 2
ENDMDL
MODEL 3
REMARK VINA RESULT:    -2.845      3.618      4.116
REMARK INTER + INTRA:          -3.095
REMARK INTER:                  -3.095
REMARK INTRA:                   0.000
REMARK UNBOUND:                 0.000
REMARK SMILES [NH3+]CC(=O)[O-]
REMARK SMILES IDX 2 1 1 2 3 6 4 7 5 8
REMARK H PARENT 1 3 1 4 1 5
REMARK Flexibility Score: inf
ROOT
ATOM      1  C   UNL     1     120.481 152.559 160.784  1.00  0.00     0.312 C 
ENDROOT
BRANCH   1   2
ATOM      2  N   UNL     1     119.558 152.820 161.887  1.00  0.00    -0.353 N 
ATOM      3  H   UNL     1     118.730 152.183 161.821  1.00  0.00     0.344 HD
ATOM      4  H   UNL     1     119.229 153.810 161.829  1.00  0.00     0.344 HD
ATOM      5  H   UNL     1     120.042 152.676 162.803  1.00  0.00     0.344 HD
ENDBRANCH   1   2
BRANCH   1   6
ATOM      6  C   UNL     1     121.140 153.826 160.335  1.00  0.00     0.096 C 
ATOM      7  O   UNL     1     121.856 154.486 161.133  1.00  0.00    -0.544 OA
ATOM      8  O   UNL     1     120.921 154.306 159.049  1.00  0.00    -0.544 OA
ENDBRANCH   1   6
TORSDOF 2
ENDMDL
MODEL 4
REMARK VINA RESULT:    -2.796      9.943     10.378
REMARK INTER + INTRA:          -3.041
REMARK INTER:                  -3.041
REMARK INTRA:                   0.000
REMARK UNBOUND:                 0.000
REMARK SMILES [NH3+]CC(=O)[O-]
REMARK SMILES IDX 2 1 1 2 3 6 4 7 5 8
REMARK H PARENT 1 3 1 4 1 5
REMARK Flexibility Score: inf
ROOT
ATOM      1  C   UNL     1     118.824 159.014 149.027  1.00  0.00     0.312 C 
ENDROOT
BRANCH   1   2
ATOM      2  N   UNL     1     118.110 158.301 147.970  1.00  0.00    -0.353 N 
ATOM      3  H   UNL     1     117.504 158.966 147.436  1.00  0.00     0.344 HD
ATOM      4  H   UNL     1     117.507 157.565 148.402  1.00  0.00     0.344 HD
ATOM      5  H   UNL     1     118.791 157.844 147.321  1.00  0.00     0.344 HD
ENDBRANCH   1   2
BRANCH   1   6
ATOM      6  C   UNL     1     117.864 159.747 149.912  1.00  0.00     0.096 C 
ATOM      7  O   UNL     1     117.324 160.813 149.516  1.00  0.00    -0.544 OA
ATOM      8  O   UNL     1     117.605 159.280 151.195  1.00  0.00    -0.544 OA
ENDBRANCH   1   6
TORSDOF 2
ENDMDL
MODEL 5
REMARK VINA RESULT:    -2.788      3.534      3.791
REMARK INTER + INTRA:          -3.032
REMARK INTER:                  -3.032
REMARK INTRA:                   0.000
REMARK UNBOUND:                 0.000
REMARK SMILES [NH3+]CC(=O)[O-]
REMARK SMILES IDX 2 1 1 2 3 6 4 7 5 8
REMARK H PARENT 1 3 1 4 1 5
REMARK Flexibility Score: inf
ROOT
ATOM      1  C   UNL     1     120.860 152.899 159.732  1.00  0.00     0.312 C 
ENDROOT
BRANCH   1   2
ATOM      2  N   UNL     1     120.898 154.179 159.028  1.00  0.00    -0.353 N 
ATOM      3  H   UNL     1     119.925 154.492 158.801  1.00  0.00     0.344 HD
ATOM      4  H   UNL     1     121.434 154.065 158.139  1.00  0.00     0.344 HD
ATOM      5  H   UNL     1     121.372 154.901 159.620  1.00  0.00     0.344 HD
ENDBRANCH   1   2
BRANCH   1   6
ATOM      6  C   UNL     1     120.616 153.107 161.195  1.00  0.00     0.096 C 
ATOM      7  O   UNL     1     119.683 152.490 161.774  1.00  0.00    -0.544 OA
ATOM      8  O   UNL     1     121.384 154.019 161.906  1.00  0.00    -0.544 OA
ENDBRANCH   1   6
TORSDOF 2
ENDMDL
MODEL 6
REMARK VINA RESULT:    -2.761      9.480     10.087
REMARK INTER + INTRA:          -3.003
REMARK INTER:                  -3.003
REMARK INTRA:                   0.000
REMARK UNBOUND:                 0.000
REMARK SMILES [NH3+]CC(=O)[O-]
REMARK SMILES IDX 2 1 1 2 3 6 4 7 5 8
REMARK H PARENT 1 3 1 4 1 5
REMARK Flexibility Score: inf
ROOT
ATOM      1  C   UNL     1     117.326 158.105 149.410  1.00  0.00     0.312 C 
ENDROOT
BRANCH   1   2
ATOM      2  N   UNL     1     116.538 157.125 150.154  1.00  0.00    -0.353 N 
ATOM      3  H   UNL     1     115.879 156.631 149.509  1.00  0.00     0.344 HD
ATOM      4  H   UNL     1     115.986 157.618 150.891  1.00  0.00     0.344 HD
ATOM      5  H   UNL     1     117.171 156.429 150.613  1.00  0.00     0.344 HD
ENDBRANCH   1   2
BRANCH   1   6
ATOM      6  C   UNL     1     117.544 159.340 150.230  1.00  0.00     0.096 C 
ATOM      7  O   UNL     1     117.806 159.246 151.458  1.00  0.00    -0.544 OA
ATOM      8  O   UNL     1     117.407 160.594 149.648  1.00  0.00    -0.544 OA
ENDBRANCH   1   6
TORSDOF 2
ENDMDL
MODEL 7
REMARK VINA RESULT:    -2.679      2.260      2.449
REMARK INTER + INTRA:          -2.914
REMARK INTER:                  -2.914
REMARK INTRA:                   0.000
REMARK UNBOUND:                 0.000
REMARK SMILES [NH3+]CC(=O)[O-]
REMARK SMILES IDX 2 1 1 2 3 6 4 7 5 8
REMARK H PARENT 1 3 1 4 1 5
REMARK Flexibility Score: inf
ROOT
ATOM      1  C   UNL     1     120.789 155.058 158.087  1.00  0.00     0.312 C 
ENDROOT
BRANCH   1   2
ATOM      2  N   UNL     1     120.910 154.091 159.177  1.00  0.00    -0.353 N 
ATOM      3  H   UNL     1     119.960 153.817 159.519  1.00  0.00     0.344 HD
ATOM      4  H   UNL     1     121.440 154.528 159.964  1.00  0.00     0.344 HD
ATOM      5  H   UNL     1     121.426 153.242 158.849  1.00  0.00     0.344 HD
ENDBRANCH   1   2
BRANCH   1   6
ATOM      6  C   UNL     1     121.816 156.140 158.225  1.00  0.00     0.096 C 
ATOM      7  O   UNL     1     122.074 156.896 157.251  1.00  0.00    -0.544 OA
ATOM      8  O   UNL     1     122.524 156.279 159.411  1.00  0.00    -0.544 OA
ENDBRANCH   1   6
TORSDOF 2
ENDMDL
MODEL 8
REMARK VINA RESULT:    -2.633      8.057      8.522
REMARK INTER + INTRA:          -2.864
REMARK INTER:                  -2.864
REMARK INTRA:                   0.000
REMARK UNBOUND:                 0.000
REMARK SMILES [NH3+]CC(=O)[O-]
REMARK SMILES IDX 2 1 1 2 3 6 4 7 5 8
REMARK H PARENT 1 3 1 4 1 5
REMARK Flexibility Score: inf
ROOT
ATOM      1  C   UNL     1     118.345 158.015 152.372  1.00  0.00     0.312 C 
ENDROOT
BRANCH   1   2
ATOM      2  N   UNL     1     117.119 158.361 153.088  1.00  0.00    -0.353 N 
ATOM      3  H   UNL     1     116.330 157.755 152.763  1.00  0.00     0.344 HD
ATOM      4  H   UNL     1     116.881 159.360 152.894  1.00  0.00     0.344 HD
ATOM      5  H   UNL     1     117.257 158.239 154.118  1.00  0.00     0.344 HD
ENDBRANCH   1   2
BRANCH   1   6
ATOM      6  C   UNL     1     118.549 158.926 151.202  1.00  0.00     0.096 C 
ATOM      7  O   UNL     1     119.704 159.335 150.912  1.00  0.00    -0.544 OA
ATOM      8  O   UNL     1     117.458 159.365 150.463  1.00  0.00    -0.544 OA
ENDBRANCH   1   6
TORSDOF 2
ENDMDL
MODEL 9
REMARK VINA RESULT:    -2.518      6.027      6.374
REMARK INTER + INTRA:          -2.739
REMARK INTER:                  -2.739
REMARK INTRA:                   0.000
REMARK UNBOUND:                 0.000
REMARK SMILES [NH3+]CC(=O)[O-]
REMARK SMILES IDX 2 1 1 2 3 6 4 7 5 8
REMARK H PARENT 1 3 1 4 1 5
REMARK Flexibility Score: inf
ROOT
ATOM      1  C   UNL     1     118.587 158.483 152.804  1.00  0.00     0.312 C 
ENDROOT
BRANCH   1   2
ATOM      2  N   UNL     1     117.184 158.184 153.078  1.00  0.00    -0.353 N 
ATOM      3  H   UNL     1     116.946 158.451 154.062  1.00  0.00     0.344 HD
ATOM      4  H   UNL     1     117.022 157.158 152.957  1.00  0.00     0.344 HD
ATOM      5  H   UNL     1     116.568 158.705 152.412  1.00  0.00     0.344 HD
ENDBRANCH   1   2
BRANCH   1   6
ATOM      6  C   UNL     1     119.478 157.442 153.412  1.00  0.00     0.096 C 
ATOM      7  O   UNL     1     119.009 156.321 153.740  1.00  0.00    -0.544 OA
ATOM      8  O   UNL     1     120.813 157.731 153.663  1.00  0.00    -0.544 OA
ENDBRANCH   1   6
TORSDOF 2
ENDMDL
