MODEL 1
REMARK VINA RESULT:    -4.462      0.000      0.000
REMARK INTER + INTRA:          -6.627
REMARK INTER:                  -6.028
REMARK INTRA:                  -0.599
REMARK UNBOUND:                -0.599
REMARK SMILES CCCCCCC=CC(=O)[O-]
REMARK SMILES IDX 5 1 6 2 7 3 8 4 9 5 10 6 11 7 4 8 3 9 2 10 1 11
REMARK H PARENT
REMARK Flexibility Score: inf
ROOT
ATOM      1  C   UNL     1       6.058  45.312  22.842  1.00  0.00     0.004 C 
ENDROOT
BRANCH   1   2
ATOM      2  C   UNL     1       7.487  44.757  22.913  1.00  0.00     0.027 C 
BRANCH   2   3
ATOM      3  C   UNL     1       8.456  45.810  23.366  1.00  0.00    -0.025 C 
ATOM      4  C   UNL     1       8.583  46.136  24.657  1.00  0.00     0.020 C 
BRANCH   4   5
ATOM      5  C   UNL     1       9.537  47.154  25.124  1.00  0.00     0.064 C 
ATOM      6  O   UNL     1       9.533  47.552  26.319  1.00  0.00    -0.545 OA
ATOM      7  O   UNL     1      10.460  47.684  24.232  1.00  0.00    -0.545 OA
ENDBRANCH   4   5
ENDBRANCH   2   3
ENDBRANCH   1   2
BRANCH   1   8
ATOM      8  C   UNL     1       5.042  44.275  23.335  1.00  0.00     0.000 C 
BRANCH   8   9
ATOM      9  C   UNL     1       4.252  44.808  24.537  1.00  0.00    -0.000 C 
BRANCH   9  10
ATOM     10  C   UNL     1       4.689  46.232  24.896  1.00  0.00    -0.003 C 
ATOM     11  C   UNL     1       5.113  46.327  26.358  1.00  0.00     0.004 C 
ENDBRANCH   9  10
ENDBRANCH   8   9
ENDBRANCH   1   8
TORSDOF 6
ENDMDL
MODEL 2
REMARK VINA RESULT:    -4.331      1.866      3.922
REMARK INTER + INTRA:          -6.449
REMARK INTER:                  -5.813
REMARK INTRA:                  -0.636
REMARK UNBOUND:                -0.599
REMARK SMILES CCCCCCC=CC(=O)[O-]
REMARK SMILES IDX 5 1 6 2 7 3 8 4 9 5 10 6 11 7 4 8 3 9 2 10 1 11
REMARK H PARENT
REMARK Flexibility Score: inf
ROOT
ATOM      1  C   UNL     1       5.296  44.214  23.354  1.00  0.00     0.004 C 
ENDROOT
BRANCH   1   2
ATOM      2  C   UNL     1       4.259  44.773  24.337  1.00  0.00     0.027 C 
BRANCH   2   3
ATOM      3  C   UNL     1       4.672  46.120  24.856  1.00  0.00    -0.025 C 
ATOM      4  C   UNL     1       5.000  46.304  26.140  1.00  0.00     0.020 C 
BRANCH   4   5
ATOM      5  C   UNL     1       5.422  47.612  26.666  1.00  0.00     0.064 C 
ATOM      6  O   UNL     1       6.468  48.177  26.247  1.00  0.00    -0.545 OA
ATOM      7  O   UNL     1       4.654  48.236  27.641  1.00  0.00    -0.545 OA
ENDBRANCH   4   5
ENDBRANCH   2   3
ENDBRANCH   1   2
BRANCH   1   8
ATOM      8  C   UNL     1       6.208  45.328  22.826  1.00  0.00     0.000 C 
BRANCH   8   9
ATOM      9  C   UNL     1       7.684  44.926  22.930  1.00  0.00    -0.000 C 
BRANCH   9  10
ATOM     10  C   UNL     1       8.515  46.045  23.565  1.00  0.00    -0.003 C 
ATOM     11  C   UNL     1       8.667  45.835  25.069  1.00  0.00     0.004 C 
ENDBRANCH   9  10
ENDBRANCH   8   9
ENDBRANCH   1   8
TORSDOF 6
ENDMDL
MODEL 3
REMARK VINA RESULT:    -4.323      1.871      2.413
REMARK INTER + INTRA:          -6.438
REMARK INTER:                  -5.700
REMARK INTRA:                  -0.738
REMARK UNBOUND:                -0.599
REMARK SMILES CCCCCCC=CC(=O)[O-]
REMARK SMILES IDX 5 1 6 2 7 3 8 4 9 5 10 6 11 7 4 8 3 9 2 10 1 11
REMARK H PARENT
REMARK Flexibility Score: inf
ROOT
ATOM      1  C   UNL     1       7.737  44.733  22.935  1.00  0.00     0.004 C 
ENDROOT
BRANCH   1   2
ATOM      2  C   UNL     1       8.318  45.173  21.585  1.00  0.00     0.027 C 
BRANCH   2   3
ATOM      3  C   UNL     1       9.213  46.367  21.741  1.00  0.00    -0.025 C 
ATOM      4  C   UNL     1       9.540  46.843  22.947  1.00  0.00     0.020 C 
BRANCH   4   5
ATOM      5  C   UNL     1      10.427  48.004  23.124  1.00  0.00     0.064 C 
ATOM      6  O   UNL     1      11.627  47.971  22.744  1.00  0.00    -0.545 OA
ATOM      7  O   UNL     1       9.932  49.157  23.719  1.00  0.00    -0.545 OA
ENDBRANCH   4   5
ENDBRANCH   2   3
ENDBRANCH   1   2
BRANCH   1   8
ATOM      8  C   UNL     1       6.207  44.833  22.933  1.00  0.00     0.000 C 
BRANCH   8   9
ATOM      9  C   UNL     1       5.729  45.972  23.842  1.00  0.00    -0.000 C 
BRANCH   9  10
ATOM     10  C   UNL     1       5.466  47.248  23.033  1.00  0.00    -0.003 C 
ATOM     11  C   UNL     1       6.342  48.399  23.517  1.00  0.00     0.004 C 
ENDBRANCH   9  10
ENDBRANCH   8   9
ENDBRANCH   1   8
TORSDOF 6
ENDMDL
MODEL 4
REMARK VINA RESULT:    -4.276      2.988      4.449
REMARK INTER + INTRA:          -6.375
REMARK INTER:                  -5.719
REMARK INTRA:                  -0.656
REMARK UNBOUND:                -0.599
REMARK SMILES CCCCCCC=CC(=O)[O-]
REMARK SMILES IDX 5 1 6 2 7 3 8 4 9 5 10 6 11 7 4 8 3 9 2 10 1 11
REMARK H PARENT
REMARK Flexibility Score: inf
ROOT
ATOM      1  C   UNL     1       6.930  45.913  23.383  1.00  0.00     0.004 C 
ENDROOT
BRANCH   1   2
ATOM      2  C   UNL     1       7.821  44.787  22.842  1.00  0.00     0.027 C 
BRANCH   2   3
ATOM      3  C   UNL     1       8.391  45.142  21.499  1.00  0.00    -0.025 C 
ATOM      4  C   UNL     1       8.450  46.411  21.078  1.00  0.00     0.020 C 
BRANCH   4   5
ATOM      5  C   UNL     1       9.018  46.783  19.773  1.00  0.00     0.064 C 
ATOM      6  O   UNL     1       8.599  46.259  18.706  1.00  0.00    -0.545 OA
ATOM      7  O   UNL     1      10.033  47.730  19.715  1.00  0.00    -0.545 OA
ENDBRANCH   4   5
ENDBRANCH   2   3
ENDBRANCH   1   2
BRANCH   1   8
ATOM      8  C   UNL     1       7.313  46.272  24.823  1.00  0.00     0.000 C 
BRANCH   8   9
ATOM      9  C   UNL     1       8.772  45.900  25.114  1.00  0.00    -0.000 C 
BRANCH   9  10
ATOM     10  C   UNL     1       9.597  47.143  25.465  1.00  0.00    -0.003 C 
ATOM     11  C   UNL     1       9.965  47.933  24.213  1.00  0.00     0.004 C 
ENDBRANCH   9  10
ENDBRANCH   8   9
ENDBRANCH   1   8
TORSDOF 6
ENDMDL
MODEL 5
REMARK VINA RESULT:    -4.276      5.122      5.867
REMARK INTER + INTRA:          -6.375
REMARK INTER:                  -5.785
REMARK INTRA:                  -0.589
REMARK UNBOUND:                -0.599
REMARK SMILES CCCCCCC=CC(=O)[O-]
REMARK SMILES IDX 5 1 6 2 7 3 8 4 9 5 10 6 11 7 4 8 3 9 2 10 1 11
REMARK H PARENT
REMARK Flexibility Score: inf
ROOT
ATOM      1  C   UNL     1      10.207  49.992  19.482  1.00  0.00     0.004 C 
ENDROOT
BRANCH   1   2
ATOM      2  C   UNL     1      10.825  48.598  19.318  1.00  0.00     0.027 C 
BRANCH   2   3
ATOM      3  C   UNL     1      11.077  47.956  20.651  1.00  0.00    -0.025 C 
ATOM      4  C   UNL     1      10.737  48.561  21.795  1.00  0.00     0.020 C 
BRANCH   4   5
ATOM      5  C   UNL     1      10.962  47.944  23.112  1.00  0.00     0.064 C 
ATOM      6  O   UNL     1      10.079  47.228  23.655  1.00  0.00    -0.545 OA
ATOM      7  O   UNL     1      12.169  48.152  23.766  1.00  0.00    -0.545 OA
ENDBRANCH   4   5
ENDBRANCH   2   3
ENDBRANCH   1   2
BRANCH   1   8
ATOM      8  C   UNL     1       8.752  50.009  18.998  1.00  0.00     0.000 C 
BRANCH   8   9
ATOM      9  C   UNL     1       7.787  50.261  20.163  1.00  0.00    -0.000 C 
BRANCH   9  10
ATOM     10  C   UNL     1       8.121  51.575  20.879  1.00  0.00    -0.003 C 
ATOM     11  C   UNL     1       8.259  51.363  22.384  1.00  0.00     0.004 C 
ENDBRANCH   9  10
ENDBRANCH   8   9
ENDBRANCH   1   8
TORSDOF 6
ENDMDL
MODEL 6
REMARK VINA RESULT:    -4.244      4.722      5.962
REMARK INTER + INTRA:          -6.331
REMARK INTER:                  -5.703
REMARK INTRA:                  -0.628
REMARK UNBOUND:                -0.599
REMARK SMILES CCCCCCC=CC(=O)[O-]
REMARK SMILES IDX 5 1 6 2 7 3 8 4 9 5 10 6 11 7 4 8 3 9 2 10 1 11
REMARK H PARENT
REMARK Flexibility Score: inf
ROOT
ATOM      1  C   UNL     1       8.587  51.337  21.065  1.00  0.00     0.004 C 
ENDROOT
BRANCH   1   2
ATOM      2  C   UNL     1       8.361  51.140  22.569  1.00  0.00     0.027 C 
BRANCH   2   3
ATOM      3  C   UNL     1       9.010  49.877  23.056  1.00  0.00    -0.025 C 
ATOM      4  C   UNL     1       9.803  49.148  22.263  1.00  0.00     0.020 C 
BRANCH   4   5
ATOM      5  C   UNL     1      10.461  47.915  22.723  1.00  0.00     0.064 C 
ATOM      6  O   UNL     1      11.703  47.750  22.591  1.00  0.00    -0.545 OA
ATOM      7  O   UNL     1       9.700  46.915  23.314  1.00  0.00    -0.545 OA
ENDBRANCH   4   5
ENDBRANCH   2   3
ENDBRANCH   1   2
BRANCH   1   8
ATOM      8  C   UNL     1       7.265  51.621  20.343  1.00  0.00     0.000 C 
BRANCH   8   9
ATOM      9  C   UNL     1       7.022  50.605  19.220  1.00  0.00    -0.000 C 
BRANCH   9  10
ATOM     10  C   UNL     1       6.935  49.180  19.777  1.00  0.00    -0.003 C 
ATOM     11  C   UNL     1       7.846  48.230  19.005  1.00  0.00     0.004 C 
ENDBRANCH   9  10
ENDBRANCH   8   9
ENDBRANCH   1   8
TORSDOF 6
ENDMDL
MODEL 7
REMARK VINA RESULT:    -4.179      6.770      7.947
REMARK INTER + INTRA:          -6.244
REMARK INTER:                  -5.562
REMARK INTRA:                  -0.682
REMARK UNBOUND:                -0.599
REMARK SMILES CCCCCCC=CC(=O)[O-]
REMARK SMILES IDX 5 1 6 2 7 3 8 4 9 5 10 6 11 7 4 8 3 9 2 10 1 11
REMARK H PARENT
REMARK Flexibility Score: inf
ROOT
ATOM      1  C   UNL     1       6.606  50.051  19.654  1.00  0.00     0.004 C 
ENDROOT
BRANCH   1   2
ATOM      2  C   UNL     1       6.235  50.030  18.166  1.00  0.00     0.027 C 
BRANCH   2   3
ATOM      3  C   UNL     1       7.171  49.154  17.386  1.00  0.00    -0.025 C 
ATOM      4  C   UNL     1       7.393  47.882  17.735  1.00  0.00     0.020 C 
BRANCH   4   5
ATOM      5  C   UNL     1       8.295  47.001  16.976  1.00  0.00     0.064 C 
ATOM      6  O   UNL     1       9.546  47.095  17.090  1.00  0.00    -0.545 OA
ATOM      7  O   UNL     1       7.758  46.048  16.119  1.00  0.00    -0.545 OA
ENDBRANCH   4   5
ENDBRANCH   2   3
ENDBRANCH   1   2
BRANCH   1   8
ATOM      8  C   UNL     1       7.172  51.417  20.059  1.00  0.00     0.000 C 
BRANCH   8   9
ATOM      9  C   UNL     1       8.505  51.262  20.803  1.00  0.00    -0.000 C 
BRANCH   9  10
ATOM     10  C   UNL     1       9.138  49.896  20.517  1.00  0.00    -0.003 C 
ATOM     11  C   UNL     1      10.234  50.006  19.460  1.00  0.00     0.004 C 
ENDBRANCH   9  10
ENDBRANCH   8   9
ENDBRANCH   1   8
TORSDOF 6
ENDMDL
MODEL 8
REMARK VINA RESULT:    -4.161      2.385      3.768
REMARK INTER + INTRA:          -6.220
REMARK INTER:                  -5.459
REMARK INTRA:                  -0.761
REMARK UNBOUND:                -0.599
REMARK SMILES CCCCCCC=CC(=O)[O-]
REMARK SMILES IDX 5 1 6 2 7 3 8 4 9 5 10 6 11 7 4 8 3 9 2 10 1 11
REMARK H PARENT
REMARK Flexibility Score: inf
ROOT
ATOM      1  C   UNL     1       6.053  46.029  24.018  1.00  0.00     0.004 C 
ENDROOT
BRANCH   1   2
ATOM      2  C   UNL     1       5.385  47.224  23.325  1.00  0.00     0.027 C 
BRANCH   2   3
ATOM      3  C   UNL     1       6.369  48.332  23.085  1.00  0.00    -0.025 C 
ATOM      4  C   UNL     1       7.396  48.548  23.915  1.00  0.00     0.020 C 
BRANCH   4   5
ATOM      5  C   UNL     1       8.380  49.618  23.692  1.00  0.00     0.064 C 
ATOM      6  O   UNL     1       9.617  49.390  23.753  1.00  0.00    -0.545 OA
ATOM      7  O   UNL     1       7.938  50.903  23.405  1.00  0.00    -0.545 OA
ENDBRANCH   4   5
ENDBRANCH   2   3
ENDBRANCH   1   2
BRANCH   1   8
ATOM      8  C   UNL     1       6.448  44.954  22.998  1.00  0.00     0.000 C 
BRANCH   8   9
ATOM      9  C   UNL     1       7.969  44.912  22.804  1.00  0.00    -0.000 C 
BRANCH   9  10
ATOM     10  C   UNL     1       8.359  45.410  21.408  1.00  0.00    -0.003 C 
ATOM     11  C   UNL     1       9.443  46.481  21.487  1.00  0.00     0.004 C 
ENDBRANCH   9  10
ENDBRANCH   8   9
ENDBRANCH   1   8
TORSDOF 6
ENDMDL
MODEL 9
REMARK VINA RESULT:    -4.138      2.393      3.340
REMARK INTER + INTRA:          -6.189
REMARK INTER:                  -5.430
REMARK INTRA:                  -0.758
REMARK UNBOUND:                -0.599
REMARK SMILES CCCCCCC=CC(=O)[O-]
REMARK SMILES IDX 5 1 6 2 7 3 8 4 9 5 10 6 11 7 4 8 3 9 2 10 1 11
REMARK H PARENT
REMARK Flexibility Score: inf
ROOT
ATOM      1  C   UNL     1       7.189  46.138  24.486  1.00  0.00     0.004 C 
ENDROOT
BRANCH   1   2
ATOM      2  C   UNL     1       8.528  46.070  25.231  1.00  0.00     0.027 C 
BRANCH   2   3
ATOM      3  C   UNL     1       9.536  47.000  24.622  1.00  0.00    -0.025 C 
ATOM      4  C   UNL     1       9.645  47.142  23.296  1.00  0.00     0.020 C 
BRANCH   4   5
ATOM      5  C   UNL     1      10.616  48.059  22.678  1.00  0.00     0.064 C 
ATOM      6  O   UNL     1      11.849  47.958  22.914  1.00  0.00    -0.545 OA
ATOM      7  O   UNL     1      10.166  49.052  21.819  1.00  0.00    -0.545 OA
ENDBRANCH   4   5
ENDBRANCH   2   3
ENDBRANCH   1   2
BRANCH   1   8
ATOM      8  C   UNL     1       6.204  47.063  25.210  1.00  0.00     0.000 C 
BRANCH   8   9
ATOM      9  C   UNL     1       5.940  48.333  24.393  1.00  0.00    -0.000 C 
BRANCH   9  10
ATOM     10  C   UNL     1       6.580  49.558  25.057  1.00  0.00    -0.003 C 
ATOM     11  C   UNL     1       7.595  50.220  24.130  1.00  0.00     0.004 C 
ENDBRANCH   9  10
ENDBRANCH   8   9
ENDBRANCH   1   8
TORSDOF 6
ENDMDL
