MODEL 1
REMARK VINA RESULT:    -3.375      0.000      0.000
REMARK INTER + INTRA:          -5.459
REMARK INTER:                  -4.559
REMARK INTRA:                  -0.900
REMARK UNBOUND:                -0.900
REMARK SMILES CC(=O)OCC=C(C)CCC=C(C)C
REMARK SMILES IDX 7 1 6 2 8 3 9 4 10 5 11 6 13 7 12 8 14 9 5 10 4 11 2 12 3 13
REMARK SMILES IDX 1 14
REMARK H PARENT
REMARK Flexibility Score: inf
ROOT
ATOM      1  C   UNL     1      21.317  34.546  39.039  1.00  0.00    -0.074 C 
ATOM      2  C   UNL     1      22.128  33.854  39.869  1.00  0.00     0.013 C 
ATOM      3  C   UNL     1      21.382  36.051  38.939  1.00  0.00     0.039 C 
ENDROOT
BRANCH   1   4
ATOM      4  C   UNL     1      20.316  33.793  38.191  1.00  0.00     0.034 C 
BRANCH   4   5
ATOM      5  C   UNL     1      19.938  32.461  38.847  1.00  0.00     0.032 C 
BRANCH   5   6
ATOM      6  C   UNL     1      18.522  32.502  39.366  1.00  0.00    -0.028 C 
ATOM      7  C   UNL     1      19.233  32.643  41.763  1.00  0.00     0.039 C 
ATOM      8  C   UNL     1      18.189  32.608  40.671  1.00  0.00    -0.080 C 
ATOM      9  C   UNL     1      16.729  32.678  41.037  1.00  0.00     0.039 C 
ENDBRANCH   5   6
ENDBRANCH   4   5
ENDBRANCH   1   4
BRANCH   2  10
ATOM     10  C   UNL     1      23.163  34.495  40.760  1.00  0.00     0.260 C 
BRANCH  10  11
ATOM     11  O   UNL     1      22.676  34.623  42.094  1.00  0.00    -0.462 OA
BRANCH  11  12
ATOM     12  C   UNL     1      22.579  35.847  42.763  1.00  0.00     0.302 C 
ATOM     13  O   UNL     1      22.017  35.924  43.890  1.00  0.00    -0.253 OA
ATOM     14  C   UNL     1      23.103  37.083  42.115  1.00  0.00     0.139 C 
ENDBRANCH  11  12
ENDBRANCH  10  11
ENDBRANCH   2  10
TORSDOF 6
ENDMDL
MODEL 2
REMARK VINA RESULT:    -3.296      4.011      6.710
REMARK INTER + INTRA:          -5.352
REMARK INTER:                  -5.003
REMARK INTRA:                  -0.349
REMARK UNBOUND:                -0.900
REMARK SMILES CC(=O)OCC=C(C)CCC=C(C)C
REMARK SMILES IDX 7 1 6 2 8 3 9 4 10 5 11 6 13 7 12 8 14 9 5 10 4 11 2 12 3 13
REMARK SMILES IDX 1 14
REMARK H PARENT
REMARK Flexibility Score: inf
ROOT
ATOM      1  C   UNL     1      17.526  32.633  39.773  1.00  0.00    -0.074 C 
ATOM      2  C   UNL     1      16.856  32.684  40.945  1.00  0.00     0.013 C 
ATOM      3  C   UNL     1      16.892  32.077  38.521  1.00  0.00     0.039 C 
ENDROOT
BRANCH   1   4
ATOM      4  C   UNL     1      18.949  33.143  39.715  1.00  0.00     0.034 C 
BRANCH   4   5
ATOM      5  C   UNL     1      19.845  32.372  40.690  1.00  0.00     0.032 C 
BRANCH   5   6
ATOM      6  C   UNL     1      20.637  33.321  41.554  1.00  0.00    -0.028 C 
ATOM      7  C   UNL     1      22.528  33.489  39.919  1.00  0.00     0.039 C 
ATOM      8  C   UNL     1      21.832  33.851  41.211  1.00  0.00    -0.080 C 
ATOM      9  C   UNL     1      22.489  34.818  42.161  1.00  0.00     0.039 C 
ENDBRANCH   5   6
ENDBRANCH   4   5
ENDBRANCH   1   4
BRANCH   2  10
ATOM     10  C   UNL     1      15.436  32.206  41.123  1.00  0.00     0.260 C 
BRANCH  10  11
ATOM     11  O   UNL     1      14.635  33.212  41.739  1.00  0.00    -0.462 OA
BRANCH  11  12
ATOM     12  C   UNL     1      13.276  33.045  42.024  1.00  0.00     0.302 C 
ATOM     13  O   UNL     1      12.477  32.635  41.138  1.00  0.00    -0.253 OA
ATOM     14  C   UNL     1      12.759  33.403  43.375  1.00  0.00     0.139 C 
ENDBRANCH  11  12
ENDBRANCH  10  11
ENDBRANCH   2  10
TORSDOF 6
ENDMDL
MODEL 3
REMARK VINA RESULT:    -3.202      2.124      5.313
REMARK INTER + INTRA:          -5.225
REMARK INTER:                  -4.647
REMARK INTRA:                  -0.578
REMARK UNBOUND:                -0.900
REMARK SMILES CC(=O)OCC=C(C)CCC=C(C)C
REMARK SMILES IDX 7 1 6 2 8 3 9 4 10 5 11 6 13 7 12 8 14 9 5 10 4 11 2 12 3 13
REMARK SMILES IDX 1 14
REMARK H PARENT
REMARK Flexibility Score: inf
ROOT
ATOM      1  C   UNL     1      21.721  33.975  39.458  1.00  0.00    -0.074 C 
ATOM      2  C   UNL     1      20.818  32.978  39.584  1.00  0.00     0.013 C 
ATOM      3  C   UNL     1      21.345  35.316  38.875  1.00  0.00     0.039 C 
ENDROOT
BRANCH   1   4
ATOM      4  C   UNL     1      23.146  33.741  39.910  1.00  0.00     0.034 C 
BRANCH   4   5
ATOM      5  C   UNL     1      23.309  34.079  41.395  1.00  0.00     0.032 C 
BRANCH   5   6
ATOM      6  C   UNL     1      23.717  35.521  41.574  1.00  0.00    -0.028 C 
ATOM      7  C   UNL     1      22.163  35.890  43.504  1.00  0.00     0.039 C 
ATOM      8  C   UNL     1      23.229  36.340  42.532  1.00  0.00    -0.080 C 
ATOM      9  C   UNL     1      23.760  37.748  42.613  1.00  0.00     0.039 C 
ENDBRANCH   5   6
ENDBRANCH   4   5
ENDBRANCH   1   4
BRANCH   2  10
ATOM     10  C   UNL     1      19.373  33.096  39.170  1.00  0.00     0.260 C 
BRANCH  10  11
ATOM     11  O   UNL     1      18.559  33.490  40.272  1.00  0.00    -0.462 OA
BRANCH  11  12
ATOM     12  C   UNL     1      17.884  32.580  41.093  1.00  0.00     0.302 C 
ATOM     13  O   UNL     1      18.502  31.929  41.980  1.00  0.00    -0.253 OA
ATOM     14  C   UNL     1      16.428  32.341  40.884  1.00  0.00     0.139 C 
ENDBRANCH  11  12
ENDBRANCH  10  11
ENDBRANCH   2  10
TORSDOF 6
ENDMDL
MODEL 4
REMARK VINA RESULT:    -3.200      1.204      1.768
REMARK INTER + INTRA:          -5.222
REMARK INTER:                  -4.718
REMARK INTRA:                  -0.504
REMARK UNBOUND:                -0.900
REMARK SMILES CC(=O)OCC=C(C)CCC=C(C)C
REMARK SMILES IDX 7 1 6 2 8 3 9 4 10 5 11 6 13 7 12 8 14 9 5 10 4 11 2 12 3 13
REMARK SMILES IDX 1 14
REMARK H PARENT
REMARK Flexibility Score: inf
ROOT
ATOM      1  C   UNL     1      21.659  33.795  40.675  1.00  0.00    -0.074 C 
ATOM      2  C   UNL     1      22.697  33.672  41.532  1.00  0.00     0.013 C 
ATOM      3  C   UNL     1      21.655  34.834  39.580  1.00  0.00     0.039 C 
ENDROOT
BRANCH   1   4
ATOM      4  C   UNL     1      20.471  32.870  40.819  1.00  0.00     0.034 C 
BRANCH   4   5
ATOM      5  C   UNL     1      19.283  33.377  39.995  1.00  0.00     0.032 C 
BRANCH   5   6
ATOM      6  C   UNL     1      17.983  33.115  40.715  1.00  0.00    -0.028 C 
ATOM      7  C   UNL     1      16.933  31.981  38.743  1.00  0.00     0.039 C 
ATOM      8  C   UNL     1      16.927  32.467  40.174  1.00  0.00    -0.080 C 
ATOM      9  C   UNL     1      15.706  32.244  41.029  1.00  0.00     0.039 C 
ENDBRANCH   5   6
ENDBRANCH   4   5
ENDBRANCH   1   4
BRANCH   2  10
ATOM     10  C   UNL     1      23.932  34.536  41.485  1.00  0.00     0.260 C 
BRANCH  10  11
ATOM     11  O   UNL     1      24.011  35.372  42.637  1.00  0.00    -0.462 OA
BRANCH  11  12
ATOM     12  C   UNL     1      22.977  36.222  43.041  1.00  0.00     0.302 C 
ATOM     13  O   UNL     1      22.167  35.871  43.943  1.00  0.00    -0.253 OA
ATOM     14  C   UNL     1      22.800  37.539  42.365  1.00  0.00     0.139 C 
ENDBRANCH  11  12
ENDBRANCH  10  11
ENDBRANCH   2  10
TORSDOF 6
ENDMDL
MODEL 5
REMARK VINA RESULT:    -3.120      1.532      3.144
REMARK INTER + INTRA:          -5.114
REMARK INTER:                  -4.257
REMARK INTRA:                  -0.856
REMARK UNBOUND:                -0.900
REMARK SMILES CC(=O)OCC=C(C)CCC=C(C)C
REMARK SMILES IDX 7 1 6 2 8 3 9 4 10 5 11 6 13 7 12 8 14 9 5 10 4 11 2 12 3 13
REMARK SMILES IDX 1 14
REMARK H PARENT
REMARK Flexibility Score: inf
ROOT
ATOM      1  C   UNL     1      21.573  33.079  41.256  1.00  0.00    -0.074 C 
ATOM      2  C   UNL     1      21.757  34.285  41.836  1.00  0.00     0.013 C 
ATOM      3  C   UNL     1      22.739  32.232  40.802  1.00  0.00     0.039 C 
ENDROOT
BRANCH   1   4
ATOM      4  C   UNL     1      20.166  32.564  41.054  1.00  0.00     0.034 C 
BRANCH   4   5
ATOM      5  C   UNL     1      19.385  33.472  40.098  1.00  0.00     0.032 C 
BRANCH   5   6
ATOM      6  C   UNL     1      19.746  33.174  38.664  1.00  0.00    -0.028 C 
ATOM      7  C   UNL     1      20.959  35.343  38.348  1.00  0.00     0.039 C 
ATOM      8  C   UNL     1      20.473  33.993  37.872  1.00  0.00    -0.080 C 
ATOM      9  C   UNL     1      20.788  33.543  36.469  1.00  0.00     0.039 C 
ENDBRANCH   5   6
ENDBRANCH   4   5
ENDBRANCH   1   4
BRANCH   2  10
ATOM     10  C   UNL     1      23.111  34.899  42.089  1.00  0.00     0.260 C 
BRANCH  10  11
ATOM     11  O   UNL     1      23.202  36.191  41.494  1.00  0.00    -0.462 OA
BRANCH  11  12
ATOM     12  C   UNL     1      23.316  37.372  42.235  1.00  0.00     0.302 C 
ATOM     13  O   UNL     1      22.292  37.939  42.706  1.00  0.00    -0.253 OA
ATOM     14  C   UNL     1      24.657  37.994  42.426  1.00  0.00     0.139 C 
ENDBRANCH  11  12
ENDBRANCH  10  11
ENDBRANCH   2  10
TORSDOF 6
ENDMDL
MODEL 6
REMARK VINA RESULT:    -3.089      2.689      5.734
REMARK INTER + INTRA:          -5.072
REMARK INTER:                  -4.333
REMARK INTRA:                  -0.739
REMARK UNBOUND:                -0.900
REMARK SMILES CC(=O)OCC=C(C)CCC=C(C)C
REMARK SMILES IDX 7 1 6 2 8 3 9 4 10 5 11 6 13 7 12 8 14 9 5 10 4 11 2 12 3 13
REMARK SMILES IDX 1 14
REMARK H PARENT
REMARK Flexibility Score: inf
ROOT
ATOM      1  C   UNL     1      21.492  34.049  39.624  1.00  0.00    -0.074 C 
ATOM      2  C   UNL     1      20.538  33.273  40.184  1.00  0.00     0.013 C 
ATOM      3  C   UNL     1      21.142  35.207  38.719  1.00  0.00     0.039 C 
ENDROOT
BRANCH   1   4
ATOM      4  C   UNL     1      22.947  33.749  39.908  1.00  0.00     0.034 C 
BRANCH   4   5
ATOM      5  C   UNL     1      23.312  34.133  41.346  1.00  0.00     0.032 C 
BRANCH   5   6
ATOM      6  C   UNL     1      23.452  35.629  41.482  1.00  0.00    -0.028 C 
ATOM      7  C   UNL     1      22.130  35.724  43.607  1.00  0.00     0.039 C 
ATOM      8  C   UNL     1      22.948  36.355  42.504  1.00  0.00    -0.080 C 
ATOM      9  C   UNL     1      23.202  37.840  42.525  1.00  0.00     0.039 C 
ENDBRANCH   5   6
ENDBRANCH   4   5
ENDBRANCH   1   4
BRANCH   2  10
ATOM     10  C   UNL     1      19.058  33.477  39.973  1.00  0.00     0.260 C 
BRANCH  10  11
ATOM     11  O   UNL     1      18.499  32.400  39.226  1.00  0.00    -0.462 OA
BRANCH  11  12
ATOM     12  C   UNL     1      18.165  32.496  37.871  1.00  0.00     0.302 C 
ATOM     13  O   UNL     1      19.035  32.808  37.012  1.00  0.00    -0.253 OA
ATOM     14  C   UNL     1      16.754  32.276  37.444  1.00  0.00     0.139 C 
ENDBRANCH  11  12
ENDBRANCH  10  11
ENDBRANCH   2  10
TORSDOF 6
ENDMDL
MODEL 7
REMARK VINA RESULT:    -3.083      2.252      5.555
REMARK INTER + INTRA:          -5.065
REMARK INTER:                  -4.349
REMARK INTRA:                  -0.716
REMARK UNBOUND:                -0.900
REMARK SMILES CC(=O)OCC=C(C)CCC=C(C)C
REMARK SMILES IDX 7 1 6 2 8 3 9 4 10 5 11 6 13 7 12 8 14 9 5 10 4 11 2 12 3 13
REMARK SMILES IDX 1 14
REMARK H PARENT
REMARK Flexibility Score: inf
ROOT
ATOM      1  C   UNL     1      22.704  33.629  40.730  1.00  0.00    -0.074 C 
ATOM      2  C   UNL     1      22.099  34.029  39.590  1.00  0.00     0.013 C 
ATOM      3  C   UNL     1      22.234  32.413  41.493  1.00  0.00     0.039 C 
ENDROOT
BRANCH   1   4
ATOM      4  C   UNL     1      23.879  34.421  41.258  1.00  0.00     0.034 C 
BRANCH   4   5
ATOM      5  C   UNL     1      23.661  34.809  42.724  1.00  0.00     0.032 C 
BRANCH   5   6
ATOM      6  C   UNL     1      22.637  35.910  42.840  1.00  0.00    -0.028 C 
ATOM      7  C   UNL     1      24.314  37.732  42.459  1.00  0.00     0.039 C 
ATOM      8  C   UNL     1      22.910  37.226  42.698  1.00  0.00    -0.080 C 
ATOM      9  C   UNL     1      21.774  38.211  42.802  1.00  0.00     0.039 C 
ENDBRANCH   5   6
ENDBRANCH   4   5
ENDBRANCH   1   4
BRANCH   2  10
ATOM     10  C   UNL     1      20.922  33.319  38.970  1.00  0.00     0.260 C 
BRANCH  10  11
ATOM     11  O   UNL     1      19.693  33.890  39.414  1.00  0.00    -0.462 OA
BRANCH  11  12
ATOM     12  C   UNL     1      18.617  33.129  39.883  1.00  0.00     0.302 C 
ATOM     13  O   UNL     1      17.709  32.742  39.097  1.00  0.00    -0.253 OA
ATOM     14  C   UNL     1      18.516  32.815  41.336  1.00  0.00     0.139 C 
ENDBRANCH  11  12
ENDBRANCH  10  11
ENDBRANCH   2  10
TORSDOF 6
ENDMDL
MODEL 8
REMARK VINA RESULT:    -3.048      2.644      5.434
REMARK INTER + INTRA:          -5.017
REMARK INTER:                  -3.822
REMARK INTRA:                  -1.195
REMARK UNBOUND:                -0.900
REMARK SMILES CC(=O)OCC=C(C)CCC=C(C)C
REMARK SMILES IDX 7 1 6 2 8 3 9 4 10 5 11 6 13 7 12 8 14 9 5 10 4 11 2 12 3 13
REMARK SMILES IDX 1 14
REMARK H PARENT
REMARK Flexibility Score: inf
ROOT
ATOM      1  C   UNL     1      23.461  33.340  41.550  1.00  0.00    -0.074 C 
ATOM      2  C   UNL     1      22.182  32.946  41.366  1.00  0.00     0.013 C 
ATOM      3  C   UNL     1      24.359  33.687  40.386  1.00  0.00     0.039 C 
ENDROOT
BRANCH   1   4
ATOM      4  C   UNL     1      24.009  33.434  42.956  1.00  0.00     0.034 C 
BRANCH   4   5
ATOM      5  C   UNL     1      24.536  34.844  43.243  1.00  0.00     0.032 C 
BRANCH   5   6
ATOM      6  C   UNL     1      23.405  35.840  43.285  1.00  0.00    -0.028 C 
ATOM      7  C   UNL     1      24.516  37.414  41.684  1.00  0.00     0.039 C 
ATOM      8  C   UNL     1      23.369  36.988  42.572  1.00  0.00    -0.080 C 
ATOM      9  C   UNL     1      22.152  37.868  42.686  1.00  0.00     0.039 C 
ENDBRANCH   5   6
ENDBRANCH   4   5
ENDBRANCH   1   4
BRANCH   2  10
ATOM     10  C   UNL     1      21.529  32.816  40.012  1.00  0.00     0.260 C 
BRANCH  10  11
ATOM     11  O   UNL     1      20.682  33.932  39.748  1.00  0.00    -0.462 OA
BRANCH  11  12
ATOM     12  C   UNL     1      20.983  34.920  38.805  1.00  0.00     0.302 C 
ATOM     13  O   UNL     1      20.728  34.744  37.582  1.00  0.00    -0.253 OA
ATOM     14  C   UNL     1      21.657  36.174  39.244  1.00  0.00     0.139 C 
ENDBRANCH  11  12
ENDBRANCH  10  11
ENDBRANCH   2  10
TORSDOF 6
ENDMDL
MODEL 9
REMARK VINA RESULT:    -2.237      5.941      8.949
REMARK INTER + INTRA:          -3.922
REMARK INTER:                  -3.740
REMARK INTRA:                  -0.182
REMARK UNBOUND:                -0.900
REMARK SMILES CC(=O)OCC=C(C)CCC=C(C)C
REMARK SMILES IDX 7 1 6 2 8 3 9 4 10 5 11 6 13 7 12 8 14 9 5 10 4 11 2 12 3 13
REMARK SMILES IDX 1 14
REMARK H PARENT
REMARK Flexibility Score: inf
ROOT
ATOM      1  C   UNL     1      13.836  32.402  41.072  1.00  0.00    -0.074 C 
ATOM      2  C   UNL     1      12.667  31.875  40.648  1.00  0.00     0.013 C 
ATOM      3  C   UNL     1      13.881  33.503  42.106  1.00  0.00     0.039 C 
ENDROOT
BRANCH   1   4
ATOM      4  C   UNL     1      15.133  31.878  40.497  1.00  0.00     0.034 C 
BRANCH   4   5
ATOM      5  C   UNL     1      16.337  32.564  41.152  1.00  0.00     0.032 C 
BRANCH   5   6
ATOM      6  C   UNL     1      17.419  32.830  40.135  1.00  0.00    -0.028 C 
ATOM      7  C   UNL     1      19.272  32.574  41.801  1.00  0.00     0.039 C 
ATOM      8  C   UNL     1      18.743  32.814  40.406  1.00  0.00    -0.080 C 
ATOM      9  C   UNL     1      19.711  33.060  39.278  1.00  0.00     0.039 C 
ENDBRANCH   5   6
ENDBRANCH   4   5
ENDBRANCH   1   4
BRANCH   2  10
ATOM     10  C   UNL     1      11.315  32.316  41.150  1.00  0.00     0.260 C 
BRANCH  10  11
ATOM     11  O   UNL     1      11.181  32.055  42.545  1.00  0.00    -0.462 OA
BRANCH  11  12
ATOM     12  C   UNL     1      10.092  32.489  43.308  1.00  0.00     0.302 C 
ATOM     13  O   UNL     1       8.913  32.175  42.987  1.00  0.00    -0.253 OA
ATOM     14  C   UNL     1      10.325  33.373  44.484  1.00  0.00     0.139 C 
ENDBRANCH  11  12
ENDBRANCH  10  11
ENDBRANCH   2  10
TORSDOF 6
ENDMDL
