MODEL 1
REMARK VINA RESULT:    -5.098      0.000      0.000
REMARK INTER + INTRA:         -17.098
REMARK INTER:                 -13.442
REMARK INTRA:                  -3.656
REMARK UNBOUND:                -3.656
REMARK SMILES CCCCCCCCCCCCCCCCCCCCCCCCCCCCCC(=O)[O-]
REMARK SMILES IDX 16 1 17 2 18 3 19 4 20 5 21 6 22 7 23 8 24 9 25 10 26 11
REMARK SMILES IDX 27 12 28 13 29 14 30 15 31 16 32 17 15 18 14 19 13 20 12 21
REMARK SMILES IDX 11 22 10 23 9 24 8 25 7 26 6 27 5 28 4 29 3 30 2 31 1 32
REMARK H PARENT
REMARK Flexibility Score: inf
ROOT
ATOM      1  C   UNL     1     -17.175 -12.265  20.468  1.00  0.00     0.000 C 
ENDROOT
BRANCH   1   2
ATOM      2  C   UNL     1     -16.778 -12.776  19.073  1.00  0.00     0.000 C 
BRANCH   2   3
ATOM      3  C   UNL     1     -15.474 -12.148  18.534  1.00  0.00     0.000 C 
BRANCH   3   4
ATOM      4  C   UNL     1     -14.925 -12.910  17.315  1.00  0.00     0.000 C 
BRANCH   4   5
ATOM      5  C   UNL     1     -15.924 -13.942  16.765  1.00  0.00     0.000 C 
BRANCH   5   6
ATOM      6  C   UNL     1     -16.349 -13.635  15.318  1.00  0.00     0.000 C 
BRANCH   6   7
ATOM      7  C   UNL     1     -15.383 -12.674  14.604  1.00  0.00     0.000 C 
BRANCH   7   8
ATOM      8  C   UNL     1     -14.484 -13.335  13.542  1.00  0.00     0.000 C 
BRANCH   8   9
ATOM      9  C   UNL     1     -13.086 -13.691  14.079  1.00  0.00     0.000 C 
BRANCH   9  10
ATOM     10  C   UNL     1     -12.416 -12.516  14.806  1.00  0.00     0.000 C 
BRANCH  10  11
ATOM     11  C   UNL     1     -11.433 -12.978  15.897  1.00  0.00     0.000 C 
BRANCH  11  12
ATOM     12  C   UNL     1     -10.015 -12.424  15.690  1.00  0.00     0.000 C 
BRANCH  12  13
ATOM     13  C   UNL     1      -9.830 -11.764  14.315  1.00  0.00     0.006 C 
BRANCH  13  14
ATOM     14  C   UNL     1      -8.723 -10.706  14.354  1.00  0.00     0.053 C 
BRANCH  14  15
ATOM     15  C   UNL     1      -7.429 -11.317  14.788  1.00  0.00     0.041 C 
ATOM     16  O   UNL     1      -6.905 -10.981  15.885  1.00  0.00    -0.550 OA
ATOM     17  O   UNL     1      -6.825 -12.296  14.008  1.00  0.00    -0.550 OA
ENDBRANCH  14  15
ENDBRANCH  13  14
ENDBRANCH  12  13
ENDBRANCH  11  12
ENDBRANCH  10  11
ENDBRANCH   9  10
ENDBRANCH   8   9
ENDBRANCH   7   8
ENDBRANCH   6   7
ENDBRANCH   5   6
ENDBRANCH   4   5
ENDBRANCH   3   4
ENDBRANCH   2   3
ENDBRANCH   1   2
BRANCH   1  18
ATOM     18  C   UNL     1     -17.066 -10.738  20.593  1.00  0.00     0.000 C 
BRANCH  18  19
ATOM     19  C   UNL     1     -18.376 -10.084  21.059  1.00  0.00     0.000 C 
BRANCH  19  20
ATOM     20  C   UNL     1     -19.453 -11.110  21.455  1.00  0.00     0.000 C 
BRANCH  20  21
ATOM     21  C   UNL     1     -20.079 -10.838  22.837  1.00  0.00     0.000 C 
BRANCH  21  22
ATOM     22  C   UNL     1     -19.195 -10.047  23.824  1.00  0.00     0.000 C 
BRANCH  22  23
ATOM     23  C   UNL     1     -17.974 -10.817  24.377  1.00  0.00     0.000 C 
BRANCH  23  24
ATOM     24  C   UNL     1     -16.843  -9.912  24.903  1.00  0.00    -0.000 C 
BRANCH  24  25
ATOM     25  C   UNL     1     -15.832  -9.441  23.843  1.00  0.00    -0.000 C 
BRANCH  25  26
ATOM     26  C   UNL     1     -14.385  -9.259  24.348  1.00  0.00    -0.000 C 
BRANCH  26  27
ATOM     27  C   UNL     1     -13.325 -10.093  23.606  1.00  0.00    -0.000 C 
BRANCH  27  28
ATOM     28  C   UNL     1     -13.834 -10.654  22.271  1.00  0.00    -0.000 C 
BRANCH  28  29
ATOM     29  C   UNL     1     -13.850 -12.189  22.296  1.00  0.00    -0.000 C 
BRANCH  29  30
ATOM     30  C   UNL     1     -13.023 -12.814  21.158  1.00  0.00    -0.000 C 
BRANCH  30  31
ATOM     31  C   UNL     1     -11.944 -11.892  20.560  1.00  0.00    -0.003 C 
ATOM     32  C   UNL     1     -10.627 -11.932  21.335  1.00  0.00     0.004 C 
ENDBRANCH  30  31
ENDBRANCH  29  30
ENDBRANCH  28  29
ENDBRANCH  27  28
ENDBRANCH  26  27
ENDBRANCH  25  26
ENDBRANCH  24  25
ENDBRANCH  23  24
ENDBRANCH  22  23
ENDBRANCH  21  22
ENDBRANCH  20  21
ENDBRANCH  19  20
ENDBRANCH  18  19
ENDBRANCH   1  18
TORSDOF 28
ENDMDL
MODEL 2
REMARK VINA RESULT:    -4.948      2.285      8.601
REMARK INTER + INTRA:         -16.703
REMARK INTER:                 -12.740
REMARK INTRA:                  -3.963
REMARK UNBOUND:                -3.656
REMARK SMILES CCCCCCCCCCCCCCCCCCCCCCCCCCCCCC(=O)[O-]
REMARK SMILES IDX 16 1 17 2 18 3 19 4 20 5 21 6 22 7 23 8 24 9 25 10 26 11
REMARK SMILES IDX 27 12 28 13 29 14 30 15 31 16 32 17 15 18 14 19 13 20 12 21
REMARK SMILES IDX 11 22 10 23 9 24 8 25 7 26 6 27 5 28 4 29 3 30 2 31 1 32
REMARK H PARENT
REMARK Flexibility Score: inf
ROOT
ATOM      1  C   UNL     1     -16.914 -10.628  20.573  1.00  0.00     0.000 C 
ENDROOT
BRANCH   1   2
ATOM      2  C   UNL     1     -18.223  -9.945  21.003  1.00  0.00     0.000 C 
BRANCH   2   3
ATOM      3  C   UNL     1     -19.465 -10.853  20.872  1.00  0.00     0.000 C 
BRANCH   3   4
ATOM      4  C   UNL     1     -20.636 -10.362  21.742  1.00  0.00     0.000 C 
BRANCH   4   5
ATOM      5  C   UNL     1     -20.536 -10.855  23.196  1.00  0.00     0.000 C 
BRANCH   5   6
ATOM      6  C   UNL     1     -20.292  -9.704  24.190  1.00  0.00     0.000 C 
BRANCH   6   7
ATOM      7  C   UNL     1     -18.825  -9.609  24.644  1.00  0.00     0.000 C 
BRANCH   7   8
ATOM      8  C   UNL     1     -18.020 -10.913  24.496  1.00  0.00     0.000 C 
BRANCH   8   9
ATOM      9  C   UNL     1     -16.504 -10.672  24.387  1.00  0.00     0.000 C 
BRANCH   9  10
ATOM     10  C   UNL     1     -16.164  -9.239  23.951  1.00  0.00     0.000 C 
BRANCH  10  11
ATOM     11  C   UNL     1     -14.769  -9.130  23.309  1.00  0.00     0.000 C 
BRANCH  11  12
ATOM     12  C   UNL     1     -14.001 -10.460  23.331  1.00  0.00     0.000 C 
BRANCH  12  13
ATOM     13  C   UNL     1     -13.665 -10.975  21.923  1.00  0.00     0.006 C 
BRANCH  13  14
ATOM     14  C   UNL     1     -13.269 -12.454  21.955  1.00  0.00     0.053 C 
BRANCH  14  15
ATOM     15  C   UNL     1     -11.985 -12.638  22.700  1.00  0.00     0.041 C 
ATOM     16  O   UNL     1     -11.976 -13.234  23.811  1.00  0.00    -0.550 OA
ATOM     17  O   UNL     1     -10.790 -12.199  22.145  1.00  0.00    -0.550 OA
ENDBRANCH  14  15
ENDBRANCH  13  14
ENDBRANCH  12  13
ENDBRANCH  11  12
ENDBRANCH  10  11
ENDBRANCH   9  10
ENDBRANCH   8   9
ENDBRANCH   7   8
ENDBRANCH   6   7
ENDBRANCH   5   6
ENDBRANCH   4   5
ENDBRANCH   3   4
ENDBRANCH   2   3
ENDBRANCH   1   2
BRANCH   1  18
ATOM     18  C   UNL     1     -17.005 -12.161  20.610  1.00  0.00     0.000 C 
BRANCH  18  19
ATOM     19  C   UNL     1     -16.659 -12.812  19.260  1.00  0.00     0.000 C 
BRANCH  19  20
ATOM     20  C   UNL     1     -15.279 -12.389  18.727  1.00  0.00     0.000 C 
BRANCH  20  21
ATOM     21  C   UNL     1     -15.049 -12.774  17.252  1.00  0.00     0.000 C 
BRANCH  21  22
ATOM     22  C   UNL     1     -16.119 -13.695  16.629  1.00  0.00     0.000 C 
BRANCH  22  23
ATOM     23  C   UNL     1     -16.321 -13.532  15.105  1.00  0.00     0.000 C 
BRANCH  23  24
ATOM     24  C   UNL     1     -15.400 -12.481  14.456  1.00  0.00    -0.000 C 
BRANCH  24  25
ATOM     25  C   UNL     1     -14.283 -13.049  13.562  1.00  0.00    -0.000 C 
BRANCH  25  26
ATOM     26  C   UNL     1     -13.566 -14.297  14.118  1.00  0.00    -0.000 C 
BRANCH  26  27
ATOM     27  C   UNL     1     -12.088 -14.087  14.493  1.00  0.00    -0.000 C 
BRANCH  27  28
ATOM     28  C   UNL     1     -11.908 -13.255  15.771  1.00  0.00    -0.000 C 
BRANCH  28  29
ATOM     29  C   UNL     1     -10.534 -12.570  15.786  1.00  0.00    -0.000 C 
BRANCH  29  30
ATOM     30  C   UNL     1      -9.912 -12.445  14.383  1.00  0.00    -0.000 C 
BRANCH  30  31
ATOM     31  C   UNL     1      -8.495 -11.844  14.355  1.00  0.00    -0.003 C 
ATOM     32  C   UNL     1      -8.481 -10.360  13.991  1.00  0.00     0.004 C 
ENDBRANCH  30  31
ENDBRANCH  29  30
ENDBRANCH  28  29
ENDBRANCH  27  28
ENDBRANCH  26  27
ENDBRANCH  25  26
ENDBRANCH  24  25
ENDBRANCH  23  24
ENDBRANCH  22  23
ENDBRANCH  21  22
ENDBRANCH  20  21
ENDBRANCH  19  20
ENDBRANCH  18  19
ENDBRANCH   1  18
TORSDOF 28
ENDMDL
MODEL 3
REMARK VINA RESULT:    -4.943      1.354      2.345
REMARK INTER + INTRA:         -16.691
REMARK INTER:                 -12.901
REMARK INTRA:                  -3.790
REMARK UNBOUND:                -3.656
REMARK SMILES CCCCCCCCCCCCCCCCCCCCCCCCCCCCCC(=O)[O-]
REMARK SMILES IDX 16 1 17 2 18 3 19 4 20 5 21 6 22 7 23 8 24 9 25 10 26 11
REMARK SMILES IDX 27 12 28 13 29 14 30 15 31 16 32 17 15 18 14 19 13 20 12 21
REMARK SMILES IDX 11 22 10 23 9 24 8 25 7 26 6 27 5 28 4 29 3 30 2 31 1 32
REMARK H PARENT
REMARK Flexibility Score: inf
ROOT
ATOM      1  C   UNL     1     -17.221 -11.453  21.144  1.00  0.00     0.000 C 
ENDROOT
BRANCH   1   2
ATOM      2  C   UNL     1     -17.558 -11.960  19.733  1.00  0.00     0.000 C 
BRANCH   2   3
ATOM      3  C   UNL     1     -16.486 -12.902  19.142  1.00  0.00     0.000 C 
BRANCH   3   4
ATOM      4  C   UNL     1     -15.391 -12.130  18.385  1.00  0.00     0.000 C 
BRANCH   4   5
ATOM      5  C   UNL     1     -15.098 -12.729  16.999  1.00  0.00     0.000 C 
BRANCH   5   6
ATOM      6  C   UNL     1     -16.100 -13.833  16.614  1.00  0.00     0.000 C 
BRANCH   6   7
ATOM      7  C   UNL     1     -16.618 -13.691  15.172  1.00  0.00     0.000 C 
BRANCH   7   8
ATOM      8  C   UNL     1     -16.123 -12.436  14.430  1.00  0.00     0.000 C 
BRANCH   8   9
ATOM      9  C   UNL     1     -15.534 -12.753  13.044  1.00  0.00     0.000 C 
BRANCH   9  10
ATOM     10  C   UNL     1     -14.265 -11.941  12.742  1.00  0.00     0.000 C 
BRANCH  10  11
ATOM     11  C   UNL     1     -13.229 -12.017  13.877  1.00  0.00     0.000 C 
BRANCH  11  12
ATOM     12  C   UNL     1     -12.751 -13.451  14.149  1.00  0.00     0.000 C 
BRANCH  12  13
ATOM     13  C   UNL     1     -11.865 -13.555  15.400  1.00  0.00     0.006 C 
BRANCH  13  14
ATOM     14  C   UNL     1     -10.426 -13.928  15.029  1.00  0.00     0.053 C 
BRANCH  14  15
ATOM     15  C   UNL     1      -9.503 -12.780  15.287  1.00  0.00     0.041 C 
ATOM     16  O   UNL     1      -8.668 -12.838  16.231  1.00  0.00    -0.550 OA
ATOM     17  O   UNL     1      -9.526 -11.667  14.456  1.00  0.00    -0.550 OA
ENDBRANCH  14  15
ENDBRANCH  13  14
ENDBRANCH  12  13
ENDBRANCH  11  12
ENDBRANCH  10  11
ENDBRANCH   9  10
ENDBRANCH   8   9
ENDBRANCH   7   8
ENDBRANCH   6   7
ENDBRANCH   5   6
ENDBRANCH   4   5
ENDBRANCH   3   4
ENDBRANCH   2   3
ENDBRANCH   1   2
BRANCH   1  18
ATOM     18  C   UNL     1     -18.329 -10.572  21.740  1.00  0.00     0.000 C 
BRANCH  18  19
ATOM     19  C   UNL     1     -19.579 -10.504  20.847  1.00  0.00     0.000 C 
BRANCH  19  20
ATOM     20  C   UNL     1     -20.884 -10.774  21.618  1.00  0.00     0.000 C 
BRANCH  20  21
ATOM     21  C   UNL     1     -20.703 -10.762  23.149  1.00  0.00     0.000 C 
BRANCH  21  22
ATOM     22  C   UNL     1     -20.992  -9.415  23.843  1.00  0.00     0.000 C 
BRANCH  22  23
ATOM     23  C   UNL     1     -20.054  -9.067  25.021  1.00  0.00     0.000 C 
BRANCH  23  24
ATOM     24  C   UNL     1     -19.143 -10.228  25.466  1.00  0.00    -0.000 C 
BRANCH  24  25
ATOM     25  C   UNL     1     -17.647 -10.047  25.151  1.00  0.00    -0.000 C 
BRANCH  25  26
ATOM     26  C   UNL     1     -16.781 -11.311  25.325  1.00  0.00    -0.000 C 
BRANCH  26  27
ATOM     27  C   UNL     1     -15.390 -11.245  24.669  1.00  0.00    -0.000 C 
BRANCH  27  28
ATOM     28  C   UNL     1     -14.912  -9.807  24.426  1.00  0.00    -0.000 C 
BRANCH  28  29
ATOM     29  C   UNL     1     -14.503  -9.609  22.959  1.00  0.00    -0.000 C 
BRANCH  29  30
ATOM     30  C   UNL     1     -13.322 -10.504  22.542  1.00  0.00    -0.000 C 
BRANCH  30  31
ATOM     31  C   UNL     1     -13.540 -11.297  21.240  1.00  0.00    -0.003 C 
ATOM     32  C   UNL     1     -13.188 -12.777  21.374  1.00  0.00     0.004 C 
ENDBRANCH  30  31
ENDBRANCH  29  30
ENDBRANCH  28  29
ENDBRANCH  27  28
ENDBRANCH  26  27
ENDBRANCH  25  26
ENDBRANCH  24  25
ENDBRANCH  23  24
ENDBRANCH  22  23
ENDBRANCH  21  22
ENDBRANCH  20  21
ENDBRANCH  19  20
ENDBRANCH  18  19
ENDBRANCH   1  18
TORSDOF 28
ENDMDL
MODEL 4
REMARK VINA RESULT:    -4.941      1.028      1.849
REMARK INTER + INTRA:         -16.685
REMARK INTER:                 -13.184
REMARK INTRA:                  -3.501
REMARK UNBOUND:                -3.656
REMARK SMILES CCCCCCCCCCCCCCCCCCCCCCCCCCCCCC(=O)[O-]
REMARK SMILES IDX 16 1 17 2 18 3 19 4 20 5 21 6 22 7 23 8 24 9 25 10 26 11
REMARK SMILES IDX 27 12 28 13 29 14 30 15 31 16 32 17 15 18 14 19 13 20 12 21
REMARK SMILES IDX 11 22 10 23 9 24 8 25 7 26 6 27 5 28 4 29 3 30 2 31 1 32
REMARK H PARENT
REMARK Flexibility Score: inf
ROOT
ATOM      1  C   UNL     1     -16.598 -12.717  19.613  1.00  0.00     0.000 C 
ENDROOT
BRANCH   1   2
ATOM      2  C   UNL     1     -15.393 -12.069  18.912  1.00  0.00     0.000 C 
BRANCH   2   3
ATOM      3  C   UNL     1     -14.992 -12.773  17.597  1.00  0.00     0.000 C 
BRANCH   3   4
ATOM      4  C   UNL     1     -16.163 -13.559  16.981  1.00  0.00     0.000 C 
BRANCH   4   5
ATOM      5  C   UNL     1     -16.068 -13.653  15.449  1.00  0.00     0.000 C 
BRANCH   5   6
ATOM      6  C   UNL     1     -15.483 -12.376  14.818  1.00  0.00     0.000 C 
BRANCH   6   7
ATOM      7  C   UNL     1     -14.202 -12.643  14.009  1.00  0.00     0.000 C 
BRANCH   7   8
ATOM      8  C   UNL     1     -13.708 -14.101  14.050  1.00  0.00     0.000 C 
BRANCH   8   9
ATOM      9  C   UNL     1     -12.414 -14.271  14.867  1.00  0.00     0.000 C 
BRANCH   9  10
ATOM     10  C   UNL     1     -11.934 -12.954  15.494  1.00  0.00     0.000 C 
BRANCH  10  11
ATOM     11  C   UNL     1     -10.402 -12.805  15.458  1.00  0.00     0.000 C 
BRANCH  11  12
ATOM     12  C   UNL     1      -9.804 -13.161  14.088  1.00  0.00     0.000 C 
BRANCH  12  13
ATOM     13  C   UNL     1      -8.710 -12.178  13.645  1.00  0.00     0.006 C 
BRANCH  13  14
ATOM     14  C   UNL     1      -8.453 -11.116  14.718  1.00  0.00     0.053 C 
BRANCH  14  15
ATOM     15  C   UNL     1      -7.026 -11.156  15.166  1.00  0.00     0.041 C 
ATOM     16  O   UNL     1      -6.740 -11.014  16.386  1.00  0.00    -0.550 OA
ATOM     17  O   UNL     1      -6.015 -11.401  14.245  1.00  0.00    -0.550 OA
ENDBRANCH  14  15
ENDBRANCH  13  14
ENDBRANCH  12  13
ENDBRANCH  11  12
ENDBRANCH  10  11
ENDBRANCH   9  10
ENDBRANCH   8   9
ENDBRANCH   7   8
ENDBRANCH   6   7
ENDBRANCH   5   6
ENDBRANCH   4   5
ENDBRANCH   3   4
ENDBRANCH   2   3
ENDBRANCH   1   2
BRANCH   1  18
ATOM     18  C   UNL     1     -17.134 -11.869  20.777  1.00  0.00     0.000 C 
BRANCH  18  19
ATOM     19  C   UNL     1     -18.513 -11.256  20.482  1.00  0.00     0.000 C 
BRANCH  19  20
ATOM     20  C   UNL     1     -19.069 -10.434  21.658  1.00  0.00     0.000 C 
BRANCH  20  21
ATOM     21  C   UNL     1     -20.494 -10.850  22.075  1.00  0.00     0.000 C 
BRANCH  21  22
ATOM     22  C   UNL     1     -20.965 -10.325  23.448  1.00  0.00     0.000 C 
BRANCH  22  23
ATOM     23  C   UNL     1     -19.898 -10.357  24.566  1.00  0.00     0.000 C 
BRANCH  23  24
ATOM     24  C   UNL     1     -19.444  -8.964  25.044  1.00  0.00    -0.000 C 
BRANCH  24  25
ATOM     25  C   UNL     1     -17.926  -8.715  24.993  1.00  0.00    -0.000 C 
BRANCH  25  26
ATOM     26  C   UNL     1     -17.057  -9.978  24.831  1.00  0.00    -0.000 C 
BRANCH  26  27
ATOM     27  C   UNL     1     -16.084  -9.952  23.638  1.00  0.00    -0.000 C 
BRANCH  27  28
ATOM     28  C   UNL     1     -15.371  -8.602  23.479  1.00  0.00    -0.000 C 
BRANCH  28  29
ATOM     29  C   UNL     1     -14.060  -8.768  22.696  1.00  0.00    -0.000 C 
BRANCH  29  30
ATOM     30  C   UNL     1     -14.142  -9.862  21.616  1.00  0.00    -0.000 C 
BRANCH  30  31
ATOM     31  C   UNL     1     -13.002 -10.896  21.654  1.00  0.00    -0.003 C 
ATOM     32  C   UNL     1     -13.464 -12.278  22.112  1.00  0.00     0.004 C 
ENDBRANCH  30  31
ENDBRANCH  29  30
ENDBRANCH  28  29
ENDBRANCH  27  28
ENDBRANCH  26  27
ENDBRANCH  25  26
ENDBRANCH  24  25
ENDBRANCH  23  24
ENDBRANCH  22  23
ENDBRANCH  21  22
ENDBRANCH  20  21
ENDBRANCH  19  20
ENDBRANCH  18  19
ENDBRANCH   1  18
TORSDOF 28
ENDMDL
MODEL 5
REMARK VINA RESULT:    -4.806      2.702      9.423
REMARK INTER + INTRA:         -16.329
REMARK INTER:                 -13.294
REMARK INTRA:                  -3.035
REMARK UNBOUND:                -3.656
REMARK SMILES CCCCCCCCCCCCCCCCCCCCCCCCCCCCCC(=O)[O-]
REMARK SMILES IDX 16 1 17 2 18 3 19 4 20 5 21 6 22 7 23 8 24 9 25 10 26 11
REMARK SMILES IDX 27 12 28 13 29 14 30 15 31 16 32 17 15 18 14 19 13 20 12 21
REMARK SMILES IDX 11 22 10 23 9 24 8 25 7 26 6 27 5 28 4 29 3 30 2 31 1 32
REMARK H PARENT
REMARK Flexibility Score: inf
ROOT
ATOM      1  C   UNL     1     -16.670 -12.647  19.077  1.00  0.00     0.000 C 
ENDROOT
BRANCH   1   2
ATOM      2  C   UNL     1     -17.076 -11.749  20.257  1.00  0.00     0.000 C 
BRANCH   2   3
ATOM      3  C   UNL     1     -18.605 -11.603  20.424  1.00  0.00     0.000 C 
BRANCH   3   4
ATOM      4  C   UNL     1     -18.986 -10.302  21.152  1.00  0.00     0.000 C 
BRANCH   4   5
ATOM      5  C   UNL     1     -20.491  -9.994  21.060  1.00  0.00     0.000 C 
BRANCH   5   6
ATOM      6  C   UNL     1     -21.337 -10.940  21.931  1.00  0.00     0.000 C 
BRANCH   6   7
ATOM      7  C   UNL     1     -21.012 -10.822  23.431  1.00  0.00     0.000 C 
BRANCH   7   8
ATOM      8  C   UNL     1     -20.997  -9.381  23.974  1.00  0.00     0.000 C 
BRANCH   8   9
ATOM      9  C   UNL     1     -19.910  -9.154  25.039  1.00  0.00     0.000 C 
BRANCH   9  10
ATOM     10  C   UNL     1     -18.491  -9.357  24.488  1.00  0.00     0.000 C 
BRANCH  10  11
ATOM     11  C   UNL     1     -17.844 -10.664  24.982  1.00  0.00     0.000 C 
BRANCH  11  12
ATOM     12  C   UNL     1     -16.753 -11.182  24.032  1.00  0.00     0.000 C 
BRANCH  12  13
ATOM     13  C   UNL     1     -15.614 -10.171  23.831  1.00  0.00     0.006 C 
BRANCH  13  14
ATOM     14  C   UNL     1     -14.269 -10.883  23.651  1.00  0.00     0.053 C 
BRANCH  14  15
ATOM     15  C   UNL     1     -14.068 -11.272  22.221  1.00  0.00     0.041 C 
ATOM     16  O   UNL     1     -13.995 -12.489  21.899  1.00  0.00    -0.550 OA
ATOM     17  O   UNL     1     -14.014 -10.295  21.235  1.00  0.00    -0.550 OA
ENDBRANCH  14  15
ENDBRANCH  13  14
ENDBRANCH  12  13
ENDBRANCH  11  12
ENDBRANCH  10  11
ENDBRANCH   9  10
ENDBRANCH   8   9
ENDBRANCH   7   8
ENDBRANCH   6   7
ENDBRANCH   5   6
ENDBRANCH   4   5
ENDBRANCH   3   4
ENDBRANCH   2   3
ENDBRANCH   1   2
BRANCH   1  18
ATOM     18  C   UNL     1     -15.387 -12.168  18.381  1.00  0.00     0.000 C 
BRANCH  18  19
ATOM     19  C   UNL     1     -14.890 -13.149  17.307  1.00  0.00     0.000 C 
BRANCH  19  20
ATOM     20  C   UNL     1     -16.027 -13.968  16.670  1.00  0.00     0.000 C 
BRANCH  20  21
ATOM     21  C   UNL     1     -16.467 -13.437  15.292  1.00  0.00     0.000 C 
BRANCH  21  22
ATOM     22  C   UNL     1     -15.529 -12.393  14.650  1.00  0.00     0.000 C 
BRANCH  22  23
ATOM     23  C   UNL     1     -14.791 -12.867  13.377  1.00  0.00     0.000 C 
BRANCH  23  24
ATOM     24  C   UNL     1     -14.030 -14.196  13.547  1.00  0.00    -0.000 C 
BRANCH  24  25
ATOM     25  C   UNL     1     -12.872 -14.165  14.561  1.00  0.00    -0.000 C 
BRANCH  25  26
ATOM     26  C   UNL     1     -11.858 -13.019  14.368  1.00  0.00    -0.000 C 
BRANCH  26  27
ATOM     27  C   UNL     1     -10.924 -12.764  15.565  1.00  0.00    -0.000 C 
BRANCH  27  28
ATOM     28  C   UNL     1      -9.617 -12.066  15.164  1.00  0.00    -0.000 C 
BRANCH  28  29
ATOM     29  C   UNL     1      -9.002 -12.732  13.925  1.00  0.00    -0.000 C 
BRANCH  29  30
ATOM     30  C   UNL     1      -7.523 -12.358  13.717  1.00  0.00    -0.000 C 
BRANCH  30  31
ATOM     31  C   UNL     1      -7.000 -11.249  14.647  1.00  0.00    -0.003 C 
ATOM     32  C   UNL     1      -6.280 -10.129  13.896  1.00  0.00     0.004 C 
ENDBRANCH  30  31
ENDBRANCH  29  30
ENDBRANCH  28  29
ENDBRANCH  27  28
ENDBRANCH  26  27
ENDBRANCH  25  26
ENDBRANCH  24  25
ENDBRANCH  23  24
ENDBRANCH  22  23
ENDBRANCH  21  22
ENDBRANCH  20  21
ENDBRANCH  19  20
ENDBRANCH  18  19
ENDBRANCH   1  18
TORSDOF 28
ENDMDL
MODEL 6
REMARK VINA RESULT:    -4.794      1.206      2.933
REMARK INTER + INTRA:         -16.298
REMARK INTER:                 -13.270
REMARK INTRA:                  -3.029
REMARK UNBOUND:                -3.656
REMARK SMILES CCCCCCCCCCCCCCCCCCCCCCCCCCCCCC(=O)[O-]
REMARK SMILES IDX 16 1 17 2 18 3 19 4 20 5 21 6 22 7 23 8 24 9 25 10 26 11
REMARK SMILES IDX 27 12 28 13 29 14 30 15 31 16 32 17 15 18 14 19 13 20 12 21
REMARK SMILES IDX 11 22 10 23 9 24 8 25 7 26 6 27 5 28 4 29 3 30 2 31 1 32
REMARK H PARENT
REMARK Flexibility Score: inf
ROOT
ATOM      1  C   UNL     1     -16.367 -13.768  16.401  1.00  0.00     0.000 C 
ENDROOT
BRANCH   1   2
ATOM      2  C   UNL     1     -16.976 -13.172  15.122  1.00  0.00     0.000 C 
BRANCH   2   3
ATOM      3  C   UNL     1     -17.263 -14.222  14.026  1.00  0.00     0.000 C 
BRANCH   3   4
ATOM      4  C   UNL     1     -16.098 -14.352  13.029  1.00  0.00     0.000 C 
BRANCH   4   5
ATOM      5  C   UNL     1     -15.387 -13.012  12.774  1.00  0.00     0.000 C 
BRANCH   5   6
ATOM      6  C   UNL     1     -13.922 -13.026  13.246  1.00  0.00     0.000 C 
BRANCH   6   7
ATOM      7  C   UNL     1     -13.547 -14.319  13.990  1.00  0.00     0.000 C 
BRANCH   7   8
ATOM      8  C   UNL     1     -12.288 -14.212  14.870  1.00  0.00     0.000 C 
BRANCH   8   9
ATOM      9  C   UNL     1     -12.103 -12.812  15.483  1.00  0.00     0.000 C 
BRANCH   9  10
ATOM     10  C   UNL     1     -10.785 -12.677  16.260  1.00  0.00     0.000 C 
BRANCH  10  11
ATOM     11  C   UNL     1      -9.558 -13.071  15.418  1.00  0.00     0.000 C 
BRANCH  11  12
ATOM     12  C   UNL     1      -9.442 -12.256  14.121  1.00  0.00     0.000 C 
BRANCH  12  13
ATOM     13  C   UNL     1      -9.191 -10.763  14.379  1.00  0.00     0.006 C 
BRANCH  13  14
ATOM     14  C   UNL     1      -8.028 -10.242  13.530  1.00  0.00     0.053 C 
BRANCH  14  15
ATOM     15  C   UNL     1      -6.727 -10.448  14.239  1.00  0.00     0.041 C 
ATOM     16  O   UNL     1      -5.638 -10.224  13.644  1.00  0.00    -0.550 OA
ATOM     17  O   UNL     1      -6.715 -10.836  15.573  1.00  0.00    -0.550 OA
ENDBRANCH  14  15
ENDBRANCH  13  14
ENDBRANCH  12  13
ENDBRANCH  11  12
ENDBRANCH  10  11
ENDBRANCH   9  10
ENDBRANCH   8   9
ENDBRANCH   7   8
ENDBRANCH   6   7
ENDBRANCH   5   6
ENDBRANCH   4   5
ENDBRANCH   3   4
ENDBRANCH   2   3
ENDBRANCH   1   2
BRANCH   1  18
ATOM     18  C   UNL     1     -15.241 -12.900  16.984  1.00  0.00     0.000 C 
BRANCH  18  19
ATOM     19  C   UNL     1     -15.367 -12.704  18.503  1.00  0.00     0.000 C 
BRANCH  19  20
ATOM     20  C   UNL     1     -16.823 -12.529  18.968  1.00  0.00     0.000 C 
BRANCH  20  21
ATOM     21  C   UNL     1     -16.955 -12.262  20.481  1.00  0.00     0.000 C 
BRANCH  21  22
ATOM     22  C   UNL     1     -18.143 -11.371  20.899  1.00  0.00     0.000 C 
BRANCH  22  23
ATOM     23  C   UNL     1     -17.886 -10.463  22.124  1.00  0.00     0.000 C 
BRANCH  23  24
ATOM     24  C   UNL     1     -16.538  -9.717  22.083  1.00  0.00    -0.000 C 
BRANCH  24  25
ATOM     25  C   UNL     1     -15.941  -9.365  23.458  1.00  0.00    -0.000 C 
BRANCH  25  26
ATOM     26  C   UNL     1     -14.613 -10.073  23.799  1.00  0.00    -0.000 C 
BRANCH  26  27
ATOM     27  C   UNL     1     -14.295 -11.312  22.942  1.00  0.00    -0.000 C 
BRANCH  27  28
ATOM     28  C   UNL     1     -13.278 -11.023  21.829  1.00  0.00    -0.000 C 
BRANCH  28  29
ATOM     29  C   UNL     1     -12.942 -12.304  21.052  1.00  0.00    -0.000 C 
BRANCH  29  30
ATOM     30  C   UNL     1     -11.727 -13.052  21.628  1.00  0.00    -0.000 C 
BRANCH  30  31
ATOM     31  C   UNL     1     -10.756 -12.177  22.443  1.00  0.00    -0.003 C 
ATOM     32  C   UNL     1      -9.289 -12.533  22.208  1.00  0.00     0.004 C 
ENDBRANCH  30  31
ENDBRANCH  29  30
ENDBRANCH  28  29
ENDBRANCH  27  28
ENDBRANCH  26  27
ENDBRANCH  25  26
ENDBRANCH  24  25
ENDBRANCH  23  24
ENDBRANCH  22  23
ENDBRANCH  21  22
ENDBRANCH  20  21
ENDBRANCH  19  20
ENDBRANCH  18  19
ENDBRANCH   1  18
TORSDOF 28
ENDMDL
MODEL 7
REMARK VINA RESULT:    -4.775      1.411      3.427
REMARK INTER + INTRA:         -16.246
REMARK INTER:                 -13.307
REMARK INTRA:                  -2.939
REMARK UNBOUND:                -3.656
REMARK SMILES CCCCCCCCCCCCCCCCCCCCCCCCCCCCCC(=O)[O-]
REMARK SMILES IDX 16 1 17 2 18 3 19 4 20 5 21 6 22 7 23 8 24 9 25 10 26 11
REMARK SMILES IDX 27 12 28 13 29 14 30 15 31 16 32 17 15 18 14 19 13 20 12 21
REMARK SMILES IDX 11 22 10 23 9 24 8 25 7 26 6 27 5 28 4 29 3 30 2 31 1 32
REMARK H PARENT
REMARK Flexibility Score: inf
ROOT
ATOM      1  C   UNL     1     -16.168 -13.463  17.509  1.00  0.00     0.000 C 
ENDROOT
BRANCH   1   2
ATOM      2  C   UNL     1     -16.075 -13.009  16.043  1.00  0.00     0.000 C 
BRANCH   2   3
ATOM      3  C   UNL     1     -16.756 -13.979  15.052  1.00  0.00     0.000 C 
BRANCH   3   4
ATOM      4  C   UNL     1     -17.024 -13.320  13.687  1.00  0.00     0.000 C 
BRANCH   4   5
ATOM      5  C   UNL     1     -15.810 -13.397  12.747  1.00  0.00     0.000 C 
BRANCH   5   6
ATOM      6  C   UNL     1     -14.985 -12.097  12.745  1.00  0.00     0.000 C 
BRANCH   6   7
ATOM      7  C   UNL     1     -13.507 -12.327  13.109  1.00  0.00     0.000 C 
BRANCH   7   8
ATOM      8  C   UNL     1     -13.084 -11.755  14.474  1.00  0.00     0.000 C 
BRANCH   8   9
ATOM      9  C   UNL     1     -12.507 -12.825  15.418  1.00  0.00     0.000 C 
BRANCH   9  10
ATOM     10  C   UNL     1     -11.453 -13.709  14.735  1.00  0.00     0.000 C 
BRANCH  10  11
ATOM     11  C   UNL     1     -10.032 -13.460  15.272  1.00  0.00     0.000 C 
BRANCH  11  12
ATOM     12  C   UNL     1      -9.089 -12.880  14.207  1.00  0.00     0.000 C 
BRANCH  12  13
ATOM     13  C   UNL     1      -9.004 -11.348  14.260  1.00  0.00     0.006 C 
BRANCH  13  14
ATOM     14  C   UNL     1      -7.749 -10.889  15.010  1.00  0.00     0.053 C 
BRANCH  14  15
ATOM     15  C   UNL     1      -6.619 -10.669  14.055  1.00  0.00     0.041 C 
ATOM     16  O   UNL     1      -6.449  -9.538  13.523  1.00  0.00    -0.550 OA
ATOM     17  O   UNL     1      -5.721 -11.695  13.790  1.00  0.00    -0.550 OA
ENDBRANCH  14  15
ENDBRANCH  13  14
ENDBRANCH  12  13
ENDBRANCH  11  12
ENDBRANCH  10  11
ENDBRANCH   9  10
ENDBRANCH   8   9
ENDBRANCH   7   8
ENDBRANCH   6   7
ENDBRANCH   5   6
ENDBRANCH   4   5
ENDBRANCH   3   4
ENDBRANCH   2   3
ENDBRANCH   1   2
BRANCH   1  18
ATOM     18  C   UNL     1     -15.193 -12.709  18.426  1.00  0.00     0.000 C 
BRANCH  18  19
ATOM     19  C   UNL     1     -15.863 -11.552  19.185  1.00  0.00     0.000 C 
BRANCH  19  20
ATOM     20  C   UNL     1     -16.757 -12.031  20.342  1.00  0.00     0.000 C 
BRANCH  20  21
ATOM     21  C   UNL     1     -17.751 -10.960  20.832  1.00  0.00     0.000 C 
BRANCH  21  22
ATOM     22  C   UNL     1     -19.237 -11.241  20.528  1.00  0.00     0.000 C 
BRANCH  22  23
ATOM     23  C   UNL     1     -20.245 -10.343  21.282  1.00  0.00     0.000 C 
BRANCH  23  24
ATOM     24  C   UNL     1     -21.060 -11.081  22.362  1.00  0.00    -0.000 C 
BRANCH  24  25
ATOM     25  C   UNL     1     -20.761 -10.661  23.812  1.00  0.00    -0.000 C 
BRANCH  25  26
ATOM     26  C   UNL     1     -19.446  -9.879  24.013  1.00  0.00    -0.000 C 
BRANCH  26  27
ATOM     27  C   UNL     1     -18.248 -10.725  24.482  1.00  0.00    -0.000 C 
BRANCH  27  28
ATOM     28  C   UNL     1     -16.985  -9.888  24.725  1.00  0.00    -0.000 C 
BRANCH  28  29
ATOM     29  C   UNL     1     -16.453  -9.309  23.406  1.00  0.00    -0.000 C 
BRANCH  29  30
ATOM     30  C   UNL     1     -14.969  -8.908  23.484  1.00  0.00    -0.000 C 
BRANCH  30  31
ATOM     31  C   UNL     1     -14.067  -9.553  22.416  1.00  0.00    -0.003 C 
ATOM     32  C   UNL     1     -13.954 -11.070  22.566  1.00  0.00     0.004 C 
ENDBRANCH  30  31
ENDBRANCH  29  30
ENDBRANCH  28  29
ENDBRANCH  27  28
ENDBRANCH  26  27
ENDBRANCH  25  26
ENDBRANCH  24  25
ENDBRANCH  23  24
ENDBRANCH  22  23
ENDBRANCH  21  22
ENDBRANCH  20  21
ENDBRANCH  19  20
ENDBRANCH  18  19
ENDBRANCH   1  18
TORSDOF 28
ENDMDL
MODEL 8
REMARK VINA RESULT:    -4.767      3.260      9.597
REMARK INTER + INTRA:         -16.227
REMARK INTER:                 -13.291
REMARK INTRA:                  -2.936
REMARK UNBOUND:                -3.656
REMARK SMILES CCCCCCCCCCCCCCCCCCCCCCCCCCCCCC(=O)[O-]
REMARK SMILES IDX 16 1 17 2 18 3 19 4 20 5 21 6 22 7 23 8 24 9 25 10 26 11
REMARK SMILES IDX 27 12 28 13 29 14 30 15 31 16 32 17 15 18 14 19 13 20 12 21
REMARK SMILES IDX 11 22 10 23 9 24 8 25 7 26 6 27 5 28 4 29 3 30 2 31 1 32
REMARK H PARENT
REMARK Flexibility Score: inf
ROOT
ATOM      1  C   UNL     1     -16.207 -12.926  18.531  1.00  0.00     0.000 C 
ENDROOT
BRANCH   1   2
ATOM      2  C   UNL     1     -15.926 -11.773  19.508  1.00  0.00     0.000 C 
BRANCH   2   3
ATOM      3  C   UNL     1     -16.875 -11.750  20.725  1.00  0.00     0.000 C 
BRANCH   3   4
ATOM      4  C   UNL     1     -18.320 -11.398  20.327  1.00  0.00     0.000 C 
BRANCH   4   5
ATOM      5  C   UNL     1     -18.921 -10.292  21.211  1.00  0.00     0.000 C 
BRANCH   5   6
ATOM      6  C   UNL     1     -20.444 -10.440  21.380  1.00  0.00     0.000 C 
BRANCH   6   7
ATOM      7  C   UNL     1     -20.836 -11.091  22.718  1.00  0.00     0.000 C 
BRANCH   7   8
ATOM      8  C   UNL     1     -21.239 -10.097  23.823  1.00  0.00     0.000 C 
BRANCH   8   9
ATOM      9  C   UNL     1     -20.321 -10.168  25.057  1.00  0.00     0.000 C 
BRANCH   9  10
ATOM     10  C   UNL     1     -18.874  -9.762  24.740  1.00  0.00     0.000 C 
BRANCH  10  11
ATOM     11  C   UNL     1     -17.894 -10.946  24.830  1.00  0.00     0.000 C 
BRANCH  11  12
ATOM     12  C   UNL     1     -16.546 -10.652  24.153  1.00  0.00     0.000 C 
BRANCH  12  13
ATOM     13  C   UNL     1     -16.386  -9.173  23.768  1.00  0.00     0.006 C 
BRANCH  13  14
ATOM     14  C   UNL     1     -15.413  -9.010  22.596  1.00  0.00     0.053 C 
BRANCH  14  15
ATOM     15  C   UNL     1     -14.084  -8.522  23.081  1.00  0.00     0.041 C 
ATOM     16  O   UNL     1     -13.821  -7.289  23.077  1.00  0.00    -0.550 OA
ATOM     17  O   UNL     1     -13.155  -9.423  23.587  1.00  0.00    -0.550 OA
ENDBRANCH  14  15
ENDBRANCH  13  14
ENDBRANCH  12  13
ENDBRANCH  11  12
ENDBRANCH  10  11
ENDBRANCH   9  10
ENDBRANCH   8   9
ENDBRANCH   7   8
ENDBRANCH   6   7
ENDBRANCH   5   6
ENDBRANCH   4   5
ENDBRANCH   3   4
ENDBRANCH   2   3
ENDBRANCH   1   2
BRANCH   1  18
ATOM     18  C   UNL     1     -15.480 -12.757  17.188  1.00  0.00     0.000 C 
BRANCH  18  19
ATOM     19  C   UNL     1     -15.864 -13.836  16.163  1.00  0.00     0.000 C 
BRANCH  19  20
ATOM     20  C   UNL     1     -16.300 -13.249  14.808  1.00  0.00     0.000 C 
BRANCH  20  21
ATOM     21  C   UNL     1     -15.458 -13.758  13.621  1.00  0.00     0.000 C 
BRANCH  21  22
ATOM     22  C   UNL     1     -15.017 -12.681  12.608  1.00  0.00     0.000 C 
BRANCH  22  23
ATOM     23  C   UNL     1     -14.111 -11.568  13.183  1.00  0.00     0.000 C 
BRANCH  23  24
ATOM     24  C   UNL     1     -12.690 -12.038  13.552  1.00  0.00    -0.000 C 
BRANCH  24  25
ATOM     25  C   UNL     1     -12.520 -12.541  14.996  1.00  0.00    -0.000 C 
BRANCH  25  26
ATOM     26  C   UNL     1     -11.869 -13.933  15.136  1.00  0.00    -0.000 C 
BRANCH  26  27
ATOM     27  C   UNL     1     -10.330 -13.936  15.149  1.00  0.00    -0.000 C 
BRANCH  27  28
ATOM     28  C   UNL     1      -9.736 -12.707  15.850  1.00  0.00    -0.000 C 
BRANCH  28  29
ATOM     29  C   UNL     1      -8.370 -12.344  15.250  1.00  0.00    -0.000 C 
BRANCH  29  30
ATOM     30  C   UNL     1      -8.250 -10.851  14.896  1.00  0.00    -0.000 C 
BRANCH  30  31
ATOM     31  C   UNL     1      -7.141 -10.514  13.882  1.00  0.00    -0.003 C 
ATOM     32  C   UNL     1      -6.034 -11.567  13.835  1.00  0.00     0.004 C 
ENDBRANCH  30  31
ENDBRANCH  29  30
ENDBRANCH  28  29
ENDBRANCH  27  28
ENDBRANCH  26  27
ENDBRANCH  25  26
ENDBRANCH  24  25
ENDBRANCH  23  24
ENDBRANCH  22  23
ENDBRANCH  21  22
ENDBRANCH  20  21
ENDBRANCH  19  20
ENDBRANCH  18  19
ENDBRANCH   1  18
TORSDOF 28
ENDMDL
MODEL 9
REMARK VINA RESULT:    -4.763      2.318      8.913
REMARK INTER + INTRA:         -16.216
REMARK INTER:                 -13.080
REMARK INTRA:                  -3.136
REMARK UNBOUND:                -3.656
REMARK SMILES CCCCCCCCCCCCCCCCCCCCCCCCCCCCCC(=O)[O-]
REMARK SMILES IDX 16 1 17 2 18 3 19 4 20 5 21 6 22 7 23 8 24 9 25 10 26 11
REMARK SMILES IDX 27 12 28 13 29 14 30 15 31 16 32 17 15 18 14 19 13 20 12 21
REMARK SMILES IDX 11 22 10 23 9 24 8 25 7 26 6 27 5 28 4 29 3 30 2 31 1 32
REMARK H PARENT
REMARK Flexibility Score: inf
ROOT
ATOM      1  C   UNL     1     -15.531 -12.037  18.623  1.00  0.00     0.000 C 
ENDROOT
BRANCH   1   2
ATOM      2  C   UNL     1     -16.922 -12.446  19.135  1.00  0.00     0.000 C 
BRANCH   2   3
ATOM      3  C   UNL     1     -17.171 -12.071  20.612  1.00  0.00     0.000 C 
BRANCH   3   4
ATOM      4  C   UNL     1     -18.086 -10.841  20.751  1.00  0.00     0.000 C 
BRANCH   4   5
ATOM      5  C   UNL     1     -19.379 -11.153  21.524  1.00  0.00     0.000 C 
BRANCH   5   6
ATOM      6  C   UNL     1     -19.512 -10.313  22.807  1.00  0.00     0.000 C 
BRANCH   6   7
ATOM      7  C   UNL     1     -18.456 -10.672  23.868  1.00  0.00     0.000 C 
BRANCH   7   8
ATOM      8  C   UNL     1     -18.200  -9.575  24.917  1.00  0.00     0.000 C 
BRANCH   8   9
ATOM      9  C   UNL     1     -16.703  -9.290  25.133  1.00  0.00     0.000 C 
BRANCH   9  10
ATOM     10  C   UNL     1     -16.296  -7.884  24.669  1.00  0.00     0.000 C 
BRANCH  10  11
ATOM     11  C   UNL     1     -15.361  -7.912  23.445  1.00  0.00     0.000 C 
BRANCH  11  12
ATOM     12  C   UNL     1     -14.636  -9.256  23.284  1.00  0.00     0.000 C 
BRANCH  12  13
ATOM     13  C   UNL     1     -14.752  -9.826  21.862  1.00  0.00     0.006 C 
BRANCH  13  14
ATOM     14  C   UNL     1     -13.379 -10.225  21.313  1.00  0.00     0.053 C 
BRANCH  14  15
ATOM     15  C   UNL     1     -13.229 -11.713  21.305  1.00  0.00     0.041 C 
ATOM     16  O   UNL     1     -13.902 -12.423  22.100  1.00  0.00    -0.550 OA
ATOM     17  O   UNL     1     -12.385 -12.322  20.384  1.00  0.00    -0.550 OA
ENDBRANCH  14  15
ENDBRANCH  13  14
ENDBRANCH  12  13
ENDBRANCH  11  12
ENDBRANCH  10  11
ENDBRANCH   9  10
ENDBRANCH   8   9
ENDBRANCH   7   8
ENDBRANCH   6   7
ENDBRANCH   5   6
ENDBRANCH   4   5
ENDBRANCH   3   4
ENDBRANCH   2   3
ENDBRANCH   1   2
BRANCH   1  18
ATOM     18  C   UNL     1     -15.172 -12.702  17.285  1.00  0.00     0.000 C 
BRANCH  18  19
ATOM     19  C   UNL     1     -16.099 -13.878  16.937  1.00  0.00     0.000 C 
BRANCH  19  20
ATOM     20  C   UNL     1     -16.547 -13.874  15.464  1.00  0.00     0.000 C 
BRANCH  20  21
ATOM     21  C   UNL     1     -16.172 -12.581  14.714  1.00  0.00     0.000 C 
BRANCH  21  22
ATOM     22  C   UNL     1     -15.683 -12.770  13.263  1.00  0.00     0.000 C 
BRANCH  22  23
ATOM     23  C   UNL     1     -14.368 -13.568  13.110  1.00  0.00     0.000 C 
BRANCH  23  24
ATOM     24  C   UNL     1     -13.142 -12.892  13.755  1.00  0.00    -0.000 C 
BRANCH  24  25
ATOM     25  C   UNL     1     -12.384 -13.752  14.783  1.00  0.00    -0.000 C 
BRANCH  25  26
ATOM     26  C   UNL     1     -11.962 -13.017  16.072  1.00  0.00    -0.000 C 
BRANCH  26  27
ATOM     27  C   UNL     1     -10.487 -12.581  16.123  1.00  0.00    -0.000 C 
BRANCH  27  28
ATOM     28  C   UNL     1      -9.598 -13.367  15.149  1.00  0.00    -0.000 C 
BRANCH  28  29
ATOM     29  C   UNL     1      -8.282 -12.621  14.889  1.00  0.00    -0.000 C 
BRANCH  29  30
ATOM     30  C   UNL     1      -8.460 -11.093  14.842  1.00  0.00    -0.000 C 
BRANCH  30  31
ATOM     31  C   UNL     1      -7.555 -10.367  13.830  1.00  0.00    -0.003 C 
ATOM     32  C   UNL     1      -6.101 -10.836  13.883  1.00  0.00     0.004 C 
ENDBRANCH  30  31
ENDBRANCH  29  30
ENDBRANCH  28  29
ENDBRANCH  27  28
ENDBRANCH  26  27
ENDBRANCH  25  26
ENDBRANCH  24  25
ENDBRANCH  23  24
ENDBRANCH  22  23
ENDBRANCH  21  22
ENDBRANCH  20  21
ENDBRANCH  19  20
ENDBRANCH  18  19
ENDBRANCH   1  18
TORSDOF 28
ENDMDL
