MODEL 1
REMARK VINA RESULT:    -1.360      0.000      0.000
REMARK INTER + INTRA:          -5.000
REMARK INTER:                  -2.474
REMARK INTRA:                  -2.526
REMARK UNBOUND:                -2.526
REMARK SMILES CCCCCCCCCCCCCC[C@H](C)C(=O)[O-]
REMARK SMILES IDX 9 1 10 2 11 3 12 4 13 5 14 6 15 7 16 8 17 9 18 10 19 11 8 12
REMARK SMILES IDX 7 13 6 14 5 15 4 16 3 17 2 18 1 19
REMARK H PARENT
REMARK Flexibility Score: inf
ROOT
ATOM      1  C   UNL     1     144.860  40.382 -10.921  1.00  0.00     0.000 C 
ENDROOT
BRANCH   1   2
ATOM      2  C   UNL     1     145.852  41.484 -10.512  1.00  0.00     0.000 C 
BRANCH   2   3
ATOM      3  C   UNL     1     147.077  40.928  -9.772  1.00  0.00     0.000 C 
BRANCH   3   4
ATOM      4  C   UNL     1     147.773  39.838 -10.599  1.00  0.00     0.000 C 
BRANCH   4   5
ATOM      5  C   UNL     1     147.894  38.507  -9.824  1.00  0.00     0.001 C 
BRANCH   5   6
ATOM      6  C   UNL     1     147.704  38.660  -8.302  1.00  0.00     0.009 C 
BRANCH   6   7
ATOM      7  C   UNL     1     146.510  37.863  -7.730  1.00  0.00     0.032 C 
ATOM      8  C   UNL     1     145.643  37.310  -8.866  1.00  0.00     0.014 C 
BRANCH   7   9
ATOM      9  C   UNL     1     145.662  38.701  -6.812  1.00  0.00     0.044 C 
ATOM     10  O   UNL     1     145.697  38.523  -5.565  1.00  0.00    -0.550 OA
ATOM     11  O   UNL     1     144.866  39.714  -7.335  1.00  0.00    -0.550 OA
ENDBRANCH   7   9
ENDBRANCH   6   7
ENDBRANCH   5   6
ENDBRANCH   4   5
ENDBRANCH   3   4
ENDBRANCH   2   3
ENDBRANCH   1   2
BRANCH   1  12
ATOM     12  C   UNL     1     144.501  40.436 -12.418  1.00  0.00     0.000 C 
BRANCH  12  13
ATOM     13  C   UNL     1     145.184  39.326 -13.232  1.00  0.00    -0.000 C 
BRANCH  13  14
ATOM     14  C   UNL     1     145.171  37.970 -12.505  1.00  0.00    -0.000 C 
BRANCH  14  15
ATOM     15  C   UNL     1     144.412  36.879 -13.283  1.00  0.00    -0.000 C 
BRANCH  15  16
ATOM     16  C   UNL     1     142.900  37.123 -13.447  1.00  0.00    -0.000 C 
BRANCH  16  17
ATOM     17  C   UNL     1     142.140  37.106 -12.113  1.00  0.00    -0.000 C 
BRANCH  17  18
ATOM     18  C   UNL     1     141.373  38.415 -11.900  1.00  0.00    -0.003 C 
ATOM     19  C   UNL     1     141.084  39.107 -13.230  1.00  0.00     0.004 C 
ENDBRANCH  17  18
ENDBRANCH  16  17
ENDBRANCH  15  16
ENDBRANCH  14  15
ENDBRANCH  13  14
ENDBRANCH  12  13
ENDBRANCH   1  12
TORSDOF 14
ENDMDL
MODEL 2
REMARK VINA RESULT:    -1.309      2.695      6.252
REMARK INTER + INTRA:          -4.906
REMARK INTER:                  -2.508
REMARK INTRA:                  -2.398
REMARK UNBOUND:                -2.526
REMARK SMILES CCCCCCCCCCCCCC[C@H](C)C(=O)[O-]
REMARK SMILES IDX 9 1 10 2 11 3 12 4 13 5 14 6 15 7 16 8 17 9 18 10 19 11 8 12
REMARK SMILES IDX 7 13 6 14 5 15 4 16 3 17 2 18 1 19
REMARK H PARENT
REMARK Flexibility Score: inf
ROOT
ATOM      1  C   UNL     1     145.249  40.469 -10.665  1.00  0.00     0.000 C 
ENDROOT
BRANCH   1   2
ATOM      2  C   UNL     1     144.177  39.976  -9.679  1.00  0.00     0.000 C 
BRANCH   2   3
ATOM      3  C   UNL     1     144.038  38.446  -9.678  1.00  0.00     0.000 C 
BRANCH   3   4
ATOM      4  C   UNL     1     142.636  38.020  -9.221  1.00  0.00     0.000 C 
BRANCH   4   5
ATOM      5  C   UNL     1     141.555  38.351 -10.273  1.00  0.00     0.001 C 
BRANCH   5   6
ATOM      6  C   UNL     1     141.303  37.211 -11.279  1.00  0.00     0.009 C 
BRANCH   6   7
ATOM      7  C   UNL     1     141.781  37.517 -12.717  1.00  0.00     0.032 C 
ATOM      8  C   UNL     1     143.200  36.981 -12.933  1.00  0.00     0.014 C 
BRANCH   7   9
ATOM      9  C   UNL     1     141.748  38.991 -13.019  1.00  0.00     0.044 C 
ATOM     10  O   UNL     1     142.811  39.668 -13.029  1.00  0.00    -0.550 OA
ATOM     11  O   UNL     1     140.543  39.607 -13.336  1.00  0.00    -0.550 OA
ENDBRANCH   7   9
ENDBRANCH   6   7
ENDBRANCH   5   6
ENDBRANCH   4   5
ENDBRANCH   3   4
ENDBRANCH   2   3
ENDBRANCH   1   2
BRANCH   1  12
ATOM     12  C   UNL     1     146.113  41.602 -10.080  1.00  0.00     0.000 C 
BRANCH  12  13
ATOM     13  C   UNL     1     145.794  41.889  -8.604  1.00  0.00    -0.000 C 
BRANCH  13  14
ATOM     14  C   UNL     1     147.063  42.030  -7.745  1.00  0.00    -0.000 C 
BRANCH  14  15
ATOM     15  C   UNL     1     147.795  40.692  -7.533  1.00  0.00    -0.000 C 
BRANCH  15  16
ATOM     16  C   UNL     1     146.902  39.521  -7.081  1.00  0.00    -0.000 C 
BRANCH  16  17
ATOM     17  C   UNL     1     147.195  38.216  -7.836  1.00  0.00    -0.000 C 
BRANCH  17  18
ATOM     18  C   UNL     1     148.057  38.481  -9.075  1.00  0.00    -0.003 C 
ATOM     19  C   UNL     1     147.611  37.619 -10.253  1.00  0.00     0.004 C 
ENDBRANCH  17  18
ENDBRANCH  16  17
ENDBRANCH  15  16
ENDBRANCH  14  15
ENDBRANCH  13  14
ENDBRANCH  12  13
ENDBRANCH   1  12
TORSDOF 14
ENDMDL
MODEL 3
REMARK VINA RESULT:    -1.287      1.356      3.379
REMARK INTER + INTRA:          -4.867
REMARK INTER:                  -2.273
REMARK INTRA:                  -2.594
REMARK UNBOUND:                -2.526
REMARK SMILES CCCCCCCCCCCCCC[C@H](C)C(=O)[O-]
REMARK SMILES IDX 9 1 10 2 11 3 12 4 13 5 14 6 15 7 16 8 17 9 18 10 19 11 8 12
REMARK SMILES IDX 7 13 6 14 5 15 4 16 3 17 2 18 1 19
REMARK H PARENT
REMARK Flexibility Score: inf
ROOT
ATOM      1  C   UNL     1     143.473  37.316 -10.559  1.00  0.00     0.000 C 
ENDROOT
BRANCH   1   2
ATOM      2  C   UNL     1     144.946  36.876 -10.597  1.00  0.00     0.000 C 
BRANCH   2   3
ATOM      3  C   UNL     1     145.641  37.261 -11.911  1.00  0.00     0.000 C 
BRANCH   3   4
ATOM      4  C   UNL     1     147.042  37.830 -11.648  1.00  0.00     0.000 C 
BRANCH   4   5
ATOM      5  C   UNL     1     147.582  37.430 -10.257  1.00  0.00     0.001 C 
BRANCH   5   6
ATOM      6  C   UNL     1     148.080  38.626  -9.422  1.00  0.00     0.009 C 
BRANCH   6   7
ATOM      7  C   UNL     1     147.020  39.727  -9.195  1.00  0.00     0.032 C 
ATOM      8  C   UNL     1     147.679  41.111  -9.192  1.00  0.00     0.014 C 
BRANCH   7   9
ATOM      9  C   UNL     1     146.267  39.526  -7.907  1.00  0.00     0.044 C 
ATOM     10  O   UNL     1     145.085  39.088  -7.917  1.00  0.00    -0.550 OA
ATOM     11  O   UNL     1     146.891  39.780  -6.692  1.00  0.00    -0.550 OA
ENDBRANCH   7   9
ENDBRANCH   6   7
ENDBRANCH   5   6
ENDBRANCH   4   5
ENDBRANCH   3   4
ENDBRANCH   2   3
ENDBRANCH   1   2
BRANCH   1  12
ATOM     12  C   UNL     1     142.693  36.877 -11.812  1.00  0.00     0.000 C 
BRANCH  12  13
ATOM     13  C   UNL     1     141.416  37.703 -12.035  1.00  0.00    -0.000 C 
BRANCH  13  14
ATOM     14  C   UNL     1     141.475  38.542 -13.322  1.00  0.00    -0.000 C 
BRANCH  14  15
ATOM     15  C   UNL     1     142.782  38.338 -14.111  1.00  0.00    -0.000 C 
BRANCH  15  16
ATOM     16  C   UNL     1     143.778  39.511 -14.045  1.00  0.00    -0.000 C 
BRANCH  16  17
ATOM     17  C   UNL     1     143.387  40.573 -13.006  1.00  0.00    -0.000 C 
BRANCH  17  18
ATOM     18  C   UNL     1     144.423  40.646 -11.880  1.00  0.00    -0.003 C 
ATOM     19  C   UNL     1     145.711  41.311 -12.357  1.00  0.00     0.004 C 
ENDBRANCH  17  18
ENDBRANCH  16  17
ENDBRANCH  15  16
ENDBRANCH  14  15
ENDBRANCH  13  14
ENDBRANCH  12  13
ENDBRANCH   1  12
TORSDOF 14
ENDMDL
MODEL 4
REMARK VINA RESULT:    -1.286     14.651     16.918
REMARK INTER + INTRA:          -4.864
REMARK INTER:                  -2.088
REMARK INTRA:                  -2.776
REMARK UNBOUND:                -2.526
REMARK SMILES CCCCCCCCCCCCCC[C@H](C)C(=O)[O-]
REMARK SMILES IDX 9 1 10 2 11 3 12 4 13 5 14 6 15 7 16 8 17 9 18 10 19 11 8 12
REMARK SMILES IDX 7 13 6 14 5 15 4 16 3 17 2 18 1 19
REMARK H PARENT
REMARK Flexibility Score: inf
ROOT
ATOM      1  C   UNL     1     139.450  54.875  -8.791  1.00  0.00     0.000 C 
ENDROOT
BRANCH   1   2
ATOM      2  C   UNL     1     139.510  53.559  -9.583  1.00  0.00     0.000 C 
BRANCH   2   3
ATOM      3  C   UNL     1     140.937  53.002  -9.693  1.00  0.00     0.000 C 
BRANCH   3   4
ATOM      4  C   UNL     1     141.920  53.837  -8.861  1.00  0.00     0.000 C 
BRANCH   4   5
ATOM      5  C   UNL     1     143.362  53.756  -9.410  1.00  0.00     0.001 C 
BRANCH   5   6
ATOM      6  C   UNL     1     143.713  54.893 -10.390  1.00  0.00     0.009 C 
BRANCH   6   7
ATOM      7  C   UNL     1     144.158  54.409 -11.788  1.00  0.00     0.032 C 
ATOM      8  C   UNL     1     144.257  52.879 -11.817  1.00  0.00     0.014 C 
BRANCH   7   9
ATOM      9  C   UNL     1     145.477  55.006 -12.198  1.00  0.00     0.044 C 
ATOM     10  O   UNL     1     146.397  54.277 -12.657  1.00  0.00    -0.550 OA
ATOM     11  O   UNL     1     145.672  56.380 -12.114  1.00  0.00    -0.550 OA
ENDBRANCH   7   9
ENDBRANCH   6   7
ENDBRANCH   5   6
ENDBRANCH   4   5
ENDBRANCH   3   4
ENDBRANCH   2   3
ENDBRANCH   1   2
BRANCH   1  12
ATOM     12  C   UNL     1     138.343  55.819  -9.296  1.00  0.00     0.000 C 
BRANCH  12  13
ATOM     13  C   UNL     1     138.902  57.064 -10.005  1.00  0.00    -0.000 C 
BRANCH  13  14
ATOM     14  C   UNL     1     140.431  57.011 -10.168  1.00  0.00    -0.000 C 
BRANCH  14  15
ATOM     15  C   UNL     1     140.870  56.751 -11.621  1.00  0.00    -0.000 C 
BRANCH  15  16
ATOM     16  C   UNL     1     139.722  56.523 -12.622  1.00  0.00    -0.000 C 
BRANCH  16  17
ATOM     17  C   UNL     1     139.533  55.045 -12.993  1.00  0.00    -0.000 C 
BRANCH  17  18
ATOM     18  C   UNL     1     140.884  54.327 -13.091  1.00  0.00    -0.003 C 
ATOM     19  C   UNL     1     140.701  52.853 -13.438  1.00  0.00     0.004 C 
ENDBRANCH  17  18
ENDBRANCH  16  17
ENDBRANCH  15  16
ENDBRANCH  14  15
ENDBRANCH  13  14
ENDBRANCH  12  13
ENDBRANCH   1  12
TORSDOF 14
ENDMDL
MODEL 5
REMARK VINA RESULT:    -1.281      3.093      5.769
REMARK INTER + INTRA:          -4.856
REMARK INTER:                  -1.922
REMARK INTRA:                  -2.934
REMARK UNBOUND:                -2.526
REMARK SMILES CCCCCCCCCCCCCC[C@H](C)C(=O)[O-]
REMARK SMILES IDX 9 1 10 2 11 3 12 4 13 5 14 6 15 7 16 8 17 9 18 10 19 11 8 12
REMARK SMILES IDX 7 13 6 14 5 15 4 16 3 17 2 18 1 19
REMARK H PARENT
REMARK Flexibility Score: inf
ROOT
ATOM      1  C   UNL     1     144.615  40.865  -5.610  1.00  0.00     0.000 C 
ENDROOT
BRANCH   1   2
ATOM      2  C   UNL     1     144.168  40.139  -6.889  1.00  0.00     0.000 C 
BRANCH   2   3
ATOM      3  C   UNL     1     143.858  38.655  -6.646  1.00  0.00     0.000 C 
BRANCH   3   4
ATOM      4  C   UNL     1     144.251  38.235  -5.223  1.00  0.00     0.000 C 
BRANCH   4   5
ATOM      5  C   UNL     1     145.344  37.144  -5.218  1.00  0.00     0.001 C 
BRANCH   5   6
ATOM      6  C   UNL     1     146.611  37.545  -4.438  1.00  0.00     0.009 C 
BRANCH   6   7
ATOM      7  C   UNL     1     146.331  38.284  -3.110  1.00  0.00     0.032 C 
ATOM      8  C   UNL     1     147.427  39.318  -2.833  1.00  0.00     0.014 C 
BRANCH   7   9
ATOM      9  C   UNL     1     146.231  37.333  -1.947  1.00  0.00     0.044 C 
ATOM     10  O   UNL     1     145.113  36.876  -1.587  1.00  0.00    -0.550 OA
ATOM     11  O   UNL     1     147.383  36.917  -1.290  1.00  0.00    -0.550 OA
ENDBRANCH   7   9
ENDBRANCH   6   7
ENDBRANCH   5   6
ENDBRANCH   4   5
ENDBRANCH   3   4
ENDBRANCH   2   3
ENDBRANCH   1   2
BRANCH   1  12
ATOM     12  C   UNL     1     145.967  41.582  -5.779  1.00  0.00     0.000 C 
BRANCH  12  13
ATOM     13  C   UNL     1     147.087  40.636  -6.240  1.00  0.00    -0.000 C 
BRANCH  13  14
ATOM     14  C   UNL     1     147.688  41.050  -7.594  1.00  0.00    -0.000 C 
BRANCH  14  15
ATOM     15  C   UNL     1     147.893  39.859  -8.549  1.00  0.00    -0.000 C 
BRANCH  15  16
ATOM     16  C   UNL     1     147.384  38.504  -8.023  1.00  0.00    -0.000 C 
BRANCH  16  17
ATOM     17  C   UNL     1     146.532  37.743  -9.051  1.00  0.00    -0.000 C 
BRANCH  17  18
ATOM     18  C   UNL     1     145.788  38.714  -9.973  1.00  0.00    -0.003 C 
ATOM     19  C   UNL     1     144.362  38.240 -10.239  1.00  0.00     0.004 C 
ENDBRANCH  17  18
ENDBRANCH  16  17
ENDBRANCH  15  16
ENDBRANCH  14  15
ENDBRANCH  13  14
ENDBRANCH  12  13
ENDBRANCH   1  12
TORSDOF 14
ENDMDL
MODEL 6
REMARK VINA RESULT:    -1.267      1.825      2.712
REMARK INTER + INTRA:          -4.831
REMARK INTER:                  -2.131
REMARK INTRA:                  -2.700
REMARK UNBOUND:                -2.526
REMARK SMILES CCCCCCCCCCCCCC[C@H](C)C(=O)[O-]
REMARK SMILES IDX 9 1 10 2 11 3 12 4 13 5 14 6 15 7 16 8 17 9 18 10 19 11 8 12
REMARK SMILES IDX 7 13 6 14 5 15 4 16 3 17 2 18 1 19
REMARK H PARENT
REMARK Flexibility Score: inf
ROOT
ATOM      1  C   UNL     1     144.982  41.334  -9.016  1.00  0.00     0.000 C 
ENDROOT
BRANCH   1   2
ATOM      2  C   UNL     1     145.200  40.710 -10.404  1.00  0.00     0.000 C 
BRANCH   2   3
ATOM      3  C   UNL     1     146.411  39.766 -10.442  1.00  0.00     0.000 C 
BRANCH   3   4
ATOM      4  C   UNL     1     145.966  38.304 -10.584  1.00  0.00     0.000 C 
BRANCH   4   5
ATOM      5  C   UNL     1     146.341  37.458  -9.348  1.00  0.00     0.001 C 
BRANCH   5   6
ATOM      6  C   UNL     1     147.115  38.247  -8.273  1.00  0.00     0.009 C 
BRANCH   6   7
ATOM      7  C   UNL     1     146.702  37.913  -6.822  1.00  0.00     0.032 C 
ATOM      8  C   UNL     1     145.495  36.969  -6.814  1.00  0.00     0.014 C 
BRANCH   7   9
ATOM      9  C   UNL     1     146.378  39.151  -6.030  1.00  0.00     0.044 C 
ATOM     10  O   UNL     1     146.939  40.248  -6.295  1.00  0.00    -0.550 OA
ATOM     11  O   UNL     1     145.417  39.101  -5.026  1.00  0.00    -0.550 OA
ENDBRANCH   7   9
ENDBRANCH   6   7
ENDBRANCH   5   6
ENDBRANCH   4   5
ENDBRANCH   3   4
ENDBRANCH   2   3
ENDBRANCH   1   2
BRANCH   1  12
ATOM     12  C   UNL     1     143.584  41.030  -8.445  1.00  0.00     0.000 C 
BRANCH  12  13
ATOM     13  C   UNL     1     143.391  39.543  -8.108  1.00  0.00    -0.000 C 
BRANCH  13  14
ATOM     14  C   UNL     1     142.237  38.905  -8.901  1.00  0.00    -0.000 C 
BRANCH  14  15
ATOM     15  C   UNL     1     142.418  37.389  -9.107  1.00  0.00    -0.000 C 
BRANCH  15  16
ATOM     16  C   UNL     1     142.623  36.947 -10.568  1.00  0.00    -0.000 C 
BRANCH  16  17
ATOM     17  C   UNL     1     141.336  37.013 -11.403  1.00  0.00    -0.000 C 
BRANCH  17  18
ATOM     18  C   UNL     1     141.443  38.085 -12.493  1.00  0.00    -0.003 C 
ATOM     19  C   UNL     1     142.873  38.603 -12.619  1.00  0.00     0.004 C 
ENDBRANCH  17  18
ENDBRANCH  16  17
ENDBRANCH  15  16
ENDBRANCH  14  15
ENDBRANCH  13  14
ENDBRANCH  12  13
ENDBRANCH   1  12
TORSDOF 14
ENDMDL
MODEL 7
REMARK VINA RESULT:    -1.253      2.915      5.919
REMARK INTER + INTRA:          -4.805
REMARK INTER:                  -2.035
REMARK INTRA:                  -2.769
REMARK UNBOUND:                -2.526
REMARK SMILES CCCCCCCCCCCCCC[C@H](C)C(=O)[O-]
REMARK SMILES IDX 9 1 10 2 11 3 12 4 13 5 14 6 15 7 16 8 17 9 18 10 19 11 8 12
REMARK SMILES IDX 7 13 6 14 5 15 4 16 3 17 2 18 1 19
REMARK H PARENT
REMARK Flexibility Score: inf
ROOT
ATOM      1  C   UNL     1     147.250  37.663 -10.022  1.00  0.00     0.000 C 
ENDROOT
BRANCH   1   2
ATOM      2  C   UNL     1     146.518  38.463 -11.111  1.00  0.00     0.000 C 
BRANCH   2   3
ATOM      3  C   UNL     1     145.049  38.042 -11.263  1.00  0.00     0.000 C 
BRANCH   3   4
ATOM      4  C   UNL     1     144.624  37.102 -10.127  1.00  0.00     0.000 C 
BRANCH   4   5
ATOM      5  C   UNL     1     143.145  37.301  -9.729  1.00  0.00     0.001 C 
BRANCH   5   6
ATOM      6  C   UNL     1     142.526  38.600 -10.284  1.00  0.00     0.009 C 
BRANCH   6   7
ATOM      7  C   UNL     1     141.363  38.374 -11.275  1.00  0.00     0.032 C 
ATOM      8  C   UNL     1     141.097  36.875 -11.453  1.00  0.00     0.014 C 
BRANCH   7   9
ATOM      9  C   UNL     1     141.638  38.999 -12.617  1.00  0.00     0.044 C 
ATOM     10  O   UNL     1     141.369  40.212 -12.827  1.00  0.00    -0.550 OA
ATOM     11  O   UNL     1     142.236  38.248 -13.622  1.00  0.00    -0.550 OA
ENDBRANCH   7   9
ENDBRANCH   6   7
ENDBRANCH   5   6
ENDBRANCH   4   5
ENDBRANCH   3   4
ENDBRANCH   2   3
ENDBRANCH   1   2
BRANCH   1  12
ATOM     12  C   UNL     1     147.880  38.568  -8.946  1.00  0.00     0.000 C 
BRANCH  12  13
ATOM     13  C   UNL     1     147.132  38.504  -7.605  1.00  0.00    -0.000 C 
BRANCH  13  14
ATOM     14  C   UNL     1     146.440  39.832  -7.253  1.00  0.00    -0.000 C 
BRANCH  14  15
ATOM     15  C   UNL     1     144.977  39.890  -7.730  1.00  0.00    -0.000 C 
BRANCH  15  16
ATOM     16  C   UNL     1     144.532  41.243  -8.317  1.00  0.00    -0.000 C 
BRANCH  16  17
ATOM     17  C   UNL     1     144.986  41.446  -9.770  1.00  0.00    -0.000 C 
BRANCH  17  18
ATOM     18  C   UNL     1     146.042  42.552  -9.865  1.00  0.00    -0.003 C 
ATOM     19  C   UNL     1     147.415  41.977 -10.201  1.00  0.00     0.004 C 
ENDBRANCH  17  18
ENDBRANCH  16  17
ENDBRANCH  15  16
ENDBRANCH  14  15
ENDBRANCH  13  14
ENDBRANCH  12  13
ENDBRANCH   1  12
TORSDOF 14
ENDMDL
MODEL 8
REMARK VINA RESULT:    -1.250      2.175      4.739
REMARK INTER + INTRA:          -4.798
REMARK INTER:                  -1.867
REMARK INTRA:                  -2.931
REMARK UNBOUND:                -2.526
REMARK SMILES CCCCCCCCCCCCCC[C@H](C)C(=O)[O-]
REMARK SMILES IDX 9 1 10 2 11 3 12 4 13 5 14 6 15 7 16 8 17 9 18 10 19 11 8 12
REMARK SMILES IDX 7 13 6 14 5 15 4 16 3 17 2 18 1 19
REMARK H PARENT
REMARK Flexibility Score: inf
ROOT
ATOM      1  C   UNL     1     144.756  38.067 -11.009  1.00  0.00     0.000 C 
ENDROOT
BRANCH   1   2
ATOM      2  C   UNL     1     144.432  39.527 -11.365  1.00  0.00     0.000 C 
BRANCH   2   3
ATOM      3  C   UNL     1     143.690  40.258 -10.236  1.00  0.00     0.000 C 
BRANCH   3   4
ATOM      4  C   UNL     1     143.411  39.314  -9.058  1.00  0.00     0.000 C 
BRANCH   4   5
ATOM      5  C   UNL     1     144.171  39.737  -7.781  1.00  0.00     0.001 C 
BRANCH   5   6
ATOM      6  C   UNL     1     144.651  38.546  -6.927  1.00  0.00     0.009 C 
BRANCH   6   7
ATOM      7  C   UNL     1     145.160  38.939  -5.522  1.00  0.00     0.032 C 
ATOM      8  C   UNL     1     145.628  40.399  -5.512  1.00  0.00     0.014 C 
BRANCH   7   9
ATOM      9  C   UNL     1     146.281  38.048  -5.060  1.00  0.00     0.044 C 
ATOM     10  O   UNL     1     146.848  38.252  -3.953  1.00  0.00    -0.550 OA
ATOM     11  O   UNL     1     146.669  36.963  -5.836  1.00  0.00    -0.550 OA
ENDBRANCH   7   9
ENDBRANCH   6   7
ENDBRANCH   5   6
ENDBRANCH   4   5
ENDBRANCH   3   4
ENDBRANCH   2   3
ENDBRANCH   1   2
BRANCH   1  12
ATOM     12  C   UNL     1     146.221  37.697 -11.309  1.00  0.00     0.000 C 
BRANCH  12  13
ATOM     13  C   UNL     1     147.003  37.300 -10.047  1.00  0.00    -0.000 C 
BRANCH  13  14
ATOM     14  C   UNL     1     148.125  38.297  -9.712  1.00  0.00    -0.000 C 
BRANCH  14  15
ATOM     15  C   UNL     1     147.866  39.074  -8.407  1.00  0.00    -0.000 C 
BRANCH  15  16
ATOM     16  C   UNL     1     147.737  40.600  -8.568  1.00  0.00    -0.000 C 
BRANCH  16  17
ATOM     17  C   UNL     1     147.604  41.041 -10.033  1.00  0.00    -0.000 C 
BRANCH  17  18
ATOM     18  C   UNL     1     146.716  42.284 -10.153  1.00  0.00    -0.003 C 
ATOM     19  C   UNL     1     146.182  42.715  -8.790  1.00  0.00     0.004 C 
ENDBRANCH  17  18
ENDBRANCH  16  17
ENDBRANCH  15  16
ENDBRANCH  14  15
ENDBRANCH  13  14
ENDBRANCH  12  13
ENDBRANCH   1  12
TORSDOF 14
ENDMDL
MODEL 9
REMARK VINA RESULT:    -1.221     14.797     17.067
REMARK INTER + INTRA:          -4.746
REMARK INTER:                  -1.999
REMARK INTRA:                  -2.747
REMARK UNBOUND:                -2.526
REMARK SMILES CCCCCCCCCCCCCC[C@H](C)C(=O)[O-]
REMARK SMILES IDX 9 1 10 2 11 3 12 4 13 5 14 6 15 7 16 8 17 9 18 10 19 11 8 12
REMARK SMILES IDX 7 13 6 14 5 15 4 16 3 17 2 18 1 19
REMARK H PARENT
REMARK Flexibility Score: inf
ROOT
ATOM      1  C   UNL     1     141.504  52.347 -10.776  1.00  0.00     0.000 C 
ENDROOT
BRANCH   1   2
ATOM      2  C   UNL     1     141.987  52.103  -9.337  1.00  0.00     0.000 C 
BRANCH   2   3
ATOM      3  C   UNL     1     141.237  52.964  -8.310  1.00  0.00     0.000 C 
BRANCH   3   4
ATOM      4  C   UNL     1     142.143  54.069  -7.750  1.00  0.00     0.000 C 
BRANCH   4   5
ATOM      5  C   UNL     1     142.116  55.343  -8.622  1.00  0.00     0.001 C 
BRANCH   5   6
ATOM      6  C   UNL     1     143.493  55.723  -9.202  1.00  0.00     0.009 C 
BRANCH   6   7
ATOM      7  C   UNL     1     143.681  55.346 -10.688  1.00  0.00     0.032 C 
ATOM      8  C   UNL     1     144.773  54.280 -10.836  1.00  0.00     0.014 C 
BRANCH   7   9
ATOM      9  C   UNL     1     144.028  56.542 -11.533  1.00  0.00     0.044 C 
ATOM     10  O   UNL     1     145.203  57.000 -11.545  1.00  0.00    -0.550 OA
ATOM     11  O   UNL     1     143.060  57.124 -12.343  1.00  0.00    -0.550 OA
ENDBRANCH   7   9
ENDBRANCH   6   7
ENDBRANCH   5   6
ENDBRANCH   4   5
ENDBRANCH   3   4
ENDBRANCH   2   3
ENDBRANCH   1   2
BRANCH   1  12
ATOM     12  C   UNL     1     139.971  52.452 -10.875  1.00  0.00     0.000 C 
BRANCH  12  13
ATOM     13  C   UNL     1     139.512  53.416 -11.980  1.00  0.00    -0.000 C 
BRANCH  13  14
ATOM     14  C   UNL     1     140.446  54.630 -12.128  1.00  0.00    -0.000 C 
BRANCH  14  15
ATOM     15  C   UNL     1     139.813  55.779 -12.933  1.00  0.00    -0.000 C 
BRANCH  15  16
ATOM     16  C   UNL     1     139.426  57.021 -12.108  1.00  0.00    -0.000 C 
BRANCH  16  17
ATOM     17  C   UNL     1     139.759  56.879 -10.615  1.00  0.00    -0.000 C 
BRANCH  17  18
ATOM     18  C   UNL     1     138.482  56.830  -9.770  1.00  0.00    -0.003 C 
ATOM     19  C   UNL     1     138.345  55.490  -9.054  1.00  0.00     0.004 C 
ENDBRANCH  17  18
ENDBRANCH  16  17
ENDBRANCH  15  16
ENDBRANCH  14  15
ENDBRANCH  13  14
ENDBRANCH  12  13
ENDBRANCH   1  12
TORSDOF 14
ENDMDL
