MODEL 1
REMARK VINA RESULT:    -3.900      0.000      0.000
REMARK INTER + INTRA:          -5.439
REMARK INTER:                  -5.040
REMARK INTRA:                  -0.398
REMARK UNBOUND:                -0.398
REMARK SMILES CCO[C@H]1O[C@H](CO)[C@@H](O)[C@H](O)[C@@H]1O
REMARK SMILES IDX 4 1 13 2 11 3 9 4 6 5 5 6 3 7 2 8 1 9 14 10 12 12 7 14 8 15
REMARK SMILES IDX 10 17
REMARK H PARENT 14 11 12 13 8 16 10 18
REMARK Flexibility Score: inf
ROOT
ATOM      1  C   UNL     1       6.116  32.630  34.117  1.00  0.00     0.281 C 
ATOM      2  C   UNL     1       6.650  32.225  32.709  1.00  0.00     0.202 C 
ATOM      3  C   UNL     1       8.116  32.610  32.476  1.00  0.00     0.179 C 
ATOM      4  C   UNL     1       8.367  34.041  32.939  1.00  0.00     0.177 C 
ATOM      5  C   UNL     1       7.967  34.161  34.427  1.00  0.00     0.178 C 
ATOM      6  O   UNL     1       6.593  33.865  34.655  1.00  0.00    -0.341 OA
ENDROOT
BRANCH   1   7
ATOM      7  O   UNL     1       6.082  31.516  35.018  1.00  0.00    -0.350 OA
BRANCH   7   8
ATOM      8  C   UNL     1       5.366  30.370  34.589  1.00  0.00     0.160 C 
ATOM      9  C   UNL     1       6.189  29.107  34.825  1.00  0.00     0.035 C 
ENDBRANCH   7   8
ENDBRANCH   1   7
BRANCH   2  10
ATOM     10  O   UNL     1       5.831  32.744  31.683  1.00  0.00    -0.385 OA
ATOM     11  H   UNL     1       5.908  33.736  31.700  1.00  0.00     0.211 HD
ENDBRANCH   2  10
BRANCH   3  12
ATOM     12  O   UNL     1       8.437  32.497  31.112  1.00  0.00    -0.387 OA
ATOM     13  H   UNL     1       7.804  31.836  30.723  1.00  0.00     0.211 HD
ENDBRANCH   3  12
BRANCH   5  14
ATOM     14  C   UNL     1       8.209  35.586  34.957  1.00  0.00     0.191 C 
BRANCH  14  15
ATOM     15  O   UNL     1       8.126  36.545  33.928  1.00  0.00    -0.394 OA
ATOM     16  H   UNL     1       7.445  37.216  34.211  1.00  0.00     0.210 HD
ENDBRANCH  14  15
ENDBRANCH   5  14
BRANCH   4  17
ATOM     17  O   UNL     1       9.739  34.313  32.784  1.00  0.00    -0.387 OA
ATOM     18  H   UNL     1      10.248  33.537  33.153  1.00  0.00     0.211 HD
ENDBRANCH   4  17
TORSDOF 7
ENDMDL
MODEL 2
REMARK VINA RESULT:    -3.873      1.908      5.234
REMARK INTER + INTRA:          -5.403
REMARK INTER:                  -5.058
REMARK INTRA:                  -0.345
REMARK UNBOUND:                -0.398
REMARK SMILES CCO[C@H]1O[C@H](CO)[C@@H](O)[C@H](O)[C@@H]1O
REMARK SMILES IDX 4 1 13 2 11 3 9 4 6 5 5 6 3 7 2 8 1 9 14 10 12 12 7 14 8 15
REMARK SMILES IDX 10 17
REMARK H PARENT 14 11 12 13 8 16 10 18
REMARK Flexibility Score: inf
ROOT
ATOM      1  C   UNL     1       6.767  32.071  33.451  1.00  0.00     0.281 C 
ATOM      2  C   UNL     1       5.270  32.337  33.104  1.00  0.00     0.202 C 
ATOM      3  C   UNL     1       4.287  31.601  34.023  1.00  0.00     0.179 C 
ATOM      4  C   UNL     1       4.721  30.151  34.208  1.00  0.00     0.177 C 
ATOM      5  C   UNL     1       6.162  30.129  34.766  1.00  0.00     0.178 C 
ATOM      6  O   UNL     1       7.100  30.755  33.895  1.00  0.00    -0.341 OA
ENDROOT
BRANCH   1   7
ATOM      7  O   UNL     1       7.345  33.157  34.188  1.00  0.00    -0.350 OA
BRANCH   7   8
ATOM      8  C   UNL     1       8.035  34.140  33.438  1.00  0.00     0.160 C 
ATOM      9  C   UNL     1       7.383  35.508  33.622  1.00  0.00     0.035 C 
ENDBRANCH   7   8
ENDBRANCH   1   7
BRANCH   2  10
ATOM     10  O   UNL     1       4.999  32.040  31.750  1.00  0.00    -0.385 OA
ATOM     11  H   UNL     1       4.017  32.113  31.609  1.00  0.00     0.211 HD
ENDBRANCH   2  10
BRANCH   3  12
ATOM     12  O   UNL     1       2.992  31.636  33.478  1.00  0.00    -0.387 OA
ATOM     13  H   UNL     1       2.434  32.174  34.101  1.00  0.00     0.211 HD
ENDBRANCH   3  12
BRANCH   5  14
ATOM     14  C   UNL     1       6.654  28.686  34.985  1.00  0.00     0.191 C 
BRANCH  14  15
ATOM     15  O   UNL     1       6.140  27.808  34.011  1.00  0.00    -0.394 OA
ATOM     16  H   UNL     1       5.611  27.115  34.495  1.00  0.00     0.210 HD
ENDBRANCH  14  15
ENDBRANCH   5  14
BRANCH   4  17
ATOM     17  O   UNL     1       3.839  29.548  35.125  1.00  0.00    -0.387 OA
ATOM     18  H   UNL     1       3.764  30.150  35.918  1.00  0.00     0.211 HD
ENDBRANCH   4  17
TORSDOF 7
ENDMDL
MODEL 3
REMARK VINA RESULT:    -3.571      1.701      2.155
REMARK INTER + INTRA:          -5.012
REMARK INTER:                  -4.608
REMARK INTRA:                  -0.405
REMARK UNBOUND:                -0.398
REMARK SMILES CCO[C@H]1O[C@H](CO)[C@@H](O)[C@H](O)[C@@H]1O
REMARK SMILES IDX 4 1 13 2 11 3 9 4 6 5 5 6 3 7 2 8 1 9 14 10 12 12 7 14 8 15
REMARK SMILES IDX 10 17
REMARK H PARENT 14 11 12 13 8 16 10 18
REMARK Flexibility Score: inf
ROOT
ATOM      1  C   UNL     1       6.718  33.328  33.418  1.00  0.00     0.281 C 
ATOM      2  C   UNL     1       7.974  32.435  33.661  1.00  0.00     0.202 C 
ATOM      3  C   UNL     1       9.098  33.151  34.419  1.00  0.00     0.179 C 
ATOM      4  C   UNL     1       9.325  34.542  33.838  1.00  0.00     0.177 C 
ATOM      5  C   UNL     1       7.996  35.329  33.894  1.00  0.00     0.178 C 
ATOM      6  O   UNL     1       6.956  34.710  33.144  1.00  0.00    -0.341 OA
ENDROOT
BRANCH   1   7
ATOM      7  O   UNL     1       5.666  33.035  34.345  1.00  0.00    -0.350 OA
BRANCH   7   8
ATOM      8  C   UNL     1       5.319  31.670  34.506  1.00  0.00     0.160 C 
ATOM      9  C   UNL     1       4.177  31.295  33.565  1.00  0.00     0.035 C 
ENDBRANCH   7   8
ENDBRANCH   1   7
BRANCH   2  10
ATOM     10  O   UNL     1       8.459  31.894  32.450  1.00  0.00    -0.385 OA
ATOM     11  H   UNL     1       9.326  31.445  32.638  1.00  0.00     0.211 HD
ENDBRANCH   2  10
BRANCH   3  12
ATOM     12  O   UNL     1      10.289  32.409  34.337  1.00  0.00    -0.387 OA
ATOM     13  H   UNL     1      10.986  33.025  33.985  1.00  0.00     0.211 HD
ENDBRANCH   3  12
BRANCH   5  14
ATOM     14  C   UNL     1       8.166  36.751  33.329  1.00  0.00     0.191 C 
BRANCH  14  15
ATOM     15  O   UNL     1       9.219  36.818  32.395  1.00  0.00    -0.394 OA
ATOM     16  H   UNL     1      10.055  36.580  32.884  1.00  0.00     0.210 HD
ENDBRANCH  14  15
ENDBRANCH   5  14
BRANCH   4  17
ATOM     17  O   UNL     1      10.301  35.186  34.621  1.00  0.00    -0.387 OA
ATOM     18  H   UNL     1      10.211  34.852  35.558  1.00  0.00     0.211 HD
ENDBRANCH   4  17
TORSDOF 7
ENDMDL
MODEL 4
REMARK VINA RESULT:    -3.568      1.584      4.399
REMARK INTER + INTRA:          -5.009
REMARK INTER:                  -4.610
REMARK INTRA:                  -0.399
REMARK UNBOUND:                -0.398
REMARK SMILES CCO[C@H]1O[C@H](CO)[C@@H](O)[C@H](O)[C@@H]1O
REMARK SMILES IDX 4 1 13 2 11 3 9 4 6 5 5 6 3 7 2 8 1 9 14 10 12 12 7 14 8 15
REMARK SMILES IDX 10 17
REMARK H PARENT 14 11 12 13 8 16 10 18
REMARK Flexibility Score: inf
ROOT
ATOM      1  C   UNL     1       7.369  33.600  34.767  1.00  0.00     0.281 C 
ATOM      2  C   UNL     1       7.986  33.357  33.355  1.00  0.00     0.202 C 
ATOM      3  C   UNL     1       6.937  33.156  32.255  1.00  0.00     0.179 C 
ATOM      4  C   UNL     1       5.854  32.192  32.726  1.00  0.00     0.177 C 
ATOM      5  C   UNL     1       5.228  32.742  34.028  1.00  0.00     0.178 C 
ATOM      6  O   UNL     1       6.178  32.878  35.081  1.00  0.00    -0.341 OA
ENDROOT
BRANCH   1   7
ATOM      7  O   UNL     1       7.386  34.988  35.125  1.00  0.00    -0.350 OA
BRANCH   7   8
ATOM      8  C   UNL     1       8.172  35.846  34.317  1.00  0.00     0.160 C 
ATOM      9  C   UNL     1       7.329  37.003  33.787  1.00  0.00     0.035 C 
ENDBRANCH   7   8
ENDBRANCH   1   7
BRANCH   2  10
ATOM     10  O   UNL     1       8.897  32.278  33.375  1.00  0.00    -0.385 OA
ATOM     11  H   UNL     1       9.188  32.137  34.315  1.00  0.00     0.211 HD
ENDBRANCH   2  10
BRANCH   3  12
ATOM     12  O   UNL     1       7.543  32.647  31.093  1.00  0.00    -0.387 OA
ATOM     13  H   UNL     1       6.851  32.663  30.379  1.00  0.00     0.211 HD
ENDBRANCH   3  12
BRANCH   5  14
ATOM     14  C   UNL     1       4.116  31.814  34.549  1.00  0.00     0.191 C 
BRANCH  14  15
ATOM     15  O   UNL     1       4.258  30.503  34.053  1.00  0.00    -0.394 OA
ATOM     16  H   UNL     1       3.341  30.114  33.995  1.00  0.00     0.210 HD
ENDBRANCH  14  15
ENDBRANCH   5  14
BRANCH   4  17
ATOM     17  O   UNL     1       4.876  32.111  31.717  1.00  0.00    -0.387 OA
ATOM     18  H   UNL     1       4.044  32.543  32.062  1.00  0.00     0.211 HD
ENDBRANCH   4  17
TORSDOF 7
ENDMDL
MODEL 5
REMARK VINA RESULT:    -3.422     10.478     12.448
REMARK INTER + INTRA:          -4.820
REMARK INTER:                  -4.405
REMARK INTRA:                  -0.416
REMARK UNBOUND:                -0.398
REMARK SMILES CCO[C@H]1O[C@H](CO)[C@@H](O)[C@H](O)[C@@H]1O
REMARK SMILES IDX 4 1 13 2 11 3 9 4 6 5 5 6 3 7 2 8 1 9 14 10 12 12 7 14 8 15
REMARK SMILES IDX 10 17
REMARK H PARENT 14 11 12 13 8 16 10 18
REMARK Flexibility Score: inf
ROOT
ATOM      1  C   UNL     1      17.851  37.623  33.271  1.00  0.00     0.281 C 
ATOM      2  C   UNL     1      17.794  36.247  32.540  1.00  0.00     0.202 C 
ATOM      3  C   UNL     1      19.063  35.405  32.716  1.00  0.00     0.179 C 
ATOM      4  C   UNL     1      20.302  36.266  32.499  1.00  0.00     0.177 C 
ATOM      5  C   UNL     1      20.259  37.460  33.481  1.00  0.00     0.178 C 
ATOM      6  O   UNL     1      19.116  38.288  33.290  1.00  0.00    -0.341 OA
ENDROOT
BRANCH   1   7
ATOM      7  O   UNL     1      17.124  37.603  34.506  1.00  0.00    -0.350 OA
BRANCH   7   8
ATOM      8  C   UNL     1      15.973  36.778  34.555  1.00  0.00     0.160 C 
ATOM      9  C   UNL     1      14.724  37.581  34.199  1.00  0.00     0.035 C 
ENDBRANCH   7   8
ENDBRANCH   1   7
BRANCH   2  10
ATOM     10  O   UNL     1      17.492  36.408  31.170  1.00  0.00    -0.385 OA
ATOM     11  H   UNL     1      18.346  36.377  30.660  1.00  0.00     0.211 HD
ENDBRANCH   2  10
BRANCH   3  12
ATOM     12  O   UNL     1      19.070  34.337  31.802  1.00  0.00    -0.387 OA
ATOM     13  H   UNL     1      19.634  33.622  32.201  1.00  0.00     0.211 HD
ENDBRANCH   3  12
BRANCH   5  14
ATOM     14  C   UNL     1      21.495  38.363  33.317  1.00  0.00     0.191 C 
BRANCH  14  15
ATOM     15  O   UNL     1      22.016  38.299  32.009  1.00  0.00    -0.394 OA
ATOM     16  H   UNL     1      21.715  39.125  31.537  1.00  0.00     0.210 HD
ENDBRANCH  14  15
ENDBRANCH   5  14
BRANCH   4  17
ATOM     17  O   UNL     1      21.435  35.470  32.757  1.00  0.00    -0.387 OA
ATOM     18  H   UNL     1      21.145  34.515  32.753  1.00  0.00     0.211 HD
ENDBRANCH   4  17
TORSDOF 7
ENDMDL
MODEL 6
REMARK VINA RESULT:    -3.410      9.967     12.215
REMARK INTER + INTRA:          -4.805
REMARK INTER:                  -4.399
REMARK INTRA:                  -0.406
REMARK UNBOUND:                -0.398
REMARK SMILES CCO[C@H]1O[C@H](CO)[C@@H](O)[C@H](O)[C@@H]1O
REMARK SMILES IDX 4 1 13 2 11 3 9 4 6 5 5 6 3 7 2 8 1 9 14 10 12 12 7 14 8 15
REMARK SMILES IDX 10 17
REMARK H PARENT 14 11 12 13 8 16 10 18
REMARK Flexibility Score: inf
ROOT
ATOM      1  C   UNL     1      17.085  36.546  32.917  1.00  0.00     0.281 C 
ATOM      2  C   UNL     1      17.875  37.607  33.742  1.00  0.00     0.202 C 
ATOM      3  C   UNL     1      19.330  37.777  33.290  1.00  0.00     0.179 C 
ATOM      4  C   UNL     1      19.983  36.414  33.087  1.00  0.00     0.177 C 
ATOM      5  C   UNL     1      19.149  35.608  32.065  1.00  0.00     0.178 C 
ATOM      6  O   UNL     1      17.810  35.389  32.496  1.00  0.00    -0.341 OA
ENDROOT
BRANCH   1   7
ATOM      7  O   UNL     1      16.235  37.155  31.936  1.00  0.00    -0.350 OA
BRANCH   7   8
ATOM      8  C   UNL     1      14.968  37.607  32.382  1.00  0.00     0.160 C 
ATOM      9  C   UNL     1      14.344  36.592  33.336  1.00  0.00     0.035 C 
ENDBRANCH   7   8
ENDBRANCH   1   7
BRANCH   2  10
ATOM     10  O   UNL     1      17.815  37.327  35.125  1.00  0.00    -0.385 OA
ATOM     11  H   UNL     1      16.903  37.559  35.448  1.00  0.00     0.211 HD
ENDBRANCH   2  10
BRANCH   3  12
ATOM     12  O   UNL     1      20.055  38.505  34.248  1.00  0.00    -0.387 OA
ATOM     13  H   UNL     1      19.391  39.023  34.778  1.00  0.00     0.211 HD
ENDBRANCH   3  12
BRANCH   5  14
ATOM     14  C   UNL     1      19.767  34.222  31.809  1.00  0.00     0.191 C 
BRANCH  14  15
ATOM     15  O   UNL     1      20.872  34.297  30.937  1.00  0.00    -0.394 OA
ATOM     16  H   UNL     1      20.650  33.741  30.139  1.00  0.00     0.210 HD
ENDBRANCH  14  15
ENDBRANCH   5  14
BRANCH   4  17
ATOM     17  O   UNL     1      21.283  36.625  32.591  1.00  0.00    -0.387 OA
ATOM     18  H   UNL     1      21.203  36.943  31.648  1.00  0.00     0.211 HD
ENDBRANCH   4  17
TORSDOF 7
ENDMDL
MODEL 7
REMARK VINA RESULT:    -3.308      9.554     11.438
REMARK INTER + INTRA:          -4.673
REMARK INTER:                  -4.386
REMARK INTRA:                  -0.288
REMARK UNBOUND:                -0.398
REMARK SMILES CCO[C@H]1O[C@H](CO)[C@@H](O)[C@H](O)[C@@H]1O
REMARK SMILES IDX 4 1 13 2 11 3 9 4 6 5 5 6 3 7 2 8 1 9 14 10 12 12 7 14 8 15
REMARK SMILES IDX 10 17
REMARK H PARENT 14 11 12 13 8 16 10 18
REMARK Flexibility Score: inf
ROOT
ATOM      1  C   UNL     1      18.202  36.858  32.900  1.00  0.00     0.281 C 
ATOM      2  C   UNL     1      17.263  36.880  34.145  1.00  0.00     0.202 C 
ATOM      3  C   UNL     1      15.794  37.156  33.800  1.00  0.00     0.179 C 
ATOM      4  C   UNL     1      15.692  38.319  32.819  1.00  0.00     0.177 C 
ATOM      5  C   UNL     1      16.529  37.988  31.563  1.00  0.00     0.178 C 
ATOM      6  O   UNL     1      17.908  37.788  31.857  1.00  0.00    -0.341 OA
ENDROOT
BRANCH   1   7
ATOM      7  O   UNL     1      18.517  35.521  32.491  1.00  0.00    -0.350 OA
BRANCH   7   8
ATOM      8  C   UNL     1      19.890  35.183  32.417  1.00  0.00     0.160 C 
ATOM      9  C   UNL     1      20.142  34.223  31.257  1.00  0.00     0.035 C 
ENDBRANCH   7   8
ENDBRANCH   1   7
BRANCH   2  10
ATOM     10  O   UNL     1      17.724  37.794  35.117  1.00  0.00    -0.385 OA
ATOM     11  H   UNL     1      18.559  38.213  34.776  1.00  0.00     0.211 HD
ENDBRANCH   2  10
BRANCH   3  12
ATOM     12  O   UNL     1      15.070  37.461  34.965  1.00  0.00    -0.387 OA
ATOM     13  H   UNL     1      15.726  37.488  35.712  1.00  0.00     0.211 HD
ENDBRANCH   3  12
BRANCH   5  14
ATOM     14  C   UNL     1      16.455  39.125  30.527  1.00  0.00     0.191 C 
BRANCH  14  15
ATOM     15  O   UNL     1      15.470  38.876  29.551  1.00  0.00    -0.394 OA
ATOM     16  H   UNL     1      15.949  38.643  28.708  1.00  0.00     0.210 HD
ENDBRANCH  14  15
ENDBRANCH   5  14
BRANCH   4  17
ATOM     17  O   UNL     1      14.337  38.474  32.470  1.00  0.00    -0.387 OA
ATOM     18  H   UNL     1      14.101  37.744  31.830  1.00  0.00     0.211 HD
ENDBRANCH   4  17
TORSDOF 7
ENDMDL
MODEL 8
REMARK VINA RESULT:    -3.279      2.176      5.282
REMARK INTER + INTRA:          -4.636
REMARK INTER:                  -4.489
REMARK INTRA:                  -0.147
REMARK UNBOUND:                -0.398
REMARK SMILES CCO[C@H]1O[C@H](CO)[C@@H](O)[C@H](O)[C@@H]1O
REMARK SMILES IDX 4 1 13 2 11 3 9 4 6 5 5 6 3 7 2 8 1 9 14 10 12 12 7 14 8 15
REMARK SMILES IDX 10 17
REMARK H PARENT 14 11 12 13 8 16 10 18
REMARK Flexibility Score: inf
ROOT
ATOM      1  C   UNL     1      10.137  35.479  32.965  1.00  0.00     0.281 C 
ATOM      2  C   UNL     1       9.144  36.600  33.402  1.00  0.00     0.202 C 
ATOM      3  C   UNL     1       7.912  36.072  34.146  1.00  0.00     0.179 C 
ATOM      4  C   UNL     1       7.333  34.864  33.417  1.00  0.00     0.177 C 
ATOM      5  C   UNL     1       8.433  33.787  33.284  1.00  0.00     0.178 C 
ATOM      6  O   UNL     1       9.562  34.241  32.543  1.00  0.00    -0.341 OA
ENDROOT
BRANCH   1   7
ATOM      7  O   UNL     1      11.264  35.390  33.844  1.00  0.00    -0.350 OA
BRANCH   7   8
ATOM      8  C   UNL     1      12.504  35.031  33.259  1.00  0.00     0.160 C 
ATOM      9  C   UNL     1      13.185  33.939  34.079  1.00  0.00     0.035 C 
ENDBRANCH   7   8
ENDBRANCH   1   7
BRANCH   2  10
ATOM     10  O   UNL     1       8.757  37.397  32.303  1.00  0.00    -0.385 OA
ATOM     11  H   UNL     1       7.794  37.226  32.122  1.00  0.00     0.211 HD
ENDBRANCH   2  10
BRANCH   3  12
ATOM     12  O   UNL     1       6.933  37.076  34.238  1.00  0.00    -0.387 OA
ATOM     13  H   UNL     1       6.648  37.112  35.190  1.00  0.00     0.211 HD
ENDBRANCH   3  12
BRANCH   5  14
ATOM     14  C   UNL     1       7.903  32.534  32.564  1.00  0.00     0.191 C 
BRANCH  14  15
ATOM     15  O   UNL     1       8.349  32.473  31.228  1.00  0.00    -0.394 OA
ATOM     16  H   UNL     1       8.746  31.567  31.096  1.00  0.00     0.210 HD
ENDBRANCH  14  15
ENDBRANCH   5  14
BRANCH   4  17
ATOM     17  O   UNL     1       6.261  34.368  34.184  1.00  0.00    -0.387 OA
ATOM     18  H   UNL     1       6.645  33.859  34.953  1.00  0.00     0.211 HD
ENDBRANCH   4  17
TORSDOF 7
ENDMDL
MODEL 9
REMARK VINA RESULT:    -3.227      8.006     10.366
REMARK INTER + INTRA:          -4.568
REMARK INTER:                  -4.164
REMARK INTRA:                  -0.404
REMARK UNBOUND:                -0.398
REMARK SMILES CCO[C@H]1O[C@H](CO)[C@@H](O)[C@H](O)[C@@H]1O
REMARK SMILES IDX 4 1 13 2 11 3 9 4 6 5 5 6 3 7 2 8 1 9 14 10 12 12 7 14 8 15
REMARK SMILES IDX 10 17
REMARK H PARENT 14 11 12 13 8 16 10 18
REMARK Flexibility Score: inf
ROOT
ATOM      1  C   UNL     1      17.175  36.386  32.847  1.00  0.00     0.281 C 
ATOM      2  C   UNL     1      16.681  37.494  31.866  1.00  0.00     0.202 C 
ATOM      3  C   UNL     1      15.558  38.365  32.440  1.00  0.00     0.179 C 
ATOM      4  C   UNL     1      14.500  37.491  33.106  1.00  0.00     0.177 C 
ATOM      5  C   UNL     1      15.178  36.629  34.195  1.00  0.00     0.178 C 
ATOM      6  O   UNL     1      16.184  35.769  33.670  1.00  0.00    -0.341 OA
ENDROOT
BRANCH   1   7
ATOM      7  O   UNL     1      18.401  36.752  33.493  1.00  0.00    -0.350 OA
BRANCH   7   8
ATOM      8  C   UNL     1      19.600  36.300  32.889  1.00  0.00     0.160 C 
ATOM      9  C   UNL     1      19.359  34.996  32.133  1.00  0.00     0.035 C 
ENDBRANCH   7   8
ENDBRANCH   1   7
BRANCH   2  10
ATOM     10  O   UNL     1      16.297  36.942  30.625  1.00  0.00    -0.385 OA
ATOM     11  H   UNL     1      17.032  37.102  29.975  1.00  0.00     0.211 HD
ENDBRANCH   2  10
BRANCH   3  12
ATOM     12  O   UNL     1      14.962  39.125  31.419  1.00  0.00    -0.387 OA
ATOM     13  H   UNL     1      15.700  39.581  30.933  1.00  0.00     0.211 HD
ENDBRANCH   3  12
BRANCH   5  14
ATOM     14  C   UNL     1      14.154  35.731  34.913  1.00  0.00     0.191 C 
BRANCH  14  15
ATOM     15  O   UNL     1      13.042  35.451  34.094  1.00  0.00    -0.394 OA
ATOM     16  H   UNL     1      13.061  34.472  33.905  1.00  0.00     0.210 HD
ENDBRANCH  14  15
ENDBRANCH   5  14
BRANCH   4  17
ATOM     17  O   UNL     1      13.540  38.340  33.689  1.00  0.00    -0.387 OA
ATOM     18  H   UNL     1      13.442  39.141  33.101  1.00  0.00     0.211 HD
ENDBRANCH   4  17
TORSDOF 7
ENDMDL
