MODEL 1
REMARK VINA RESULT:    -3.781      0.000      0.000
REMARK INTER + INTRA:          -4.595
REMARK INTER:                  -4.555
REMARK INTRA:                  -0.040
REMARK UNBOUND:                -0.040
REMARK SMILES CCCCCO
REMARK SMILES IDX 4 1 3 2 2 3 1 4 5 5 6 6
REMARK H PARENT 6 7
REMARK Flexibility Score: inf
ROOT
ATOM      1  C   UNL     1       5.996   4.042  -0.473  1.00  0.00     0.028 C 
ENDROOT
BRANCH   1   2
ATOM      2  C   UNL     1       6.638   5.332  -1.011  1.00  0.00     0.002 C 
BRANCH   2   3
ATOM      3  C   UNL     1       7.065   5.224  -2.482  1.00  0.00    -0.003 C 
ATOM      4  C   UNL     1       6.419   4.015  -3.153  1.00  0.00     0.004 C 
ENDBRANCH   2   3
ENDBRANCH   1   2
BRANCH   1   5
ATOM      5  C   UNL     1       6.518   3.629   0.908  1.00  0.00     0.156 C 
BRANCH   5   6
ATOM      6  O   UNL     1       6.832   4.763   1.669  1.00  0.00    -0.396 OA
ATOM      7  H   UNL     1       6.935   4.448   2.603  1.00  0.00     0.210 HD
ENDBRANCH   5   6
ENDBRANCH   1   5
TORSDOF 4
ENDMDL
MODEL 2
REMARK VINA RESULT:    -3.615      0.793      1.183
REMARK INTER + INTRA:          -4.394
REMARK INTER:                  -4.385
REMARK INTRA:                  -0.009
REMARK UNBOUND:                -0.040
REMARK SMILES CCCCCO
REMARK SMILES IDX 4 1 3 2 2 3 1 4 5 5 6 6
REMARK H PARENT 6 7
REMARK Flexibility Score: inf
ROOT
ATOM      1  C   UNL     1       6.185   4.461  -0.641  1.00  0.00     0.028 C 
ENDROOT
BRANCH   1   2
ATOM      2  C   UNL     1       6.886   3.749  -1.810  1.00  0.00     0.002 C 
BRANCH   2   3
ATOM      3  C   UNL     1       6.407   4.236  -3.185  1.00  0.00    -0.003 C 
ATOM      4  C   UNL     1       7.104   5.534  -3.583  1.00  0.00     0.004 C 
ENDBRANCH   2   3
ENDBRANCH   1   2
BRANCH   1   5
ATOM      5  C   UNL     1       6.388   3.763   0.709  1.00  0.00     0.156 C 
BRANCH   5   6
ATOM      6  O   UNL     1       6.842   4.680   1.667  1.00  0.00    -0.396 OA
ATOM      7  H   UNL     1       6.777   5.575   1.243  1.00  0.00     0.210 HD
ENDBRANCH   5   6
ENDBRANCH   1   5
TORSDOF 4
ENDMDL
MODEL 3
REMARK VINA RESULT:    -3.341      2.174      3.458
REMARK INTER + INTRA:          -4.064
REMARK INTER:                  -4.024
REMARK INTRA:                  -0.039
REMARK UNBOUND:                -0.040
REMARK SMILES CCCCCO
REMARK SMILES IDX 4 1 3 2 2 3 1 4 5 5 6 6
REMARK H PARENT 6 7
REMARK Flexibility Score: inf
ROOT
ATOM      1  C   UNL     1       6.579   4.578  -1.981  1.00  0.00     0.028 C 
ENDROOT
BRANCH   1   2
ATOM      2  C   UNL     1       6.434   5.457  -0.727  1.00  0.00     0.002 C 
BRANCH   2   3
ATOM      3  C   UNL     1       6.962   4.780   0.545  1.00  0.00    -0.003 C 
ATOM      4  C   UNL     1       6.370   3.383   0.712  1.00  0.00     0.004 C 
ENDBRANCH   2   3
ENDBRANCH   1   2
BRANCH   1   5
ATOM      5  C   UNL     1       7.121   5.336  -3.199  1.00  0.00     0.156 C 
BRANCH   5   6
ATOM      6  O   UNL     1       7.734   6.530  -2.796  1.00  0.00    -0.396 OA
ATOM      7  H   UNL     1       8.699   6.425  -2.996  1.00  0.00     0.210 HD
ENDBRANCH   5   6
ENDBRANCH   1   5
TORSDOF 4
ENDMDL
MODEL 4
REMARK VINA RESULT:    -3.295      2.319      3.574
REMARK INTER + INTRA:          -4.009
REMARK INTER:                  -3.989
REMARK INTRA:                  -0.020
REMARK UNBOUND:                -0.040
REMARK SMILES CCCCCO
REMARK SMILES IDX 4 1 3 2 2 3 1 4 5 5 6 6
REMARK H PARENT 6 7
REMARK Flexibility Score: inf
ROOT
ATOM      1  C   UNL     1       6.636   6.409  -0.531  1.00  0.00     0.028 C 
ENDROOT
BRANCH   1   2
ATOM      2  C   UNL     1       6.657   5.084  -1.311  1.00  0.00     0.002 C 
BRANCH   2   3
ATOM      3  C   UNL     1       6.319   3.868  -0.437  1.00  0.00    -0.003 C 
ATOM      4  C   UNL     1       6.735   4.099   1.013  1.00  0.00     0.004 C 
ENDBRANCH   2   3
ENDBRANCH   1   2
BRANCH   1   5
ATOM      5  C   UNL     1       6.628   7.649  -1.433  1.00  0.00     0.156 C 
BRANCH   5   6
ATOM      6  O   UNL     1       7.725   7.624  -2.305  1.00  0.00    -0.396 OA
ATOM      7  H   UNL     1       7.503   6.959  -3.006  1.00  0.00     0.210 HD
ENDBRANCH   5   6
ENDBRANCH   1   5
TORSDOF 4
ENDMDL
MODEL 5
REMARK VINA RESULT:    -3.055      6.427      7.385
REMARK INTER + INTRA:          -3.720
REMARK INTER:                  -3.705
REMARK INTRA:                  -0.015
REMARK UNBOUND:                -0.040
REMARK SMILES CCCCCO
REMARK SMILES IDX 4 1 3 2 2 3 1 4 5 5 6 6
REMARK H PARENT 6 7
REMARK Flexibility Score: inf
ROOT
ATOM      1  C   UNL     1       8.847   5.218  -6.897  1.00  0.00     0.028 C 
ENDROOT
BRANCH   1   2
ATOM      2  C   UNL     1       9.573   6.538  -7.206  1.00  0.00     0.002 C 
BRANCH   2   3
ATOM      3  C   UNL     1      10.446   7.030  -6.043  1.00  0.00    -0.003 C 
ATOM      4  C   UNL     1       9.678   6.990  -4.725  1.00  0.00     0.004 C 
ENDBRANCH   2   3
ENDBRANCH   1   2
BRANCH   1   5
ATOM      5  C   UNL     1       8.866   4.222  -8.063  1.00  0.00     0.156 C 
BRANCH   5   6
ATOM      6  O   UNL     1       8.418   2.965  -7.637  1.00  0.00    -0.396 OA
ATOM      7  H   UNL     1       8.331   3.024  -6.651  1.00  0.00     0.210 HD
ENDBRANCH   5   6
ENDBRANCH   1   5
TORSDOF 4
ENDMDL
MODEL 6
REMARK VINA RESULT:    -3.028      7.258      8.002
REMARK INTER + INTRA:          -3.687
REMARK INTER:                  -3.673
REMARK INTRA:                  -0.014
REMARK UNBOUND:                -0.040
REMARK SMILES CCCCCO
REMARK SMILES IDX 4 1 3 2 2 3 1 4 5 5 6 6
REMARK H PARENT 6 7
REMARK Flexibility Score: inf
ROOT
ATOM      1  C   UNL     1       9.042   4.664  -8.717  1.00  0.00     0.028 C 
ENDROOT
BRANCH   1   2
ATOM      2  C   UNL     1       8.954   4.907  -7.200  1.00  0.00     0.002 C 
BRANCH   2   3
ATOM      3  C   UNL     1       8.965   6.396  -6.829  1.00  0.00    -0.003 C 
ATOM      4  C   UNL     1      10.179   6.741  -5.972  1.00  0.00     0.004 C 
ENDBRANCH   2   3
ENDBRANCH   1   2
BRANCH   1   5
ATOM      5  C   UNL     1       8.344   3.377  -9.171  1.00  0.00     0.156 C 
BRANCH   5   6
ATOM      6  O   UNL     1       8.379   2.417  -8.150  1.00  0.00    -0.396 OA
ATOM      7  H   UNL     1       7.435   2.166  -7.976  1.00  0.00     0.210 HD
ENDBRANCH   5   6
ENDBRANCH   1   5
TORSDOF 4
ENDMDL
MODEL 7
REMARK VINA RESULT:    -3.025      7.747      9.167
REMARK INTER + INTRA:          -3.684
REMARK INTER:                  -3.583
REMARK INTRA:                  -0.100
REMARK UNBOUND:                -0.040
REMARK SMILES CCCCCO
REMARK SMILES IDX 4 1 3 2 2 3 1 4 5 5 6 6
REMARK H PARENT 6 7
REMARK Flexibility Score: inf
ROOT
ATOM      1  C   UNL     1       8.981   4.548  -9.227  1.00  0.00     0.028 C 
ENDROOT
BRANCH   1   2
ATOM      2  C   UNL     1       8.504   3.382 -10.109  1.00  0.00     0.002 C 
BRANCH   2   3
ATOM      3  C   UNL     1       9.615   2.810 -11.001  1.00  0.00    -0.003 C 
ATOM      4  C   UNL     1      10.211   1.543 -10.394  1.00  0.00     0.004 C 
ENDBRANCH   2   3
ENDBRANCH   1   2
BRANCH   1   5
ATOM      5  C   UNL     1       8.924   4.242  -7.726  1.00  0.00     0.156 C 
BRANCH   5   6
ATOM      6  O   UNL     1       8.380   2.969  -7.509  1.00  0.00    -0.396 OA
ATOM      7  H   UNL     1       9.152   2.355  -7.403  1.00  0.00     0.210 HD
ENDBRANCH   5   6
ENDBRANCH   1   5
TORSDOF 4
ENDMDL
MODEL 8
REMARK VINA RESULT:    -3.013      2.959      4.229
REMARK INTER + INTRA:          -3.669
REMARK INTER:                  -3.656
REMARK INTRA:                  -0.013
REMARK UNBOUND:                -0.040
REMARK SMILES CCCCCO
REMARK SMILES IDX 4 1 3 2 2 3 1 4 5 5 6 6
REMARK H PARENT 6 7
REMARK Flexibility Score: inf
ROOT
ATOM      1  C   UNL     1       7.347   5.959  -3.748  1.00  0.00     0.028 C 
ENDROOT
BRANCH   1   2
ATOM      2  C   UNL     1       7.002   5.744  -2.264  1.00  0.00     0.002 C 
BRANCH   2   3
ATOM      3  C   UNL     1       6.686   4.280  -1.928  1.00  0.00    -0.003 C 
ATOM      4  C   UNL     1       6.269   4.129  -0.468  1.00  0.00     0.004 C 
ENDBRANCH   2   3
ENDBRANCH   1   2
BRANCH   1   5
ATOM      5  C   UNL     1       8.262   7.164  -3.993  1.00  0.00     0.156 C 
BRANCH   5   6
ATOM      6  O   UNL     1       9.596   6.823  -3.734  1.00  0.00    -0.396 OA
ATOM      7  H   UNL     1       9.694   5.873  -4.003  1.00  0.00     0.210 HD
ENDBRANCH   5   6
ENDBRANCH   1   5
TORSDOF 4
ENDMDL
MODEL 9
REMARK VINA RESULT:    -2.874      1.869      2.619
REMARK INTER + INTRA:          -3.502
REMARK INTER:                  -3.444
REMARK INTRA:                  -0.058
REMARK UNBOUND:                -0.040
REMARK SMILES CCCCCO
REMARK SMILES IDX 4 1 3 2 2 3 1 4 5 5 6 6
REMARK H PARENT 6 7
REMARK Flexibility Score: inf
ROOT
ATOM      1  C   UNL     1       6.514   7.126  -0.955  1.00  0.00     0.028 C 
ENDROOT
BRANCH   1   2
ATOM      2  C   UNL     1       7.055   7.565  -2.325  1.00  0.00     0.002 C 
BRANCH   2   3
ATOM      3  C   UNL     1       7.433   6.383  -3.229  1.00  0.00    -0.003 C 
ATOM      4  C   UNL     1       8.487   6.790  -4.255  1.00  0.00     0.004 C 
ENDBRANCH   2   3
ENDBRANCH   1   2
BRANCH   1   5
ATOM      5  C   UNL     1       6.559   5.608  -0.737  1.00  0.00     0.156 C 
BRANCH   5   6
ATOM      6  O   UNL     1       7.407   5.295   0.333  1.00  0.00    -0.396 OA
ATOM      7  H   UNL     1       7.085   5.828   1.104  1.00  0.00     0.210 HD
ENDBRANCH   5   6
ENDBRANCH   1   5
TORSDOF 4
ENDMDL
