MODEL 1
REMARK VINA RESULT:    -5.312      0.000      0.000
REMARK INTER + INTRA:          -6.683
REMARK INTER:                  -6.399
REMARK INTRA:                  -0.284
REMARK UNBOUND:                -0.284
REMARK SMILES O=c1c(O)c(-c2ccc(O)c(O)c2)oc2cc(O)cc(O)c12
REMARK SMILES IDX 5 1 3 2 2 3 1 4 22 5 20 6 19 7 17 8 16 9 15 10 14 11 6 12
REMARK SMILES IDX 7 13 8 14 9 15 13 16 11 17 10 18 12 20 4 22 21 24 18 26
REMARK H PARENT 10 19 12 21 4 23 21 25 18 27
REMARK Flexibility Score: inf
ROOT
ATOM      1  C   UNL     1      25.885  37.316  32.062  1.00  0.00     0.180 A 
ATOM      2  C   UNL     1      24.815  37.149  32.959  1.00  0.00     0.208 A 
ATOM      3  C   UNL     1      23.895  38.196  33.124  1.00  0.00     0.238 A 
ATOM      4  O   UNL     1      22.971  38.061  33.968  1.00  0.00    -0.285 OA
ATOM      5  C   UNL     1      24.045  39.390  32.379  1.00  0.00     0.111 A 
ATOM      6  C   UNL     1      23.148  40.499  32.436  1.00  0.00     0.134 A 
ATOM      7  C   UNL     1      23.466  41.680  31.755  1.00  0.00     0.093 A 
ATOM      8  C   UNL     1      24.616  41.768  30.965  1.00  0.00     0.123 A 
ATOM      9  C   UNL     1      25.465  40.670  30.854  1.00  0.00     0.094 A 
ATOM     10  C   UNL     1      25.194  39.491  31.551  1.00  0.00     0.146 A 
ATOM     11  O   UNL     1      26.035  38.473  31.427  1.00  0.00    -0.452 OA
ENDROOT
BRANCH   1  12
ATOM     12  C   UNL     1      26.881  36.248  31.816  1.00  0.00     0.025 A 
ATOM     13  C   UNL     1      26.539  35.160  30.999  1.00  0.00     0.016 A 
ATOM     14  C   UNL     1      27.456  34.130  30.770  1.00  0.00     0.051 A 
ATOM     15  C   UNL     1      28.721  34.166  31.364  1.00  0.00     0.157 A 
ATOM     16  C   UNL     1      28.146  36.272  32.431  1.00  0.00     0.062 A 
ATOM     17  C   UNL     1      29.068  35.239  32.203  1.00  0.00     0.158 A 
BRANCH  15  18
ATOM     18  O   UNL     1      29.617  33.126  31.116  1.00  0.00    -0.504 OA
ATOM     19  H   UNL     1      30.349  33.201  30.420  1.00  0.00     0.293 HD
ENDBRANCH  15  18
BRANCH  17  20
ATOM     20  O   UNL     1      30.322  35.274  32.810  1.00  0.00    -0.504 OA
ATOM     21  H   UNL     1      31.003  34.537  32.664  1.00  0.00     0.293 HD
ENDBRANCH  17  20
ENDBRANCH   1  12
BRANCH   2  22
ATOM     22  O   UNL     1      24.699  35.970  33.701  1.00  0.00    -0.502 OA
ATOM     23  H   UNL     1      25.503  35.422  33.982  1.00  0.00     0.293 HD
ENDBRANCH   2  22
BRANCH   6  24
ATOM     24  O   UNL     1      21.930  40.483  33.121  1.00  0.00    -0.507 OA
ATOM     25  H   UNL     1      21.183  41.147  32.979  1.00  0.00     0.293 HD
ENDBRANCH   6  24
BRANCH   8  26
ATOM     26  O   UNL     1      24.916  42.942  30.276  1.00  0.00    -0.508 OA
ATOM     27  H   UNL     1      24.473  43.822  30.512  1.00  0.00     0.293 HD
ENDBRANCH   8  26
TORSDOF 6
ENDMDL
MODEL 2
REMARK VINA RESULT:    -5.295      2.271      3.550
REMARK INTER + INTRA:          -6.663
REMARK INTER:                  -6.342
REMARK INTRA:                  -0.321
REMARK UNBOUND:                -0.284
REMARK SMILES O=c1c(O)c(-c2ccc(O)c(O)c2)oc2cc(O)cc(O)c12
REMARK SMILES IDX 5 1 3 2 2 3 1 4 22 5 20 6 19 7 17 8 16 9 15 10 14 11 6 12
REMARK SMILES IDX 7 13 8 14 9 15 13 16 11 17 10 18 12 20 4 22 21 24 18 26
REMARK H PARENT 10 19 12 21 4 23 21 25 18 27
REMARK Flexibility Score: inf
ROOT
ATOM      1  C   UNL     1      26.398  36.764  33.062  1.00  0.00     0.180 A 
ATOM      2  C   UNL     1      26.913  37.221  31.837  1.00  0.00     0.208 A 
ATOM      3  C   UNL     1      26.329  38.342  31.227  1.00  0.00     0.238 A 
ATOM      4  O   UNL     1      26.760  38.713  30.104  1.00  0.00    -0.285 OA
ATOM      5  C   UNL     1      25.247  39.003  31.858  1.00  0.00     0.111 A 
ATOM      6  C   UNL     1      24.607  40.173  31.350  1.00  0.00     0.134 A 
ATOM      7  C   UNL     1      23.462  40.666  31.989  1.00  0.00     0.093 A 
ATOM      8  C   UNL     1      22.976  40.069  33.155  1.00  0.00     0.123 A 
ATOM      9  C   UNL     1      23.631  38.964  33.692  1.00  0.00     0.094 A 
ATOM     10  C   UNL     1      24.753  38.427  33.057  1.00  0.00     0.146 A 
ATOM     11  O   UNL     1      25.340  37.367  33.596  1.00  0.00    -0.452 OA
ENDROOT
BRANCH   1  12
ATOM     12  C   UNL     1      26.976  35.604  33.778  1.00  0.00     0.025 A 
ATOM     13  C   UNL     1      28.004  35.811  34.711  1.00  0.00     0.016 A 
ATOM     14  C   UNL     1      28.579  34.729  35.383  1.00  0.00     0.051 A 
ATOM     15  C   UNL     1      28.147  33.425  35.122  1.00  0.00     0.157 A 
ATOM     16  C   UNL     1      26.558  34.290  33.500  1.00  0.00     0.062 A 
ATOM     17  C   UNL     1      27.135  33.203  34.172  1.00  0.00     0.158 A 
BRANCH  15  18
ATOM     18  O   UNL     1      28.737  32.364  35.809  1.00  0.00    -0.504 OA
ATOM     19  H   UNL     1      29.671  32.427  36.196  1.00  0.00     0.293 HD
ENDBRANCH  15  18
BRANCH  17  20
ATOM     20  O   UNL     1      26.709  31.904  33.897  1.00  0.00    -0.504 OA
ATOM     21  H   UNL     1      25.745  31.621  34.032  1.00  0.00     0.293 HD
ENDBRANCH  17  20
ENDBRANCH   1  12
BRANCH   2  22
ATOM     22  O   UNL     1      27.968  36.539  31.221  1.00  0.00    -0.502 OA
ATOM     23  H   UNL     1      28.901  36.516  31.612  1.00  0.00     0.293 HD
ENDBRANCH   2  22
BRANCH   6  24
ATOM     24  O   UNL     1      25.064  40.898  30.246  1.00  0.00    -0.507 OA
ATOM     25  H   UNL     1      24.630  41.736  29.888  1.00  0.00     0.293 HD
ENDBRANCH   6  24
BRANCH   8  26
ATOM     26  O   UNL     1      21.846  40.576  33.795  1.00  0.00    -0.508 OA
ATOM     27  H   UNL     1      20.940  40.587  33.340  1.00  0.00     0.293 HD
ENDBRANCH   8  26
TORSDOF 6
ENDMDL
MODEL 3
REMARK VINA RESULT:    -5.273      7.342      8.527
REMARK INTER + INTRA:          -6.636
REMARK INTER:                  -6.405
REMARK INTRA:                  -0.231
REMARK UNBOUND:                -0.284
REMARK SMILES O=c1c(O)c(-c2ccc(O)c(O)c2)oc2cc(O)cc(O)c12
REMARK SMILES IDX 5 1 3 2 2 3 1 4 22 5 20 6 19 7 17 8 16 9 15 10 14 11 6 12
REMARK SMILES IDX 7 13 8 14 9 15 13 16 11 17 10 18 12 20 4 22 21 24 18 26
REMARK H PARENT 10 19 12 21 4 23 21 25 18 27
REMARK Flexibility Score: inf
ROOT
ATOM      1  C   UNL     1      31.735  39.423  28.081  1.00  0.00     0.180 A 
ATOM      2  C   UNL     1      31.240  39.122  29.362  1.00  0.00     0.208 A 
ATOM      3  C   UNL     1      31.566  39.968  30.434  1.00  0.00     0.238 A 
ATOM      4  O   UNL     1      31.163  39.663  31.587  1.00  0.00    -0.285 OA
ATOM      5  C   UNL     1      32.368  41.112  30.210  1.00  0.00     0.111 A 
ATOM      6  C   UNL     1      32.726  42.059  31.216  1.00  0.00     0.134 A 
ATOM      7  C   UNL     1      33.633  43.082  30.910  1.00  0.00     0.093 A 
ATOM      8  C   UNL     1      34.142  43.229  29.617  1.00  0.00     0.123 A 
ATOM      9  C   UNL     1      33.752  42.345  28.615  1.00  0.00     0.094 A 
ATOM     10  C   UNL     1      32.878  41.293  28.898  1.00  0.00     0.146 A 
ATOM     11  O   UNL     1      32.540  40.467  27.916  1.00  0.00    -0.452 OA
ENDROOT
BRANCH   1  12
ATOM     12  C   UNL     1      31.415  38.593  26.897  1.00  0.00     0.025 A 
ATOM     13  C   UNL     1      32.017  37.334  26.752  1.00  0.00     0.016 A 
ATOM     14  C   UNL     1      31.746  36.543  25.633  1.00  0.00     0.051 A 
ATOM     15  C   UNL     1      30.882  37.004  24.635  1.00  0.00     0.157 A 
ATOM     16  C   UNL     1      30.563  39.064  25.882  1.00  0.00     0.062 A 
ATOM     17  C   UNL     1      30.290  38.273  24.757  1.00  0.00     0.158 A 
BRANCH  15  18
ATOM     18  O   UNL     1      30.628  36.192  23.530  1.00  0.00    -0.504 OA
ATOM     19  H   UNL     1      30.633  35.181  23.592  1.00  0.00     0.293 HD
ENDBRANCH  15  18
BRANCH  17  20
ATOM     20  O   UNL     1      29.438  38.744  23.758  1.00  0.00    -0.504 OA
ATOM     21  H   UNL     1      28.720  39.432  23.954  1.00  0.00     0.293 HD
ENDBRANCH  17  20
ENDBRANCH   1  12
BRANCH   2  22
ATOM     22  O   UNL     1      30.467  37.975  29.564  1.00  0.00    -0.502 OA
ATOM     23  H   UNL     1      30.842  37.040  29.458  1.00  0.00     0.293 HD
ENDBRANCH   2  22
BRANCH   6  24
ATOM     24  O   UNL     1      32.204  42.057  32.513  1.00  0.00    -0.507 OA
ATOM     25  H   UNL     1      31.345  42.511  32.787  1.00  0.00     0.293 HD
ENDBRANCH   6  24
BRANCH   8  26
ATOM     26  O   UNL     1      35.032  44.259  29.317  1.00  0.00    -0.508 OA
ATOM     27  H   UNL     1      34.789  45.230  29.473  1.00  0.00     0.293 HD
ENDBRANCH   8  26
TORSDOF 6
ENDMDL
MODEL 4
REMARK VINA RESULT:    -5.237      3.771      5.725
REMARK INTER + INTRA:          -6.592
REMARK INTER:                  -6.277
REMARK INTRA:                  -0.315
REMARK UNBOUND:                -0.284
REMARK SMILES O=c1c(O)c(-c2ccc(O)c(O)c2)oc2cc(O)cc(O)c12
REMARK SMILES IDX 5 1 3 2 2 3 1 4 22 5 20 6 19 7 17 8 16 9 15 10 14 11 6 12
REMARK SMILES IDX 7 13 8 14 9 15 13 16 11 17 10 18 12 20 4 22 21 24 18 26
REMARK H PARENT 10 19 12 21 4 23 21 25 18 27
REMARK Flexibility Score: inf
ROOT
ATOM      1  C   UNL     1      23.302  38.170  33.726  1.00  0.00     0.180 A 
ATOM      2  C   UNL     1      23.878  39.207  32.971  1.00  0.00     0.208 A 
ATOM      3  C   UNL     1      24.297  40.376  33.627  1.00  0.00     0.238 A 
ATOM      4  O   UNL     1      24.762  41.321  32.937  1.00  0.00    -0.285 OA
ATOM      5  C   UNL     1      24.152  40.487  35.030  1.00  0.00     0.111 A 
ATOM      6  C   UNL     1      24.580  41.608  35.802  1.00  0.00     0.134 A 
ATOM      7  C   UNL     1      24.267  41.668  37.166  1.00  0.00     0.093 A 
ATOM      8  C   UNL     1      23.599  40.615  37.798  1.00  0.00     0.123 A 
ATOM      9  C   UNL     1      23.231  39.490  37.065  1.00  0.00     0.094 A 
ATOM     10  C   UNL     1      23.497  39.418  35.695  1.00  0.00     0.146 A 
ATOM     11  O   UNL     1      23.119  38.332  35.032  1.00  0.00    -0.452 OA
ENDROOT
BRANCH   1  12
ATOM     12  C   UNL     1      22.858  36.899  33.111  1.00  0.00     0.025 A 
ATOM     13  C   UNL     1      23.793  35.877  32.886  1.00  0.00     0.016 A 
ATOM     14  C   UNL     1      23.401  34.677  32.287  1.00  0.00     0.051 A 
ATOM     15  C   UNL     1      22.074  34.486  31.891  1.00  0.00     0.157 A 
ATOM     16  C   UNL     1      21.529  36.714  32.692  1.00  0.00     0.062 A 
ATOM     17  C   UNL     1      21.133  35.510  32.089  1.00  0.00     0.158 A 
BRANCH  15  18
ATOM     18  O   UNL     1      21.711  33.277  31.297  1.00  0.00    -0.504 OA
ATOM     19  H   UNL     1      21.857  32.386  31.757  1.00  0.00     0.293 HD
ENDBRANCH  15  18
BRANCH  17  20
ATOM     20  O   UNL     1      19.811  35.332  31.683  1.00  0.00    -0.504 OA
ATOM     21  H   UNL     1      19.557  35.295  30.703  1.00  0.00     0.293 HD
ENDBRANCH  17  20
ENDBRANCH   1  12
BRANCH   2  22
ATOM     22  O   UNL     1      23.992  39.085  31.583  1.00  0.00    -0.502 OA
ATOM     23  H   UNL     1      23.644  38.279  31.078  1.00  0.00     0.293 HD
ENDBRANCH   2  22
BRANCH   6  24
ATOM     24  O   UNL     1      25.332  42.669  35.289  1.00  0.00    -0.507 OA
ATOM     25  H   UNL     1      25.979  43.227  35.826  1.00  0.00     0.293 HD
ENDBRANCH   6  24
BRANCH   8  26
ATOM     26  O   UNL     1      23.306  40.675  39.159  1.00  0.00    -0.508 OA
ATOM     27  H   UNL     1      23.483  39.889  39.773  1.00  0.00     0.293 HD
ENDBRANCH   8  26
TORSDOF 6
ENDMDL
MODEL 5
REMARK VINA RESULT:    -5.221      1.705      7.120
REMARK INTER + INTRA:          -6.573
REMARK INTER:                  -6.254
REMARK INTRA:                  -0.320
REMARK UNBOUND:                -0.284
REMARK SMILES O=c1c(O)c(-c2ccc(O)c(O)c2)oc2cc(O)cc(O)c12
REMARK SMILES IDX 5 1 3 2 2 3 1 4 22 5 20 6 19 7 17 8 16 9 15 10 14 11 6 12
REMARK SMILES IDX 7 13 8 14 9 15 13 16 11 17 10 18 12 20 4 22 21 24 18 26
REMARK H PARENT 10 19 12 21 4 23 21 25 18 27
REMARK Flexibility Score: inf
ROOT
ATOM      1  C   UNL     1      26.805  36.898  32.181  1.00  0.00     0.180 A 
ATOM      2  C   UNL     1      26.736  35.773  31.341  1.00  0.00     0.208 A 
ATOM      3  C   UNL     1      27.712  34.772  31.462  1.00  0.00     0.238 A 
ATOM      4  O   UNL     1      27.675  33.793  30.671  1.00  0.00    -0.285 OA
ATOM      5  C   UNL     1      28.736  34.899  32.432  1.00  0.00     0.111 A 
ATOM      6  C   UNL     1      29.752  33.926  32.668  1.00  0.00     0.134 A 
ATOM      7  C   UNL     1      30.791  34.216  33.562  1.00  0.00     0.093 A 
ATOM      8  C   UNL     1      30.812  35.417  34.276  1.00  0.00     0.123 A 
ATOM      9  C   UNL     1      29.791  36.347  34.096  1.00  0.00     0.094 A 
ATOM     10  C   UNL     1      28.762  36.102  33.184  1.00  0.00     0.146 A 
ATOM     11  O   UNL     1      27.815  37.020  33.036  1.00  0.00    -0.452 OA
ENDROOT
BRANCH   1  12
ATOM     12  C   UNL     1      25.798  37.983  32.130  1.00  0.00     0.025 A 
ATOM     13  C   UNL     1      24.666  37.915  32.957  1.00  0.00     0.016 A 
ATOM     14  C   UNL     1      23.693  38.916  32.910  1.00  0.00     0.051 A 
ATOM     15  C   UNL     1      23.829  39.992  32.028  1.00  0.00     0.157 A 
ATOM     16  C   UNL     1      25.922  39.054  31.227  1.00  0.00     0.062 A 
ATOM     17  C   UNL     1      24.946  40.060  31.178  1.00  0.00     0.158 A 
BRANCH  15  18
ATOM     18  O   UNL     1      22.843  40.979  32.005  1.00  0.00    -0.504 OA
ATOM     19  H   UNL     1      21.866  40.767  32.168  1.00  0.00     0.293 HD
ENDBRANCH  15  18
BRANCH  17  20
ATOM     20  O   UNL     1      25.079  41.123  30.286  1.00  0.00    -0.504 OA
ATOM     21  H   UNL     1      25.003  42.087  30.592  1.00  0.00     0.293 HD
ENDBRANCH  17  20
ENDBRANCH   1  12
BRANCH   2  22
ATOM     22  O   UNL     1      25.729  35.678  30.376  1.00  0.00    -0.502 OA
ATOM     23  H   UNL     1      24.793  35.360  30.596  1.00  0.00     0.293 HD
ENDBRANCH   2  22
BRANCH   6  24
ATOM     24  O   UNL     1      29.775  32.660  32.077  1.00  0.00    -0.507 OA
ATOM     25  H   UNL     1      29.147  31.905  32.311  1.00  0.00     0.293 HD
ENDBRANCH   6  24
BRANCH   8  26
ATOM     26  O   UNL     1      31.841  35.691  35.176  1.00  0.00    -0.508 OA
ATOM     27  H   UNL     1      31.697  36.296  35.976  1.00  0.00     0.293 HD
ENDBRANCH   8  26
TORSDOF 6
ENDMDL
MODEL 6
REMARK VINA RESULT:    -5.206      1.673      3.058
REMARK INTER + INTRA:          -6.556
REMARK INTER:                  -6.223
REMARK INTRA:                  -0.333
REMARK UNBOUND:                -0.284
REMARK SMILES O=c1c(O)c(-c2ccc(O)c(O)c2)oc2cc(O)cc(O)c12
REMARK SMILES IDX 5 1 3 2 2 3 1 4 22 5 20 6 19 7 17 8 16 9 15 10 14 11 6 12
REMARK SMILES IDX 7 13 8 14 9 15 13 16 11 17 10 18 12 20 4 22 21 24 18 26
REMARK H PARENT 10 19 12 21 4 23 21 25 18 27
REMARK Flexibility Score: inf
ROOT
ATOM      1  C   UNL     1      26.479  37.526  32.076  1.00  0.00     0.180 A 
ATOM      2  C   UNL     1      26.183  38.579  31.192  1.00  0.00     0.208 A 
ATOM      3  C   UNL     1      25.413  39.659  31.653  1.00  0.00     0.238 A 
ATOM      4  O   UNL     1      25.107  40.571  30.841  1.00  0.00    -0.285 OA
ATOM      5  C   UNL     1      24.963  39.682  32.995  1.00  0.00     0.111 A 
ATOM      6  C   UNL     1      24.212  40.746  33.578  1.00  0.00     0.134 A 
ATOM      7  C   UNL     1      23.706  40.603  34.877  1.00  0.00     0.093 A 
ATOM      8  C   UNL     1      23.983  39.462  35.635  1.00  0.00     0.123 A 
ATOM      9  C   UNL     1      24.766  38.445  35.095  1.00  0.00     0.094 A 
ATOM     10  C   UNL     1      25.253  38.543  33.790  1.00  0.00     0.146 A 
ATOM     11  O   UNL     1      25.986  37.546  33.310  1.00  0.00    -0.452 OA
ENDROOT
BRANCH   1  12
ATOM     12  C   UNL     1      27.305  36.366  31.672  1.00  0.00     0.025 A 
ATOM     13  C   UNL     1      26.676  35.193  31.227  1.00  0.00     0.016 A 
ATOM     14  C   UNL     1      27.435  34.078  30.861  1.00  0.00     0.051 A 
ATOM     15  C   UNL     1      28.830  34.114  30.947  1.00  0.00     0.157 A 
ATOM     16  C   UNL     1      28.707  36.393  31.779  1.00  0.00     0.062 A 
ATOM     17  C   UNL     1      29.470  35.275  31.413  1.00  0.00     0.158 A 
BRANCH  15  18
ATOM     18  O   UNL     1      29.562  32.987  30.572  1.00  0.00    -0.504 OA
ATOM     19  H   UNL     1      29.117  32.150  30.215  1.00  0.00     0.293 HD
ENDBRANCH  15  18
BRANCH  17  20
ATOM     20  O   UNL     1      30.860  35.312  31.514  1.00  0.00    -0.504 OA
ATOM     21  H   UNL     1      31.336  35.081  32.379  1.00  0.00     0.293 HD
ENDBRANCH  17  20
ENDBRANCH   1  12
BRANCH   2  22
ATOM     22  O   UNL     1      26.619  38.525  29.865  1.00  0.00    -0.502 OA
ATOM     23  H   UNL     1      25.982  38.589  29.081  1.00  0.00     0.293 HD
ENDBRANCH   2  22
BRANCH   6  24
ATOM     24  O   UNL     1      23.957  41.964  32.941  1.00  0.00    -0.507 OA
ATOM     25  H   UNL     1      24.331  42.232  32.043  1.00  0.00     0.293 HD
ENDBRANCH   6  24
BRANCH   8  26
ATOM     26  O   UNL     1      23.490  39.335  36.933  1.00  0.00    -0.508 OA
ATOM     27  H   UNL     1      23.758  38.559  37.526  1.00  0.00     0.293 HD
ENDBRANCH   8  26
TORSDOF 6
ENDMDL
MODEL 7
REMARK VINA RESULT:    -5.134      8.077     10.468
REMARK INTER + INTRA:          -6.468
REMARK INTER:                  -6.242
REMARK INTRA:                  -0.226
REMARK UNBOUND:                -0.284
REMARK SMILES O=c1c(O)c(-c2ccc(O)c(O)c2)oc2cc(O)cc(O)c12
REMARK SMILES IDX 5 1 3 2 2 3 1 4 22 5 20 6 19 7 17 8 16 9 15 10 14 11 6 12
REMARK SMILES IDX 7 13 8 14 9 15 13 16 11 17 10 18 12 20 4 22 21 24 18 26
REMARK H PARENT 10 19 12 21 4 23 21 25 18 27
REMARK Flexibility Score: inf
ROOT
ATOM      1  C   UNL     1      33.001  42.570  30.319  1.00  0.00     0.180 A 
ATOM      2  C   UNL     1      32.435  41.747  31.308  1.00  0.00     0.208 A 
ATOM      3  C   UNL     1      31.978  40.469  30.950  1.00  0.00     0.238 A 
ATOM      4  O   UNL     1      31.424  39.758  31.829  1.00  0.00    -0.285 OA
ATOM      5  C   UNL     1      32.107  40.023  29.613  1.00  0.00     0.111 A 
ATOM      6  C   UNL     1      31.715  38.732  29.149  1.00  0.00     0.134 A 
ATOM      7  C   UNL     1      31.767  38.445  27.778  1.00  0.00     0.093 A 
ATOM      8  C   UNL     1      32.259  39.381  26.866  1.00  0.00     0.123 A 
ATOM      9  C   UNL     1      32.701  40.622  27.318  1.00  0.00     0.094 A 
ATOM     10  C   UNL     1      32.627  40.951  28.673  1.00  0.00     0.146 A 
ATOM     11  O   UNL     1      33.048  42.148  29.059  1.00  0.00    -0.452 OA
ENDROOT
BRANCH   1  12
ATOM     12  C   UNL     1      33.528  43.920  30.623  1.00  0.00     0.025 A 
ATOM     13  C   UNL     1      34.916  44.128  30.662  1.00  0.00     0.016 A 
ATOM     14  C   UNL     1      35.435  45.388  30.968  1.00  0.00     0.051 A 
ATOM     15  C   UNL     1      34.579  46.455  31.253  1.00  0.00     0.157 A 
ATOM     16  C   UNL     1      32.668  44.989  30.932  1.00  0.00     0.062 A 
ATOM     17  C   UNL     1      33.188  46.255  31.241  1.00  0.00     0.158 A 
BRANCH  15  18
ATOM     18  O   UNL     1      35.125  47.703  31.553  1.00  0.00    -0.504 OA
ATOM     19  H   UNL     1      34.724  48.564  31.203  1.00  0.00     0.293 HD
ENDBRANCH  15  18
BRANCH  17  20
ATOM     20  O   UNL     1      32.328  47.312  31.539  1.00  0.00    -0.504 OA
ATOM     21  H   UNL     1      31.424  47.403  31.090  1.00  0.00     0.293 HD
ENDBRANCH  17  20
ENDBRANCH   1  12
BRANCH   2  22
ATOM     22  O   UNL     1      32.298  42.216  32.618  1.00  0.00    -0.502 OA
ATOM     23  H   UNL     1      32.720  43.081  32.932  1.00  0.00     0.293 HD
ENDBRANCH   2  22
BRANCH   6  24
ATOM     24  O   UNL     1      31.295  37.694  29.986  1.00  0.00    -0.507 OA
ATOM     25  H   UNL     1      30.387  37.257  29.948  1.00  0.00     0.293 HD
ENDBRANCH   6  24
BRANCH   8  26
ATOM     26  O   UNL     1      32.323  39.083  25.506  1.00  0.00    -0.508 OA
ATOM     27  H   UNL     1      32.102  39.776  24.801  1.00  0.00     0.293 HD
ENDBRANCH   8  26
TORSDOF 6
ENDMDL
MODEL 8
REMARK VINA RESULT:    -5.117      1.892      3.342
REMARK INTER + INTRA:          -6.449
REMARK INTER:                  -6.130
REMARK INTRA:                  -0.319
REMARK UNBOUND:                -0.284
REMARK SMILES O=c1c(O)c(-c2ccc(O)c(O)c2)oc2cc(O)cc(O)c12
REMARK SMILES IDX 5 1 3 2 2 3 1 4 22 5 20 6 19 7 17 8 16 9 15 10 14 11 6 12
REMARK SMILES IDX 7 13 8 14 9 15 13 16 11 17 10 18 12 20 4 22 21 24 18 26
REMARK H PARENT 10 19 12 21 4 23 21 25 18 27
REMARK Flexibility Score: inf
ROOT
ATOM      1  C   UNL     1      27.336  37.086  32.620  1.00  0.00     0.180 A 
ATOM      2  C   UNL     1      27.663  37.716  31.406  1.00  0.00     0.208 A 
ATOM      3  C   UNL     1      26.804  38.705  30.900  1.00  0.00     0.238 A 
ATOM      4  O   UNL     1      27.074  39.227  29.787  1.00  0.00    -0.285 OA
ATOM      5  C   UNL     1      25.639  39.063  31.620  1.00  0.00     0.111 A 
ATOM      6  C   UNL     1      24.720  40.079  31.221  1.00  0.00     0.134 A 
ATOM      7  C   UNL     1      23.532  40.258  31.941  1.00  0.00     0.093 A 
ATOM      8  C   UNL     1      23.264  39.502  33.085  1.00  0.00     0.123 A 
ATOM      9  C   UNL     1      24.183  38.550  33.517  1.00  0.00     0.094 A 
ATOM     10  C   UNL     1      25.359  38.322  32.798  1.00  0.00     0.146 A 
ATOM     11  O   UNL     1      26.202  37.398  33.238  1.00  0.00    -0.452 OA
ENDROOT
BRANCH   1  12
ATOM     12  C   UNL     1      28.204  36.053  33.230  1.00  0.00     0.025 A 
ATOM     13  C   UNL     1      27.870  34.697  33.086  1.00  0.00     0.016 A 
ATOM     14  C   UNL     1      28.662  33.706  33.670  1.00  0.00     0.051 A 
ATOM     15  C   UNL     1      29.790  34.054  34.419  1.00  0.00     0.157 A 
ATOM     16  C   UNL     1      29.327  36.402  34.001  1.00  0.00     0.062 A 
ATOM     17  C   UNL     1      30.123  35.409  34.590  1.00  0.00     0.158 A 
BRANCH  15  18
ATOM     18  O   UNL     1      30.565  33.044  34.989  1.00  0.00    -0.504 OA
ATOM     19  H   UNL     1      31.486  33.221  35.370  1.00  0.00     0.293 HD
ENDBRANCH  15  18
BRANCH  17  20
ATOM     20  O   UNL     1      31.239  35.763  35.347  1.00  0.00    -0.504 OA
ATOM     21  H   UNL     1      32.154  35.875  34.925  1.00  0.00     0.293 HD
ENDBRANCH  17  20
ENDBRANCH   1  12
BRANCH   2  22
ATOM     22  O   UNL     1      28.807  37.332  30.701  1.00  0.00    -0.502 OA
ATOM     23  H   UNL     1      29.019  37.686  29.776  1.00  0.00     0.293 HD
ENDBRANCH   2  22
BRANCH   6  24
ATOM     24  O   UNL     1      24.936  40.950  30.149  1.00  0.00    -0.507 OA
ATOM     25  H   UNL     1      24.300  41.079  29.376  1.00  0.00     0.293 HD
ENDBRANCH   6  24
BRANCH   8  26
ATOM     26  O   UNL     1      22.087  39.698  33.806  1.00  0.00    -0.508 OA
ATOM     27  H   UNL     1      22.008  39.419  34.777  1.00  0.00     0.293 HD
ENDBRANCH   8  26
TORSDOF 6
ENDMDL
MODEL 9
REMARK VINA RESULT:    -5.102      2.469      7.322
REMARK INTER + INTRA:          -6.430
REMARK INTER:                  -6.117
REMARK INTRA:                  -0.312
REMARK UNBOUND:                -0.284
REMARK SMILES O=c1c(O)c(-c2ccc(O)c(O)c2)oc2cc(O)cc(O)c12
REMARK SMILES IDX 5 1 3 2 2 3 1 4 22 5 20 6 19 7 17 8 16 9 15 10 14 11 6 12
REMARK SMILES IDX 7 13 8 14 9 15 13 16 11 17 10 18 12 20 4 22 21 24 18 26
REMARK H PARENT 10 19 12 21 4 23 21 25 18 27
REMARK Flexibility Score: inf
ROOT
ATOM      1  C   UNL     1      27.844  36.238  32.754  1.00  0.00     0.180 A 
ATOM      2  C   UNL     1      27.355  34.922  32.820  1.00  0.00     0.208 A 
ATOM      3  C   UNL     1      28.155  33.925  33.401  1.00  0.00     0.238 A 
ATOM      4  O   UNL     1      27.733  32.739  33.408  1.00  0.00    -0.285 OA
ATOM      5  C   UNL     1      29.427  34.260  33.925  1.00  0.00     0.111 A 
ATOM      6  C   UNL     1      30.303  33.338  34.573  1.00  0.00     0.134 A 
ATOM      7  C   UNL     1      31.592  33.749  34.935  1.00  0.00     0.093 A 
ATOM      8  C   UNL     1      32.011  35.067  34.732  1.00  0.00     0.123 A 
ATOM      9  C   UNL     1      31.141  35.988  34.156  1.00  0.00     0.094 A 
ATOM     10  C   UNL     1      29.862  35.599  33.750  1.00  0.00     0.146 A 
ATOM     11  O   UNL     1      29.069  36.507  33.195  1.00  0.00    -0.452 OA
ENDROOT
BRANCH   1  12
ATOM     12  C   UNL     1      27.050  37.347  32.179  1.00  0.00     0.025 A 
ATOM     13  C   UNL     1      27.341  37.805  30.884  1.00  0.00     0.016 A 
ATOM     14  C   UNL     1      26.618  38.865  30.329  1.00  0.00     0.051 A 
ATOM     15  C   UNL     1      25.606  39.490  31.063  1.00  0.00     0.157 A 
ATOM     16  C   UNL     1      26.047  37.992  32.923  1.00  0.00     0.062 A 
ATOM     17  C   UNL     1      25.321  39.056  32.368  1.00  0.00     0.158 A 
BRANCH  15  18
ATOM     18  O   UNL     1      24.900  40.544  30.482  1.00  0.00    -0.504 OA
ATOM     19  H   UNL     1      24.802  40.638  29.478  1.00  0.00     0.293 HD
ENDBRANCH  15  18
BRANCH  17  20
ATOM     20  O   UNL     1      24.322  39.685  33.110  1.00  0.00    -0.504 OA
ATOM     21  H   UNL     1      24.539  40.235  33.934  1.00  0.00     0.293 HD
ENDBRANCH  17  20
ENDBRANCH   1  12
BRANCH   2  22
ATOM     22  O   UNL     1      26.105  34.610  32.276  1.00  0.00    -0.502 OA
ATOM     23  H   UNL     1      25.242  34.989  32.645  1.00  0.00     0.293 HD
ENDBRANCH   2  22
BRANCH   6  24
ATOM     24  O   UNL     1      29.951  32.027  34.905  1.00  0.00    -0.507 OA
ATOM     25  H   UNL     1      29.927  31.256  34.253  1.00  0.00     0.293 HD
ENDBRANCH   6  24
BRANCH   8  26
ATOM     26  O   UNL     1      33.290  35.472  35.110  1.00  0.00    -0.508 OA
ATOM     27  H   UNL     1      33.529  35.628  36.082  1.00  0.00     0.293 HD
ENDBRANCH   8  26
TORSDOF 6
ENDMDL
