MODEL 1
REMARK VINA RESULT:    -3.784      0.000      0.000
REMARK INTER + INTRA:          -6.664
REMARK INTER:                  -5.775
REMARK INTRA:                  -0.889
REMARK UNBOUND:                -0.889
REMARK SMILES O=C([O-])CCCCCCCCC(=O)[O-]
REMARK SMILES IDX 7 1 6 2 5 3 4 4 2 5 1 6 3 7 8 8 9 9 10 10 11 11 12 12 13 13
REMARK SMILES IDX 14 14
REMARK H PARENT
REMARK Flexibility Score: inf
ROOT
ATOM      1  C   UNL     1     129.540 132.274 114.174  1.00  0.00     0.000 C 
ENDROOT
BRANCH   1   2
ATOM      2  C   UNL     1     129.292 133.602 114.899  1.00  0.00     0.000 C 
BRANCH   2   3
ATOM      3  C   UNL     1     127.878 133.646 115.500  1.00  0.00     0.006 C 
BRANCH   3   4
ATOM      4  C   UNL     1     127.898 133.642 117.033  1.00  0.00     0.053 C 
BRANCH   4   5
ATOM      5  C   UNL     1     128.030 132.255 117.584  1.00  0.00     0.041 C 
ATOM      6  O   UNL     1     127.061 131.454 117.523  1.00  0.00    -0.550 OA
ATOM      7  O   UNL     1     129.212 131.859 118.197  1.00  0.00    -0.550 OA
ENDBRANCH   4   5
ENDBRANCH   3   4
ENDBRANCH   2   3
ENDBRANCH   1   2
BRANCH   1   8
ATOM      8  C   UNL     1     128.219 131.622 113.751  1.00  0.00     0.000 C 
BRANCH   8   9
ATOM      9  C   UNL     1     128.079 130.219 114.353  1.00  0.00     0.000 C 
BRANCH   9  10
ATOM     10  C   UNL     1     129.320 129.847 115.178  1.00  0.00     0.006 C 
BRANCH  10  11
ATOM     11  C   UNL     1     129.623 128.344 115.125  1.00  0.00     0.053 C 
BRANCH  11  12
ATOM     12  C   UNL     1     129.906 127.786 116.485  1.00  0.00     0.041 C 
ATOM     13  O   UNL     1     130.866 126.990 116.658  1.00  0.00    -0.550 OA
ATOM     14  O   UNL     1     129.126 128.170 117.569  1.00  0.00    -0.550 OA
ENDBRANCH  11  12
ENDBRANCH  10  11
ENDBRANCH   9  10
ENDBRANCH   8   9
ENDBRANCH   1   8
TORSDOF 9
ENDMDL
MODEL 2
REMARK VINA RESULT:    -3.736     15.986     17.606
REMARK INTER + INTRA:          -6.591
REMARK INTER:                  -5.875
REMARK INTRA:                  -0.716
REMARK UNBOUND:                -0.889
REMARK SMILES O=C([O-])CCCCCCCCC(=O)[O-]
REMARK SMILES IDX 7 1 6 2 5 3 4 4 2 5 1 6 3 7 8 8 9 9 10 10 11 11 12 12 13 13
REMARK SMILES IDX 14 14
REMARK H PARENT
REMARK Flexibility Score: inf
ROOT
ATOM      1  C   UNL     1     144.087 129.856 114.777  1.00  0.00     0.000 C 
ENDROOT
BRANCH   1   2
ATOM      2  C   UNL     1     145.274 128.979 114.359  1.00  0.00     0.000 C 
BRANCH   2   3
ATOM      3  C   UNL     1     144.997 127.498 114.658  1.00  0.00     0.006 C 
BRANCH   3   4
ATOM      4  C   UNL     1     146.016 126.902 115.636  1.00  0.00     0.053 C 
BRANCH   4   5
ATOM      5  C   UNL     1     145.530 126.964 117.052  1.00  0.00     0.041 C 
ATOM      6  O   UNL     1     144.306 127.127 117.295  1.00  0.00    -0.550 OA
ATOM      7  O   UNL     1     146.434 126.875 118.104  1.00  0.00    -0.550 OA
ENDBRANCH   4   5
ENDBRANCH   3   4
ENDBRANCH   2   3
ENDBRANCH   1   2
BRANCH   1   8
ATOM      8  C   UNL     1     144.431 130.696 116.011  1.00  0.00     0.000 C 
BRANCH   8   9
ATOM      9  C   UNL     1     145.939 130.679 116.287  1.00  0.00     0.000 C 
BRANCH   9  10
ATOM     10  C   UNL     1     146.608 131.961 115.767  1.00  0.00     0.006 C 
BRANCH  10  11
ATOM     11  C   UNL     1     145.646 133.157 115.761  1.00  0.00     0.053 C 
BRANCH  11  12
ATOM     12  C   UNL     1     146.356 134.442 116.050  1.00  0.00     0.041 C 
ATOM     13  O   UNL     1     146.241 135.421 115.268  1.00  0.00    -0.550 OA
ATOM     14  O   UNL     1     147.121 134.569 117.204  1.00  0.00    -0.550 OA
ENDBRANCH  11  12
ENDBRANCH  10  11
ENDBRANCH   9  10
ENDBRANCH   8   9
ENDBRANCH   1   8
TORSDOF 9
ENDMDL
MODEL 3
REMARK VINA RESULT:    -3.675     15.162     16.453
REMARK INTER + INTRA:          -6.498
REMARK INTER:                  -5.515
REMARK INTRA:                  -0.983
REMARK UNBOUND:                -0.889
REMARK SMILES O=C([O-])CCCCCCCCC(=O)[O-]
REMARK SMILES IDX 7 1 6 2 5 3 4 4 2 5 1 6 3 7 8 8 9 9 10 10 11 11 12 12 13 13
REMARK SMILES IDX 14 14
REMARK H PARENT
REMARK Flexibility Score: inf
ROOT
ATOM      1  C   UNL     1     144.037 129.092 114.796  1.00  0.00     0.000 C 
ENDROOT
BRANCH   1   2
ATOM      2  C   UNL     1     145.548 129.218 114.571  1.00  0.00     0.000 C 
BRANCH   2   3
ATOM      3  C   UNL     1     146.182 130.160 115.605  1.00  0.00     0.006 C 
BRANCH   3   4
ATOM      4  C   UNL     1     145.162 131.134 116.207  1.00  0.00     0.053 C 
BRANCH   4   5
ATOM      5  C   UNL     1     145.589 132.560 116.042  1.00  0.00     0.041 C 
ATOM      6  O   UNL     1     146.811 132.862 116.064  1.00  0.00    -0.550 OA
ATOM      7  O   UNL     1     144.636 133.561 115.899  1.00  0.00    -0.550 OA
ENDBRANCH   4   5
ENDBRANCH   3   4
ENDBRANCH   2   3
ENDBRANCH   1   2
BRANCH   1   8
ATOM      8  C   UNL     1     143.647 127.646 115.121  1.00  0.00     0.000 C 
BRANCH   8   9
ATOM      9  C   UNL     1     142.675 127.590 116.305  1.00  0.00     0.000 C 
BRANCH   9  10
ATOM     10  C   UNL     1     143.377 127.073 117.571  1.00  0.00     0.006 C 
BRANCH  10  11
ATOM     11  C   UNL     1     143.996 128.209 118.396  1.00  0.00     0.053 C 
BRANCH  11  12
ATOM     12  C   UNL     1     145.473 128.033 118.562  1.00  0.00     0.041 C 
ATOM     13  O   UNL     1     146.125 127.337 117.741  1.00  0.00    -0.550 OA
ATOM     14  O   UNL     1     146.135 128.666 119.607  1.00  0.00    -0.550 OA
ENDBRANCH  11  12
ENDBRANCH  10  11
ENDBRANCH   9  10
ENDBRANCH   8   9
ENDBRANCH   1   8
TORSDOF 9
ENDMDL
MODEL 4
REMARK VINA RESULT:    -3.663     15.171     16.683
REMARK INTER + INTRA:          -6.480
REMARK INTER:                  -5.540
REMARK INTRA:                  -0.940
REMARK UNBOUND:                -0.889
REMARK SMILES O=C([O-])CCCCCCCCC(=O)[O-]
REMARK SMILES IDX 7 1 6 2 5 3 4 4 2 5 1 6 3 7 8 8 9 9 10 10 11 11 12 12 13 13
REMARK SMILES IDX 14 14
REMARK H PARENT
REMARK Flexibility Score: inf
ROOT
ATOM      1  C   UNL     1     143.186 127.556 115.114  1.00  0.00     0.000 C 
ENDROOT
BRANCH   1   2
ATOM      2  C   UNL     1     142.648 127.528 116.549  1.00  0.00     0.000 C 
BRANCH   2   3
ATOM      3  C   UNL     1     143.795 127.433 117.566  1.00  0.00     0.006 C 
BRANCH   3   4
ATOM      4  C   UNL     1     143.723 128.537 118.629  1.00  0.00     0.053 C 
BRANCH   4   5
ATOM      5  C   UNL     1     145.008 128.660 119.390  1.00  0.00     0.041 C 
ATOM      6  O   UNL     1     146.061 129.019 118.802  1.00  0.00    -0.550 OA
ATOM      7  O   UNL     1     145.048 128.345 120.743  1.00  0.00    -0.550 OA
ENDBRANCH   4   5
ENDBRANCH   3   4
ENDBRANCH   2   3
ENDBRANCH   1   2
BRANCH   1   8
ATOM      8  C   UNL     1     144.709 127.386 115.094  1.00  0.00     0.000 C 
BRANCH   8   9
ATOM      9  C   UNL     1     145.385 128.561 114.376  1.00  0.00     0.000 C 
BRANCH   9  10
ATOM     10  C   UNL     1     145.998 129.544 115.385  1.00  0.00     0.006 C 
BRANCH  10  11
ATOM     11  C   UNL     1     145.138 130.802 115.566  1.00  0.00     0.053 C 
BRANCH  11  12
ATOM     12  C   UNL     1     145.817 131.819 116.431  1.00  0.00     0.041 C 
ATOM     13  O   UNL     1     146.798 132.472 115.991  1.00  0.00    -0.550 OA
ATOM     14  O   UNL     1     145.344 132.066 117.714  1.00  0.00    -0.550 OA
ENDBRANCH  11  12
ENDBRANCH  10  11
ENDBRANCH   9  10
ENDBRANCH   8   9
ENDBRANCH   1   8
TORSDOF 9
ENDMDL
MODEL 5
REMARK VINA RESULT:    -3.639     14.867     16.479
REMARK INTER + INTRA:          -6.443
REMARK INTER:                  -6.114
REMARK INTRA:                  -0.329
REMARK UNBOUND:                -0.889
REMARK SMILES O=C([O-])CCCCCCCCC(=O)[O-]
REMARK SMILES IDX 7 1 6 2 5 3 4 4 2 5 1 6 3 7 8 8 9 9 10 10 11 11 12 12 13 13
REMARK SMILES IDX 14 14
REMARK H PARENT
REMARK Flexibility Score: inf
ROOT
ATOM      1  C   UNL     1     145.598 128.099 114.386  1.00  0.00     0.000 C 
ENDROOT
BRANCH   1   2
ATOM      2  C   UNL     1     144.414 127.234 114.833  1.00  0.00     0.000 C 
BRANCH   2   3
ATOM      3  C   UNL     1     143.160 128.092 115.062  1.00  0.00     0.006 C 
BRANCH   3   4
ATOM      4  C   UNL     1     141.872 127.261 115.026  1.00  0.00     0.053 C 
BRANCH   4   5
ATOM      5  C   UNL     1     141.221 127.186 116.373  1.00  0.00     0.041 C 
ATOM      6  O   UNL     1     141.925 127.126 117.415  1.00  0.00    -0.550 OA
ATOM      7  O   UNL     1     139.836 127.147 116.476  1.00  0.00    -0.550 OA
ENDBRANCH   4   5
ENDBRANCH   3   4
ENDBRANCH   2   3
ENDBRANCH   1   2
BRANCH   1   8
ATOM      8  C   UNL     1     145.353 129.577 114.708  1.00  0.00     0.000 C 
BRANCH   8   9
ATOM      9  C   UNL     1     146.104 129.997 115.977  1.00  0.00     0.000 C 
BRANCH   9  10
ATOM     10  C   UNL     1     146.724 131.394 115.814  1.00  0.00     0.006 C 
BRANCH  10  11
ATOM     11  C   UNL     1     145.755 132.510 116.224  1.00  0.00     0.053 C 
BRANCH  11  12
ATOM     12  C   UNL     1     146.340 133.868 115.987  1.00  0.00     0.041 C 
ATOM     13  O   UNL     1     146.901 134.490 116.927  1.00  0.00    -0.550 OA
ATOM     14  O   UNL     1     146.293 134.433 114.718  1.00  0.00    -0.550 OA
ENDBRANCH  11  12
ENDBRANCH  10  11
ENDBRANCH   9  10
ENDBRANCH   8   9
ENDBRANCH   1   8
TORSDOF 9
ENDMDL
MODEL 6
REMARK VINA RESULT:    -3.574      1.620      2.439
REMARK INTER + INTRA:          -6.344
REMARK INTER:                  -5.510
REMARK INTRA:                  -0.834
REMARK UNBOUND:                -0.889
REMARK SMILES O=C([O-])CCCCCCCCC(=O)[O-]
REMARK SMILES IDX 7 1 6 2 5 3 4 4 2 5 1 6 3 7 8 8 9 9 10 10 11 11 12 12 13 13
REMARK SMILES IDX 14 14
REMARK H PARENT
REMARK Flexibility Score: inf
ROOT
ATOM      1  C   UNL     1     131.218 132.232 114.257  1.00  0.00     0.000 C 
ENDROOT
BRANCH   1   2
ATOM      2  C   UNL     1     130.193 132.604 113.179  1.00  0.00     0.000 C 
BRANCH   2   3
ATOM      3  C   UNL     1     128.763 132.299 113.650  1.00  0.00     0.006 C 
BRANCH   3   4
ATOM      4  C   UNL     1     128.615 132.417 115.173  1.00  0.00     0.053 C 
BRANCH   4   5
ATOM      5  C   UNL     1     127.943 131.214 115.761  1.00  0.00     0.041 C 
ATOM      6  O   UNL     1     127.529 131.237 116.949  1.00  0.00    -0.550 OA
ATOM      7  O   UNL     1     127.806 130.054 115.007  1.00  0.00    -0.550 OA
ENDBRANCH   4   5
ENDBRANCH   3   4
ENDBRANCH   2   3
ENDBRANCH   1   2
BRANCH   1   8
ATOM      8  C   UNL     1     131.762 130.817 114.035  1.00  0.00     0.000 C 
BRANCH   8   9
ATOM      9  C   UNL     1     131.469 129.918 115.242  1.00  0.00     0.000 C 
BRANCH   9  10
ATOM     10  C   UNL     1     131.483 128.435 114.841  1.00  0.00     0.006 C 
BRANCH  10  11
ATOM     11  C   UNL     1     130.244 127.685 115.348  1.00  0.00     0.053 C 
BRANCH  11  12
ATOM     12  C   UNL     1     130.164 127.693 116.843  1.00  0.00     0.041 C 
ATOM     13  O   UNL     1     129.186 128.233 117.423  1.00  0.00    -0.550 OA
ATOM     14  O   UNL     1     131.155 127.076 117.595  1.00  0.00    -0.550 OA
ENDBRANCH  11  12
ENDBRANCH  10  11
ENDBRANCH   9  10
ENDBRANCH   8   9
ENDBRANCH   1   8
TORSDOF 9
ENDMDL
MODEL 7
REMARK VINA RESULT:    -3.533     13.459     15.100
REMARK INTER + INTRA:          -6.280
REMARK INTER:                  -5.947
REMARK INTRA:                  -0.334
REMARK UNBOUND:                -0.889
REMARK SMILES O=C([O-])CCCCCCCCC(=O)[O-]
REMARK SMILES IDX 7 1 6 2 5 3 4 4 2 5 1 6 3 7 8 8 9 9 10 10 11 11 12 12 13 13
REMARK SMILES IDX 14 14
REMARK H PARENT
REMARK Flexibility Score: inf
ROOT
ATOM      1  C   UNL     1     143.079 128.249 115.240  1.00  0.00     0.000 C 
ENDROOT
BRANCH   1   2
ATOM      2  C   UNL     1     142.120 127.262 115.915  1.00  0.00     0.000 C 
BRANCH   2   3
ATOM      3  C   UNL     1     140.971 126.876 114.971  1.00  0.00     0.006 C 
BRANCH   3   4
ATOM      4  C   UNL     1     140.019 128.048 114.703  1.00  0.00     0.053 C 
BRANCH   4   5
ATOM      5  C   UNL     1     138.717 127.586 114.124  1.00  0.00     0.041 C 
ATOM      6  O   UNL     1     138.542 127.588 112.878  1.00  0.00    -0.550 OA
ATOM      7  O   UNL     1     137.685 127.186 114.964  1.00  0.00    -0.550 OA
ENDBRANCH   4   5
ENDBRANCH   3   4
ENDBRANCH   2   3
ENDBRANCH   1   2
BRANCH   1   8
ATOM      8  C   UNL     1     144.341 127.537 114.741  1.00  0.00     0.000 C 
BRANCH   8   9
ATOM      9  C   UNL     1     145.440 128.545 114.387  1.00  0.00     0.000 C 
BRANCH   9  10
ATOM     10  C   UNL     1     145.137 129.925 114.992  1.00  0.00     0.006 C 
BRANCH  10  11
ATOM     11  C   UNL     1     146.331 130.493 115.770  1.00  0.00     0.053 C 
BRANCH  11  12
ATOM     12  C   UNL     1     146.065 131.883 116.259  1.00  0.00     0.041 C 
ATOM     13  O   UNL     1     145.242 132.082 117.190  1.00  0.00    -0.550 OA
ATOM     14  O   UNL     1     146.751 132.957 115.705  1.00  0.00    -0.550 OA
ENDBRANCH  11  12
ENDBRANCH  10  11
ENDBRANCH   9  10
ENDBRANCH   8   9
ENDBRANCH   1   8
TORSDOF 9
ENDMDL
MODEL 8
REMARK VINA RESULT:    -3.528     13.235     14.786
REMARK INTER + INTRA:          -6.274
REMARK INTER:                  -5.830
REMARK INTRA:                  -0.444
REMARK UNBOUND:                -0.889
REMARK SMILES O=C([O-])CCCCCCCCC(=O)[O-]
REMARK SMILES IDX 7 1 6 2 5 3 4 4 2 5 1 6 3 7 8 8 9 9 10 10 11 11 12 12 13 13
REMARK SMILES IDX 14 14
REMARK H PARENT
REMARK Flexibility Score: inf
ROOT
ATOM      1  C   UNL     1     144.401 127.470 114.754  1.00  0.00     0.000 C 
ENDROOT
BRANCH   1   2
ATOM      2  C   UNL     1     145.610 128.395 114.572  1.00  0.00     0.000 C 
BRANCH   2   3
ATOM      3  C   UNL     1     145.236 129.854 114.874  1.00  0.00     0.006 C 
BRANCH   3   4
ATOM      4  C   UNL     1     146.200 130.506 115.873  1.00  0.00     0.053 C 
BRANCH   4   5
ATOM      5  C   UNL     1     145.750 130.312 117.288  1.00  0.00     0.041 C 
ATOM      6  O   UNL     1     145.171 131.246 117.903  1.00  0.00    -0.550 OA
ATOM      7  O   UNL     1     146.001 129.111 117.940  1.00  0.00    -0.550 OA
ENDBRANCH   4   5
ENDBRANCH   3   4
ENDBRANCH   2   3
ENDBRANCH   1   2
BRANCH   1   8
ATOM      8  C   UNL     1     143.298 128.157 115.565  1.00  0.00     0.000 C 
BRANCH   8   9
ATOM      9  C   UNL     1     142.071 127.248 115.709  1.00  0.00     0.000 C 
BRANCH   9  10
ATOM     10  C   UNL     1     140.822 127.909 115.106  1.00  0.00     0.006 C 
BRANCH  10  11
ATOM     11  C   UNL     1     139.896 126.890 114.428  1.00  0.00     0.053 C 
BRANCH  11  12
ATOM     12  C   UNL     1     138.578 127.496 114.059  1.00  0.00     0.041 C 
ATOM     13  O   UNL     1     138.499 128.309 113.101  1.00  0.00    -0.550 OA
ATOM     14  O   UNL     1     137.430 127.140 114.756  1.00  0.00    -0.550 OA
ENDBRANCH  11  12
ENDBRANCH  10  11
ENDBRANCH   9  10
ENDBRANCH   8   9
ENDBRANCH   1   8
TORSDOF 9
ENDMDL
