MODEL 1
REMARK VINA RESULT:    -3.954      0.000      0.000
REMARK INTER + INTRA:          -5.986
REMARK INTER:                  -5.572
REMARK INTRA:                  -0.414
REMARK UNBOUND:                -0.414
REMARK SMILES CCCCCCCCC(=O)[O-]
REMARK SMILES IDX 6 1 7 2 8 3 9 4 10 5 11 6 5 7 4 8 3 9 2 10 1 11
REMARK H PARENT
REMARK Flexibility Score: inf
ROOT
ATOM      1  C   UNL     1       2.324   3.320  28.078  1.00  0.00     0.000 C 
ENDROOT
BRANCH   1   2
ATOM      2  C   UNL     1       3.764   3.772  27.789  1.00  0.00     0.006 C 
BRANCH   2   3
ATOM      3  C   UNL     1       3.831   5.182  27.191  1.00  0.00     0.053 C 
BRANCH   3   4
ATOM      4  C   UNL     1       3.423   5.159  25.752  1.00  0.00     0.041 C 
ATOM      5  O   UNL     1       4.205   4.698  24.879  1.00  0.00    -0.550 OA
ATOM      6  O   UNL     1       2.198   5.690  25.367  1.00  0.00    -0.550 OA
ENDBRANCH   3   4
ENDBRANCH   2   3
ENDBRANCH   1   2
BRANCH   1   7
ATOM      7  C   UNL     1       1.597   4.255  29.059  1.00  0.00     0.000 C 
BRANCH   7   8
ATOM      8  C   UNL     1       2.034   4.038  30.516  1.00  0.00    -0.000 C 
BRANCH   8   9
ATOM      9  C   UNL     1       2.422   5.348  31.218  1.00  0.00    -0.000 C 
BRANCH   9  10
ATOM     10  C   UNL     1       1.278   5.855  32.104  1.00  0.00    -0.003 C 
ATOM     11  C   UNL     1       1.497   7.310  32.509  1.00  0.00     0.004 C 
ENDBRANCH   9  10
ENDBRANCH   8   9
ENDBRANCH   7   8
ENDBRANCH   1   7
TORSDOF 7
ENDMDL
MODEL 2
REMARK VINA RESULT:    -3.953      1.549      2.429
REMARK INTER + INTRA:          -5.984
REMARK INTER:                  -5.239
REMARK INTRA:                  -0.745
REMARK UNBOUND:                -0.414
REMARK SMILES CCCCCCCCC(=O)[O-]
REMARK SMILES IDX 6 1 7 2 8 3 9 4 10 5 11 6 5 7 4 8 3 9 2 10 1 11
REMARK H PARENT
REMARK Flexibility Score: inf
ROOT
ATOM      1  C   UNL     1       1.314   4.104  28.745  1.00  0.00     0.000 C 
ENDROOT
BRANCH   1   2
ATOM      2  C   UNL     1       2.075   3.218  27.747  1.00  0.00     0.006 C 
BRANCH   2   3
ATOM      3  C   UNL     1       3.577   3.530  27.707  1.00  0.00     0.053 C 
BRANCH   3   4
ATOM      4  C   UNL     1       3.834   4.754  26.887  1.00  0.00     0.041 C 
ATOM      5  O   UNL     1       3.921   5.881  27.442  1.00  0.00    -0.550 OA
ATOM      6  O   UNL     1       3.930   4.657  25.505  1.00  0.00    -0.550 OA
ENDBRANCH   3   4
ENDBRANCH   2   3
ENDBRANCH   1   2
BRANCH   1   7
ATOM      7  C   UNL     1       1.869   3.994  30.176  1.00  0.00     0.000 C 
BRANCH   7   8
ATOM      8  C   UNL     1       1.931   5.353  30.892  1.00  0.00    -0.000 C 
BRANCH   8   9
ATOM      9  C   UNL     1       3.346   5.951  30.903  1.00  0.00    -0.000 C 
BRANCH   9  10
ATOM     10  C   UNL     1       4.408   4.846  30.909  1.00  0.00    -0.003 C 
ATOM     11  C   UNL     1       5.772   5.390  30.492  1.00  0.00     0.004 C 
ENDBRANCH   9  10
ENDBRANCH   8   9
ENDBRANCH   7   8
ENDBRANCH   1   7
TORSDOF 7
ENDMDL
MODEL 3
REMARK VINA RESULT:    -3.924      8.937     10.809
REMARK INTER + INTRA:          -5.943
REMARK INTER:                  -5.336
REMARK INTRA:                  -0.607
REMARK UNBOUND:                -0.414
REMARK SMILES CCCCCCCCC(=O)[O-]
REMARK SMILES IDX 6 1 7 2 8 3 9 4 10 5 11 6 5 7 4 8 3 9 2 10 1 11
REMARK H PARENT
REMARK Flexibility Score: inf
ROOT
ATOM      1  C   UNL     1      -5.701   4.252  20.545  1.00  0.00     0.000 C 
ENDROOT
BRANCH   1   2
ATOM      2  C   UNL     1      -5.798   3.773  22.002  1.00  0.00     0.006 C 
BRANCH   2   3
ATOM      3  C   UNL     1      -4.447   3.308  22.561  1.00  0.00     0.053 C 
BRANCH   3   4
ATOM      4  C   UNL     1      -4.633   2.645  23.889  1.00  0.00     0.041 C 
ATOM      5  O   UNL     1      -3.657   2.095  24.464  1.00  0.00    -0.550 OA
ATOM      6  O   UNL     1      -5.894   2.593  24.470  1.00  0.00    -0.550 OA
ENDBRANCH   3   4
ENDBRANCH   2   3
ENDBRANCH   1   2
BRANCH   1   7
ATOM      7  C   UNL     1      -4.386   3.826  19.870  1.00  0.00     0.000 C 
BRANCH   7   8
ATOM      8  C   UNL     1      -3.648   5.005  19.217  1.00  0.00    -0.000 C 
BRANCH   8   9
ATOM      9  C   UNL     1      -3.714   6.286  20.063  1.00  0.00    -0.000 C 
BRANCH   9  10
ATOM     10  C   UNL     1      -2.314   6.717  20.515  1.00  0.00    -0.003 C 
ATOM     11  C   UNL     1      -1.739   5.740  21.537  1.00  0.00     0.004 C 
ENDBRANCH   9  10
ENDBRANCH   8   9
ENDBRANCH   7   8
ENDBRANCH   1   7
TORSDOF 7
ENDMDL
MODEL 4
REMARK VINA RESULT:    -3.901      1.439      2.064
REMARK INTER + INTRA:          -5.912
REMARK INTER:                  -5.429
REMARK INTRA:                  -0.483
REMARK UNBOUND:                -0.414
REMARK SMILES CCCCCCCCC(=O)[O-]
REMARK SMILES IDX 6 1 7 2 8 3 9 4 10 5 11 6 5 7 4 8 3 9 2 10 1 11
REMARK H PARENT
REMARK Flexibility Score: inf
ROOT
ATOM      1  C   UNL     1       3.960   4.875  30.522  1.00  0.00     0.000 C 
ENDROOT
BRANCH   1   2
ATOM      2  C   UNL     1       4.162   5.094  29.015  1.00  0.00     0.006 C 
BRANCH   2   3
ATOM      3  C   UNL     1       4.356   3.779  28.249  1.00  0.00     0.053 C 
BRANCH   3   4
ATOM      4  C   UNL     1       3.511   3.764  27.015  1.00  0.00     0.041 C 
ATOM      5  O   UNL     1       2.414   3.146  27.006  1.00  0.00    -0.550 OA
ATOM      6  O   UNL     1       3.957   4.391  25.858  1.00  0.00    -0.550 OA
ENDBRANCH   3   4
ENDBRANCH   2   3
ENDBRANCH   1   2
BRANCH   1   7
ATOM      7  C   UNL     1       2.530   4.426  30.868  1.00  0.00     0.000 C 
BRANCH   7   8
ATOM      8  C   UNL     1       1.467   5.126  30.008  1.00  0.00    -0.000 C 
BRANCH   8   9
ATOM      9  C   UNL     1       0.636   6.144  30.806  1.00  0.00    -0.000 C 
BRANCH   9  10
ATOM     10  C   UNL     1       1.161   6.274  32.240  1.00  0.00    -0.003 C 
ATOM     11  C   UNL     1       1.584   7.709  32.545  1.00  0.00     0.004 C 
ENDBRANCH   9  10
ENDBRANCH   8   9
ENDBRANCH   7   8
ENDBRANCH   1   7
TORSDOF 7
ENDMDL
MODEL 5
REMARK VINA RESULT:    -3.883      1.998      2.819
REMARK INTER + INTRA:          -5.887
REMARK INTER:                  -5.307
REMARK INTRA:                  -0.580
REMARK UNBOUND:                -0.414
REMARK SMILES CCCCCCCCC(=O)[O-]
REMARK SMILES IDX 6 1 7 2 8 3 9 4 10 5 11 6 5 7 4 8 3 9 2 10 1 11
REMARK H PARENT
REMARK Flexibility Score: inf
ROOT
ATOM      1  C   UNL     1       3.679   5.177  30.904  1.00  0.00     0.000 C 
ENDROOT
BRANCH   1   2
ATOM      2  C   UNL     1       4.294   4.566  29.635  1.00  0.00     0.006 C 
BRANCH   2   3
ATOM      3  C   UNL     1       3.555   4.988  28.359  1.00  0.00     0.053 C 
BRANCH   3   4
ATOM      4  C   UNL     1       3.134   3.785  27.577  1.00  0.00     0.041 C 
ATOM      5  O   UNL     1       3.838   3.376  26.616  1.00  0.00    -0.550 OA
ATOM      6  O   UNL     1       1.940   3.142  27.878  1.00  0.00    -0.550 OA
ENDBRANCH   3   4
ENDBRANCH   2   3
ENDBRANCH   1   2
BRANCH   1   7
ATOM      7  C   UNL     1       2.213   4.756  31.111  1.00  0.00     0.000 C 
BRANCH   7   8
ATOM      8  C   UNL     1       1.384   5.836  31.822  1.00  0.00    -0.000 C 
BRANCH   8   9
ATOM      9  C   UNL     1       0.312   6.454  30.911  1.00  0.00    -0.000 C 
BRANCH   9  10
ATOM     10  C   UNL     1       0.121   5.614  29.643  1.00  0.00    -0.003 C 
ATOM     11  C   UNL     1      -1.303   5.739  29.107  1.00  0.00     0.004 C 
ENDBRANCH   9  10
ENDBRANCH   8   9
ENDBRANCH   7   8
ENDBRANCH   1   7
TORSDOF 7
ENDMDL
MODEL 6
REMARK VINA RESULT:    -3.865      3.030      5.550
REMARK INTER + INTRA:          -5.861
REMARK INTER:                  -5.439
REMARK INTRA:                  -0.422
REMARK UNBOUND:                -0.414
REMARK SMILES CCCCCCCCC(=O)[O-]
REMARK SMILES IDX 6 1 7 2 8 3 9 4 10 5 11 6 5 7 4 8 3 9 2 10 1 11
REMARK H PARENT
REMARK Flexibility Score: inf
ROOT
ATOM      1  C   UNL     1       3.738   4.854  30.808  1.00  0.00     0.000 C 
ENDROOT
BRANCH   1   2
ATOM      2  C   UNL     1       2.221   4.616  30.765  1.00  0.00     0.006 C 
BRANCH   2   3
ATOM      3  C   UNL     1       1.486   5.278  31.938  1.00  0.00     0.053 C 
BRANCH   3   4
ATOM      4  C   UNL     1       1.360   6.751  31.710  1.00  0.00     0.041 C 
ATOM      5  O   UNL     1       1.129   7.196  30.555  1.00  0.00    -0.550 OA
ATOM      6  O   UNL     1       1.546   7.637  32.764  1.00  0.00    -0.550 OA
ENDBRANCH   3   4
ENDBRANCH   2   3
ENDBRANCH   1   2
BRANCH   1   7
ATOM      7  C   UNL     1       4.329   5.153  29.420  1.00  0.00     0.000 C 
BRANCH   7   8
ATOM      8  C   UNL     1       4.759   3.881  28.674  1.00  0.00    -0.000 C 
BRANCH   8   9
ATOM      9  C   UNL     1       3.889   3.597  27.439  1.00  0.00    -0.000 C 
BRANCH   9  10
ATOM     10  C   UNL     1       3.504   4.900  26.729  1.00  0.00    -0.003 C 
ATOM     11  C   UNL     1       3.905   4.865  25.257  1.00  0.00     0.004 C 
ENDBRANCH   9  10
ENDBRANCH   8   9
ENDBRANCH   7   8
ENDBRANCH   1   7
TORSDOF 7
ENDMDL
MODEL 7
REMARK VINA RESULT:    -3.847      2.680      5.032
REMARK INTER + INTRA:          -5.835
REMARK INTER:                  -5.201
REMARK INTRA:                  -0.634
REMARK UNBOUND:                -0.414
REMARK SMILES CCCCCCCCC(=O)[O-]
REMARK SMILES IDX 6 1 7 2 8 3 9 4 10 5 11 6 5 7 4 8 3 9 2 10 1 11
REMARK H PARENT
REMARK Flexibility Score: inf
ROOT
ATOM      1  C   UNL     1       1.769   4.401  28.919  1.00  0.00     0.000 C 
ENDROOT
BRANCH   1   2
ATOM      2  C   UNL     1       1.854   4.018  30.405  1.00  0.00     0.006 C 
BRANCH   2   3
ATOM      3  C   UNL     1       2.277   5.195  31.294  1.00  0.00     0.053 C 
BRANCH   3   4
ATOM      4  C   UNL     1       3.648   5.664  30.923  1.00  0.00     0.041 C 
ATOM      5  O   UNL     1       4.619   4.862  30.947  1.00  0.00    -0.550 OA
ATOM      6  O   UNL     1       3.863   6.997  30.598  1.00  0.00    -0.550 OA
ENDBRANCH   3   4
ENDBRANCH   2   3
ENDBRANCH   1   2
BRANCH   1   7
ATOM      7  C   UNL     1       2.490   3.394  28.008  1.00  0.00     0.000 C 
BRANCH   7   8
ATOM      8  C   UNL     1       3.798   3.954  27.426  1.00  0.00    -0.000 C 
BRANCH   8   9
ATOM      9  C   UNL     1       3.780   5.486  27.302  1.00  0.00    -0.000 C 
BRANCH   9  10
ATOM     10  C   UNL     1       4.099   5.923  25.867  1.00  0.00    -0.003 C 
ATOM     11  C   UNL     1       4.143   4.724  24.923  1.00  0.00     0.004 C 
ENDBRANCH   9  10
ENDBRANCH   8   9
ENDBRANCH   7   8
ENDBRANCH   1   7
TORSDOF 7
ENDMDL
MODEL 8
REMARK VINA RESULT:    -3.831      2.998      4.840
REMARK INTER + INTRA:          -5.812
REMARK INTER:                  -5.271
REMARK INTRA:                  -0.542
REMARK UNBOUND:                -0.414
REMARK SMILES CCCCCCCCC(=O)[O-]
REMARK SMILES IDX 6 1 7 2 8 3 9 4 10 5 11 6 5 7 4 8 3 9 2 10 1 11
REMARK H PARENT
REMARK Flexibility Score: inf
ROOT
ATOM      1  C   UNL     1       2.513   3.541  28.220  1.00  0.00     0.000 C 
ENDROOT
BRANCH   1   2
ATOM      2  C   UNL     1       1.589   4.175  29.272  1.00  0.00     0.006 C 
BRANCH   2   3
ATOM      3  C   UNL     1       2.177   4.112  30.687  1.00  0.00     0.053 C 
BRANCH   3   4
ATOM      4  C   UNL     1       2.118   5.458  31.337  1.00  0.00     0.041 C 
ATOM      5  O   UNL     1       2.900   6.374  30.971  1.00  0.00    -0.550 OA
ATOM      6  O   UNL     1       1.231   5.687  32.382  1.00  0.00    -0.550 OA
ENDBRANCH   3   4
ENDBRANCH   2   3
ENDBRANCH   1   2
BRANCH   1   7
ATOM      7  C   UNL     1       3.762   4.393  27.939  1.00  0.00     0.000 C 
BRANCH   7   8
ATOM      8  C   UNL     1       3.863   4.825  26.467  1.00  0.00    -0.000 C 
BRANCH   8   9
ATOM      9  C   UNL     1       3.920   6.352  26.302  1.00  0.00    -0.000 C 
BRANCH   9  10
ATOM     10  C   UNL     1       3.485   7.059  27.591  1.00  0.00    -0.003 C 
ATOM     11  C   UNL     1       4.597   7.956  28.130  1.00  0.00     0.004 C 
ENDBRANCH   9  10
ENDBRANCH   8   9
ENDBRANCH   7   8
ENDBRANCH   1   7
TORSDOF 7
ENDMDL
MODEL 9
REMARK VINA RESULT:    -3.768      1.946      2.978
REMARK INTER + INTRA:          -5.724
REMARK INTER:                  -4.905
REMARK INTRA:                  -0.819
REMARK UNBOUND:                -0.414
REMARK SMILES CCCCCCCCC(=O)[O-]
REMARK SMILES IDX 6 1 7 2 8 3 9 4 10 5 11 6 5 7 4 8 3 9 2 10 1 11
REMARK H PARENT
REMARK Flexibility Score: inf
ROOT
ATOM      1  C   UNL     1       4.020   7.265  29.528  1.00  0.00     0.000 C 
ENDROOT
BRANCH   1   2
ATOM      2  C   UNL     1       4.295   7.551  28.044  1.00  0.00     0.006 C 
BRANCH   2   3
ATOM      3  C   UNL     1       3.308   6.834  27.113  1.00  0.00     0.053 C 
BRANCH   3   4
ATOM      4  C   UNL     1       3.993   5.723  26.384  1.00  0.00     0.041 C 
ATOM      5  O   UNL     1       3.922   4.543  26.818  1.00  0.00    -0.550 OA
ATOM      6  O   UNL     1       4.749   5.995  25.251  1.00  0.00    -0.550 OA
ENDBRANCH   3   4
ENDBRANCH   2   3
ENDBRANCH   1   2
BRANCH   1   7
ATOM      7  C   UNL     1       5.035   6.284  30.139  1.00  0.00     0.000 C 
BRANCH   7   8
ATOM      8  C   UNL     1       4.464   4.867  30.302  1.00  0.00    -0.000 C 
BRANCH   8   9
ATOM      9  C   UNL     1       3.052   4.865  30.909  1.00  0.00    -0.000 C 
BRANCH   9  10
ATOM     10  C   UNL     1       2.085   4.048  30.044  1.00  0.00    -0.003 C 
ATOM     11  C   UNL     1       0.992   4.933  29.453  1.00  0.00     0.004 C 
ENDBRANCH   9  10
ENDBRANCH   8   9
ENDBRANCH   7   8
ENDBRANCH   1   7
TORSDOF 7
ENDMDL
