MODEL 1
REMARK VINA RESULT:    -2.000      0.000      0.000
REMARK INTER + INTRA:          -2.798
REMARK INTER:                  -2.702
REMARK INTRA:                  -0.096
REMARK UNBOUND:                -0.096
REMARK SMILES CCCCCCCC(=O)[O-]
REMARK SMILES IDX 5 1 6 2 7 3 8 4 9 5 10 6 4 7 3 8 2 9 1 10
REMARK H PARENT
REMARK Flexibility Score: inf
ROOT
ATOM      1  C   UNL     1      91.628  18.132 120.221  1.00  0.00     0.000 C 
ENDROOT
BRANCH   1   2
ATOM      2  C   UNL     1      92.776  17.222 120.695  1.00  0.00     0.006 C 
BRANCH   2   3
ATOM      3  C   UNL     1      93.313  16.332 119.568  1.00  0.00     0.053 C 
BRANCH   3   4
ATOM      4  C   UNL     1      94.465  15.491 120.025  1.00  0.00     0.041 C 
ATOM      5  O   UNL     1      94.446  14.243 119.852  1.00  0.00    -0.550 OA
ATOM      6  O   UNL     1      95.574  16.088 120.610  1.00  0.00    -0.550 OA
ENDBRANCH   3   4
ENDBRANCH   2   3
ENDBRANCH   1   2
BRANCH   1   7
ATOM      7  C   UNL     1      90.389  18.045 121.125  1.00  0.00     0.000 C 
BRANCH   7   8
ATOM      8  C   UNL     1      89.073  18.102 120.329  1.00  0.00    -0.000 C 
BRANCH   8   9
ATOM      9  C   UNL     1      87.935  18.763 121.123  1.00  0.00    -0.003 C 
ATOM     10  C   UNL     1      86.582  18.089 120.893  1.00  0.00     0.004 C 
ENDBRANCH   8   9
ENDBRANCH   7   8
ENDBRANCH   1   7
TORSDOF 6
ENDMDL
MODEL 2
REMARK VINA RESULT:    -1.567      3.062      6.169
REMARK INTER + INTRA:          -2.212
REMARK INTER:                  -2.073
REMARK INTRA:                  -0.139
REMARK UNBOUND:                -0.096
REMARK SMILES CCCCCCCC(=O)[O-]
REMARK SMILES IDX 5 1 6 2 7 3 8 4 9 5 10 6 4 7 3 8 2 9 1 10
REMARK H PARENT
REMARK Flexibility Score: inf
ROOT
ATOM      1  C   UNL     1      93.849  16.004 119.635  1.00  0.00     0.000 C 
ENDROOT
BRANCH   1   2
ATOM      2  C   UNL     1      92.796  16.040 120.757  1.00  0.00     0.006 C 
BRANCH   2   3
ATOM      3  C   UNL     1      92.389  17.474 121.123  1.00  0.00     0.053 C 
BRANCH   3   4
ATOM      4  C   UNL     1      91.384  18.028 120.161  1.00  0.00     0.041 C 
ATOM      5  O   UNL     1      91.750  18.425 119.023  1.00  0.00    -0.550 OA
ATOM      6  O   UNL     1      90.040  18.075 120.507  1.00  0.00    -0.550 OA
ENDBRANCH   3   4
ENDBRANCH   2   3
ENDBRANCH   1   2
BRANCH   1   7
ATOM      7  C   UNL     1      95.231  15.554 120.131  1.00  0.00     0.000 C 
BRANCH   7   8
ATOM      8  C   UNL     1      95.855  16.550 121.125  1.00  0.00    -0.000 C 
BRANCH   8   9
ATOM      9  C   UNL     1      97.273  16.976 120.718  1.00  0.00    -0.003 C 
ATOM     10  C   UNL     1      97.340  17.541 119.299  1.00  0.00     0.004 C 
ENDBRANCH   8   9
ENDBRANCH   7   8
ENDBRANCH   1   7
TORSDOF 6
ENDMDL
MODEL 3
REMARK VINA RESULT:    -1.184      3.240      5.941
REMARK INTER + INTRA:          -1.695
REMARK INTER:                  -1.498
REMARK INTRA:                  -0.197
REMARK UNBOUND:                -0.096
REMARK SMILES CCCCCCCC(=O)[O-]
REMARK SMILES IDX 5 1 6 2 7 3 8 4 9 5 10 6 4 7 3 8 2 9 1 10
REMARK H PARENT
REMARK Flexibility Score: inf
ROOT
ATOM      1  C   UNL     1      94.667  14.716 119.798  1.00  0.00     0.000 C 
ENDROOT
BRANCH   1   2
ATOM      2  C   UNL     1      94.284  16.206 119.816  1.00  0.00     0.006 C 
BRANCH   2   3
ATOM      3  C   UNL     1      93.203  16.514 120.861  1.00  0.00     0.053 C 
BRANCH   3   4
ATOM      4  C   UNL     1      92.154  17.435 120.319  1.00  0.00     0.041 C 
ATOM      5  O   UNL     1      91.526  18.204 121.093  1.00  0.00    -0.550 OA
ATOM      6  O   UNL     1      91.893  17.469 118.955  1.00  0.00    -0.550 OA
ENDBRANCH   3   4
ENDBRANCH   2   3
ENDBRANCH   1   2
BRANCH   1   7
ATOM      7  C   UNL     1      94.357  14.006 121.125  1.00  0.00     0.000 C 
BRANCH   7   8
ATOM      8  C   UNL     1      93.373  12.836 120.953  1.00  0.00    -0.000 C 
BRANCH   8   9
ATOM      9  C   UNL     1      94.050  11.468 121.122  1.00  0.00    -0.003 C 
ATOM     10  C   UNL     1      93.133  10.301 120.754  1.00  0.00     0.004 C 
ENDBRANCH   8   9
ENDBRANCH   7   8
ENDBRANCH   1   7
TORSDOF 6
ENDMDL
MODEL 4
REMARK VINA RESULT:    -1.156      4.237      6.464
REMARK INTER + INTRA:          -1.657
REMARK INTER:                  -1.500
REMARK INTRA:                  -0.157
REMARK UNBOUND:                -0.096
REMARK SMILES CCCCCCCC(=O)[O-]
REMARK SMILES IDX 5 1 6 2 7 3 8 4 9 5 10 6 4 7 3 8 2 9 1 10
REMARK H PARENT
REMARK Flexibility Score: inf
ROOT
ATOM      1  C   UNL     1      90.824  17.870 120.197  1.00  0.00     0.000 C 
ENDROOT
BRANCH   1   2
ATOM      2  C   UNL     1      89.526  18.171 120.967  1.00  0.00     0.006 C 
BRANCH   2   3
ATOM      3  C   UNL     1      88.366  18.530 120.028  1.00  0.00     0.053 C 
BRANCH   3   4
ATOM      4  C   UNL     1      87.115  18.847 120.788  1.00  0.00     0.041 C 
ATOM      5  O   UNL     1      86.863  20.035 121.124  1.00  0.00    -0.550 OA
ATOM      6  O   UNL     1      86.210  17.838 121.094  1.00  0.00    -0.550 OA
ENDBRANCH   3   4
ENDBRANCH   2   3
ENDBRANCH   1   2
BRANCH   1   7
ATOM      7  C   UNL     1      92.065  17.867 121.104  1.00  0.00     0.000 C 
BRANCH   7   8
ATOM      8  C   UNL     1      93.006  16.685 120.813  1.00  0.00    -0.000 C 
BRANCH   8   9
ATOM      9  C   UNL     1      93.105  16.368 119.314  1.00  0.00    -0.003 C 
ATOM     10  C   UNL     1      94.317  15.502 118.969  1.00  0.00     0.004 C 
ENDBRANCH   8   9
ENDBRANCH   7   8
ENDBRANCH   1   7
TORSDOF 6
ENDMDL
MODEL 5
REMARK VINA RESULT:    -0.819      2.500      3.705
REMARK INTER + INTRA:          -1.201
REMARK INTER:                  -1.103
REMARK INTRA:                  -0.099
REMARK UNBOUND:                -0.096
REMARK SMILES CCCCCCCC(=O)[O-]
REMARK SMILES IDX 5 1 6 2 7 3 8 4 9 5 10 6 4 7 3 8 2 9 1 10
REMARK H PARENT
REMARK Flexibility Score: inf
ROOT
ATOM      1  C   UNL     1      93.924  14.860 121.125  1.00  0.00     0.000 C 
ENDROOT
BRANCH   1   2
ATOM      2  C   UNL     1      95.218  15.209 120.367  1.00  0.00     0.006 C 
BRANCH   2   3
ATOM      3  C   UNL     1      95.885  16.478 120.913  1.00  0.00     0.053 C 
BRANCH   3   4
ATOM      4  C   UNL     1      96.908  17.020 119.963  1.00  0.00     0.041 C 
ATOM      5  O   UNL     1      98.118  17.085 120.306  1.00  0.00    -0.550 OA
ATOM      6  O   UNL     1      96.532  17.420 118.687  1.00  0.00    -0.550 OA
ENDBRANCH   3   4
ENDBRANCH   2   3
ENDBRANCH   1   2
BRANCH   1   7
ATOM      7  C   UNL     1      92.883  15.989 121.072  1.00  0.00     0.000 C 
BRANCH   7   8
ATOM      8  C   UNL     1      92.815  16.666 119.692  1.00  0.00    -0.000 C 
BRANCH   8   9
ATOM      9  C   UNL     1      91.693  17.712 119.605  1.00  0.00    -0.003 C 
ATOM     10  C   UNL     1      91.164  18.130 120.977  1.00  0.00     0.004 C 
ENDBRANCH   8   9
ENDBRANCH   7   8
ENDBRANCH   1   7
TORSDOF 6
ENDMDL
MODEL 6
REMARK VINA RESULT:    -0.358     13.933     15.291
REMARK INTER + INTRA:          -0.580
REMARK INTER:                  -0.399
REMARK INTRA:                  -0.181
REMARK UNBOUND:                -0.096
REMARK SMILES CCCCCCCC(=O)[O-]
REMARK SMILES IDX 5 1 6 2 7 3 8 4 9 5 10 6 4 7 3 8 2 9 1 10
REMARK H PARENT
REMARK Flexibility Score: inf
ROOT
ATOM      1  C   UNL     1      88.804   7.842 109.881  1.00  0.00     0.000 C 
ENDROOT
BRANCH   1   2
ATOM      2  C   UNL     1      87.459   7.462 110.525  1.00  0.00     0.006 C 
BRANCH   2   3
ATOM      3  C   UNL     1      87.631   6.928 111.953  1.00  0.00     0.053 C 
BRANCH   3   4
ATOM      4  C   UNL     1      86.557   7.432 112.868  1.00  0.00     0.041 C 
ATOM      5  O   UNL     1      85.416   6.899 112.858  1.00  0.00    -0.550 OA
ATOM      6  O   UNL     1      86.826   8.466 113.755  1.00  0.00    -0.550 OA
ENDBRANCH   3   4
ENDBRANCH   2   3
ENDBRANCH   1   2
BRANCH   1   7
ATOM      7  C   UNL     1      89.220   6.875 108.762  1.00  0.00     0.000 C 
BRANCH   7   8
ATOM      8  C   UNL     1      90.707   7.008 108.389  1.00  0.00    -0.000 C 
BRANCH   8   9
ATOM      9  C   UNL     1      91.022   8.339 107.690  1.00  0.00    -0.003 C 
ATOM     10  C   UNL     1      90.411   8.434 106.292  1.00  0.00     0.004 C 
ENDBRANCH   8   9
ENDBRANCH   7   8
ENDBRANCH   1   7
TORSDOF 6
ENDMDL
