MODEL 1
REMARK VINA RESULT:    -5.039      0.000      0.000
REMARK INTER + INTRA:          -6.234
REMARK INTER:                  -5.922
REMARK INTRA:                  -0.312
REMARK UNBOUND:                -0.312
REMARK SMILES COc1cc2ccc(=O)oc2c(OC)c1OC
REMARK SMILES IDX 3 1 15 2 12 3 11 4 5 5 4 6 6 7 7 8 8 9 9 10 10 11 2 12 1 13
REMARK SMILES IDX 16 14 17 15 13 16 14 17
REMARK H PARENT
REMARK Flexibility Score: inf
ROOT
ATOM      1  C   UNL     1       5.393   7.026   1.153  1.00  0.00     0.165 A 
ATOM      2  C   UNL     1       5.480   6.098   2.205  1.00  0.00     0.207 A 
ATOM      3  C   UNL     1       4.666   4.931   2.195  1.00  0.00     0.208 A 
ATOM      4  C   UNL     1       3.772   4.724   1.113  1.00  0.00     0.184 A 
ATOM      5  C   UNL     1       3.700   5.669   0.067  1.00  0.00     0.025 A 
ATOM      6  C   UNL     1       4.505   6.808   0.090  1.00  0.00     0.062 A 
ATOM      7  C   UNL     1       2.811   5.443  -0.990  1.00  0.00     0.020 A 
ATOM      8  C   UNL     1       2.019   4.297  -0.988  1.00  0.00     0.094 A 
ATOM      9  C   UNL     1       2.137   3.403   0.075  1.00  0.00     0.336 A 
ATOM     10  O   UNL     1       1.434   2.359   0.101  1.00  0.00    -0.246 OA
ATOM     11  O   UNL     1       2.991   3.644   1.066  1.00  0.00    -0.419 OA
ENDROOT
BRANCH   1  12
ATOM     12  O   UNL     1       6.217   8.163   1.206  1.00  0.00    -0.493 OA
ATOM     13  C   UNL     1       7.390   8.353   0.420  1.00  0.00     0.278 C 
ENDBRANCH   1  12
BRANCH   2  14
ATOM     14  O   UNL     1       6.400   6.402   3.227  1.00  0.00    -0.490 OA
ATOM     15  C   UNL     1       7.741   5.938   3.340  1.00  0.00     0.278 C 
ENDBRANCH   2  14
BRANCH   3  16
ATOM     16  O   UNL     1       4.778   4.022   3.265  1.00  0.00    -0.490 OA
ATOM     17  C   UNL     1       5.605   2.865   3.326  1.00  0.00     0.278 C 
ENDBRANCH   3  16
TORSDOF 3
ENDMDL
MODEL 2
REMARK VINA RESULT:    -4.741      1.347      1.455
REMARK INTER + INTRA:          -5.884
REMARK INTER:                  -5.584
REMARK INTRA:                  -0.300
REMARK UNBOUND:                -0.312
REMARK SMILES COc1cc2ccc(=O)oc2c(OC)c1OC
REMARK SMILES IDX 3 1 15 2 12 3 11 4 5 5 4 6 6 7 7 8 8 9 9 10 10 11 2 12 1 13
REMARK SMILES IDX 16 14 17 15 13 16 14 17
REMARK H PARENT
REMARK Flexibility Score: inf
ROOT
ATOM      1  C   UNL     1       6.032   7.616   2.036  1.00  0.00     0.165 A 
ATOM      2  C   UNL     1       6.023   6.632   3.040  1.00  0.00     0.207 A 
ATOM      3  C   UNL     1       5.222   5.466   2.889  1.00  0.00     0.208 A 
ATOM      4  C   UNL     1       4.441   5.314   1.714  1.00  0.00     0.184 A 
ATOM      5  C   UNL     1       4.464   6.315   0.718  1.00  0.00     0.025 A 
ATOM      6  C   UNL     1       5.254   7.453   0.881  1.00  0.00     0.062 A 
ATOM      7  C   UNL     1       3.685   6.143  -0.431  1.00  0.00     0.020 A 
ATOM      8  C   UNL     1       2.906   4.997  -0.568  1.00  0.00     0.094 A 
ATOM      9  C   UNL     1       2.926   4.047   0.452  1.00  0.00     0.336 A 
ATOM     10  O   UNL     1       2.232   3.002   0.353  1.00  0.00    -0.246 OA
ATOM     11  O   UNL     1       3.677   4.236   1.533  1.00  0.00    -0.419 OA
ENDROOT
BRANCH   1  12
ATOM     12  O   UNL     1       6.838   8.751   2.231  1.00  0.00    -0.493 OA
ATOM     13  C   UNL     1       6.345  10.054   2.528  1.00  0.00     0.278 C 
ENDBRANCH   1  12
BRANCH   2  14
ATOM     14  O   UNL     1       6.836   6.884   4.163  1.00  0.00    -0.490 OA
ATOM     15  C   UNL     1       6.423   7.405   5.421  1.00  0.00     0.278 C 
ENDBRANCH   2  14
BRANCH   3  16
ATOM     16  O   UNL     1       5.237   4.500   3.914  1.00  0.00    -0.490 OA
ATOM     17  C   UNL     1       6.093   3.368   4.016  1.00  0.00     0.278 C 
ENDBRANCH   3  16
TORSDOF 3
ENDMDL
MODEL 3
REMARK VINA RESULT:    -4.667      1.627      5.058
REMARK INTER + INTRA:          -5.797
REMARK INTER:                  -5.535
REMARK INTRA:                  -0.262
REMARK UNBOUND:                -0.312
REMARK SMILES COc1cc2ccc(=O)oc2c(OC)c1OC
REMARK SMILES IDX 3 1 15 2 12 3 11 4 5 5 4 6 6 7 7 8 8 9 9 10 10 11 2 12 1 13
REMARK SMILES IDX 16 14 17 15 13 16 14 17
REMARK H PARENT
REMARK Flexibility Score: inf
ROOT
ATOM      1  C   UNL     1       2.370   3.156  -0.237  1.00  0.00     0.165 A 
ATOM      2  C   UNL     1       3.199   2.464   0.662  1.00  0.00     0.207 A 
ATOM      3  C   UNL     1       4.315   3.120   1.253  1.00  0.00     0.208 A 
ATOM      4  C   UNL     1       4.572   4.475   0.921  1.00  0.00     0.184 A 
ATOM      5  C   UNL     1       3.727   5.152   0.016  1.00  0.00     0.025 A 
ATOM      6  C   UNL     1       2.636   4.495  -0.555  1.00  0.00     0.062 A 
ATOM      7  C   UNL     1       4.001   6.488  -0.296  1.00  0.00     0.020 A 
ATOM      8  C   UNL     1       5.095   7.119   0.289  1.00  0.00     0.094 A 
ATOM      9  C   UNL     1       5.892   6.395   1.175  1.00  0.00     0.336 A 
ATOM     10  O   UNL     1       6.887   6.942   1.718  1.00  0.00    -0.246 OA
ATOM     11  O   UNL     1       5.607   5.126   1.453  1.00  0.00    -0.419 OA
ENDROOT
BRANCH   1  12
ATOM     12  O   UNL     1       1.280   2.466  -0.795  1.00  0.00    -0.493 OA
ATOM     13  C   UNL     1      -0.073   2.606  -0.371  1.00  0.00     0.278 C 
ENDBRANCH   1  12
BRANCH   2  14
ATOM     14  O   UNL     1       2.852   1.123   0.920  1.00  0.00    -0.490 OA
ATOM     15  C   UNL     1       3.388  -0.037   0.294  1.00  0.00     0.278 C 
ENDBRANCH   2  14
BRANCH   3  16
ATOM     16  O   UNL     1       5.125   2.396   2.150  1.00  0.00    -0.490 OA
ATOM     17  C   UNL     1       4.999   2.337   3.566  1.00  0.00     0.278 C 
ENDBRANCH   3  16
TORSDOF 3
ENDMDL
MODEL 4
REMARK VINA RESULT:    -4.537     11.775     13.279
REMARK INTER + INTRA:          -5.645
REMARK INTER:                  -5.391
REMARK INTRA:                  -0.254
REMARK UNBOUND:                -0.312
REMARK SMILES COc1cc2ccc(=O)oc2c(OC)c1OC
REMARK SMILES IDX 3 1 15 2 12 3 11 4 5 5 4 6 6 7 7 8 8 9 9 10 10 11 2 12 1 13
REMARK SMILES IDX 16 14 17 15 13 16 14 17
REMARK H PARENT
REMARK Flexibility Score: inf
ROOT
ATOM      1  C   UNL     1      -4.220   6.505  11.877  1.00  0.00     0.165 A 
ATOM      2  C   UNL     1      -4.334   5.791  10.672  1.00  0.00     0.207 A 
ATOM      3  C   UNL     1      -3.237   5.022  10.192  1.00  0.00     0.208 A 
ATOM      4  C   UNL     1      -2.036   4.989  10.948  1.00  0.00     0.184 A 
ATOM      5  C   UNL     1      -1.943   5.714  12.155  1.00  0.00     0.025 A 
ATOM      6  C   UNL     1      -3.027   6.463  12.613  1.00  0.00     0.062 A 
ATOM      7  C   UNL     1      -0.748   5.667  12.883  1.00  0.00     0.020 A 
ATOM      8  C   UNL     1       0.318   4.911  12.403  1.00  0.00     0.094 A 
ATOM      9  C   UNL     1       0.163   4.218  11.203  1.00  0.00     0.336 A 
ATOM     10  O   UNL     1       1.111   3.527  10.748  1.00  0.00    -0.246 OA
ATOM     11  O   UNL     1      -0.985   4.281  10.534  1.00  0.00    -0.419 OA
ENDROOT
BRANCH   1  12
ATOM     12  O   UNL     1      -5.331   7.250  12.310  1.00  0.00    -0.493 OA
ATOM     13  C   UNL     1      -5.862   7.220  13.631  1.00  0.00     0.278 C 
ENDBRANCH   1  12
BRANCH   2  14
ATOM     14  O   UNL     1      -5.570   5.893  10.004  1.00  0.00    -0.490 OA
ATOM     15  C   UNL     1      -5.909   6.801   8.962  1.00  0.00     0.278 C 
ENDBRANCH   2  14
BRANCH   3  16
ATOM     16  O   UNL     1      -3.385   4.318   8.982  1.00  0.00    -0.490 OA
ATOM     17  C   UNL     1      -3.870   2.991   8.812  1.00  0.00     0.278 C 
ENDBRANCH   3  16
TORSDOF 3
ENDMDL
MODEL 5
REMARK VINA RESULT:    -4.431      1.546      1.572
REMARK INTER + INTRA:          -5.520
REMARK INTER:                  -5.231
REMARK INTRA:                  -0.289
REMARK UNBOUND:                -0.312
REMARK SMILES COc1cc2ccc(=O)oc2c(OC)c1OC
REMARK SMILES IDX 3 1 15 2 12 3 11 4 5 5 4 6 6 7 7 8 8 9 9 10 10 11 2 12 1 13
REMARK SMILES IDX 16 14 17 15 13 16 14 17
REMARK H PARENT
REMARK Flexibility Score: inf
ROOT
ATOM      1  C   UNL     1       4.599   6.425   2.027  1.00  0.00     0.165 A 
ATOM      2  C   UNL     1       5.091   5.310   2.727  1.00  0.00     0.207 A 
ATOM      3  C   UNL     1       4.981   4.008   2.163  1.00  0.00     0.208 A 
ATOM      4  C   UNL     1       4.371   3.858   0.891  1.00  0.00     0.184 A 
ATOM      5  C   UNL     1       3.883   4.991   0.205  1.00  0.00     0.025 A 
ATOM      6  C   UNL     1       3.998   6.261   0.771  1.00  0.00     0.062 A 
ATOM      7  C   UNL     1       3.284   4.818  -1.048  1.00  0.00     0.020 A 
ATOM      8  C   UNL     1       3.183   3.540  -1.590  1.00  0.00     0.094 A 
ATOM      9  C   UNL     1       3.684   2.461  -0.861  1.00  0.00     0.336 A 
ATOM     10  O   UNL     1       3.606   1.295  -1.329  1.00  0.00    -0.246 OA
ATOM     11  O   UNL     1       4.248   2.656   0.327  1.00  0.00    -0.419 OA
ENDROOT
BRANCH   1  12
ATOM     12  O   UNL     1       4.730   7.690   2.625  1.00  0.00    -0.493 OA
ATOM     13  C   UNL     1       5.468   8.776   2.072  1.00  0.00     0.278 C 
ENDBRANCH   1  12
BRANCH   2  14
ATOM     14  O   UNL     1       5.678   5.573   3.980  1.00  0.00    -0.490 OA
ATOM     15  C   UNL     1       7.066   5.693   4.268  1.00  0.00     0.278 C 
ENDBRANCH   2  14
BRANCH   3  16
ATOM     16  O   UNL     1       5.485   2.913   2.891  1.00  0.00    -0.490 OA
ATOM     17  C   UNL     1       4.805   2.157   3.887  1.00  0.00     0.278 C 
ENDBRANCH   3  16
TORSDOF 3
ENDMDL
MODEL 6
REMARK VINA RESULT:    -4.382      5.133      6.615
REMARK INTER + INTRA:          -5.462
REMARK INTER:                  -5.177
REMARK INTRA:                  -0.286
REMARK UNBOUND:                -0.312
REMARK SMILES COc1cc2ccc(=O)oc2c(OC)c1OC
REMARK SMILES IDX 3 1 15 2 12 3 11 4 5 5 4 6 6 7 7 8 8 9 9 10 10 11 2 12 1 13
REMARK SMILES IDX 16 14 17 15 13 16 14 17
REMARK H PARENT
REMARK Flexibility Score: inf
ROOT
ATOM      1  C   UNL     1       5.106  12.360   4.596  1.00  0.00     0.165 A 
ATOM      2  C   UNL     1       4.337  11.427   5.313  1.00  0.00     0.207 A 
ATOM      3  C   UNL     1       4.345  10.055   4.936  1.00  0.00     0.208 A 
ATOM      4  C   UNL     1       5.138   9.649   3.832  1.00  0.00     0.184 A 
ATOM      5  C   UNL     1       5.902  10.603   3.124  1.00  0.00     0.025 A 
ATOM      6  C   UNL     1       5.884  11.944   3.506  1.00  0.00     0.062 A 
ATOM      7  C   UNL     1       6.676  10.178   2.038  1.00  0.00     0.020 A 
ATOM      8  C   UNL     1       6.675   8.833   1.678  1.00  0.00     0.094 A 
ATOM      9  C   UNL     1       5.898   7.942   2.418  1.00  0.00     0.336 A 
ATOM     10  O   UNL     1       5.881   6.720   2.114  1.00  0.00    -0.246 OA
ATOM     11  O   UNL     1       5.173   8.374   3.445  1.00  0.00    -0.419 OA
ENDROOT
BRANCH   1  12
ATOM     12  O   UNL     1       5.066  13.704   5.006  1.00  0.00    -0.493 OA
ATOM     13  C   UNL     1       6.213  14.523   5.214  1.00  0.00     0.278 C 
ENDBRANCH   1  12
BRANCH   2  14
ATOM     14  O   UNL     1       3.589  11.939   6.392  1.00  0.00    -0.490 OA
ATOM     15  C   UNL     1       3.986  12.000   7.757  1.00  0.00     0.278 C 
ENDBRANCH   2  14
BRANCH   3  16
ATOM     16  O   UNL     1       3.564   9.148   5.677  1.00  0.00    -0.490 OA
ATOM     17  C   UNL     1       3.974   8.381   6.804  1.00  0.00     0.278 C 
ENDBRANCH   3  16
TORSDOF 3
ENDMDL
MODEL 7
REMARK VINA RESULT:    -4.339      6.297      7.725
REMARK INTER + INTRA:          -5.412
REMARK INTER:                  -5.158
REMARK INTRA:                  -0.254
REMARK UNBOUND:                -0.312
REMARK SMILES COc1cc2ccc(=O)oc2c(OC)c1OC
REMARK SMILES IDX 3 1 15 2 12 3 11 4 5 5 4 6 6 7 7 8 8 9 9 10 10 11 2 12 1 13
REMARK SMILES IDX 16 14 17 15 13 16 14 17
REMARK H PARENT
REMARK Flexibility Score: inf
ROOT
ATOM      1  C   UNL     1       3.905   9.060   4.855  1.00  0.00     0.165 A 
ATOM      2  C   UNL     1       4.597   8.412   5.893  1.00  0.00     0.207 A 
ATOM      3  C   UNL     1       4.260   8.675   7.249  1.00  0.00     0.208 A 
ATOM      4  C   UNL     1       3.219   9.596   7.534  1.00  0.00     0.184 A 
ATOM      5  C   UNL     1       2.537  10.237   6.477  1.00  0.00     0.025 A 
ATOM      6  C   UNL     1       2.879   9.968   5.152  1.00  0.00     0.062 A 
ATOM      7  C   UNL     1       1.514  11.142   6.782  1.00  0.00     0.020 A 
ATOM      8  C   UNL     1       1.192  11.392   8.114  1.00  0.00     0.094 A 
ATOM      9  C   UNL     1       1.905  10.727   9.111  1.00  0.00     0.336 A 
ATOM     10  O   UNL     1       1.633  10.934  10.323  1.00  0.00    -0.246 OA
ATOM     11  O   UNL     1       2.871   9.871   8.791  1.00  0.00    -0.419 OA
ENDROOT
BRANCH   1  12
ATOM     12  O   UNL     1       4.274   8.768   3.531  1.00  0.00    -0.493 OA
ATOM     13  C   UNL     1       5.173   9.548   2.748  1.00  0.00     0.278 C 
ENDBRANCH   1  12
BRANCH   2  14
ATOM     14  O   UNL     1       5.611   7.516   5.497  1.00  0.00    -0.490 OA
ATOM     15  C   UNL     1       5.510   6.101   5.390  1.00  0.00     0.278 C 
ENDBRANCH   2  14
BRANCH   3  16
ATOM     16  O   UNL     1       4.973   8.007   8.263  1.00  0.00    -0.490 OA
ATOM     17  C   UNL     1       4.554   6.863   8.999  1.00  0.00     0.278 C 
ENDBRANCH   3  16
TORSDOF 3
ENDMDL
MODEL 8
REMARK VINA RESULT:    -4.328      3.695      6.101
REMARK INTER + INTRA:          -5.399
REMARK INTER:                  -5.127
REMARK INTRA:                  -0.272
REMARK UNBOUND:                -0.312
REMARK SMILES COc1cc2ccc(=O)oc2c(OC)c1OC
REMARK SMILES IDX 3 1 15 2 12 3 11 4 5 5 4 6 6 7 7 8 8 9 9 10 10 11 2 12 1 13
REMARK SMILES IDX 16 14 17 15 13 16 14 17
REMARK H PARENT
REMARK Flexibility Score: inf
ROOT
ATOM      1  C   UNL     1       6.331   8.129   1.966  1.00  0.00     0.165 A 
ATOM      2  C   UNL     1       5.750   7.412   3.026  1.00  0.00     0.207 A 
ATOM      3  C   UNL     1       5.222   8.104   4.151  1.00  0.00     0.208 A 
ATOM      4  C   UNL     1       5.292   9.521   4.183  1.00  0.00     0.184 A 
ATOM      5  C   UNL     1       5.880  10.222   3.108  1.00  0.00     0.025 A 
ATOM      6  C   UNL     1       6.393   9.529   2.011  1.00  0.00     0.062 A 
ATOM      7  C   UNL     1       5.937  11.620   3.162  1.00  0.00     0.020 A 
ATOM      8  C   UNL     1       5.417  12.286   4.268  1.00  0.00     0.094 A 
ATOM      9  C   UNL     1       4.850  11.535   5.298  1.00  0.00     0.336 A 
ATOM     10  O   UNL     1       4.372  12.113   6.309  1.00  0.00    -0.246 OA
ATOM     11  O   UNL     1       4.809  10.208   5.218  1.00  0.00    -0.419 OA
ENDROOT
BRANCH   1  12
ATOM     12  O   UNL     1       6.839   7.402   0.876  1.00  0.00    -0.493 OA
ATOM     13  C   UNL     1       8.224   7.229   0.591  1.00  0.00     0.278 C 
ENDBRANCH   1  12
BRANCH   2  14
ATOM     14  O   UNL     1       5.733   6.010   2.890  1.00  0.00    -0.490 OA
ATOM     15  C   UNL     1       4.628   5.200   2.505  1.00  0.00     0.278 C 
ENDBRANCH   2  14
BRANCH   3  16
ATOM     16  O   UNL     1       4.647   7.354   5.195  1.00  0.00    -0.490 OA
ATOM     17  C   UNL     1       5.311   6.813   6.331  1.00  0.00     0.278 C 
ENDBRANCH   3  16
TORSDOF 3
ENDMDL
MODEL 9
REMARK VINA RESULT:    -4.263      3.448      4.287
REMARK INTER + INTRA:          -5.323
REMARK INTER:                  -5.033
REMARK INTRA:                  -0.289
REMARK UNBOUND:                -0.312
REMARK SMILES COc1cc2ccc(=O)oc2c(OC)c1OC
REMARK SMILES IDX 3 1 15 2 12 3 11 4 5 5 4 6 6 7 7 8 8 9 9 10 10 11 2 12 1 13
REMARK SMILES IDX 16 14 17 15 13 16 14 17
REMARK H PARENT
REMARK Flexibility Score: inf
ROOT
ATOM      1  C   UNL     1       5.778  10.007   3.769  1.00  0.00     0.165 A 
ATOM      2  C   UNL     1       5.452   9.239   4.900  1.00  0.00     0.207 A 
ATOM      3  C   UNL     1       5.025   7.891   4.748  1.00  0.00     0.208 A 
ATOM      4  C   UNL     1       4.936   7.340   3.444  1.00  0.00     0.184 A 
ATOM      5  C   UNL     1       5.268   8.128   2.321  1.00  0.00     0.025 A 
ATOM      6  C   UNL     1       5.685   9.449   2.487  1.00  0.00     0.062 A 
ATOM      7  C   UNL     1       5.172   7.563   1.045  1.00  0.00     0.020 A 
ATOM      8  C   UNL     1       4.753   6.242   0.909  1.00  0.00     0.094 A 
ATOM      9  C   UNL     1       4.439   5.516   2.058  1.00  0.00     0.336 A 
ATOM     10  O   UNL     1       4.058   4.320   1.962  1.00  0.00    -0.246 OA
ATOM     11  O   UNL     1       4.540   6.080   3.258  1.00  0.00    -0.419 OA
ENDROOT
BRANCH   1  12
ATOM     12  O   UNL     1       6.195  11.334   3.970  1.00  0.00    -0.493 OA
ATOM     13  C   UNL     1       5.509  12.483   3.480  1.00  0.00     0.278 C 
ENDBRANCH   1  12
BRANCH   2  14
ATOM     14  O   UNL     1       5.577   9.885   6.146  1.00  0.00    -0.490 OA
ATOM     15  C   UNL     1       4.542  10.514   6.893  1.00  0.00     0.278 C 
ENDBRANCH   2  14
BRANCH   3  16
ATOM     16  O   UNL     1       4.706   7.150   5.903  1.00  0.00    -0.490 OA
ATOM     17  C   UNL     1       5.581   6.324   6.663  1.00  0.00     0.278 C 
ENDBRANCH   3  16
TORSDOF 3
ENDMDL
