MODEL 1
REMARK VINA RESULT:    -6.136      0.000      0.000
REMARK INTER + INTRA:          -6.495
REMARK INTER:                  -6.495
REMARK INTRA:                   0.000
REMARK UNBOUND:                 0.000
REMARK SMILES O=c1ccc2cc(O)c(O)cc2o1
REMARK SMILES IDX 4 1 3 2 2 3 1 4 13 5 12 6 11 7 9 8 7 9 6 10 5 11 8 12 10 14
REMARK H PARENT 8 13 10 15
REMARK Flexibility Score: inf
ROOT
ATOM      1  C   UNL     1      11.422  10.877  15.482  1.00  0.00     0.019 A 
ATOM      2  C   UNL     1      12.740  10.949  15.032  1.00  0.00     0.094 A 
ATOM      3  C   UNL     1      13.049  10.459  13.759  1.00  0.00     0.336 A 
ATOM      4  O   UNL     1      14.233  10.514  13.335  1.00  0.00    -0.246 OA
ATOM      5  O   UNL     1      12.098   9.934  12.990  1.00  0.00    -0.423 OA
ATOM      6  C   UNL     1      10.828   9.848  13.380  1.00  0.00     0.142 A 
ATOM      7  C   UNL     1       9.871   9.287  12.528  1.00  0.00     0.098 A 
ATOM      8  C   UNL     1       8.534   9.193  12.932  1.00  0.00     0.161 A 
ATOM      9  C   UNL     1       8.147   9.664  14.200  1.00  0.00     0.158 A 
ATOM     10  C   UNL     1       9.104  10.228  15.058  1.00  0.00     0.062 A 
ATOM     11  C   UNL     1      10.443  10.321  14.653  1.00  0.00     0.022 A 
ENDROOT
BRANCH   9  12
ATOM     12  O   UNL     1       6.816   9.570  14.602  1.00  0.00    -0.504 OA
ATOM     13  H   UNL     1       6.110   9.154  14.005  1.00  0.00     0.293 HD
ENDBRANCH   9  12
BRANCH   8  14
ATOM     14  O   UNL     1       7.604   8.628  12.060  1.00  0.00    -0.504 OA
ATOM     15  H   UNL     1       7.878   8.207  11.180  1.00  0.00     0.293 HD
ENDBRANCH   8  14
TORSDOF 2
ENDMDL
MODEL 2
REMARK VINA RESULT:    -5.912      1.456      4.414
REMARK INTER + INTRA:          -6.257
REMARK INTER:                  -6.257
REMARK INTRA:                   0.000
REMARK UNBOUND:                 0.000
REMARK SMILES O=c1ccc2cc(O)c(O)cc2o1
REMARK SMILES IDX 4 1 3 2 2 3 1 4 13 5 12 6 11 7 9 8 7 9 6 10 5 11 8 12 10 14
REMARK H PARENT 8 13 10 15
REMARK Flexibility Score: inf
ROOT
ATOM      1  C   UNL     1       8.508  10.042  14.522  1.00  0.00     0.019 A 
ATOM      2  C   UNL     1       7.935   9.341  13.461  1.00  0.00     0.094 A 
ATOM      3  C   UNL     1       8.763   8.852  12.446  1.00  0.00     0.336 A 
ATOM      4  O   UNL     1       8.265   8.217  11.480  1.00  0.00    -0.246 OA
ATOM      5  O   UNL     1      10.078   9.053  12.494  1.00  0.00    -0.423 OA
ATOM      6  C   UNL     1      10.665   9.715  13.487  1.00  0.00     0.142 A 
ATOM      7  C   UNL     1      12.052   9.895  13.485  1.00  0.00     0.098 A 
ATOM      8  C   UNL     1      12.677  10.591  14.527  1.00  0.00     0.161 A 
ATOM      9  C   UNL     1      11.909  11.112  15.584  1.00  0.00     0.158 A 
ATOM     10  C   UNL     1      10.517  10.934  15.590  1.00  0.00     0.062 A 
ATOM     11  C   UNL     1       9.892  10.238  14.547  1.00  0.00     0.022 A 
ENDROOT
BRANCH   9  12
ATOM     12  O   UNL     1      12.531  11.805  16.621  1.00  0.00    -0.504 OA
ATOM     13  H   UNL     1      12.300  11.626  17.592  1.00  0.00     0.293 HD
ENDBRANCH   9  12
BRANCH   8  14
ATOM     14  O   UNL     1      14.061  10.754  14.494  1.00  0.00    -0.504 OA
ATOM     15  H   UNL     1      14.665  10.129  13.973  1.00  0.00     0.293 HD
ENDBRANCH   8  14
TORSDOF 2
ENDMDL
MODEL 3
REMARK VINA RESULT:    -5.898      1.426      5.052
REMARK INTER + INTRA:          -6.243
REMARK INTER:                  -6.243
REMARK INTRA:                   0.000
REMARK UNBOUND:                 0.000
REMARK SMILES O=c1ccc2cc(O)c(O)cc2o1
REMARK SMILES IDX 4 1 3 2 2 3 1 4 13 5 12 6 11 7 9 8 7 9 6 10 5 11 8 12 10 14
REMARK H PARENT 8 13 10 15
REMARK Flexibility Score: inf
ROOT
ATOM      1  C   UNL     1       9.740   8.929  13.113  1.00  0.00     0.019 A 
ATOM      2  C   UNL     1       8.359   8.851  13.296  1.00  0.00     0.094 A 
ATOM      3  C   UNL     1       7.749   9.699  14.225  1.00  0.00     0.336 A 
ATOM      4  O   UNL     1       6.505   9.645  14.405  1.00  0.00    -0.246 OA
ATOM      5  O   UNL     1       8.478  10.568  14.923  1.00  0.00    -0.423 OA
ATOM      6  C   UNL     1       9.796  10.676  14.779  1.00  0.00     0.142 A 
ATOM      7  C   UNL     1      10.510  11.608  15.539  1.00  0.00     0.098 A 
ATOM      8  C   UNL     1      11.897  11.726  15.394  1.00  0.00     0.161 A 
ATOM      9  C   UNL     1      12.580  10.906  14.478  1.00  0.00     0.158 A 
ATOM     10  C   UNL     1      11.869   9.969  13.713  1.00  0.00     0.062 A 
ATOM     11  C   UNL     1      10.480   9.851  13.860  1.00  0.00     0.022 A 
ENDROOT
BRANCH   9  12
ATOM     12  O   UNL     1      13.961  11.023  14.333  1.00  0.00    -0.504 OA
ATOM     13  H   UNL     1      14.374  11.436  13.504  1.00  0.00     0.293 HD
ENDBRANCH   9  12
BRANCH   8  14
ATOM     14  O   UNL     1      12.579  12.665  16.167  1.00  0.00    -0.504 OA
ATOM     15  H   UNL     1      12.594  12.619  17.179  1.00  0.00     0.293 HD
ENDBRANCH   8  14
TORSDOF 2
ENDMDL
MODEL 4
REMARK VINA RESULT:    -5.862      1.920      4.283
REMARK INTER + INTRA:          -6.204
REMARK INTER:                  -6.204
REMARK INTRA:                   0.000
REMARK UNBOUND:                 0.000
REMARK SMILES O=c1ccc2cc(O)c(O)cc2o1
REMARK SMILES IDX 4 1 3 2 2 3 1 4 13 5 12 6 11 7 9 8 7 9 6 10 5 11 8 12 10 14
REMARK H PARENT 8 13 10 15
REMARK Flexibility Score: inf
ROOT
ATOM      1  C   UNL     1      11.171   9.720  11.775  1.00  0.00     0.019 A 
ATOM      2  C   UNL     1      10.299   9.034  10.930  1.00  0.00     0.094 A 
ATOM      3  C   UNL     1       9.140   8.466  11.467  1.00  0.00     0.336 A 
ATOM      4  O   UNL     1       8.341   7.842  10.721  1.00  0.00    -0.246 OA
ATOM      5  O   UNL     1       8.875   8.580  12.767  1.00  0.00    -0.423 OA
ATOM      6  C   UNL     1       9.678   9.226  13.608  1.00  0.00     0.142 A 
ATOM      7  C   UNL     1       9.347   9.315  14.963  1.00  0.00     0.098 A 
ATOM      8  C   UNL     1      10.188   9.994  15.854  1.00  0.00     0.161 A 
ATOM      9  C   UNL     1      11.373  10.591  15.386  1.00  0.00     0.158 A 
ATOM     10  C   UNL     1      11.709  10.504  14.026  1.00  0.00     0.062 A 
ATOM     11  C   UNL     1      10.867   9.824  13.136  1.00  0.00     0.022 A 
ENDROOT
BRANCH   9  12
ATOM     12  O   UNL     1      12.210  11.265  16.272  1.00  0.00    -0.504 OA
ATOM     13  H   UNL     1      12.659  12.138  16.018  1.00  0.00     0.293 HD
ENDBRANCH   9  12
BRANCH   8  14
ATOM     14  O   UNL     1       9.830  10.063  17.200  1.00  0.00    -0.504 OA
ATOM     15  H   UNL     1       9.196  10.771  17.552  1.00  0.00     0.293 HD
ENDBRANCH   8  14
TORSDOF 2
ENDMDL
MODEL 5
REMARK VINA RESULT:    -5.790      1.553      2.457
REMARK INTER + INTRA:          -6.129
REMARK INTER:                  -6.129
REMARK INTRA:                   0.000
REMARK UNBOUND:                 0.000
REMARK SMILES O=c1ccc2cc(O)c(O)cc2o1
REMARK SMILES IDX 4 1 3 2 2 3 1 4 13 5 12 6 11 7 9 8 7 9 6 10 5 11 8 12 10 14
REMARK H PARENT 8 13 10 15
REMARK Flexibility Score: inf
ROOT
ATOM      1  C   UNL     1      11.901  10.699  13.102  1.00  0.00     0.019 A 
ATOM      2  C   UNL     1      12.601  11.543  13.964  1.00  0.00     0.094 A 
ATOM      3  C   UNL     1      11.967  12.008  15.120  1.00  0.00     0.336 A 
ATOM      4  O   UNL     1      12.582  12.771  15.910  1.00  0.00    -0.246 OA
ATOM      5  O   UNL     1      10.715  11.649  15.393  1.00  0.00    -0.423 OA
ATOM      6  C   UNL     1      10.012  10.845  14.599  1.00  0.00     0.142 A 
ATOM      7  C   UNL     1       8.700  10.500  14.938  1.00  0.00     0.098 A 
ATOM      8  C   UNL     1       7.953   9.655  14.108  1.00  0.00     0.161 A 
ATOM      9  C   UNL     1       8.524   9.147  12.926  1.00  0.00     0.158 A 
ATOM     10  C   UNL     1       9.841   9.490  12.582  1.00  0.00     0.062 A 
ATOM     11  C   UNL     1      10.587  10.337  13.414  1.00  0.00     0.022 A 
ENDROOT
BRANCH   9  12
ATOM     12  O   UNL     1       7.782   8.306  12.099  1.00  0.00    -0.504 OA
ATOM     13  H   UNL     1       8.195   7.860  11.288  1.00  0.00     0.293 HD
ENDBRANCH   9  12
BRANCH   8  14
ATOM     14  O   UNL     1       6.648   9.331  14.473  1.00  0.00    -0.504 OA
ATOM     15  H   UNL     1       5.844   9.796  14.069  1.00  0.00     0.293 HD
ENDBRANCH   8  14
TORSDOF 2
ENDMDL
MODEL 6
REMARK VINA RESULT:    -5.772      1.682      2.793
REMARK INTER + INTRA:          -6.110
REMARK INTER:                  -6.110
REMARK INTRA:                   0.000
REMARK UNBOUND:                 0.000
REMARK SMILES O=c1ccc2cc(O)c(O)cc2o1
REMARK SMILES IDX 4 1 3 2 2 3 1 4 13 5 12 6 11 7 9 8 7 9 6 10 5 11 8 12 10 14
REMARK H PARENT 8 13 10 15
REMARK Flexibility Score: inf
ROOT
ATOM      1  C   UNL     1      11.142   9.800  11.607  1.00  0.00     0.019 A 
ATOM      2  C   UNL     1      12.397  10.281  11.237  1.00  0.00     0.094 A 
ATOM      3  C   UNL     1      13.228  10.833  12.218  1.00  0.00     0.336 A 
ATOM      4  O   UNL     1      14.365  11.273  11.904  1.00  0.00    -0.246 OA
ATOM      5  O   UNL     1      12.823  10.897  13.484  1.00  0.00    -0.423 OA
ATOM      6  C   UNL     1      11.634  10.450  13.880  1.00  0.00     0.142 A 
ATOM      7  C   UNL     1      11.264  10.542  15.225  1.00  0.00     0.098 A 
ATOM      8  C   UNL     1      10.015  10.074  15.649  1.00  0.00     0.161 A 
ATOM      9  C   UNL     1       9.125   9.506  14.719  1.00  0.00     0.158 A 
ATOM     10  C   UNL     1       9.492   9.411  13.368  1.00  0.00     0.062 A 
ATOM     11  C   UNL     1      10.743   9.880  12.945  1.00  0.00     0.022 A 
ENDROOT
BRANCH   9  12
ATOM     12  O   UNL     1       7.880   9.040  15.140  1.00  0.00    -0.504 OA
ATOM     13  H   UNL     1       7.498   9.293  16.045  1.00  0.00     0.293 HD
ENDBRANCH   9  12
BRANCH   8  14
ATOM     14  O   UNL     1       9.675  10.182  16.997  1.00  0.00    -0.504 OA
ATOM     15  H   UNL     1       9.983   9.505  17.685  1.00  0.00     0.293 HD
ENDBRANCH   8  14
TORSDOF 2
ENDMDL
MODEL 7
REMARK VINA RESULT:    -5.717      1.804      2.350
REMARK INTER + INTRA:          -6.051
REMARK INTER:                  -6.051
REMARK INTRA:                   0.000
REMARK UNBOUND:                 0.000
REMARK SMILES O=c1ccc2cc(O)c(O)cc2o1
REMARK SMILES IDX 4 1 3 2 2 3 1 4 13 5 12 6 11 7 9 8 7 9 6 10 5 11 8 12 10 14
REMARK H PARENT 8 13 10 15
REMARK Flexibility Score: inf
ROOT
ATOM      1  C   UNL     1      12.486  12.147  13.141  1.00  0.00     0.019 A 
ATOM      2  C   UNL     1      13.237  11.629  12.086  1.00  0.00     0.094 A 
ATOM      3  C   UNL     1      12.922  10.360  11.589  1.00  0.00     0.336 A 
ATOM      4  O   UNL     1      13.587   9.875  10.637  1.00  0.00    -0.246 OA
ATOM      5  O   UNL     1      11.919   9.661  12.116  1.00  0.00    -0.423 OA
ATOM      6  C   UNL     1      11.178  10.118  13.121  1.00  0.00     0.142 A 
ATOM      7  C   UNL     1      10.136   9.338  13.634  1.00  0.00     0.098 A 
ATOM      8  C   UNL     1       9.352   9.813  14.692  1.00  0.00     0.161 A 
ATOM      9  C   UNL     1       9.610  11.081  15.245  1.00  0.00     0.158 A 
ATOM     10  C   UNL     1      10.654  11.867  14.734  1.00  0.00     0.062 A 
ATOM     11  C   UNL     1      11.439  11.390  13.675  1.00  0.00     0.022 A 
ENDROOT
BRANCH   9  12
ATOM     12  O   UNL     1       8.830  11.553  16.299  1.00  0.00    -0.504 OA
ATOM     13  H   UNL     1       9.202  11.638  17.238  1.00  0.00     0.293 HD
ENDBRANCH   9  12
BRANCH   8  14
ATOM     14  O   UNL     1       8.321   9.010  15.181  1.00  0.00    -0.504 OA
ATOM     15  H   UNL     1       8.349   8.605  16.109  1.00  0.00     0.293 HD
ENDBRANCH   8  14
TORSDOF 2
ENDMDL
MODEL 8
REMARK VINA RESULT:    -5.253      2.356      3.895
REMARK INTER + INTRA:          -5.560
REMARK INTER:                  -5.560
REMARK INTRA:                   0.000
REMARK UNBOUND:                 0.000
REMARK SMILES O=c1ccc2cc(O)c(O)cc2o1
REMARK SMILES IDX 4 1 3 2 2 3 1 4 13 5 12 6 11 7 9 8 7 9 6 10 5 11 8 12 10 14
REMARK H PARENT 8 13 10 15
REMARK Flexibility Score: inf
ROOT
ATOM      1  C   UNL     1      11.235   9.754  11.663  1.00  0.00     0.019 A 
ATOM      2  C   UNL     1      12.228   9.700  10.686  1.00  0.00     0.094 A 
ATOM      3  C   UNL     1      13.460  10.310  10.938  1.00  0.00     0.336 A 
ATOM      4  O   UNL     1      14.370  10.273  10.069  1.00  0.00    -0.246 OA
ATOM      5  O   UNL     1      13.680  10.932  12.094  1.00  0.00    -0.423 OA
ATOM      6  C   UNL     1      12.761  11.006  13.054  1.00  0.00     0.142 A 
ATOM      7  C   UNL     1      13.049  11.671  14.249  1.00  0.00     0.098 A 
ATOM      8  C   UNL     1      12.087  11.753  15.263  1.00  0.00     0.161 A 
ATOM      9  C   UNL     1      10.822  11.163  15.081  1.00  0.00     0.158 A 
ATOM     10  C   UNL     1      10.529  10.494  13.883  1.00  0.00     0.062 A 
ATOM     11  C   UNL     1      11.493  10.413  12.869  1.00  0.00     0.022 A 
ENDROOT
BRANCH   9  12
ATOM     12  O   UNL     1       9.864  11.245  16.090  1.00  0.00    -0.504 OA
ATOM     13  H   UNL     1       9.843  10.582  16.857  1.00  0.00     0.293 HD
ENDBRANCH   9  12
BRANCH   8  14
ATOM     14  O   UNL     1      12.405  12.424  16.443  1.00  0.00    -0.504 OA
ATOM     15  H   UNL     1      12.053  12.125  17.344  1.00  0.00     0.293 HD
ENDBRANCH   8  14
TORSDOF 2
ENDMDL
MODEL 9
REMARK VINA RESULT:    -5.103      1.361      4.459
REMARK INTER + INTRA:          -5.401
REMARK INTER:                  -5.401
REMARK INTRA:                   0.000
REMARK UNBOUND:                 0.000
REMARK SMILES O=c1ccc2cc(O)c(O)cc2o1
REMARK SMILES IDX 4 1 3 2 2 3 1 4 13 5 12 6 11 7 9 8 7 9 6 10 5 11 8 12 10 14
REMARK H PARENT 8 13 10 15
REMARK Flexibility Score: inf
ROOT
ATOM      1  C   UNL     1      10.571   9.839  15.470  1.00  0.00     0.019 A 
ATOM      2  C   UNL     1       9.182   9.728  15.508  1.00  0.00     0.094 A 
ATOM      3  C   UNL     1       8.475   9.637  14.305  1.00  0.00     0.336 A 
ATOM      4  O   UNL     1       7.221   9.537  14.318  1.00  0.00    -0.246 OA
ATOM      5  O   UNL     1       9.122   9.655  13.142  1.00  0.00    -0.423 OA
ATOM      6  C   UNL     1      10.446   9.758  13.060  1.00  0.00     0.142 A 
ATOM      7  C   UNL     1      11.071   9.771  11.809  1.00  0.00     0.098 A 
ATOM      8  C   UNL     1      12.464   9.879  11.715  1.00  0.00     0.161 A 
ATOM      9  C   UNL     1      13.242   9.976  12.883  1.00  0.00     0.158 A 
ATOM     10  C   UNL     1      12.619   9.963  14.141  1.00  0.00     0.062 A 
ATOM     11  C   UNL     1      11.225   9.855  14.234  1.00  0.00     0.022 A 
ENDROOT
BRANCH   9  12
ATOM     12  O   UNL     1      14.628  10.084  12.790  1.00  0.00    -0.504 OA
ATOM     13  H   UNL     1      15.235   9.292  12.968  1.00  0.00     0.293 HD
ENDBRANCH   9  12
BRANCH   8  14
ATOM     14  O   UNL     1      13.056   9.890  10.453  1.00  0.00    -0.504 OA
ATOM     15  H   UNL     1      13.400  10.742  10.027  1.00  0.00     0.293 HD
ENDBRANCH   8  14
TORSDOF 2
ENDMDL
