MODEL 1
REMARK VINA RESULT:    -6.818      0.000      0.000
REMARK INTER + INTRA:         -10.975
REMARK INTER:                  -9.408
REMARK INTRA:                  -1.567
REMARK UNBOUND:                -1.567
REMARK SMILES CC[C@H](CC[C@H](C)[C@@H]1CC[C@@H]2[C@H]3CC=C4C[C@@H](O)CC[C@@]4(C)[C@H]3CC[C@]21C)C(C)C
REMARK SMILES IDX 5 1 4 2 3 3 2 4 1 5 28 6 29 7 30 8 6 9 7 10 8 11 9 12 26 13
REMARK SMILES IDX 10 14 11 15 25 16 27 17 12 18 24 19 23 20 13 21 21 22 14 23
REMARK SMILES IDX 15 24 20 25 22 26 16 27 19 28 17 29 18 30
REMARK H PARENT 18 31
REMARK Flexibility Score: inf
ROOT
ATOM      1  C   UNL     1       4.210  22.796  50.541  1.00  0.00     0.004 C 
ENDROOT
BRANCH   1   2
ATOM      2  C   UNL     1       2.800  22.670  49.914  1.00  0.00     0.004 C 
BRANCH   2   3
ATOM      3  C   UNL     1       2.109  24.038  49.632  1.00  0.00    -0.009 C 
BRANCH   3   4
ATOM      4  C   UNL     1       1.794  24.204  48.120  1.00  0.00     0.000 C 
ATOM      5  C   UNL     1       1.855  25.659  47.642  1.00  0.00     0.004 C 
ENDBRANCH   3   4
BRANCH   3   6
ATOM      6  C   UNL     1       0.816  24.299  50.485  1.00  0.00    -0.014 C 
ATOM      7  C   UNL     1       0.853  25.636  51.233  1.00  0.00     0.007 C 
ATOM      8  C   UNL     1       0.455  23.155  51.455  1.00  0.00     0.007 C 
ENDBRANCH   3   6
ENDBRANCH   2   3
ENDBRANCH   1   2
BRANCH   1   9
ATOM      9  C   UNL     1       4.186  22.593  52.083  1.00  0.00    -0.011 C 
ATOM     10  C   UNL     1       3.455  21.282  52.421  1.00  0.00     0.008 C 
BRANCH   9  11
ATOM     11  C   UNL     1       3.554  23.786  52.909  1.00  0.00    -0.002 C 
ATOM     12  C   UNL     1       4.092  25.222  52.675  1.00  0.00     0.005 C 
ATOM     13  C   UNL     1       3.570  23.644  54.455  1.00  0.00    -0.026 C 
ATOM     14  C   UNL     1       3.819  26.001  53.973  1.00  0.00     0.005 C 
ATOM     15  C   UNL     1       3.036  25.028  54.855  1.00  0.00    -0.001 C 
ATOM     16  C   UNL     1       2.595  22.597  55.020  1.00  0.00     0.007 C 
ATOM     17  C   UNL     1       5.024  23.375  54.981  1.00  0.00     0.012 C 
ATOM     18  C   UNL     1       3.030  25.261  56.386  1.00  0.00     0.000 C 
ATOM     19  C   UNL     1       2.460  22.724  56.558  1.00  0.00     0.005 C 
ATOM     20  C   UNL     1       2.154  24.172  57.097  1.00  0.00     0.003 C 
ATOM     21  C   UNL     1       2.561  26.671  56.766  1.00  0.00     0.031 C 
ATOM     22  C   UNL     1       0.606  24.574  57.328  1.00  0.00    -0.008 C 
ATOM     23  C   UNL     1       1.124  26.861  56.415  1.00  0.00    -0.027 C 
ATOM     24  C   UNL     1       0.212  25.893  56.629  1.00  0.00    -0.065 C 
ATOM     25  C   UNL     1      -0.378  23.460  56.846  1.00  0.00     0.014 C 
ATOM     26  C   UNL     1       0.391  24.791  58.852  1.00  0.00     0.016 C 
ATOM     27  C   UNL     1      -1.253  26.269  56.460  1.00  0.00     0.063 C 
ATOM     28  C   UNL     1      -1.857  23.856  56.914  1.00  0.00     0.033 C 
ATOM     29  C   UNL     1      -2.144  25.081  56.045  1.00  0.00     0.118 C 
BRANCH  29  30
ATOM     30  O   UNL     1      -2.032  24.743  54.677  1.00  0.00    -0.393 OA
ATOM     31  H   UNL     1      -1.955  23.759  54.577  1.00  0.00     0.210 HD
ENDBRANCH  29  30
ENDBRANCH   9  11
ENDBRANCH   1   9
TORSDOF 7
ENDMDL
MODEL 2
REMARK VINA RESULT:    -6.628      2.264      4.544
REMARK INTER + INTRA:         -10.713
REMARK INTER:                  -9.749
REMARK INTRA:                  -0.964
REMARK UNBOUND:                -1.567
REMARK SMILES CC[C@H](CC[C@H](C)[C@@H]1CC[C@@H]2[C@H]3CC=C4C[C@@H](O)CC[C@@]4(C)[C@H]3CC[C@]21C)C(C)C
REMARK SMILES IDX 5 1 4 2 3 3 2 4 1 5 28 6 29 7 30 8 6 9 7 10 8 11 9 12 26 13
REMARK SMILES IDX 10 14 11 15 25 16 27 17 12 18 24 19 23 20 13 21 21 22 14 23
REMARK SMILES IDX 15 24 20 25 22 26 16 27 19 28 17 29 18 30
REMARK H PARENT 18 31
REMARK Flexibility Score: inf
ROOT
ATOM      1  C   UNL     1       2.003  25.379  47.266  1.00  0.00     0.004 C 
ENDROOT
BRANCH   1   2
ATOM      2  C   UNL     1       1.519  24.208  46.377  1.00  0.00     0.004 C 
BRANCH   2   3
ATOM      3  C   UNL     1       2.106  24.224  44.935  1.00  0.00    -0.009 C 
BRANCH   3   4
ATOM      4  C   UNL     1       3.173  25.341  44.777  1.00  0.00     0.000 C 
ATOM      5  C   UNL     1       2.746  26.461  43.823  1.00  0.00     0.004 C 
ENDBRANCH   3   4
BRANCH   3   6
ATOM      6  C   UNL     1       2.691  22.846  44.458  1.00  0.00    -0.014 C 
ATOM      7  C   UNL     1       3.873  22.999  43.494  1.00  0.00     0.007 C 
ATOM      8  C   UNL     1       1.642  21.881  43.869  1.00  0.00     0.007 C 
ENDBRANCH   3   6
ENDBRANCH   2   3
ENDBRANCH   1   2
BRANCH   1   9
ATOM      9  C   UNL     1       1.126  25.551  48.540  1.00  0.00    -0.011 C 
ATOM     10  C   UNL     1       0.274  26.826  48.414  1.00  0.00     0.008 C 
BRANCH   9  11
ATOM     11  C   UNL     1       1.922  25.571  49.907  1.00  0.00    -0.002 C 
ATOM     12  C   UNL     1       3.416  25.987  49.895  1.00  0.00     0.005 C 
ATOM     13  C   UNL     1       1.922  24.255  50.729  1.00  0.00    -0.026 C 
ATOM     14  C   UNL     1       4.060  25.315  51.119  1.00  0.00     0.005 C 
ATOM     15  C   UNL     1       2.899  24.640  51.850  1.00  0.00    -0.001 C 
ATOM     16  C   UNL     1       0.580  23.903  51.393  1.00  0.00     0.007 C 
ATOM     17  C   UNL     1       2.432  23.050  49.862  1.00  0.00     0.012 C 
ATOM     18  C   UNL     1       3.215  23.470  52.814  1.00  0.00     0.000 C 
ATOM     19  C   UNL     1       0.741  22.753  52.419  1.00  0.00     0.005 C 
ATOM     20  C   UNL     1       1.895  22.939  53.474  1.00  0.00     0.003 C 
ATOM     21  C   UNL     1       4.245  23.850  53.885  1.00  0.00     0.031 C 
ATOM     22  C   UNL     1       1.513  23.614  54.892  1.00  0.00    -0.008 C 
ATOM     23  C   UNL     1       3.687  24.877  54.812  1.00  0.00    -0.027 C 
ATOM     24  C   UNL     1       2.419  24.810  55.257  1.00  0.00    -0.065 C 
ATOM     25  C   UNL     1       0.028  24.101  54.940  1.00  0.00     0.014 C 
ATOM     26  C   UNL     1       1.713  22.544  56.000  1.00  0.00     0.016 C 
ATOM     27  C   UNL     1       2.023  25.764  56.375  1.00  0.00     0.063 C 
ATOM     28  C   UNL     1      -0.339  24.874  56.211  1.00  0.00     0.033 C 
ATOM     29  C   UNL     1       0.524  26.127  56.367  1.00  0.00     0.118 C 
BRANCH  29  30
ATOM     30  O   UNL     1       0.181  27.079  55.379  1.00  0.00    -0.393 OA
ATOM     31  H   UNL     1       0.563  27.964  55.617  1.00  0.00     0.210 HD
ENDBRANCH  29  30
ENDBRANCH   9  11
ENDBRANCH   1   9
TORSDOF 7
ENDMDL
MODEL 3
REMARK VINA RESULT:    -6.547      2.678      4.318
REMARK INTER + INTRA:         -10.601
REMARK INTER:                  -9.043
REMARK INTRA:                  -1.558
REMARK UNBOUND:                -1.567
REMARK SMILES CC[C@H](CC[C@H](C)[C@@H]1CC[C@@H]2[C@H]3CC=C4C[C@@H](O)CC[C@@]4(C)[C@H]3CC[C@]21C)C(C)C
REMARK SMILES IDX 5 1 4 2 3 3 2 4 1 5 28 6 29 7 30 8 6 9 7 10 8 11 9 12 26 13
REMARK SMILES IDX 10 14 11 15 25 16 27 17 12 18 24 19 23 20 13 21 21 22 14 23
REMARK SMILES IDX 15 24 20 25 22 26 16 27 19 28 17 29 18 30
REMARK H PARENT 18 31
REMARK Flexibility Score: inf
ROOT
ATOM      1  C   UNL     1       1.927  22.299  50.977  1.00  0.00     0.004 C 
ENDROOT
BRANCH   1   2
ATOM      2  C   UNL     1       2.448  23.342  49.958  1.00  0.00     0.004 C 
BRANCH   2   3
ATOM      3  C   UNL     1       1.565  24.621  49.855  1.00  0.00    -0.009 C 
BRANCH   3   4
ATOM      4  C   UNL     1       1.934  25.646  50.962  1.00  0.00     0.000 C 
ATOM      5  C   UNL     1       0.784  25.935  51.933  1.00  0.00     0.004 C 
ENDBRANCH   3   4
BRANCH   3   6
ATOM      6  C   UNL     1       1.591  25.315  48.446  1.00  0.00    -0.014 C 
ATOM      7  C   UNL     1       0.714  26.571  48.381  1.00  0.00     0.007 C 
ATOM      8  C   UNL     1       1.262  24.374  47.270  1.00  0.00     0.007 C 
ENDBRANCH   3   6
ENDBRANCH   2   3
ENDBRANCH   1   2
BRANCH   1   9
ATOM      9  C   UNL     1       2.967  22.002  52.095  1.00  0.00    -0.011 C 
ATOM     10  C   UNL     1       3.515  20.574  51.926  1.00  0.00     0.008 C 
BRANCH   9  11
ATOM     11  C   UNL     1       2.441  22.201  53.574  1.00  0.00    -0.002 C 
ATOM     12  C   UNL     1       1.063  22.879  53.790  1.00  0.00     0.005 C 
ATOM     13  C   UNL     1       3.376  22.971  54.545  1.00  0.00    -0.026 C 
ATOM     14  C   UNL     1       1.109  23.512  55.191  1.00  0.00     0.005 C 
ATOM     15  C   UNL     1       2.456  23.079  55.770  1.00  0.00    -0.001 C 
ATOM     16  C   UNL     1       4.633  22.200  54.983  1.00  0.00     0.007 C 
ATOM     17  C   UNL     1       3.773  24.369  53.954  1.00  0.00     0.012 C 
ATOM     18  C   UNL     1       3.068  23.917  56.920  1.00  0.00     0.000 C 
ATOM     19  C   UNL     1       5.347  22.908  56.161  1.00  0.00     0.005 C 
ATOM     20  C   UNL     1       4.430  23.292  57.382  1.00  0.00     0.003 C 
ATOM     21  C   UNL     1       2.111  24.075  58.108  1.00  0.00     0.031 C 
ATOM     22  C   UNL     1       4.327  22.236  58.603  1.00  0.00    -0.008 C 
ATOM     23  C   UNL     1       1.872  22.761  58.772  1.00  0.00    -0.027 C 
ATOM     24  C   UNL     1       2.871  21.881  58.974  1.00  0.00    -0.065 C 
ATOM     25  C   UNL     1       5.088  20.905  58.305  1.00  0.00     0.014 C 
ATOM     26  C   UNL     1       4.964  22.894  59.857  1.00  0.00     0.016 C 
ATOM     27  C   UNL     1       2.573  20.683  59.863  1.00  0.00     0.063 C 
ATOM     28  C   UNL     1       4.899  19.821  59.373  1.00  0.00     0.033 C 
ATOM     29  C   UNL     1       3.425  19.443  59.524  1.00  0.00     0.118 C 
BRANCH  29  30
ATOM     30  O   UNL     1       2.980  18.751  58.375  1.00  0.00    -0.393 OA
ATOM     31  H   UNL     1       3.456  19.088  57.572  1.00  0.00     0.210 HD
ENDBRANCH  29  30
ENDBRANCH   9  11
ENDBRANCH   1   9
TORSDOF 7
ENDMDL
MODEL 4
REMARK VINA RESULT:    -6.503      2.733      4.948
REMARK INTER + INTRA:         -10.541
REMARK INTER:                  -9.263
REMARK INTRA:                  -1.278
REMARK UNBOUND:                -1.567
REMARK SMILES CC[C@H](CC[C@H](C)[C@@H]1CC[C@@H]2[C@H]3CC=C4C[C@@H](O)CC[C@@]4(C)[C@H]3CC[C@]21C)C(C)C
REMARK SMILES IDX 5 1 4 2 3 3 2 4 1 5 28 6 29 7 30 8 6 9 7 10 8 11 9 12 26 13
REMARK SMILES IDX 10 14 11 15 25 16 27 17 12 18 24 19 23 20 13 21 21 22 14 23
REMARK SMILES IDX 15 24 20 25 22 26 16 27 19 28 17 29 18 30
REMARK H PARENT 18 31
REMARK Flexibility Score: inf
ROOT
ATOM      1  C   UNL     1       0.936  24.982  52.272  1.00  0.00     0.004 C 
ENDROOT
BRANCH   1   2
ATOM      2  C   UNL     1       0.880  23.463  51.975  1.00  0.00     0.004 C 
BRANCH   2   3
ATOM      3  C   UNL     1       1.777  23.018  50.782  1.00  0.00    -0.009 C 
BRANCH   3   4
ATOM      4  C   UNL     1       2.293  24.245  49.982  1.00  0.00     0.000 C 
ATOM      5  C   UNL     1       1.660  24.375  48.592  1.00  0.00     0.004 C 
ENDBRANCH   3   4
BRANCH   3   6
ATOM      6  C   UNL     1       2.980  22.092  51.186  1.00  0.00    -0.014 C 
ATOM      7  C   UNL     1       2.820  21.479  52.581  1.00  0.00     0.007 C 
ATOM      8  C   UNL     1       4.365  22.756  51.049  1.00  0.00     0.007 C 
ENDBRANCH   3   6
ENDBRANCH   2   3
ENDBRANCH   1   2
BRANCH   1   9
ATOM      9  C   UNL     1       1.718  25.295  53.581  1.00  0.00    -0.011 C 
ATOM     10  C   UNL     1       3.220  25.417  53.269  1.00  0.00     0.008 C 
BRANCH   9  11
ATOM     11  C   UNL     1       1.498  24.262  54.759  1.00  0.00    -0.002 C 
ATOM     12  C   UNL     1       0.053  23.809  55.094  1.00  0.00     0.005 C 
ATOM     13  C   UNL     1       2.081  24.655  56.143  1.00  0.00    -0.026 C 
ATOM     14  C   UNL     1       0.065  23.391  56.575  1.00  0.00     0.005 C 
ATOM     15  C   UNL     1       1.529  23.507  57.001  1.00  0.00    -0.001 C 
ATOM     16  C   UNL     1       3.616  24.601  56.240  1.00  0.00     0.007 C 
ATOM     17  C   UNL     1       1.557  26.063  56.596  1.00  0.00     0.012 C 
ATOM     18  C   UNL     1       1.849  23.663  58.508  1.00  0.00     0.000 C 
ATOM     19  C   UNL     1       4.093  24.717  57.709  1.00  0.00     0.005 C 
ATOM     20  C   UNL     1       3.399  23.739  58.729  1.00  0.00     0.003 C 
ATOM     21  C   UNL     1       1.231  22.547  59.360  1.00  0.00     0.031 C 
ATOM     22  C   UNL     1       4.125  22.325  59.025  1.00  0.00    -0.008 C 
ATOM     23  C   UNL     1       1.859  21.231  59.042  1.00  0.00    -0.027 C 
ATOM     24  C   UNL     1       3.185  21.113  58.844  1.00  0.00    -0.065 C 
ATOM     25  C   UNL     1       5.381  22.100  58.123  1.00  0.00     0.014 C 
ATOM     26  C   UNL     1       4.581  22.323  60.510  1.00  0.00     0.016 C 
ATOM     27  C   UNL     1       3.753  19.703  58.761  1.00  0.00     0.063 C 
ATOM     28  C   UNL     1       6.018  20.713  58.268  1.00  0.00     0.033 C 
ATOM     29  C   UNL     1       5.028  19.608  57.899  1.00  0.00     0.118 C 
BRANCH  29  30
ATOM     30  O   UNL     1       4.771  19.628  56.509  1.00  0.00    -0.393 OA
ATOM     31  H   UNL     1       3.845  19.945  56.342  1.00  0.00     0.210 HD
ENDBRANCH  29  30
ENDBRANCH   9  11
ENDBRANCH   1   9
TORSDOF 7
ENDMDL
MODEL 5
REMARK VINA RESULT:    -6.324      2.067      3.579
REMARK INTER + INTRA:         -10.294
REMARK INTER:                  -8.852
REMARK INTRA:                  -1.442
REMARK UNBOUND:                -1.567
REMARK SMILES CC[C@H](CC[C@H](C)[C@@H]1CC[C@@H]2[C@H]3CC=C4C[C@@H](O)CC[C@@]4(C)[C@H]3CC[C@]21C)C(C)C
REMARK SMILES IDX 5 1 4 2 3 3 2 4 1 5 28 6 29 7 30 8 6 9 7 10 8 11 9 12 26 13
REMARK SMILES IDX 10 14 11 15 25 16 27 17 12 18 24 19 23 20 13 21 21 22 14 23
REMARK SMILES IDX 15 24 20 25 22 26 16 27 19 28 17 29 18 30
REMARK H PARENT 18 31
REMARK Flexibility Score: inf
ROOT
ATOM      1  C   UNL     1       2.212  22.764  50.365  1.00  0.00     0.004 C 
ENDROOT
BRANCH   1   2
ATOM      2  C   UNL     1       2.525  23.703  49.174  1.00  0.00     0.004 C 
BRANCH   2   3
ATOM      3  C   UNL     1       1.478  24.837  48.970  1.00  0.00    -0.009 C 
BRANCH   3   4
ATOM      4  C   UNL     1       1.785  26.054  49.884  1.00  0.00     0.000 C 
ATOM      5  C   UNL     1       0.527  26.741  50.426  1.00  0.00     0.004 C 
ENDBRANCH   3   4
BRANCH   3   6
ATOM      6  C   UNL     1       1.315  25.308  47.480  1.00  0.00    -0.014 C 
ATOM      7  C   UNL     1       1.242  24.141  46.488  1.00  0.00     0.007 C 
ATOM      8  C   UNL     1       2.370  26.334  47.020  1.00  0.00     0.007 C 
ENDBRANCH   3   6
ENDBRANCH   2   3
ENDBRANCH   1   2
BRANCH   1   9
ATOM      9  C   UNL     1       2.956  23.192  51.662  1.00  0.00    -0.011 C 
ATOM     10  C   UNL     1       4.119  22.222  51.936  1.00  0.00     0.008 C 
BRANCH   9  11
ATOM     11  C   UNL     1       2.047  23.316  52.951  1.00  0.00    -0.002 C 
ATOM     12  C   UNL     1       0.534  23.605  52.771  1.00  0.00     0.005 C 
ATOM     13  C   UNL     1       2.488  24.357  54.013  1.00  0.00    -0.026 C 
ATOM     14  C   UNL     1       0.071  24.297  54.065  1.00  0.00     0.005 C 
ATOM     15  C   UNL     1       1.296  24.274  54.979  1.00  0.00    -0.001 C 
ATOM     16  C   UNL     1       3.749  23.979  54.809  1.00  0.00     0.007 C 
ATOM     17  C   UNL     1       2.657  25.780  53.372  1.00  0.00     0.012 C 
ATOM     18  C   UNL     1       1.374  25.303  56.134  1.00  0.00     0.000 C 
ATOM     19  C   UNL     1       3.948  24.912  56.030  1.00  0.00     0.005 C 
ATOM     20  C   UNL     1       2.690  25.093  56.960  1.00  0.00     0.003 C 
ATOM     21  C   UNL     1       0.143  25.256  57.049  1.00  0.00     0.031 C 
ATOM     22  C   UNL     1       2.555  24.112  58.238  1.00  0.00    -0.008 C 
ATOM     23  C   UNL     1       0.084  23.961  57.786  1.00  0.00    -0.027 C 
ATOM     24  C   UNL     1       1.189  23.396  58.309  1.00  0.00    -0.065 C 
ATOM     25  C   UNL     1       3.675  23.023  58.274  1.00  0.00     0.014 C 
ATOM     26  C   UNL     1       2.675  24.980  59.521  1.00  0.00     0.016 C 
ATOM     27  C   UNL     1       0.990  22.207  59.238  1.00  0.00     0.063 C 
ATOM     28  C   UNL     1       3.504  21.984  59.388  1.00  0.00     0.033 C 
ATOM     29  C   UNL     1       2.182  21.229  59.244  1.00  0.00     0.118 C 
BRANCH  29  30
ATOM     30  O   UNL     1       2.224  20.385  58.110  1.00  0.00    -0.393 OA
ATOM     31  H   UNL     1       2.440  19.457  58.388  1.00  0.00     0.210 HD
ENDBRANCH  29  30
ENDBRANCH   9  11
ENDBRANCH   1   9
TORSDOF 7
ENDMDL
MODEL 6
REMARK VINA RESULT:    -6.247      2.689      4.707
REMARK INTER + INTRA:         -10.188
REMARK INTER:                  -8.739
REMARK INTRA:                  -1.449
REMARK UNBOUND:                -1.567
REMARK SMILES CC[C@H](CC[C@H](C)[C@@H]1CC[C@@H]2[C@H]3CC=C4C[C@@H](O)CC[C@@]4(C)[C@H]3CC[C@]21C)C(C)C
REMARK SMILES IDX 5 1 4 2 3 3 2 4 1 5 28 6 29 7 30 8 6 9 7 10 8 11 9 12 26 13
REMARK SMILES IDX 10 14 11 15 25 16 27 17 12 18 24 19 23 20 13 21 21 22 14 23
REMARK SMILES IDX 15 24 20 25 22 26 16 27 19 28 17 29 18 30
REMARK H PARENT 18 31
REMARK Flexibility Score: inf
ROOT
ATOM      1  C   UNL     1       2.238  25.683  51.773  1.00  0.00     0.004 C 
ENDROOT
BRANCH   1   2
ATOM      2  C   UNL     1       2.937  25.388  50.423  1.00  0.00     0.004 C 
BRANCH   2   3
ATOM      3  C   UNL     1       2.278  24.235  49.608  1.00  0.00    -0.009 C 
BRANCH   3   4
ATOM      4  C   UNL     1       1.561  23.226  50.546  1.00  0.00     0.000 C 
ATOM      5  C   UNL     1       2.459  22.069  50.997  1.00  0.00     0.004 C 
ENDBRANCH   3   4
BRANCH   3   6
ATOM      6  C   UNL     1       1.296  24.717  48.481  1.00  0.00    -0.014 C 
ATOM      7  C   UNL     1       1.621  24.119  47.108  1.00  0.00     0.007 C 
ATOM      8  C   UNL     1       1.154  26.249  48.376  1.00  0.00     0.007 C 
ENDBRANCH   3   6
ENDBRANCH   2   3
ENDBRANCH   1   2
BRANCH   1   9
ATOM      9  C   UNL     1       3.168  25.405  52.988  1.00  0.00    -0.011 C 
ATOM     10  C   UNL     1       4.528  24.884  52.490  1.00  0.00     0.008 C 
BRANCH   9  11
ATOM     11  C   UNL     1       2.580  24.414  54.073  1.00  0.00    -0.002 C 
ATOM     12  C   UNL     1       1.069  24.069  54.026  1.00  0.00     0.005 C 
ATOM     13  C   UNL     1       2.816  24.794  55.559  1.00  0.00    -0.026 C 
ATOM     14  C   UNL     1       0.671  23.682  55.461  1.00  0.00     0.005 C 
ATOM     15  C   UNL     1       1.981  23.704  56.248  1.00  0.00    -0.001 C 
ATOM     16  C   UNL     1       4.267  24.636  56.047  1.00  0.00     0.007 C 
ATOM     17  C   UNL     1       2.296  26.244  55.859  1.00  0.00     0.012 C 
ATOM     18  C   UNL     1       1.914  23.869  57.787  1.00  0.00     0.000 C 
ATOM     19  C   UNL     1       4.359  24.748  57.589  1.00  0.00     0.005 C 
ATOM     20  C   UNL     1       3.358  23.842  58.399  1.00  0.00     0.003 C 
ATOM     21  C   UNL     1       1.020  22.816  58.454  1.00  0.00     0.031 C 
ATOM     22  C   UNL     1       3.880  22.387  58.874  1.00  0.00    -0.008 C 
ATOM     23  C   UNL     1       1.612  21.454  58.310  1.00  0.00    -0.027 C 
ATOM     24  C   UNL     1       2.933  21.240  58.460  1.00  0.00    -0.065 C 
ATOM     25  C   UNL     1       5.306  22.058  58.326  1.00  0.00     0.014 C 
ATOM     26  C   UNL     1       3.939  22.385  60.426  1.00  0.00     0.016 C 
ATOM     27  C   UNL     1       3.400  19.793  58.528  1.00  0.00     0.063 C 
ATOM     28  C   UNL     1       5.782  20.633  58.632  1.00  0.00     0.033 C 
ATOM     29  C   UNL     1       4.843  19.592  58.024  1.00  0.00     0.118 C 
BRANCH  29  30
ATOM     30  O   UNL     1       4.952  19.602  56.614  1.00  0.00    -0.393 OA
ATOM     31  H   UNL     1       4.095  19.898  56.211  1.00  0.00     0.210 HD
ENDBRANCH  29  30
ENDBRANCH   9  11
ENDBRANCH   1   9
TORSDOF 7
ENDMDL
MODEL 7
REMARK VINA RESULT:    -5.979      2.674      5.472
REMARK INTER + INTRA:          -9.818
REMARK INTER:                  -8.581
REMARK INTRA:                  -1.237
REMARK UNBOUND:                -1.567
REMARK SMILES CC[C@H](CC[C@H](C)[C@@H]1CC[C@@H]2[C@H]3CC=C4C[C@@H](O)CC[C@@]4(C)[C@H]3CC[C@]21C)C(C)C
REMARK SMILES IDX 5 1 4 2 3 3 2 4 1 5 28 6 29 7 30 8 6 9 7 10 8 11 9 12 26 13
REMARK SMILES IDX 10 14 11 15 25 16 27 17 12 18 24 19 23 20 13 21 21 22 14 23
REMARK SMILES IDX 15 24 20 25 22 26 16 27 19 28 17 29 18 30
REMARK H PARENT 18 31
REMARK Flexibility Score: inf
ROOT
ATOM      1  C   UNL     1       1.092  26.096  54.042  1.00  0.00     0.004 C 
ENDROOT
BRANCH   1   2
ATOM      2  C   UNL     1       1.845  25.664  52.760  1.00  0.00     0.004 C 
BRANCH   2   3
ATOM      3  C   UNL     1       1.996  24.121  52.605  1.00  0.00    -0.009 C 
BRANCH   3   4
ATOM      4  C   UNL     1       1.281  23.615  51.323  1.00  0.00     0.000 C 
ATOM      5  C   UNL     1       0.092  22.693  51.612  1.00  0.00     0.004 C 
ENDBRANCH   3   4
BRANCH   3   6
ATOM      6  C   UNL     1       3.481  23.610  52.633  1.00  0.00    -0.014 C 
ATOM      7  C   UNL     1       3.952  23.064  51.281  1.00  0.00     0.007 C 
ATOM      8  C   UNL     1       3.781  22.592  53.753  1.00  0.00     0.007 C 
ENDBRANCH   3   6
ENDBRANCH   2   3
ENDBRANCH   1   2
BRANCH   1   9
ATOM      9  C   UNL     1      -0.035  25.095  54.426  1.00  0.00    -0.011 C 
ATOM     10  C   UNL     1      -1.313  25.869  54.791  1.00  0.00     0.008 C 
BRANCH   9  11
ATOM     11  C   UNL     1       0.330  24.085  55.589  1.00  0.00    -0.002 C 
ATOM     12  C   UNL     1      -0.821  23.384  56.356  1.00  0.00     0.005 C 
ATOM     13  C   UNL     1       1.237  24.632  56.723  1.00  0.00    -0.026 C 
ATOM     14  C   UNL     1      -0.261  23.032  57.745  1.00  0.00     0.005 C 
ATOM     15  C   UNL     1       1.213  23.435  57.685  1.00  0.00    -0.001 C 
ATOM     16  C   UNL     1       2.704  24.869  56.325  1.00  0.00     0.007 C 
ATOM     17  C   UNL     1       0.628  25.934  57.353  1.00  0.00     0.012 C 
ATOM     18  C   UNL     1       1.959  23.705  59.015  1.00  0.00     0.000 C 
ATOM     19  C   UNL     1       3.592  25.128  57.567  1.00  0.00     0.005 C 
ATOM     20  C   UNL     1       3.455  24.077  58.732  1.00  0.00     0.003 C 
ATOM     21  C   UNL     1       1.865  22.527  59.993  1.00  0.00     0.031 C 
ATOM     22  C   UNL     1       4.490  22.835  58.748  1.00  0.00    -0.008 C 
ATOM     23  C   UNL     1       2.596  21.340  59.460  1.00  0.00    -0.027 C 
ATOM     24  C   UNL     1       3.789  21.464  58.847  1.00  0.00    -0.065 C 
ATOM     25  C   UNL     1       5.415  22.814  57.488  1.00  0.00     0.014 C 
ATOM     26  C   UNL     1       5.386  22.976  60.009  1.00  0.00     0.016 C 
ATOM     27  C   UNL     1       4.555  20.182  58.554  1.00  0.00     0.063 C 
ATOM     28  C   UNL     1       6.314  21.577  57.389  1.00  0.00     0.033 C 
ATOM     29  C   UNL     1       5.485  20.293  57.329  1.00  0.00     0.118 C 
BRANCH  29  30
ATOM     30  O   UNL     1       4.801  20.212  56.094  1.00  0.00    -0.393 OA
ATOM     31  H   UNL     1       4.790  21.103  55.656  1.00  0.00     0.210 HD
ENDBRANCH  29  30
ENDBRANCH   9  11
ENDBRANCH   1   9
TORSDOF 7
ENDMDL
MODEL 8
REMARK VINA RESULT:    -5.952      2.589      7.295
REMARK INTER + INTRA:          -9.780
REMARK INTER:                  -8.417
REMARK INTRA:                  -1.363
REMARK UNBOUND:                -1.567
REMARK SMILES CC[C@H](CC[C@H](C)[C@@H]1CC[C@@H]2[C@H]3CC=C4C[C@@H](O)CC[C@@]4(C)[C@H]3CC[C@]21C)C(C)C
REMARK SMILES IDX 5 1 4 2 3 3 2 4 1 5 28 6 29 7 30 8 6 9 7 10 8 11 9 12 26 13
REMARK SMILES IDX 10 14 11 15 25 16 27 17 12 18 24 19 23 20 13 21 21 22 14 23
REMARK SMILES IDX 15 24 20 25 22 26 16 27 19 28 17 29 18 30
REMARK H PARENT 18 31
REMARK Flexibility Score: inf
ROOT
ATOM      1  C   UNL     1       1.617  23.397  59.813  1.00  0.00     0.004 C 
ENDROOT
BRANCH   1   2
ATOM      2  C   UNL     1       1.604  21.849  59.858  1.00  0.00     0.004 C 
BRANCH   2   3
ATOM      3  C   UNL     1       3.018  21.202  59.771  1.00  0.00    -0.009 C 
BRANCH   3   4
ATOM      4  C   UNL     1       3.138  20.286  58.522  1.00  0.00     0.000 C 
ATOM      5  C   UNL     1       3.500  18.836  58.863  1.00  0.00     0.004 C 
ENDBRANCH   3   4
BRANCH   3   6
ATOM      6  C   UNL     1       4.205  22.231  59.802  1.00  0.00    -0.014 C 
ATOM      7  C   UNL     1       5.153  22.088  58.606  1.00  0.00     0.007 C 
ATOM      8  C   UNL     1       5.005  22.237  61.120  1.00  0.00     0.007 C 
ENDBRANCH   3   6
ENDBRANCH   2   3
ENDBRANCH   1   2
BRANCH   1   9
ATOM      9  C   UNL     1       0.979  23.951  58.508  1.00  0.00    -0.011 C 
ATOM     10  C   UNL     1      -0.150  23.013  58.045  1.00  0.00     0.008 C 
BRANCH   9  11
ATOM     11  C   UNL     1       1.991  24.200  57.317  1.00  0.00    -0.002 C 
ATOM     12  C   UNL     1       3.292  24.995  57.597  1.00  0.00     0.005 C 
ATOM     13  C   UNL     1       1.415  24.888  56.050  1.00  0.00    -0.026 C 
ATOM     14  C   UNL     1       3.709  25.626  56.258  1.00  0.00     0.005 C 
ATOM     15  C   UNL     1       2.706  25.079  55.241  1.00  0.00    -0.001 C 
ATOM     16  C   UNL     1       0.472  24.012  55.207  1.00  0.00     0.007 C 
ATOM     17  C   UNL     1       0.716  26.245  56.415  1.00  0.00     0.012 C 
ATOM     18  C   UNL     1       2.490  25.864  53.923  1.00  0.00     0.000 C 
ATOM     19  C   UNL     1       0.182  24.659  53.830  1.00  0.00     0.005 C 
ATOM     20  C   UNL     1       1.447  25.125  53.016  1.00  0.00     0.003 C 
ATOM     21  C   UNL     1       3.799  26.108  53.161  1.00  0.00     0.031 C 
ATOM     22  C   UNL     1       2.075  24.086  51.948  1.00  0.00    -0.008 C 
ATOM     23  C   UNL     1       4.370  24.822  52.669  1.00  0.00    -0.027 C 
ATOM     24  C   UNL     1       3.590  23.859  52.142  1.00  0.00    -0.065 C 
ATOM     25  C   UNL     1       1.369  22.692  51.986  1.00  0.00     0.014 C 
ATOM     26  C   UNL     1       1.888  24.690  50.529  1.00  0.00     0.016 C 
ATOM     27  C   UNL     1       4.289  22.694  51.458  1.00  0.00     0.063 C 
ATOM     28  C   UNL     1       2.023  21.632  51.093  1.00  0.00     0.033 C 
ATOM     29  C   UNL     1       3.476  21.384  51.499  1.00  0.00     0.118 C 
BRANCH  29  30
ATOM     30  O   UNL     1       3.526  20.730  52.751  1.00  0.00    -0.393 OA
ATOM     31  H   UNL     1       2.694  20.208  52.893  1.00  0.00     0.210 HD
ENDBRANCH  29  30
ENDBRANCH   9  11
ENDBRANCH   1   9
TORSDOF 7
ENDMDL
MODEL 9
REMARK VINA RESULT:    -5.741      2.528      7.427
REMARK INTER + INTRA:          -9.489
REMARK INTER:                  -7.740
REMARK INTRA:                  -1.750
REMARK UNBOUND:                -1.567
REMARK SMILES CC[C@H](CC[C@H](C)[C@@H]1CC[C@@H]2[C@H]3CC=C4C[C@@H](O)CC[C@@]4(C)[C@H]3CC[C@]21C)C(C)C
REMARK SMILES IDX 5 1 4 2 3 3 2 4 1 5 28 6 29 7 30 8 6 9 7 10 8 11 9 12 26 13
REMARK SMILES IDX 10 14 11 15 25 16 27 17 12 18 24 19 23 20 13 21 21 22 14 23
REMARK SMILES IDX 15 24 20 25 22 26 16 27 19 28 17 29 18 30
REMARK H PARENT 18 31
REMARK Flexibility Score: inf
ROOT
ATOM      1  C   UNL     1       0.889  23.697  58.757  1.00  0.00     0.004 C 
ENDROOT
BRANCH   1   2
ATOM      2  C   UNL     1       1.617  22.601  59.574  1.00  0.00     0.004 C 
BRANCH   2   3
ATOM      3  C   UNL     1       3.072  22.316  59.095  1.00  0.00    -0.009 C 
BRANCH   3   4
ATOM      4  C   UNL     1       4.094  22.555  60.240  1.00  0.00     0.000 C 
ATOM      5  C   UNL     1       5.014  23.756  59.994  1.00  0.00     0.004 C 
ENDBRANCH   3   4
BRANCH   3   6
ATOM      6  C   UNL     1       3.282  20.889  58.473  1.00  0.00    -0.014 C 
ATOM      7  C   UNL     1       3.218  19.767  59.514  1.00  0.00     0.007 C 
ATOM      8  C   UNL     1       4.558  20.752  57.617  1.00  0.00     0.007 C 
ENDBRANCH   3   6
ENDBRANCH   2   3
ENDBRANCH   1   2
BRANCH   1   9
ATOM      9  C   UNL     1       1.876  24.544  57.903  1.00  0.00    -0.011 C 
ATOM     10  C   UNL     1       2.078  25.921  58.559  1.00  0.00     0.008 C 
BRANCH   9  11
ATOM     11  C   UNL     1       1.464  24.728  56.386  1.00  0.00    -0.002 C 
ATOM     12  C   UNL     1      -0.005  25.091  56.050  1.00  0.00     0.005 C 
ATOM     13  C   UNL     1       1.766  23.539  55.436  1.00  0.00    -0.026 C 
ATOM     14  C   UNL     1      -0.262  24.576  54.624  1.00  0.00     0.005 C 
ATOM     15  C   UNL     1       1.092  24.045  54.152  1.00  0.00    -0.001 C 
ATOM     16  C   UNL     1       3.256  23.324  55.117  1.00  0.00     0.007 C 
ATOM     17  C   UNL     1       1.130  22.210  55.977  1.00  0.00     0.012 C 
ATOM     18  C   UNL     1       1.118  23.010  53.000  1.00  0.00     0.000 C 
ATOM     19  C   UNL     1       3.445  22.323  53.950  1.00  0.00     0.005 C 
ATOM     20  C   UNL     1       2.596  22.617  52.656  1.00  0.00     0.003 C 
ATOM     21  C   UNL     1       0.380  23.502  51.749  1.00  0.00     0.031 C 
ATOM     22  C   UNL     1       3.290  23.493  51.488  1.00  0.00    -0.008 C 
ATOM     23  C   UNL     1       1.090  24.664  51.141  1.00  0.00    -0.027 C 
ATOM     24  C   UNL     1       2.433  24.699  51.046  1.00  0.00    -0.065 C 
ATOM     25  C   UNL     1       4.699  24.028  51.900  1.00  0.00     0.014 C 
ATOM     26  C   UNL     1       3.458  22.580  50.242  1.00  0.00     0.016 C 
ATOM     27  C   UNL     1       3.042  25.810  50.204  1.00  0.00     0.063 C 
ATOM     28  C   UNL     1       5.333  24.980  50.881  1.00  0.00     0.033 C 
ATOM     29  C   UNL     1       4.459  26.215  50.658  1.00  0.00     0.118 C 
BRANCH  29  30
ATOM     30  O   UNL     1       4.468  27.032  51.812  1.00  0.00    -0.393 OA
ATOM     31  H   UNL     1       3.909  27.838  51.659  1.00  0.00     0.210 HD
ENDBRANCH  29  30
ENDBRANCH   9  11
ENDBRANCH   1   9
TORSDOF 7
ENDMDL
