MODEL 1
REMARK VINA RESULT:    -5.850      0.000      0.000
REMARK INTER + INTRA:          -6.289
REMARK INTER:                  -6.192
REMARK INTRA:                  -0.096
REMARK UNBOUND:                -0.096
REMARK SMILES C=C(C)[C@H]1CC=C(C)C(=O)C1
REMARK SMILES IDX 8 1 7 2 6 3 5 4 4 5 11 6 9 7 10 8 2 9 1 10 3 11
REMARK H PARENT
REMARK Flexibility Score: inf
ROOT
ATOM      1  C   UNL     1       0.866  28.217  35.010  1.00  0.00     0.048 C 
ATOM      2  C   UNL     1       0.947  28.998  33.728  1.00  0.00    -0.012 C 
ATOM      3  C   UNL     1       1.885  29.951  33.584  1.00  0.00    -0.019 C 
ATOM      4  C   UNL     1       2.000  30.774  32.328  1.00  0.00     0.036 C 
ATOM      5  C   UNL     1       1.589  29.957  31.089  1.00  0.00     0.025 C 
ATOM      6  C   UNL     1       0.175  29.374  31.278  1.00  0.00     0.089 C 
ATOM      7  C   UNL     1       0.079  28.630  32.581  1.00  0.00     0.158 C 
ATOM      8  O   UNL     1      -0.776  27.712  32.703  1.00  0.00    -0.295 OA
ENDROOT
BRANCH   5   9
ATOM      9  C   UNL     1       1.695  30.775  29.813  1.00  0.00    -0.077 C 
ATOM     10  C   UNL     1       2.848  31.367  29.452  1.00  0.00     0.008 C 
ATOM     11  C   UNL     1       0.473  30.914  28.942  1.00  0.00     0.039 C 
ENDBRANCH   5   9
TORSDOF 1
ENDMDL
MODEL 2
REMARK VINA RESULT:    -5.247      3.165      4.423
REMARK INTER + INTRA:          -5.650
REMARK INTER:                  -5.556
REMARK INTRA:                  -0.095
REMARK UNBOUND:                -0.096
REMARK SMILES C=C(C)[C@H]1CC=C(C)C(=O)C1
REMARK SMILES IDX 8 1 7 2 6 3 5 4 4 5 11 6 9 7 10 8 2 9 1 10 3 11
REMARK H PARENT
REMARK Flexibility Score: inf
ROOT
ATOM      1  C   UNL     1       5.150  26.210  29.999  1.00  0.00     0.048 C 
ATOM      2  C   UNL     1       4.232  26.989  30.899  1.00  0.00    -0.012 C 
ATOM      3  C   UNL     1       4.484  27.051  32.219  1.00  0.00    -0.019 C 
ATOM      4  C   UNL     1       3.588  27.804  33.167  1.00  0.00     0.036 C 
ATOM      5  C   UNL     1       2.959  29.031  32.481  1.00  0.00     0.025 C 
ATOM      6  C   UNL     1       2.224  28.608  31.196  1.00  0.00     0.089 C 
ATOM      7  C   UNL     1       3.127  27.790  30.314  1.00  0.00     0.158 C 
ATOM      8  O   UNL     1       2.913  27.761  29.073  1.00  0.00    -0.295 OA
ENDROOT
BRANCH   5   9
ATOM      9  C   UNL     1       2.048  29.799  33.424  1.00  0.00    -0.077 C 
ATOM     10  C   UNL     1       1.980  31.143  33.397  1.00  0.00     0.008 C 
ATOM     11  C   UNL     1       1.205  29.024  34.403  1.00  0.00     0.039 C 
ENDBRANCH   5   9
TORSDOF 1
ENDMDL
MODEL 3
REMARK VINA RESULT:    -5.201      1.805      4.108
REMARK INTER + INTRA:          -5.602
REMARK INTER:                  -5.504
REMARK INTRA:                  -0.098
REMARK UNBOUND:                -0.096
REMARK SMILES C=C(C)[C@H]1CC=C(C)C(=O)C1
REMARK SMILES IDX 8 1 7 2 6 3 5 4 4 5 11 6 9 7 10 8 2 9 1 10 3 11
REMARK H PARENT
REMARK Flexibility Score: inf
ROOT
ATOM      1  C   UNL     1      -1.850  27.481  28.828  1.00  0.00     0.048 C 
ATOM      2  C   UNL     1      -1.028  27.842  30.033  1.00  0.00    -0.012 C 
ATOM      3  C   UNL     1       0.052  28.632  29.894  1.00  0.00    -0.019 C 
ATOM      4  C   UNL     1       0.920  29.011  31.065  1.00  0.00     0.036 C 
ATOM      5  C   UNL     1       0.091  29.122  32.358  1.00  0.00     0.025 C 
ATOM      6  C   UNL     1      -0.689  27.817  32.607  1.00  0.00     0.089 C 
ATOM      7  C   UNL     1      -1.478  27.430  31.387  1.00  0.00     0.158 C 
ATOM      8  O   UNL     1      -2.510  26.720  31.522  1.00  0.00    -0.295 OA
ENDROOT
BRANCH   5   9
ATOM      9  C   UNL     1       0.954  29.499  33.551  1.00  0.00    -0.077 C 
ATOM     10  C   UNL     1       1.004  28.728  34.653  1.00  0.00     0.008 C 
ATOM     11  C   UNL     1       1.767  30.765  33.481  1.00  0.00     0.039 C 
ENDBRANCH   5   9
TORSDOF 1
ENDMDL
MODEL 4
REMARK VINA RESULT:    -5.179      2.105      4.666
REMARK INTER + INTRA:          -5.579
REMARK INTER:                  -5.477
REMARK INTRA:                  -0.101
REMARK UNBOUND:                -0.096
REMARK SMILES C=C(C)[C@H]1CC=C(C)C(=O)C1
REMARK SMILES IDX 8 1 7 2 6 3 5 4 4 5 11 6 9 7 10 8 2 9 1 10 3 11
REMARK H PARENT
REMARK Flexibility Score: inf
ROOT
ATOM      1  C   UNL     1       1.053  30.970  28.047  1.00  0.00     0.048 C 
ATOM      2  C   UNL     1       1.060  30.671  29.520  1.00  0.00    -0.012 C 
ATOM      3  C   UNL     1       0.019  30.026  30.076  1.00  0.00    -0.019 C 
ATOM      4  C   UNL     1      -0.034  29.716  31.550  1.00  0.00     0.036 C 
ATOM      5  C   UNL     1       1.377  29.457  32.112  1.00  0.00     0.025 C 
ATOM      6  C   UNL     1       2.305  30.645  31.799  1.00  0.00     0.089 C 
ATOM      7  C   UNL     1       2.266  30.974  30.332  1.00  0.00     0.158 C 
ATOM      8  O   UNL     1       3.256  31.547  29.804  1.00  0.00    -0.295 OA
ENDROOT
BRANCH   5   9
ATOM      9  C   UNL     1       1.342  29.147  33.600  1.00  0.00    -0.077 C 
ATOM     10  C   UNL     1       2.438  29.271  34.369  1.00  0.00     0.008 C 
ATOM     11  C   UNL     1       0.041  28.695  34.212  1.00  0.00     0.039 C 
ENDBRANCH   5   9
TORSDOF 1
ENDMDL
MODEL 5
REMARK VINA RESULT:    -5.110      2.030      3.519
REMARK INTER + INTRA:          -5.505
REMARK INTER:                  -5.409
REMARK INTRA:                  -0.096
REMARK UNBOUND:                -0.096
REMARK SMILES C=C(C)[C@H]1CC=C(C)C(=O)C1
REMARK SMILES IDX 8 1 7 2 6 3 5 4 4 5 11 6 9 7 10 8 2 9 1 10 3 11
REMARK H PARENT
REMARK Flexibility Score: inf
ROOT
ATOM      1  C   UNL     1       2.031  30.981  33.498  1.00  0.00     0.048 C 
ATOM      2  C   UNL     1       1.021  30.143  32.764  1.00  0.00    -0.012 C 
ATOM      3  C   UNL     1       0.816  30.341  31.450  1.00  0.00    -0.019 C 
ATOM      4  C   UNL     1      -0.195  29.542  30.670  1.00  0.00     0.036 C 
ATOM      5  C   UNL     1      -0.318  28.110  31.225  1.00  0.00     0.025 C 
ATOM      6  C   UNL     1      -0.638  28.145  32.731  1.00  0.00     0.089 C 
ATOM      7  C   UNL     1       0.345  29.019  33.461  1.00  0.00     0.158 C 
ATOM      8  O   UNL     1       0.563  28.809  34.684  1.00  0.00    -0.295 OA
ENDROOT
BRANCH   5   9
ATOM      9  C   UNL     1      -1.338  27.291  30.452  1.00  0.00    -0.077 C 
ATOM     10  C   UNL     1      -1.223  27.096  29.125  1.00  0.00     0.008 C 
ATOM     11  C   UNL     1      -2.498  26.689  31.202  1.00  0.00     0.039 C 
ENDBRANCH   5   9
TORSDOF 1
ENDMDL
MODEL 6
REMARK VINA RESULT:    -5.102      1.330      4.125
REMARK INTER + INTRA:          -5.497
REMARK INTER:                  -5.399
REMARK INTRA:                  -0.098
REMARK UNBOUND:                -0.096
REMARK SMILES C=C(C)[C@H]1CC=C(C)C(=O)C1
REMARK SMILES IDX 8 1 7 2 6 3 5 4 4 5 11 6 9 7 10 8 2 9 1 10 3 11
REMARK H PARENT
REMARK Flexibility Score: inf
ROOT
ATOM      1  C   UNL     1       0.392  30.543  28.048  1.00  0.00     0.048 C 
ATOM      2  C   UNL     1       0.713  30.117  29.454  1.00  0.00    -0.012 C 
ATOM      3  C   UNL     1       1.682  30.749  30.139  1.00  0.00    -0.019 C 
ATOM      4  C   UNL     1       2.056  30.352  31.544  1.00  0.00     0.036 C 
ATOM      5  C   UNL     1       0.830  29.831  32.317  1.00  0.00     0.025 C 
ATOM      6  C   UNL     1       0.160  28.679  31.544  1.00  0.00     0.089 C 
ATOM      7  C   UNL     1      -0.122  29.088  30.125  1.00  0.00     0.158 C 
ATOM      8  O   UNL     1      -1.054  28.521  29.495  1.00  0.00    -0.295 OA
ENDROOT
BRANCH   5   9
ATOM      9  C   UNL     1       1.191  29.421  33.735  1.00  0.00    -0.077 C 
ATOM     10  C   UNL     1       2.422  29.631  34.235  1.00  0.00     0.008 C 
ATOM     11  C   UNL     1       0.134  28.768  34.588  1.00  0.00     0.039 C 
ENDBRANCH   5   9
TORSDOF 1
ENDMDL
MODEL 7
REMARK VINA RESULT:    -5.069      2.206      4.498
REMARK INTER + INTRA:          -5.462
REMARK INTER:                  -5.364
REMARK INTRA:                  -0.098
REMARK UNBOUND:                -0.096
REMARK SMILES C=C(C)[C@H]1CC=C(C)C(=O)C1
REMARK SMILES IDX 8 1 7 2 6 3 5 4 4 5 11 6 9 7 10 8 2 9 1 10 3 11
REMARK H PARENT
REMARK Flexibility Score: inf
ROOT
ATOM      1  C   UNL     1      -1.304  27.494  28.372  1.00  0.00     0.048 C 
ATOM      2  C   UNL     1      -0.937  28.073  29.710  1.00  0.00    -0.012 C 
ATOM      3  C   UNL     1      -1.118  27.345  30.826  1.00  0.00    -0.019 C 
ATOM      4  C   UNL     1      -0.783  27.883  32.193  1.00  0.00     0.036 C 
ATOM      5  C   UNL     1       0.417  28.847  32.131  1.00  0.00     0.025 C 
ATOM      6  C   UNL     1       0.149  29.970  31.112  1.00  0.00     0.089 C 
ATOM      7  C   UNL     1      -0.261  29.393  29.785  1.00  0.00     0.158 C 
ATOM      8  O   UNL     1      -0.058  30.061  28.736  1.00  0.00    -0.295 OA
ENDROOT
BRANCH   5   9
ATOM      9  C   UNL     1       0.764  29.403  33.503  1.00  0.00    -0.077 C 
ATOM     10  C   UNL     1       0.375  28.782  34.631  1.00  0.00     0.008 C 
ATOM     11  C   UNL     1       1.565  30.676  33.582  1.00  0.00     0.039 C 
ENDBRANCH   5   9
TORSDOF 1
ENDMDL
MODEL 8
REMARK VINA RESULT:    -5.032      1.511      2.203
REMARK INTER + INTRA:          -5.423
REMARK INTER:                  -5.325
REMARK INTRA:                  -0.098
REMARK UNBOUND:                -0.096
REMARK SMILES C=C(C)[C@H]1CC=C(C)C(=O)C1
REMARK SMILES IDX 8 1 7 2 6 3 5 4 4 5 11 6 9 7 10 8 2 9 1 10 3 11
REMARK H PARENT
REMARK Flexibility Score: inf
ROOT
ATOM      1  C   UNL     1       0.192  28.605  34.747  1.00  0.00     0.048 C 
ATOM      2  C   UNL     1       0.394  28.975  33.304  1.00  0.00    -0.012 C 
ATOM      3  C   UNL     1      -0.440  28.491  32.367  1.00  0.00    -0.019 C 
ATOM      4  C   UNL     1      -0.274  28.816  30.906  1.00  0.00     0.036 C 
ATOM      5  C   UNL     1       0.303  30.231  30.714  1.00  0.00     0.025 C 
ATOM      6  C   UNL     1       1.619  30.383  31.499  1.00  0.00     0.089 C 
ATOM      7  C   UNL     1       1.431  29.971  32.933  1.00  0.00     0.158 C 
ATOM      8  O   UNL     1       2.189  30.453  33.816  1.00  0.00    -0.295 OA
ENDROOT
BRANCH   5   9
ATOM      9  C   UNL     1       0.481  30.573  29.244  1.00  0.00    -0.077 C 
ATOM     10  C   UNL     1       1.687  30.891  28.738  1.00  0.00     0.008 C 
ATOM     11  C   UNL     1      -0.728  30.549  28.346  1.00  0.00     0.039 C 
ENDBRANCH   5   9
TORSDOF 1
ENDMDL
MODEL 9
REMARK VINA RESULT:    -4.914      2.330      3.765
REMARK INTER + INTRA:          -5.298
REMARK INTER:                  -5.198
REMARK INTRA:                  -0.099
REMARK UNBOUND:                -0.096
REMARK SMILES C=C(C)[C@H]1CC=C(C)C(=O)C1
REMARK SMILES IDX 8 1 7 2 6 3 5 4 4 5 11 6 9 7 10 8 2 9 1 10 3 11
REMARK H PARENT
REMARK Flexibility Score: inf
ROOT
ATOM      1  C   UNL     1       1.979  31.110  33.454  1.00  0.00     0.048 C 
ATOM      2  C   UNL     1       1.274  29.974  32.767  1.00  0.00    -0.012 C 
ATOM      3  C   UNL     1       0.325  29.282  33.423  1.00  0.00    -0.019 C 
ATOM      4  C   UNL     1      -0.401  28.125  32.789  1.00  0.00     0.036 C 
ATOM      5  C   UNL     1      -0.563  28.336  31.272  1.00  0.00     0.025 C 
ATOM      6  C   UNL     1       0.808  28.594  30.618  1.00  0.00     0.089 C 
ATOM      7  C   UNL     1       1.534  29.700  31.331  1.00  0.00     0.158 C 
ATOM      8  O   UNL     1       2.397  30.372  30.706  1.00  0.00    -0.295 OA
ENDROOT
BRANCH   5   9
ATOM      9  C   UNL     1      -1.289  27.173  30.615  1.00  0.00    -0.077 C 
ATOM     10  C   UNL     1      -0.824  26.599  29.491  1.00  0.00     0.008 C 
ATOM     11  C   UNL     1      -2.556  26.663  31.251  1.00  0.00     0.039 C 
ENDBRANCH   5   9
TORSDOF 1
ENDMDL
