MODEL 1
REMARK VINA RESULT:    -4.489      0.000      0.000
REMARK INTER + INTRA:         -10.188
REMARK INTER:                  -8.689
REMARK INTRA:                  -1.500
REMARK UNBOUND:                -1.500
REMARK SMILES CCCCCCCCCCCCCCCCCC(=O)[O-]
REMARK SMILES IDX 10 1 11 2 12 3 13 4 14 5 15 6 16 7 17 8 18 9 19 10 20 11
REMARK SMILES IDX 9 12 8 13 7 14 6 15 5 16 4 17 3 18 2 19 1 20
REMARK H PARENT
REMARK Flexibility Score: inf
ROOT
ATOM      1  C   UNL     1      17.154  20.976 -12.828  1.00  0.00     0.000 C 
ENDROOT
BRANCH   1   2
ATOM      2  C   UNL     1      16.011  20.431 -11.952  1.00  0.00     0.000 C 
BRANCH   2   3
ATOM      3  C   UNL     1      14.801  21.382 -11.912  1.00  0.00     0.000 C 
BRANCH   3   4
ATOM      4  C   UNL     1      15.063  22.710 -12.646  1.00  0.00     0.000 C 
BRANCH   4   5
ATOM      5  C   UNL     1      13.885  23.231 -13.492  1.00  0.00     0.000 C 
BRANCH   5   6
ATOM      6  C   UNL     1      12.552  22.544 -13.147  1.00  0.00     0.000 C 
BRANCH   6   7
ATOM      7  C   UNL     1      11.718  23.353 -12.140  1.00  0.00     0.006 C 
BRANCH   7   8
ATOM      8  C   UNL     1      12.038  24.855 -12.189  1.00  0.00     0.053 C 
BRANCH   8   9
ATOM      9  C   UNL     1      12.457  25.349 -10.837  1.00  0.00     0.041 C 
ATOM     10  O   UNL     1      13.638  25.168 -10.436  1.00  0.00    -0.550 OA
ATOM     11  O   UNL     1      11.557  26.046 -10.039  1.00  0.00    -0.550 OA
ENDBRANCH   8   9
ENDBRANCH   7   8
ENDBRANCH   6   7
ENDBRANCH   5   6
ENDBRANCH   4   5
ENDBRANCH   3   4
ENDBRANCH   2   3
ENDBRANCH   1   2
BRANCH   1  12
ATOM     12  C   UNL     1      17.747  19.915 -13.786  1.00  0.00     0.000 C 
BRANCH  12  13
ATOM     13  C   UNL     1      19.286  19.932 -13.851  1.00  0.00    -0.000 C 
BRANCH  13  14
ATOM     14  C   UNL     1      19.925  18.699 -13.187  1.00  0.00    -0.000 C 
BRANCH  14  15
ATOM     15  C   UNL     1      18.977  17.997 -12.203  1.00  0.00    -0.000 C 
BRANCH  15  16
ATOM     16  C   UNL     1      19.234  18.410 -10.742  1.00  0.00    -0.000 C 
BRANCH  16  17
ATOM     17  C   UNL     1      20.584  17.903 -10.210  1.00  0.00    -0.000 C 
BRANCH  17  18
ATOM     18  C   UNL     1      20.747  16.382 -10.358  1.00  0.00    -0.000 C 
BRANCH  18  19
ATOM     19  C   UNL     1      22.030  16.044 -11.127  1.00  0.00    -0.003 C 
ATOM     20  C   UNL     1      23.028  17.198 -11.068  1.00  0.00     0.004 C 
ENDBRANCH  18  19
ENDBRANCH  17  18
ENDBRANCH  16  17
ENDBRANCH  15  16
ENDBRANCH  14  15
ENDBRANCH  13  14
ENDBRANCH  12  13
ENDBRANCH   1  12
TORSDOF 16
ENDMDL
MODEL 2
REMARK VINA RESULT:    -4.447      3.218      9.223
REMARK INTER + INTRA:         -10.106
REMARK INTER:                  -8.372
REMARK INTRA:                  -1.734
REMARK UNBOUND:                -1.500
REMARK SMILES CCCCCCCCCCCCCCCCCC(=O)[O-]
REMARK SMILES IDX 10 1 11 2 12 3 13 4 14 5 15 6 16 7 17 8 18 9 19 10 20 11
REMARK SMILES IDX 9 12 8 13 7 14 6 15 5 16 4 17 3 18 2 19 1 20
REMARK H PARENT
REMARK Flexibility Score: inf
ROOT
ATOM      1  C   UNL     1      14.817  22.079 -12.196  1.00  0.00     0.000 C 
ENDROOT
BRANCH   1   2
ATOM      2  C   UNL     1      15.721  20.836 -12.112  1.00  0.00     0.000 C 
BRANCH   2   3
ATOM      3  C   UNL     1      17.145  21.114 -12.625  1.00  0.00     0.000 C 
BRANCH   3   4
ATOM      4  C   UNL     1      17.650  20.034 -13.600  1.00  0.00     0.000 C 
BRANCH   4   5
ATOM      5  C   UNL     1      19.176  20.009 -13.813  1.00  0.00     0.000 C 
BRANCH   5   6
ATOM      6  C   UNL     1      19.755  18.584 -13.821  1.00  0.00     0.000 C 
BRANCH   6   7
ATOM      7  C   UNL     1      18.977  17.628 -12.903  1.00  0.00     0.006 C 
BRANCH   7   8
ATOM      8  C   UNL     1      19.870  16.997 -11.823  1.00  0.00     0.053 C 
BRANCH   8   9
ATOM      9  C   UNL     1      19.797  17.788 -10.553  1.00  0.00     0.041 C 
ATOM     10  O   UNL     1      20.645  17.596  -9.640  1.00  0.00    -0.550 OA
ATOM     11  O   UNL     1      18.822  18.765 -10.394  1.00  0.00    -0.550 OA
ENDBRANCH   8   9
ENDBRANCH   7   8
ENDBRANCH   6   7
ENDBRANCH   5   6
ENDBRANCH   4   5
ENDBRANCH   3   4
ENDBRANCH   2   3
ENDBRANCH   1   2
BRANCH   1  12
ATOM     12  C   UNL     1      15.231  23.060 -13.320  1.00  0.00     0.000 C 
BRANCH  12  13
ATOM     13  C   UNL     1      15.188  24.540 -12.897  1.00  0.00    -0.000 C 
BRANCH  13  14
ATOM     14  C   UNL     1      14.403  24.765 -11.591  1.00  0.00    -0.000 C 
BRANCH  14  15
ATOM     15  C   UNL     1      13.549  26.041 -11.626  1.00  0.00    -0.000 C 
BRANCH  15  16
ATOM     16  C   UNL     1      12.796  26.210 -12.959  1.00  0.00    -0.000 C 
BRANCH  16  17
ATOM     17  C   UNL     1      11.270  26.201 -12.784  1.00  0.00    -0.000 C 
BRANCH  17  18
ATOM     18  C   UNL     1      10.592  25.043 -13.535  1.00  0.00    -0.000 C 
BRANCH  18  19
ATOM     19  C   UNL     1      10.848  23.710 -12.822  1.00  0.00    -0.003 C 
ATOM     20  C   UNL     1      11.562  22.721 -13.740  1.00  0.00     0.004 C 
ENDBRANCH  18  19
ENDBRANCH  17  18
ENDBRANCH  16  17
ENDBRANCH  15  16
ENDBRANCH  14  15
ENDBRANCH  13  14
ENDBRANCH  12  13
ENDBRANCH   1  12
TORSDOF 16
ENDMDL
MODEL 3
REMARK VINA RESULT:    -4.420      3.948      9.057
REMARK INTER + INTRA:         -10.055
REMARK INTER:                  -8.335
REMARK INTRA:                  -1.720
REMARK UNBOUND:                -1.500
REMARK SMILES CCCCCCCCCCCCCCCCCC(=O)[O-]
REMARK SMILES IDX 10 1 11 2 12 3 13 4 14 5 15 6 16 7 17 8 18 9 19 10 20 11
REMARK SMILES IDX 9 12 8 13 7 14 6 15 5 16 4 17 3 18 2 19 1 20
REMARK H PARENT
REMARK Flexibility Score: inf
ROOT
ATOM      1  C   UNL     1      14.953  21.300 -11.867  1.00  0.00     0.000 C 
ENDROOT
BRANCH   1   2
ATOM      2  C   UNL     1      16.194  20.463 -12.229  1.00  0.00     0.000 C 
BRANCH   2   3
ATOM      3  C   UNL     1      17.254  21.286 -12.982  1.00  0.00     0.000 C 
BRANCH   3   4
ATOM      4  C   UNL     1      18.280  20.406 -13.720  1.00  0.00     0.000 C 
BRANCH   4   5
ATOM      5  C   UNL     1      17.834  18.952 -13.968  1.00  0.00     0.000 C 
BRANCH   5   6
ATOM      6  C   UNL     1      18.655  17.930 -13.163  1.00  0.00     0.000 C 
BRANCH   6   7
ATOM      7  C   UNL     1      19.716  18.598 -12.273  1.00  0.00     0.006 C 
BRANCH   7   8
ATOM      8  C   UNL     1      19.521  18.271 -10.784  1.00  0.00     0.053 C 
BRANCH   8   9
ATOM      9  C   UNL     1      20.525  17.254 -10.334  1.00  0.00     0.041 C 
ATOM     10  O   UNL     1      20.337  16.031 -10.571  1.00  0.00    -0.550 OA
ATOM     11  O   UNL     1      21.689  17.661  -9.691  1.00  0.00    -0.550 OA
ENDBRANCH   8   9
ENDBRANCH   7   8
ENDBRANCH   6   7
ENDBRANCH   5   6
ENDBRANCH   4   5
ENDBRANCH   3   4
ENDBRANCH   2   3
ENDBRANCH   1   2
BRANCH   1  12
ATOM     12  C   UNL     1      15.021  22.752 -12.399  1.00  0.00     0.000 C 
BRANCH  12  13
ATOM     13  C   UNL     1      13.790  23.165 -13.227  1.00  0.00    -0.000 C 
BRANCH  13  14
ATOM     14  C   UNL     1      12.514  22.407 -12.818  1.00  0.00    -0.000 C 
BRANCH  14  15
ATOM     15  C   UNL     1      11.470  23.319 -12.154  1.00  0.00    -0.000 C 
BRANCH  15  16
ATOM     16  C   UNL     1      11.915  24.793 -12.116  1.00  0.00    -0.000 C 
BRANCH  16  17
ATOM     17  C   UNL     1      11.985  25.355 -10.688  1.00  0.00    -0.000 C 
BRANCH  17  18
ATOM     18  C   UNL     1      13.321  26.055 -10.390  1.00  0.00    -0.000 C 
BRANCH  18  19
ATOM     19  C   UNL     1      14.022  26.466 -11.690  1.00  0.00    -0.003 C 
ATOM     20  C   UNL     1      15.528  26.229 -11.604  1.00  0.00     0.004 C 
ENDBRANCH  18  19
ENDBRANCH  17  18
ENDBRANCH  16  17
ENDBRANCH  15  16
ENDBRANCH  14  15
ENDBRANCH  13  14
ENDBRANCH  12  13
ENDBRANCH   1  12
TORSDOF 16
ENDMDL
MODEL 4
REMARK VINA RESULT:    -4.407      2.065      5.018
REMARK INTER + INTRA:         -10.029
REMARK INTER:                  -8.015
REMARK INTRA:                  -2.014
REMARK UNBOUND:                -1.500
REMARK SMILES CCCCCCCCCCCCCCCCCC(=O)[O-]
REMARK SMILES IDX 10 1 11 2 12 3 13 4 14 5 15 6 16 7 17 8 18 9 19 10 20 11
REMARK SMILES IDX 9 12 8 13 7 14 6 15 5 16 4 17 3 18 2 19 1 20
REMARK H PARENT
REMARK Flexibility Score: inf
ROOT
ATOM      1  C   UNL     1      20.213  17.729 -10.614  1.00  0.00     0.000 C 
ENDROOT
BRANCH   1   2
ATOM      2  C   UNL     1      20.543  17.506 -12.102  1.00  0.00     0.000 C 
BRANCH   2   3
ATOM      3  C   UNL     1      19.277  17.358 -12.965  1.00  0.00     0.000 C 
BRANCH   3   4
ATOM      4  C   UNL     1      18.295  18.531 -12.790  1.00  0.00     0.000 C 
BRANCH   4   5
ATOM      5  C   UNL     1      18.833  19.904 -13.235  1.00  0.00     0.000 C 
BRANCH   5   6
ATOM      6  C   UNL     1      17.721  20.859 -13.702  1.00  0.00     0.000 C 
BRANCH   6   7
ATOM      7  C   UNL     1      16.696  21.154 -12.595  1.00  0.00     0.006 C 
BRANCH   7   8
ATOM      8  C   UNL     1      15.838  22.390 -12.905  1.00  0.00     0.053 C 
BRANCH   8   9
ATOM      9  C   UNL     1      14.599  22.396 -12.062  1.00  0.00     0.041 C 
ATOM     10  O   UNL     1      14.029  21.311 -11.769  1.00  0.00    -0.550 OA
ATOM     11  O   UNL     1      14.099  23.594 -11.565  1.00  0.00    -0.550 OA
ENDBRANCH   8   9
ENDBRANCH   7   8
ENDBRANCH   6   7
ENDBRANCH   5   6
ENDBRANCH   4   5
ENDBRANCH   3   4
ENDBRANCH   2   3
ENDBRANCH   1   2
BRANCH   1  12
ATOM     12  C   UNL     1      21.444  17.581  -9.688  1.00  0.00     0.000 C 
BRANCH  12  13
ATOM     13  C   UNL     1      22.709  17.088 -10.414  1.00  0.00    -0.000 C 
BRANCH  13  14
ATOM     14  C   UNL     1      23.258  15.774  -9.831  1.00  0.00    -0.000 C 
BRANCH  14  15
ATOM     15  C   UNL     1      22.809  15.535  -8.381  1.00  0.00    -0.000 C 
BRANCH  15  16
ATOM     16  C   UNL     1      22.096  14.182  -8.202  1.00  0.00    -0.000 C 
BRANCH  16  17
ATOM     17  C   UNL     1      21.537  13.625  -9.521  1.00  0.00    -0.000 C 
BRANCH  17  18
ATOM     18  C   UNL     1      20.008  13.749  -9.618  1.00  0.00    -0.000 C 
BRANCH  18  19
ATOM     19  C   UNL     1      19.579  14.081 -11.052  1.00  0.00    -0.003 C 
ATOM     20  C   UNL     1      20.706  13.803 -12.044  1.00  0.00     0.004 C 
ENDBRANCH  18  19
ENDBRANCH  17  18
ENDBRANCH  16  17
ENDBRANCH  15  16
ENDBRANCH  14  15
ENDBRANCH  13  14
ENDBRANCH  12  13
ENDBRANCH   1  12
TORSDOF 16
ENDMDL
MODEL 5
REMARK VINA RESULT:    -4.297      3.283      9.265
REMARK INTER + INTRA:          -9.816
REMARK INTER:                  -7.895
REMARK INTRA:                  -1.920
REMARK UNBOUND:                -1.500
REMARK SMILES CCCCCCCCCCCCCCCCCC(=O)[O-]
REMARK SMILES IDX 10 1 11 2 12 3 13 4 14 5 15 6 16 7 17 8 18 9 19 10 20 11
REMARK SMILES IDX 9 12 8 13 7 14 6 15 5 16 4 17 3 18 2 19 1 20
REMARK H PARENT
REMARK Flexibility Score: inf
ROOT
ATOM      1  C   UNL     1      14.206  22.014 -12.173  1.00  0.00     0.000 C 
ENDROOT
BRANCH   1   2
ATOM      2  C   UNL     1      15.362  22.808 -12.809  1.00  0.00     0.000 C 
BRANCH   2   3
ATOM      3  C   UNL     1      16.649  21.972 -12.925  1.00  0.00     0.000 C 
BRANCH   3   4
ATOM      4  C   UNL     1      16.549  20.617 -12.199  1.00  0.00     0.000 C 
BRANCH   4   5
ATOM      5  C   UNL     1      17.007  19.400 -13.024  1.00  0.00     0.000 C 
BRANCH   5   6
ATOM      6  C   UNL     1      18.325  19.651 -13.779  1.00  0.00     0.000 C 
BRANCH   6   7
ATOM      7  C   UNL     1      19.561  19.391 -12.903  1.00  0.00     0.006 C 
BRANCH   7   8
ATOM      8  C   UNL     1      19.668  17.923 -12.461  1.00  0.00     0.053 C 
BRANCH   8   9
ATOM      9  C   UNL     1      19.638  17.821 -10.966  1.00  0.00     0.041 C 
ATOM     10  O   UNL     1      20.342  16.956 -10.378  1.00  0.00    -0.550 OA
ATOM     11  O   UNL     1      18.870  18.707 -10.221  1.00  0.00    -0.550 OA
ENDBRANCH   8   9
ENDBRANCH   7   8
ENDBRANCH   6   7
ENDBRANCH   5   6
ENDBRANCH   4   5
ENDBRANCH   3   4
ENDBRANCH   2   3
ENDBRANCH   1   2
BRANCH   1  12
ATOM     12  C   UNL     1      12.816  22.415 -12.723  1.00  0.00     0.000 C 
BRANCH  12  13
ATOM     13  C   UNL     1      12.872  23.118 -14.092  1.00  0.00    -0.000 C 
BRANCH  13  14
ATOM     14  C   UNL     1      12.175  24.491 -14.087  1.00  0.00    -0.000 C 
BRANCH  14  15
ATOM     15  C   UNL     1      13.153  25.652 -13.849  1.00  0.00    -0.000 C 
BRANCH  15  16
ATOM     16  C   UNL     1      12.809  26.459 -12.583  1.00  0.00    -0.000 C 
BRANCH  16  17
ATOM     17  C   UNL     1      13.159  25.710 -11.288  1.00  0.00    -0.000 C 
BRANCH  17  18
ATOM     18  C   UNL     1      12.050  25.806 -10.228  1.00  0.00    -0.000 C 
BRANCH  18  19
ATOM     19  C   UNL     1      10.668  25.864 -10.891  1.00  0.00    -0.003 C 
ATOM     20  C   UNL     1      10.099  24.463 -11.101  1.00  0.00     0.004 C 
ENDBRANCH  18  19
ENDBRANCH  17  18
ENDBRANCH  16  17
ENDBRANCH  15  16
ENDBRANCH  14  15
ENDBRANCH  13  14
ENDBRANCH  12  13
ENDBRANCH   1  12
TORSDOF 16
ENDMDL
MODEL 6
REMARK VINA RESULT:    -4.273      2.009      4.116
REMARK INTER + INTRA:          -9.769
REMARK INTER:                  -8.308
REMARK INTRA:                  -1.461
REMARK UNBOUND:                -1.500
REMARK SMILES CCCCCCCCCCCCCCCCCC(=O)[O-]
REMARK SMILES IDX 10 1 11 2 12 3 13 4 14 5 15 6 16 7 17 8 18 9 19 10 20 11
REMARK SMILES IDX 9 12 8 13 7 14 6 15 5 16 4 17 3 18 2 19 1 20
REMARK H PARENT
REMARK Flexibility Score: inf
ROOT
ATOM      1  C   UNL     1      13.693  22.090 -12.247  1.00  0.00     0.000 C 
ENDROOT
BRANCH   1   2
ATOM      2  C   UNL     1      12.388  22.716 -12.772  1.00  0.00     0.000 C 
BRANCH   2   3
ATOM      3  C   UNL     1      12.351  24.242 -12.574  1.00  0.00     0.000 C 
BRANCH   3   4
ATOM      4  C   UNL     1      11.680  24.656 -11.252  1.00  0.00     0.000 C 
BRANCH   4   5
ATOM      5  C   UNL     1      12.371  25.812 -10.504  1.00  0.00     0.000 C 
BRANCH   5   6
ATOM      6  C   UNL     1      13.759  26.151 -11.077  1.00  0.00     0.000 C 
BRANCH   6   7
ATOM      7  C   UNL     1      14.875  26.023 -10.027  1.00  0.00     0.006 C 
BRANCH   7   8
ATOM      8  C   UNL     1      14.662  26.963  -8.830  1.00  0.00     0.053 C 
BRANCH   8   9
ATOM      9  C   UNL     1      14.759  26.203  -7.542  1.00  0.00     0.041 C 
ATOM     10  O   UNL     1      13.883  25.347  -7.246  1.00  0.00    -0.550 OA
ATOM     11  O   UNL     1      15.838  26.410  -6.690  1.00  0.00    -0.550 OA
ENDBRANCH   8   9
ENDBRANCH   7   8
ENDBRANCH   6   7
ENDBRANCH   5   6
ENDBRANCH   4   5
ENDBRANCH   3   4
ENDBRANCH   2   3
ENDBRANCH   1   2
BRANCH   1  12
ATOM     12  C   UNL     1      14.938  22.975 -12.498  1.00  0.00     0.000 C 
BRANCH  12  13
ATOM     13  C   UNL     1      16.104  22.226 -13.170  1.00  0.00    -0.000 C 
BRANCH  13  14
ATOM     14  C   UNL     1      16.828  21.265 -12.209  1.00  0.00    -0.000 C 
BRANCH  14  15
ATOM     15  C   UNL     1      16.634  19.789 -12.589  1.00  0.00    -0.000 C 
BRANCH  15  16
ATOM     16  C   UNL     1      17.424  19.397 -13.851  1.00  0.00    -0.000 C 
BRANCH  16  17
ATOM     17  C   UNL     1      18.899  19.827 -13.785  1.00  0.00    -0.000 C 
BRANCH  17  18
ATOM     18  C   UNL     1      19.780  18.811 -13.041  1.00  0.00    -0.000 C 
BRANCH  18  19
ATOM     19  C   UNL     1      19.331  17.376 -13.345  1.00  0.00    -0.003 C 
ATOM     20  C   UNL     1      19.375  16.507 -12.091  1.00  0.00     0.004 C 
ENDBRANCH  18  19
ENDBRANCH  17  18
ENDBRANCH  16  17
ENDBRANCH  15  16
ENDBRANCH  14  15
ENDBRANCH  13  14
ENDBRANCH  12  13
ENDBRANCH   1  12
TORSDOF 16
ENDMDL
MODEL 7
REMARK VINA RESULT:    -4.247      3.408      9.459
REMARK INTER + INTRA:          -9.720
REMARK INTER:                  -8.065
REMARK INTRA:                  -1.655
REMARK UNBOUND:                -1.500
REMARK SMILES CCCCCCCCCCCCCCCCCC(=O)[O-]
REMARK SMILES IDX 10 1 11 2 12 3 13 4 14 5 15 6 16 7 17 8 18 9 19 10 20 11
REMARK SMILES IDX 9 12 8 13 7 14 6 15 5 16 4 17 3 18 2 19 1 20
REMARK H PARENT
REMARK Flexibility Score: inf
ROOT
ATOM      1  C   UNL     1      12.874  23.141 -13.916  1.00  0.00     0.000 C 
ENDROOT
BRANCH   1   2
ATOM      2  C   UNL     1      13.876  23.808 -12.957  1.00  0.00     0.000 C 
BRANCH   2   3
ATOM      3  C   UNL     1      15.121  22.936 -12.715  1.00  0.00     0.000 C 
BRANCH   3   4
ATOM      4  C   UNL     1      14.788  21.596 -12.032  1.00  0.00     0.000 C 
BRANCH   4   5
ATOM      5  C   UNL     1      15.915  20.547 -12.070  1.00  0.00     0.000 C 
BRANCH   5   6
ATOM      6  C   UNL     1      17.113  20.987 -12.931  1.00  0.00     0.000 C 
BRANCH   6   7
ATOM      7  C   UNL     1      17.788  19.805 -13.646  1.00  0.00     0.006 C 
BRANCH   7   8
ATOM      8  C   UNL     1      19.099  19.382 -12.966  1.00  0.00     0.053 C 
BRANCH   8   9
ATOM      9  C   UNL     1      18.855  18.262 -12.002  1.00  0.00     0.041 C 
ATOM     10  O   UNL     1      19.096  17.072 -12.340  1.00  0.00    -0.550 OA
ATOM     11  O   UNL     1      18.402  18.535 -10.716  1.00  0.00    -0.550 OA
ENDBRANCH   8   9
ENDBRANCH   7   8
ENDBRANCH   6   7
ENDBRANCH   5   6
ENDBRANCH   4   5
ENDBRANCH   3   4
ENDBRANCH   2   3
ENDBRANCH   1   2
BRANCH   1  12
ATOM     12  C   UNL     1      11.398  23.346 -13.496  1.00  0.00     0.000 C 
BRANCH  12  13
ATOM     13  C   UNL     1      11.194  23.416 -11.971  1.00  0.00    -0.000 C 
BRANCH  13  14
ATOM     14  C   UNL     1       9.709  23.495 -11.571  1.00  0.00    -0.000 C 
BRANCH  14  15
ATOM     15  C   UNL     1       9.373  24.771 -10.784  1.00  0.00    -0.000 C 
BRANCH  15  16
ATOM     16  C   UNL     1       9.867  26.046 -11.493  1.00  0.00    -0.000 C 
BRANCH  16  17
ATOM     17  C   UNL     1      10.722  26.939 -10.580  1.00  0.00    -0.000 C 
BRANCH  17  18
ATOM     18  C   UNL     1      11.512  26.136  -9.535  1.00  0.00    -0.000 C 
BRANCH  18  19
ATOM     19  C   UNL     1      12.951  25.895 -10.008  1.00  0.00    -0.003 C 
ATOM     20  C   UNL     1      13.425  27.020 -10.926  1.00  0.00     0.004 C 
ENDBRANCH  18  19
ENDBRANCH  17  18
ENDBRANCH  16  17
ENDBRANCH  15  16
ENDBRANCH  14  15
ENDBRANCH  13  14
ENDBRANCH  12  13
ENDBRANCH   1  12
TORSDOF 16
ENDMDL
MODEL 8
REMARK VINA RESULT:    -4.180     10.684     12.030
REMARK INTER + INTRA:          -9.589
REMARK INTER:                  -6.989
REMARK INTRA:                  -2.600
REMARK UNBOUND:                -1.500
REMARK SMILES CCCCCCCCCCCCCCCCCC(=O)[O-]
REMARK SMILES IDX 10 1 11 2 12 3 13 4 14 5 15 6 16 7 17 8 18 9 19 10 20 11
REMARK SMILES IDX 9 12 8 13 7 14 6 15 5 16 4 17 3 18 2 19 1 20
REMARK H PARENT
REMARK Flexibility Score: inf
ROOT
ATOM      1  C   UNL     1       6.871  14.653 -11.544  1.00  0.00     0.000 C 
ENDROOT
BRANCH   1   2
ATOM      2  C   UNL     1       8.014  15.518 -10.982  1.00  0.00     0.000 C 
BRANCH   2   3
ATOM      3  C   UNL     1       8.413  15.102  -9.555  1.00  0.00     0.000 C 
BRANCH   3   4
ATOM      4  C   UNL     1       7.605  15.840  -8.470  1.00  0.00     0.000 C 
BRANCH   4   5
ATOM      5  C   UNL     1       6.570  14.975  -7.726  1.00  0.00     0.000 C 
BRANCH   5   6
ATOM      6  C   UNL     1       5.119  15.343  -8.080  1.00  0.00     0.000 C 
BRANCH   6   7
ATOM      7  C   UNL     1       4.466  16.243  -7.018  1.00  0.00     0.006 C 
BRANCH   7   8
ATOM      8  C   UNL     1       4.902  17.711  -7.147  1.00  0.00     0.053 C 
BRANCH   8   9
ATOM      9  C   UNL     1       5.740  18.115  -5.973  1.00  0.00     0.041 C 
ATOM     10  O   UNL     1       6.693  18.926  -6.126  1.00  0.00    -0.550 OA
ATOM     11  O   UNL     1       5.443  17.632  -4.704  1.00  0.00    -0.550 OA
ENDBRANCH   8   9
ENDBRANCH   7   8
ENDBRANCH   6   7
ENDBRANCH   5   6
ENDBRANCH   4   5
ENDBRANCH   3   4
ENDBRANCH   2   3
ENDBRANCH   1   2
BRANCH   1  12
ATOM     12  C   UNL     1       7.370  13.453 -12.384  1.00  0.00     0.000 C 
BRANCH  12  13
ATOM     13  C   UNL     1       7.411  12.126 -11.603  1.00  0.00    -0.000 C 
BRANCH  13  14
ATOM     14  C   UNL     1       6.339  12.050 -10.500  1.00  0.00    -0.000 C 
BRANCH  14  15
ATOM     15  C   UNL     1       6.926  11.686  -9.127  1.00  0.00    -0.000 C 
BRANCH  15  16
ATOM     16  C   UNL     1       8.421  11.325  -9.204  1.00  0.00    -0.000 C 
BRANCH  16  17
ATOM     17  C   UNL     1       9.233  11.907  -8.036  1.00  0.00    -0.000 C 
BRANCH  17  18
ATOM     18  C   UNL     1      10.722  12.076  -8.374  1.00  0.00    -0.000 C 
BRANCH  18  19
ATOM     19  C   UNL     1      10.965  11.874  -9.875  1.00  0.00    -0.003 C 
ATOM     20  C   UNL     1      11.392  13.178 -10.545  1.00  0.00     0.004 C 
ENDBRANCH  18  19
ENDBRANCH  17  18
ENDBRANCH  16  17
ENDBRANCH  15  16
ENDBRANCH  14  15
ENDBRANCH  13  14
ENDBRANCH  12  13
ENDBRANCH   1  12
TORSDOF 16
ENDMDL
MODEL 9
REMARK VINA RESULT:    -4.118     11.040     12.211
REMARK INTER + INTRA:          -9.469
REMARK INTER:                  -7.486
REMARK INTRA:                  -1.983
REMARK UNBOUND:                -1.500
REMARK SMILES CCCCCCCCCCCCCCCCCC(=O)[O-]
REMARK SMILES IDX 10 1 11 2 12 3 13 4 14 5 15 6 16 7 17 8 18 9 19 10 20 11
REMARK SMILES IDX 9 12 8 13 7 14 6 15 5 16 4 17 3 18 2 19 1 20
REMARK H PARENT
REMARK Flexibility Score: inf
ROOT
ATOM      1  C   UNL     1       8.325  15.199  -9.594  1.00  0.00     0.000 C 
ENDROOT
BRANCH   1   2
ATOM      2  C   UNL     1       7.462  15.346 -10.860  1.00  0.00     0.000 C 
BRANCH   2   3
ATOM      3  C   UNL     1       6.326  14.309 -10.917  1.00  0.00     0.000 C 
BRANCH   3   4
ATOM      4  C   UNL     1       5.040  14.794 -10.223  1.00  0.00     0.000 C 
BRANCH   4   5
ATOM      5  C   UNL     1       4.674  14.045  -8.928  1.00  0.00     0.000 C 
BRANCH   5   6
ATOM      6  C   UNL     1       4.600  14.971  -7.701  1.00  0.00     0.000 C 
BRANCH   6   7
ATOM      7  C   UNL     1       5.028  16.412  -8.027  1.00  0.00     0.006 C 
BRANCH   7   8
ATOM      8  C   UNL     1       4.817  17.367  -6.842  1.00  0.00     0.053 C 
BRANCH   8   9
ATOM      9  C   UNL     1       6.102  17.572  -6.098  1.00  0.00     0.041 C 
ATOM     10  O   UNL     1       6.101  18.173  -4.990  1.00  0.00    -0.550 OA
ATOM     11  O   UNL     1       7.291  17.063  -6.605  1.00  0.00    -0.550 OA
ENDBRANCH   8   9
ENDBRANCH   7   8
ENDBRANCH   6   7
ENDBRANCH   5   6
ENDBRANCH   4   5
ENDBRANCH   3   4
ENDBRANCH   2   3
ENDBRANCH   1   2
BRANCH   1  12
ATOM     12  C   UNL     1       8.734  13.735  -9.301  1.00  0.00     0.000 C 
BRANCH  12  13
ATOM     13  C   UNL     1      10.005  13.287 -10.047  1.00  0.00    -0.000 C 
BRANCH  13  14
ATOM     14  C   UNL     1      10.339  11.801  -9.817  1.00  0.00    -0.000 C 
BRANCH  14  15
ATOM     15  C   UNL     1      11.614  11.602  -8.984  1.00  0.00    -0.000 C 
BRANCH  15  16
ATOM     16  C   UNL     1      11.383  11.865  -7.484  1.00  0.00    -0.000 C 
BRANCH  16  17
ATOM     17  C   UNL     1      10.773  10.657  -6.756  1.00  0.00    -0.000 C 
BRANCH  17  18
ATOM     18  C   UNL     1       9.576  11.039  -5.871  1.00  0.00    -0.000 C 
BRANCH  18  19
ATOM     19  C   UNL     1       8.333  11.313  -6.726  1.00  0.00    -0.003 C 
ATOM     20  C   UNL     1       7.891  10.059  -7.475  1.00  0.00     0.004 C 
ENDBRANCH  18  19
ENDBRANCH  17  18
ENDBRANCH  16  17
ENDBRANCH  15  16
ENDBRANCH  14  15
ENDBRANCH  13  14
ENDBRANCH  12  13
ENDBRANCH   1  12
TORSDOF 16
ENDMDL
