MODEL 1
REMARK VINA RESULT:    -4.127      0.000      0.000
REMARK INTER + INTRA:          -7.650
REMARK INTER:                  -6.299
REMARK INTRA:                  -1.351
REMARK UNBOUND:                -1.351
REMARK SMILES CCCCCCCCCCC(=O)[O-]
REMARK SMILES IDX 7 1 8 2 9 3 10 4 11 5 12 6 13 7 6 8 5 9 4 10 3 11 2 12 1 13
REMARK H PARENT
REMARK Flexibility Score: inf
ROOT
ATOM      1  C   UNL     1      61.975  15.181  39.236  1.00  0.00     0.000 C 
ENDROOT
BRANCH   1   2
ATOM      2  C   UNL     1      61.981  15.434  37.722  1.00  0.00     0.000 C 
BRANCH   2   3
ATOM      3  C   UNL     1      63.401  15.610  37.152  1.00  0.00     0.006 C 
BRANCH   3   4
ATOM      4  C   UNL     1      63.695  17.017  36.608  1.00  0.00     0.053 C 
BRANCH   4   5
ATOM      5  C   UNL     1      65.163  17.313  36.576  1.00  0.00     0.041 C 
ATOM      6  O   UNL     1      65.818  17.383  37.649  1.00  0.00    -0.550 OA
ATOM      7  O   UNL     1      65.800  17.543  35.364  1.00  0.00    -0.550 OA
ENDBRANCH   4   5
ENDBRANCH   3   4
ENDBRANCH   2   3
ENDBRANCH   1   2
BRANCH   1   8
ATOM      8  C   UNL     1      63.193  15.829  39.906  1.00  0.00     0.000 C 
BRANCH   8   9
ATOM      9  C   UNL     1      62.772  17.012  40.790  1.00  0.00    -0.000 C 
BRANCH   9  10
ATOM     10  C   UNL     1      63.509  18.317  40.440  1.00  0.00    -0.000 C 
BRANCH  10  11
ATOM     11  C   UNL     1      62.778  19.229  39.439  1.00  0.00    -0.000 C 
BRANCH  11  12
ATOM     12  C   UNL     1      61.255  19.026  39.448  1.00  0.00    -0.003 C 
ATOM     13  C   UNL     1      60.715  18.853  38.031  1.00  0.00     0.004 C 
ENDBRANCH  11  12
ENDBRANCH  10  11
ENDBRANCH   9  10
ENDBRANCH   8   9
ENDBRANCH   1   8
TORSDOF 9
ENDMDL
MODEL 2
REMARK VINA RESULT:    -4.064      1.603      3.018
REMARK INTER + INTRA:          -7.554
REMARK INTER:                  -6.259
REMARK INTRA:                  -1.295
REMARK UNBOUND:                -1.351
REMARK SMILES CCCCCCCCCCC(=O)[O-]
REMARK SMILES IDX 7 1 8 2 9 3 10 4 11 5 12 6 13 7 6 8 5 9 4 10 3 11 2 12 1 13
REMARK H PARENT
REMARK Flexibility Score: inf
ROOT
ATOM      1  C   UNL     1      62.184  18.560  37.627  1.00  0.00     0.000 C 
ENDROOT
BRANCH   1   2
ATOM      2  C   UNL     1      63.686  18.622  37.314  1.00  0.00     0.000 C 
BRANCH   2   3
ATOM      3  C   UNL     1      64.156  17.464  36.414  1.00  0.00     0.006 C 
BRANCH   3   4
ATOM      4  C   UNL     1      65.176  16.523  37.074  1.00  0.00     0.053 C 
BRANCH   4   5
ATOM      5  C   UNL     1      64.822  15.082  36.877  1.00  0.00     0.041 C 
ATOM      6  O   UNL     1      65.273  14.206  37.660  1.00  0.00    -0.550 OA
ATOM      7  O   UNL     1      64.019  14.702  35.809  1.00  0.00    -0.550 OA
ENDBRANCH   4   5
ENDBRANCH   3   4
ENDBRANCH   2   3
ENDBRANCH   1   2
BRANCH   1   8
ATOM      8  C   UNL     1      61.911  18.934  39.089  1.00  0.00     0.000 C 
BRANCH   8   9
ATOM      9  C   UNL     1      63.131  18.631  39.972  1.00  0.00    -0.000 C 
BRANCH   9  10
ATOM     10  C   UNL     1      62.963  17.353  40.812  1.00  0.00    -0.000 C 
BRANCH  10  11
ATOM     11  C   UNL     1      63.147  16.036  40.037  1.00  0.00    -0.000 C 
BRANCH  11  12
ATOM     12  C   UNL     1      61.832  15.265  39.845  1.00  0.00    -0.003 C 
ATOM     13  C   UNL     1      61.505  15.096  38.364  1.00  0.00     0.004 C 
ENDBRANCH  11  12
ENDBRANCH  10  11
ENDBRANCH   9  10
ENDBRANCH   8   9
ENDBRANCH   1   8
TORSDOF 9
ENDMDL
MODEL 3
REMARK VINA RESULT:    -4.041      2.522      4.525
REMARK INTER + INTRA:          -7.518
REMARK INTER:                  -6.362
REMARK INTRA:                  -1.156
REMARK UNBOUND:                -1.351
REMARK SMILES CCCCCCCCCCC(=O)[O-]
REMARK SMILES IDX 7 1 8 2 9 3 10 4 11 5 12 6 13 7 6 8 5 9 4 10 3 11 2 12 1 13
REMARK H PARENT
REMARK Flexibility Score: inf
ROOT
ATOM      1  C   UNL     1      62.583  16.021  39.995  1.00  0.00     0.000 C 
ENDROOT
BRANCH   1   2
ATOM      2  C   UNL     1      63.451  17.207  40.437  1.00  0.00     0.000 C 
BRANCH   2   3
ATOM      3  C   UNL     1      62.937  18.556  39.900  1.00  0.00     0.006 C 
BRANCH   3   4
ATOM      4  C   UNL     1      62.344  18.489  38.484  1.00  0.00     0.053 C 
BRANCH   4   5
ATOM      5  C   UNL     1      60.901  18.888  38.459  1.00  0.00     0.041 C 
ATOM      6  O   UNL     1      60.193  18.643  37.447  1.00  0.00    -0.550 OA
ATOM      7  O   UNL     1      60.346  19.560  39.541  1.00  0.00    -0.550 OA
ENDBRANCH   4   5
ENDBRANCH   3   4
ENDBRANCH   2   3
ENDBRANCH   1   2
BRANCH   1   8
ATOM      8  C   UNL     1      63.451  14.873  39.466  1.00  0.00     0.000 C 
BRANCH   8   9
ATOM      9  C   UNL     1      63.215  14.649  37.964  1.00  0.00    -0.000 C 
BRANCH   9  10
ATOM     10  C   UNL     1      64.459  14.948  37.109  1.00  0.00    -0.000 C 
BRANCH  10  11
ATOM     11  C   UNL     1      64.227  15.927  35.944  1.00  0.00    -0.000 C 
BRANCH  11  12
ATOM     12  C   UNL     1      64.928  17.278  36.150  1.00  0.00    -0.003 C 
ATOM     13  C   UNL     1      65.754  17.279  37.433  1.00  0.00     0.004 C 
ENDBRANCH  11  12
ENDBRANCH  10  11
ENDBRANCH   9  10
ENDBRANCH   8   9
ENDBRANCH   1   8
TORSDOF 9
ENDMDL
MODEL 4
REMARK VINA RESULT:    -3.997      1.159      3.133
REMARK INTER + INTRA:          -7.452
REMARK INTER:                  -6.184
REMARK INTRA:                  -1.268
REMARK UNBOUND:                -1.351
REMARK SMILES CCCCCCCCCCC(=O)[O-]
REMARK SMILES IDX 7 1 8 2 9 3 10 4 11 5 12 6 13 7 6 8 5 9 4 10 3 11 2 12 1 13
REMARK H PARENT
REMARK Flexibility Score: inf
ROOT
ATOM      1  C   UNL     1      63.134  18.713  39.916  1.00  0.00     0.000 C 
ENDROOT
BRANCH   1   2
ATOM      2  C   UNL     1      62.111  18.789  38.774  1.00  0.00     0.000 C 
BRANCH   2   3
ATOM      3  C   UNL     1      62.724  18.457  37.400  1.00  0.00     0.006 C 
BRANCH   3   4
ATOM      4  C   UNL     1      64.235  18.718  37.301  1.00  0.00     0.053 C 
BRANCH   4   5
ATOM      5  C   UNL     1      64.978  17.532  36.769  1.00  0.00     0.041 C 
ATOM      6  O   UNL     1      65.922  17.027  37.430  1.00  0.00    -0.550 OA
ATOM      7  O   UNL     1      64.648  17.004  35.527  1.00  0.00    -0.550 OA
ENDBRANCH   4   5
ENDBRANCH   3   4
ENDBRANCH   2   3
ENDBRANCH   1   2
BRANCH   1   8
ATOM      8  C   UNL     1      63.036  17.372  40.653  1.00  0.00     0.000 C 
BRANCH   8   9
ATOM      9  C   UNL     1      61.697  16.679  40.360  1.00  0.00    -0.000 C 
BRANCH   9  10
ATOM     10  C   UNL     1      61.866  15.250  39.815  1.00  0.00    -0.000 C 
BRANCH  10  11
ATOM     11  C   UNL     1      63.325  14.785  39.653  1.00  0.00    -0.000 C 
BRANCH  11  12
ATOM     12  C   UNL     1      63.672  14.397  38.208  1.00  0.00    -0.003 C 
ATOM     13  C   UNL     1      62.524  14.727  37.259  1.00  0.00     0.004 C 
ENDBRANCH  11  12
ENDBRANCH  10  11
ENDBRANCH   9  10
ENDBRANCH   8   9
ENDBRANCH   1   8
TORSDOF 9
ENDMDL
MODEL 5
REMARK VINA RESULT:    -3.982      2.579      3.960
REMARK INTER + INTRA:          -7.428
REMARK INTER:                  -6.262
REMARK INTRA:                  -1.166
REMARK UNBOUND:                -1.351
REMARK SMILES CCCCCCCCCCC(=O)[O-]
REMARK SMILES IDX 7 1 8 2 9 3 10 4 11 5 12 6 13 7 6 8 5 9 4 10 3 11 2 12 1 13
REMARK H PARENT
REMARK Flexibility Score: inf
ROOT
ATOM      1  C   UNL     1      64.234  14.959  36.222  1.00  0.00     0.000 C 
ENDROOT
BRANCH   1   2
ATOM      2  C   UNL     1      64.980  14.682  37.535  1.00  0.00     0.000 C 
BRANCH   2   3
ATOM      3  C   UNL     1      64.165  13.813  38.512  1.00  0.00     0.006 C 
BRANCH   3   4
ATOM      4  C   UNL     1      63.408  14.610  39.587  1.00  0.00     0.053 C 
BRANCH   4   5
ATOM      5  C   UNL     1      61.958  14.769  39.252  1.00  0.00     0.041 C 
ATOM      6  O   UNL     1      61.230  15.536  39.935  1.00  0.00    -0.550 OA
ATOM      7  O   UNL     1      61.402  14.045  38.204  1.00  0.00    -0.550 OA
ENDBRANCH   4   5
ENDBRANCH   3   4
ENDBRANCH   2   3
ENDBRANCH   1   2
BRANCH   1   8
ATOM      8  C   UNL     1      64.288  16.449  35.864  1.00  0.00     0.000 C 
BRANCH   8   9
ATOM      9  C   UNL     1      64.964  17.260  36.980  1.00  0.00    -0.000 C 
BRANCH   9  10
ATOM     10  C   UNL     1      64.152  18.497  37.401  1.00  0.00    -0.000 C 
BRANCH  10  11
ATOM     11  C   UNL     1      62.788  18.191  38.045  1.00  0.00    -0.000 C 
BRANCH  11  12
ATOM     12  C   UNL     1      62.620  18.839  39.428  1.00  0.00    -0.003 C 
ATOM     13  C   UNL     1      63.598  18.243  40.437  1.00  0.00     0.004 C 
ENDBRANCH  11  12
ENDBRANCH  10  11
ENDBRANCH   9  10
ENDBRANCH   8   9
ENDBRANCH   1   8
TORSDOF 9
ENDMDL
MODEL 6
REMARK VINA RESULT:    -3.972     11.155     13.268
REMARK INTER + INTRA:          -7.414
REMARK INTER:                  -6.446
REMARK INTRA:                  -0.968
REMARK UNBOUND:                -1.351
REMARK SMILES CCCCCCCCCCC(=O)[O-]
REMARK SMILES IDX 7 1 8 2 9 3 10 4 11 5 12 6 13 7 6 8 5 9 4 10 3 11 2 12 1 13
REMARK H PARENT
REMARK Flexibility Score: inf
ROOT
ATOM      1  C   UNL     1      69.590   6.918  32.911  1.00  0.00     0.000 C 
ENDROOT
BRANCH   1   2
ATOM      2  C   UNL     1      68.248   7.571  33.270  1.00  0.00     0.000 C 
BRANCH   2   3
ATOM      3  C   UNL     1      68.348   9.101  33.413  1.00  0.00     0.006 C 
BRANCH   3   4
ATOM      4  C   UNL     1      69.779   9.654  33.310  1.00  0.00     0.053 C 
BRANCH   4   5
ATOM      5  C   UNL     1      69.859  10.841  32.400  1.00  0.00     0.041 C 
ATOM      6  O   UNL     1      70.967  11.394  32.176  1.00  0.00    -0.550 OA
ATOM      7  O   UNL     1      68.704  11.356  31.824  1.00  0.00    -0.550 OA
ENDBRANCH   4   5
ENDBRANCH   3   4
ENDBRANCH   2   3
ENDBRANCH   1   2
BRANCH   1   8
ATOM      8  C   UNL     1      70.119   6.073  34.077  1.00  0.00     0.000 C 
BRANCH   8   9
ATOM      9  C   UNL     1      71.629   5.829  33.940  1.00  0.00    -0.000 C 
BRANCH   9  10
ATOM     10  C   UNL     1      72.459   7.121  34.044  1.00  0.00    -0.000 C 
BRANCH  10  11
ATOM     11  C   UNL     1      73.463   7.344  32.899  1.00  0.00    -0.000 C 
BRANCH  11  12
ATOM     12  C   UNL     1      73.264   8.687  32.182  1.00  0.00    -0.003 C 
ATOM     13  C   UNL     1      72.891   8.479  30.717  1.00  0.00     0.004 C 
ENDBRANCH  11  12
ENDBRANCH  10  11
ENDBRANCH   9  10
ENDBRANCH   8   9
ENDBRANCH   1   8
TORSDOF 9
ENDMDL
MODEL 7
REMARK VINA RESULT:    -3.961      1.294      2.334
REMARK INTER + INTRA:          -7.396
REMARK INTER:                  -6.417
REMARK INTRA:                  -0.979
REMARK UNBOUND:                -1.351
REMARK SMILES CCCCCCCCCCC(=O)[O-]
REMARK SMILES IDX 7 1 8 2 9 3 10 4 11 5 12 6 13 7 6 8 5 9 4 10 3 11 2 12 1 13
REMARK H PARENT
REMARK Flexibility Score: inf
ROOT
ATOM      1  C   UNL     1      62.738  13.632  38.511  1.00  0.00     0.000 C 
ENDROOT
BRANCH   1   2
ATOM      2  C   UNL     1      64.268  13.732  38.583  1.00  0.00     0.000 C 
BRANCH   2   3
ATOM      3  C   UNL     1      64.885  14.368  37.323  1.00  0.00     0.006 C 
BRANCH   3   4
ATOM      4  C   UNL     1      63.975  15.384  36.617  1.00  0.00     0.053 C 
BRANCH   4   5
ATOM      5  C   UNL     1      64.692  16.662  36.307  1.00  0.00     0.041 C 
ATOM      6  O   UNL     1      64.749  17.086  35.123  1.00  0.00    -0.550 OA
ATOM      7  O   UNL     1      65.325  17.368  37.322  1.00  0.00    -0.550 OA
ENDBRANCH   4   5
ENDBRANCH   3   4
ENDBRANCH   2   3
ENDBRANCH   1   2
BRANCH   1   8
ATOM      8  C   UNL     1      62.101  13.962  39.866  1.00  0.00     0.000 C 
BRANCH   8   9
ATOM      9  C   UNL     1      61.160  15.171  39.754  1.00  0.00    -0.000 C 
BRANCH   9  10
ATOM     10  C   UNL     1      61.908  16.495  39.518  1.00  0.00    -0.000 C 
BRANCH  10  11
ATOM     11  C   UNL     1      63.133  16.720  40.423  1.00  0.00    -0.000 C 
BRANCH  11  12
ATOM     12  C   UNL     1      63.578  18.189  40.474  1.00  0.00    -0.003 C 
ATOM     13  C   UNL     1      62.809  19.032  39.461  1.00  0.00     0.004 C 
ENDBRANCH  11  12
ENDBRANCH  10  11
ENDBRANCH   9  10
ENDBRANCH   8   9
ENDBRANCH   1   8
TORSDOF 9
ENDMDL
MODEL 8
REMARK VINA RESULT:    -3.961      1.114      2.164
REMARK INTER + INTRA:          -7.396
REMARK INTER:                  -6.067
REMARK INTRA:                  -1.329
REMARK UNBOUND:                -1.351
REMARK SMILES CCCCCCCCCCC(=O)[O-]
REMARK SMILES IDX 7 1 8 2 9 3 10 4 11 5 12 6 13 7 6 8 5 9 4 10 3 11 2 12 1 13
REMARK H PARENT
REMARK Flexibility Score: inf
ROOT
ATOM      1  C   UNL     1      62.560  16.837  40.454  1.00  0.00     0.000 C 
ENDROOT
BRANCH   1   2
ATOM      2  C   UNL     1      63.140  15.650  39.673  1.00  0.00     0.000 C 
BRANCH   2   3
ATOM      3  C   UNL     1      62.751  15.669  38.183  1.00  0.00     0.006 C 
BRANCH   3   4
ATOM      4  C   UNL     1      63.945  15.657  37.216  1.00  0.00     0.053 C 
BRANCH   4   5
ATOM      5  C   UNL     1      64.527  17.024  37.025  1.00  0.00     0.041 C 
ATOM      6  O   UNL     1      63.839  17.938  36.500  1.00  0.00    -0.550 OA
ATOM      7  O   UNL     1      65.841  17.279  37.397  1.00  0.00    -0.550 OA
ENDBRANCH   4   5
ENDBRANCH   3   4
ENDBRANCH   2   3
ENDBRANCH   1   2
BRANCH   1   8
ATOM      8  C   UNL     1      63.474  18.064  40.347  1.00  0.00     0.000 C 
BRANCH   8   9
ATOM      9  C   UNL     1      62.746  19.237  39.674  1.00  0.00    -0.000 C 
BRANCH   9  10
ATOM     10  C   UNL     1      61.238  18.986  39.497  1.00  0.00    -0.000 C 
BRANCH  10  11
ATOM     11  C   UNL     1      60.769  18.848  38.037  1.00  0.00    -0.000 C 
BRANCH  11  12
ATOM     12  C   UNL     1      59.687  17.773  37.856  1.00  0.00    -0.003 C 
ATOM     13  C   UNL     1      59.113  17.338  39.201  1.00  0.00     0.004 C 
ENDBRANCH  11  12
ENDBRANCH  10  11
ENDBRANCH   9  10
ENDBRANCH   8   9
ENDBRANCH   1   8
TORSDOF 9
ENDMDL
MODEL 9
REMARK VINA RESULT:    -3.951      2.740      5.093
REMARK INTER + INTRA:          -7.380
REMARK INTER:                  -6.468
REMARK INTRA:                  -0.912
REMARK UNBOUND:                -1.351
REMARK SMILES CCCCCCCCCCC(=O)[O-]
REMARK SMILES IDX 7 1 8 2 9 3 10 4 11 5 12 6 13 7 6 8 5 9 4 10 3 11 2 12 1 13
REMARK H PARENT
REMARK Flexibility Score: inf
ROOT
ATOM      1  C   UNL     1      64.233  18.107  37.754  1.00  0.00     0.000 C 
ENDROOT
BRANCH   1   2
ATOM      2  C   UNL     1      64.187  17.903  39.276  1.00  0.00     0.000 C 
BRANCH   2   3
ATOM      3  C   UNL     1      63.073  18.723  39.954  1.00  0.00     0.006 C 
BRANCH   3   4
ATOM      4  C   UNL     1      61.678  18.083  39.873  1.00  0.00     0.053 C 
BRANCH   4   5
ATOM      5  C   UNL     1      60.713  18.932  39.105  1.00  0.00     0.041 C 
ATOM      6  O   UNL     1      59.832  19.596  39.712  1.00  0.00    -0.550 OA
ATOM      7  O   UNL     1      60.767  18.965  37.718  1.00  0.00    -0.550 OA
ENDBRANCH   4   5
ENDBRANCH   3   4
ENDBRANCH   2   3
ENDBRANCH   1   2
BRANCH   1   8
ATOM      8  C   UNL     1      65.204  17.119  37.097  1.00  0.00     0.000 C 
BRANCH   8   9
ATOM      9  C   UNL     1      64.502  16.300  36.004  1.00  0.00    -0.000 C 
BRANCH   9  10
ATOM     10  C   UNL     1      64.365  14.810  36.363  1.00  0.00    -0.000 C 
BRANCH  10  11
ATOM     11  C   UNL     1      65.097  14.382  37.648  1.00  0.00    -0.000 C 
BRANCH  11  12
ATOM     12  C   UNL     1      64.205  13.575  38.604  1.00  0.00    -0.003 C 
ATOM     13  C   UNL     1      63.186  14.475  39.296  1.00  0.00     0.004 C 
ENDBRANCH  11  12
ENDBRANCH  10  11
ENDBRANCH   9  10
ENDBRANCH   8   9
ENDBRANCH   1   8
TORSDOF 9
ENDMDL
