MODEL 1
REMARK VINA RESULT:    -4.118      0.000      0.000
REMARK INTER + INTRA:          -6.995
REMARK INTER:                  -6.285
REMARK INTRA:                  -0.710
REMARK UNBOUND:                -0.710
REMARK SMILES O=C([O-])CCCCCCCCC(=O)[O-]
REMARK SMILES IDX 7 1 6 2 5 3 4 4 2 5 1 6 3 7 8 8 9 9 10 10 11 11 12 12 13 13
REMARK SMILES IDX 14 14
REMARK H PARENT
REMARK Flexibility Score: inf
ROOT
ATOM      1  C   UNL     1      30.463   5.956 -23.292  1.00  0.00     0.000 C 
ENDROOT
BRANCH   1   2
ATOM      2  C   UNL     1      29.899   4.550 -23.528  1.00  0.00     0.000 C 
BRANCH   2   3
ATOM      3  C   UNL     1      29.747   4.261 -25.026  1.00  0.00     0.006 C 
BRANCH   3   4
ATOM      4  C   UNL     1      31.098   3.914 -25.658  1.00  0.00     0.053 C 
BRANCH   4   5
ATOM      5  C   UNL     1      31.350   4.771 -26.857  1.00  0.00     0.041 C 
ATOM      6  O   UNL     1      31.431   6.023 -26.736  1.00  0.00    -0.550 OA
ATOM      7  O   UNL     1      31.447   4.194 -28.117  1.00  0.00    -0.550 OA
ENDBRANCH   4   5
ENDBRANCH   3   4
ENDBRANCH   2   3
ENDBRANCH   1   2
BRANCH   1   8
ATOM      8  C   UNL     1      31.650   5.916 -22.317  1.00  0.00     0.000 C 
BRANCH   8   9
ATOM      9  C   UNL     1      31.407   4.976 -21.125  1.00  0.00     0.000 C 
BRANCH   9  10
ATOM     10  C   UNL     1      30.760   5.694 -19.928  1.00  0.00     0.006 C 
BRANCH  10  11
ATOM     11  C   UNL     1      29.514   4.959 -19.417  1.00  0.00     0.053 C 
BRANCH  11  12
ATOM     12  C   UNL     1      28.262   5.740 -19.675  1.00  0.00     0.041 C 
ATOM     13  O   UNL     1      27.629   6.260 -18.718  1.00  0.00    -0.550 OA
ATOM     14  O   UNL     1      27.777   5.868 -20.971  1.00  0.00    -0.550 OA
ENDBRANCH  11  12
ENDBRANCH  10  11
ENDBRANCH   9  10
ENDBRANCH   8   9
ENDBRANCH   1   8
TORSDOF 9
ENDMDL
MODEL 2
REMARK VINA RESULT:    -4.104      1.843      2.472
REMARK INTER + INTRA:          -6.973
REMARK INTER:                  -6.341
REMARK INTRA:                  -0.632
REMARK UNBOUND:                -0.710
REMARK SMILES O=C([O-])CCCCCCCCC(=O)[O-]
REMARK SMILES IDX 7 1 6 2 5 3 4 4 2 5 1 6 3 7 8 8 9 9 10 10 11 11 12 12 13 13
REMARK SMILES IDX 14 14
REMARK H PARENT
REMARK Flexibility Score: inf
ROOT
ATOM      1  C   UNL     1      31.101   6.765 -25.071  1.00  0.00     0.000 C 
ENDROOT
BRANCH   1   2
ATOM      2  C   UNL     1      31.798   5.744 -25.979  1.00  0.00     0.000 C 
BRANCH   2   3
ATOM      3  C   UNL     1      30.980   5.487 -27.251  1.00  0.00     0.006 C 
BRANCH   3   4
ATOM      4  C   UNL     1      30.485   4.039 -27.302  1.00  0.00     0.053 C 
BRANCH   4   5
ATOM      5  C   UNL     1      29.040   3.966 -26.925  1.00  0.00     0.041 C 
ATOM      6  O   UNL     1      28.703   3.941 -25.711  1.00  0.00    -0.550 OA
ATOM      7  O   UNL     1      28.067   3.875 -27.912  1.00  0.00    -0.550 OA
ENDBRANCH   4   5
ENDBRANCH   3   4
ENDBRANCH   2   3
ENDBRANCH   1   2
BRANCH   1   8
ATOM      8  C   UNL     1      31.240   6.372 -23.593  1.00  0.00     0.000 C 
BRANCH   8   9
ATOM      9  C   UNL     1      31.135   4.855 -23.369  1.00  0.00     0.000 C 
BRANCH   9  10
ATOM     10  C   UNL     1      30.556   4.499 -21.989  1.00  0.00     0.006 C 
BRANCH  10  11
ATOM     11  C   UNL     1      30.207   5.747 -21.168  1.00  0.00     0.053 C 
BRANCH  11  12
ATOM     12  C   UNL     1      28.973   5.544 -20.344  1.00  0.00     0.041 C 
ATOM     13  O   UNL     1      27.835   5.757 -20.840  1.00  0.00    -0.550 OA
ATOM     14  O   UNL     1      29.080   5.147 -19.016  1.00  0.00    -0.550 OA
ENDBRANCH  11  12
ENDBRANCH  10  11
ENDBRANCH   9  10
ENDBRANCH   8   9
ENDBRANCH   1   8
TORSDOF 9
ENDMDL
MODEL 3
REMARK VINA RESULT:    -4.071      0.696      1.350
REMARK INTER + INTRA:          -6.923
REMARK INTER:                  -6.295
REMARK INTRA:                  -0.627
REMARK UNBOUND:                -0.710
REMARK SMILES O=C([O-])CCCCCCCCC(=O)[O-]
REMARK SMILES IDX 7 1 6 2 5 3 4 4 2 5 1 6 3 7 8 8 9 9 10 10 11 11 12 12 13 13
REMARK SMILES IDX 14 14
REMARK H PARENT
REMARK Flexibility Score: inf
ROOT
ATOM      1  C   UNL     1      31.067   4.248 -22.953  1.00  0.00     0.000 C 
ENDROOT
BRANCH   1   2
ATOM      2  C   UNL     1      29.709   4.681 -23.519  1.00  0.00     0.000 C 
BRANCH   2   3
ATOM      3  C   UNL     1      29.559   4.250 -24.983  1.00  0.00     0.006 C 
BRANCH   3   4
ATOM      4  C   UNL     1      30.926   4.127 -25.662  1.00  0.00     0.053 C 
BRANCH   4   5
ATOM      5  C   UNL     1      31.083   5.176 -26.716  1.00  0.00     0.041 C 
ATOM      6  O   UNL     1      31.272   4.846 -27.916  1.00  0.00    -0.550 OA
ATOM      7  O   UNL     1      31.071   6.521 -26.366  1.00  0.00    -0.550 OA
ENDBRANCH   4   5
ENDBRANCH   3   4
ENDBRANCH   2   3
ENDBRANCH   1   2
BRANCH   1   8
ATOM      8  C   UNL     1      31.728   5.394 -22.172  1.00  0.00     0.000 C 
BRANCH   8   9
ATOM      9  C   UNL     1      31.859   5.091 -20.671  1.00  0.00     0.000 C 
BRANCH   9  10
ATOM     10  C   UNL     1      30.866   5.898 -19.816  1.00  0.00     0.006 C 
BRANCH  10  11
ATOM     11  C   UNL     1      29.545   5.149 -19.599  1.00  0.00     0.053 C 
BRANCH  11  12
ATOM     12  C   UNL     1      28.362   5.988 -19.970  1.00  0.00     0.041 C 
ATOM     13  O   UNL     1      27.503   5.554 -20.783  1.00  0.00    -0.550 OA
ATOM     14  O   UNL     1      28.222   7.265 -19.439  1.00  0.00    -0.550 OA
ENDBRANCH  11  12
ENDBRANCH  10  11
ENDBRANCH   9  10
ENDBRANCH   8   9
ENDBRANCH   1   8
TORSDOF 9
ENDMDL
MODEL 4
REMARK VINA RESULT:    -4.065     23.261     24.040
REMARK INTER + INTRA:          -6.914
REMARK INTER:                  -6.531
REMARK INTRA:                  -0.383
REMARK UNBOUND:                -0.710
REMARK SMILES O=C([O-])CCCCCCCCC(=O)[O-]
REMARK SMILES IDX 7 1 6 2 5 3 4 4 2 5 1 6 3 7 8 8 9 9 10 10 11 11 12 12 13 13
REMARK SMILES IDX 14 14
REMARK H PARENT
REMARK Flexibility Score: inf
ROOT
ATOM      1  C   UNL     1      13.505  22.092 -23.555  1.00  0.00     0.000 C 
ENDROOT
BRANCH   1   2
ATOM      2  C   UNL     1      13.775  22.750 -24.914  1.00  0.00     0.000 C 
BRANCH   2   3
ATOM      3  C   UNL     1      12.581  22.573 -25.860  1.00  0.00     0.006 C 
BRANCH   3   4
ATOM      4  C   UNL     1      13.047  22.198 -27.269  1.00  0.00     0.053 C 
BRANCH   4   5
ATOM      5  C   UNL     1      12.574  20.826 -27.629  1.00  0.00     0.041 C 
ATOM      6  O   UNL     1      12.029  20.616 -28.745  1.00  0.00    -0.550 OA
ATOM      7  O   UNL     1      12.690  19.787 -26.714  1.00  0.00    -0.550 OA
ENDBRANCH   4   5
ENDBRANCH   3   4
ENDBRANCH   2   3
ENDBRANCH   1   2
BRANCH   1   8
ATOM      8  C   UNL     1      12.612  22.985 -22.681  1.00  0.00     0.000 C 
BRANCH   8   9
ATOM      9  C   UNL     1      11.887  22.199 -21.577  1.00  0.00     0.000 C 
BRANCH   9  10
ATOM     10  C   UNL     1      12.058  22.837 -20.187  1.00  0.00     0.006 C 
BRANCH  10  11
ATOM     11  C   UNL     1      12.502  21.816 -19.131  1.00  0.00     0.053 C 
BRANCH  11  12
ATOM     12  C   UNL     1      13.990  21.810 -18.955  1.00  0.00     0.041 C 
ATOM     13  O   UNL     1      14.523  21.080 -18.078  1.00  0.00    -0.550 OA
ATOM     14  O   UNL     1      14.786  22.635 -19.740  1.00  0.00    -0.550 OA
ENDBRANCH  11  12
ENDBRANCH  10  11
ENDBRANCH   9  10
ENDBRANCH   8   9
ENDBRANCH   1   8
TORSDOF 9
ENDMDL
MODEL 5
REMARK VINA RESULT:    -3.976     21.817     24.138
REMARK INTER + INTRA:          -6.778
REMARK INTER:                  -6.150
REMARK INTRA:                  -0.628
REMARK UNBOUND:                -0.710
REMARK SMILES O=C([O-])CCCCCCCCC(=O)[O-]
REMARK SMILES IDX 7 1 6 2 5 3 4 4 2 5 1 6 3 7 8 8 9 9 10 10 11 11 12 12 13 13
REMARK SMILES IDX 14 14
REMARK H PARENT
REMARK Flexibility Score: inf
ROOT
ATOM      1  C   UNL     1      13.316  23.067 -20.629  1.00  0.00     0.000 C 
ENDROOT
BRANCH   1   2
ATOM      2  C   UNL     1      12.407  22.410 -19.583  1.00  0.00     0.000 C 
BRANCH   2   3
ATOM      3  C   UNL     1      13.223  21.568 -18.594  1.00  0.00     0.006 C 
BRANCH   3   4
ATOM      4  C   UNL     1      14.405  20.891 -19.293  1.00  0.00     0.053 C 
BRANCH   4   5
ATOM      5  C   UNL     1      15.556  20.742 -18.350  1.00  0.00     0.041 C 
ATOM      6  O   UNL     1      16.265  21.740 -18.053  1.00  0.00    -0.550 OA
ATOM      7  O   UNL     1      15.877  19.492 -17.838  1.00  0.00    -0.550 OA
ENDBRANCH   4   5
ENDBRANCH   3   4
ENDBRANCH   2   3
ENDBRANCH   1   2
BRANCH   1   8
ATOM      8  C   UNL     1      12.651  23.067 -22.013  1.00  0.00     0.000 C 
BRANCH   8   9
ATOM      9  C   UNL     1      12.390  21.649 -22.545  1.00  0.00     0.000 C 
BRANCH   9  10
ATOM     10  C   UNL     1      13.460  21.188 -23.550  1.00  0.00     0.006 C 
BRANCH  10  11
ATOM     11  C   UNL     1      12.952  21.228 -24.997  1.00  0.00     0.053 C 
BRANCH  11  12
ATOM     12  C   UNL     1      13.524  22.386 -25.756  1.00  0.00     0.041 C 
ATOM     13  O   UNL     1      13.197  22.583 -26.956  1.00  0.00    -0.550 OA
ATOM     14  O   UNL     1      14.442  23.232 -25.145  1.00  0.00    -0.550 OA
ENDBRANCH  11  12
ENDBRANCH  10  11
ENDBRANCH   9  10
ENDBRANCH   8   9
ENDBRANCH   1   8
TORSDOF 9
ENDMDL
MODEL 6
REMARK VINA RESULT:    -3.974     21.914     23.673
REMARK INTER + INTRA:          -6.774
REMARK INTER:                  -6.396
REMARK INTRA:                  -0.378
REMARK UNBOUND:                -0.710
REMARK SMILES O=C([O-])CCCCCCCCC(=O)[O-]
REMARK SMILES IDX 7 1 6 2 5 3 4 4 2 5 1 6 3 7 8 8 9 9 10 10 11 11 12 12 13 13
REMARK SMILES IDX 14 14
REMARK H PARENT
REMARK Flexibility Score: inf
ROOT
ATOM      1  C   UNL     1      11.991  22.242 -21.603  1.00  0.00     0.000 C 
ENDROOT
BRANCH   1   2
ATOM      2  C   UNL     1      13.166  22.461 -22.564  1.00  0.00     0.000 C 
BRANCH   2   3
ATOM      3  C   UNL     1      12.691  23.077 -23.886  1.00  0.00     0.006 C 
BRANCH   3   4
ATOM      4  C   UNL     1      13.760  22.937 -24.972  1.00  0.00     0.053 C 
BRANCH   4   5
ATOM      5  C   UNL     1      13.246  22.115 -26.110  1.00  0.00     0.041 C 
ATOM      6  O   UNL     1      13.435  22.489 -27.299  1.00  0.00    -0.550 OA
ATOM      7  O   UNL     1      12.515  20.960 -25.860  1.00  0.00    -0.550 OA
ENDBRANCH   4   5
ENDBRANCH   3   4
ENDBRANCH   2   3
ENDBRANCH   1   2
BRANCH   1   8
ATOM      8  C   UNL     1      12.297  22.825 -20.216  1.00  0.00     0.000 C 
BRANCH   8   9
ATOM      9  C   UNL     1      12.044  21.821 -19.081  1.00  0.00     0.000 C 
BRANCH   9  10
ATOM     10  C   UNL     1      13.308  21.536 -18.250  1.00  0.00     0.006 C 
BRANCH  10  11
ATOM     11  C   UNL     1      14.454  20.985 -19.109  1.00  0.00     0.053 C 
BRANCH  11  12
ATOM     12  C   UNL     1      15.681  20.715 -18.293  1.00  0.00     0.041 C 
ATOM     13  O   UNL     1      15.935  19.548 -17.895  1.00  0.00    -0.550 OA
ATOM     14  O   UNL     1      16.529  21.760 -17.946  1.00  0.00    -0.550 OA
ENDBRANCH  11  12
ENDBRANCH  10  11
ENDBRANCH   9  10
ENDBRANCH   8   9
ENDBRANCH   1   8
TORSDOF 9
ENDMDL
MODEL 7
REMARK VINA RESULT:    -3.960     23.148     24.143
REMARK INTER + INTRA:          -6.753
REMARK INTER:                  -6.337
REMARK INTRA:                  -0.416
REMARK UNBOUND:                -0.710
REMARK SMILES O=C([O-])CCCCCCCCC(=O)[O-]
REMARK SMILES IDX 7 1 6 2 5 3 4 4 2 5 1 6 3 7 8 8 9 9 10 10 11 11 12 12 13 13
REMARK SMILES IDX 14 14
REMARK H PARENT
REMARK Flexibility Score: inf
ROOT
ATOM      1  C   UNL     1      13.683  22.612 -25.270  1.00  0.00     0.000 C 
ENDROOT
BRANCH   1   2
ATOM      2  C   UNL     1      13.338  22.521 -26.762  1.00  0.00     0.000 C 
BRANCH   2   3
ATOM      3  C   UNL     1      12.052  21.714 -26.982  1.00  0.00     0.006 C 
BRANCH   3   4
ATOM      4  C   UNL     1      12.322  20.474 -27.839  1.00  0.00     0.053 C 
BRANCH   4   5
ATOM      5  C   UNL     1      12.284  19.238 -27.000  1.00  0.00     0.041 C 
ATOM      6  O   UNL     1      12.414  19.317 -25.749  1.00  0.00    -0.550 OA
ATOM      7  O   UNL     1      12.153  17.992 -27.601  1.00  0.00    -0.550 OA
ENDBRANCH   4   5
ENDBRANCH   3   4
ENDBRANCH   2   3
ENDBRANCH   1   2
BRANCH   1   8
ATOM      8  C   UNL     1      12.410  22.699 -24.415  1.00  0.00     0.000 C 
BRANCH   8   9
ATOM      9  C   UNL     1      12.669  23.304 -23.026  1.00  0.00     0.000 C 
BRANCH   9  10
ATOM     10  C   UNL     1      12.268  22.354 -21.884  1.00  0.00     0.006 C 
BRANCH  10  11
ATOM     11  C   UNL     1      12.403  23.016 -20.506  1.00  0.00     0.053 C 
BRANCH  11  12
ATOM     12  C   UNL     1      12.470  22.001 -19.406  1.00  0.00     0.041 C 
ATOM     13  O   UNL     1      12.878  20.833 -19.642  1.00  0.00    -0.550 OA
ATOM     14  O   UNL     1      12.053  22.338 -18.124  1.00  0.00    -0.550 OA
ENDBRANCH  11  12
ENDBRANCH  10  11
ENDBRANCH   9  10
ENDBRANCH   8   9
ENDBRANCH   1   8
TORSDOF 9
ENDMDL
MODEL 8
REMARK VINA RESULT:    -3.883      1.052      6.817
REMARK INTER + INTRA:          -6.635
REMARK INTER:                  -6.105
REMARK INTRA:                  -0.530
REMARK UNBOUND:                -0.710
REMARK SMILES O=C([O-])CCCCCCCCC(=O)[O-]
REMARK SMILES IDX 7 1 6 2 5 3 4 4 2 5 1 6 3 7 8 8 9 9 10 10 11 11 12 12 13 13
REMARK SMILES IDX 14 14
REMARK H PARENT
REMARK Flexibility Score: inf
ROOT
ATOM      1  C   UNL     1      29.356   5.370 -22.097  1.00  0.00     0.000 C 
ENDROOT
BRANCH   1   2
ATOM      2  C   UNL     1      30.562   5.577 -21.172  1.00  0.00     0.000 C 
BRANCH   2   3
ATOM      3  C   UNL     1      30.123   6.119 -19.806  1.00  0.00     0.006 C 
BRANCH   3   4
ATOM      4  C   UNL     1      28.749   5.570 -19.414  1.00  0.00     0.053 C 
BRANCH   4   5
ATOM      5  C   UNL     1      27.851   6.679 -18.965  1.00  0.00     0.041 C 
ATOM      6  O   UNL     1      27.483   6.749 -17.762  1.00  0.00    -0.550 OA
ATOM      7  O   UNL     1      27.379   7.608 -19.884  1.00  0.00    -0.550 OA
ENDBRANCH   4   5
ENDBRANCH   3   4
ENDBRANCH   2   3
ENDBRANCH   1   2
BRANCH   1   8
ATOM      8  C   UNL     1      29.779   4.692 -23.408  1.00  0.00     0.000 C 
BRANCH   8   9
ATOM      9  C   UNL     1      31.275   4.339 -23.438  1.00  0.00     0.000 C 
BRANCH   9  10
ATOM     10  C   UNL     1      31.747   3.882 -24.830  1.00  0.00     0.006 C 
BRANCH  10  11
ATOM     11  C   UNL     1      30.656   4.051 -25.896  1.00  0.00     0.053 C 
BRANCH  11  12
ATOM     12  C   UNL     1      31.087   4.981 -26.989  1.00  0.00     0.041 C 
ATOM     13  O   UNL     1      31.269   6.204 -26.748  1.00  0.00    -0.550 OA
ATOM     14  O   UNL     1      31.257   4.502 -28.282  1.00  0.00    -0.550 OA
ENDBRANCH  11  12
ENDBRANCH  10  11
ENDBRANCH   9  10
ENDBRANCH   8   9
ENDBRANCH   1   8
TORSDOF 9
ENDMDL
MODEL 9
REMARK VINA RESULT:    -3.866      1.770      6.638
REMARK INTER + INTRA:          -6.610
REMARK INTER:                  -5.926
REMARK INTRA:                  -0.683
REMARK UNBOUND:                -0.710
REMARK SMILES O=C([O-])CCCCCCCCC(=O)[O-]
REMARK SMILES IDX 7 1 6 2 5 3 4 4 2 5 1 6 3 7 8 8 9 9 10 10 11 11 12 12 13 13
REMARK SMILES IDX 14 14
REMARK H PARENT
REMARK Flexibility Score: inf
ROOT
ATOM      1  C   UNL     1      29.425   5.656 -21.689  1.00  0.00     0.000 C 
ENDROOT
BRANCH   1   2
ATOM      2  C   UNL     1      28.642   5.442 -20.388  1.00  0.00     0.000 C 
BRANCH   2   3
ATOM      3  C   UNL     1      29.550   4.887 -19.283  1.00  0.00     0.006 C 
BRANCH   3   4
ATOM      4  C   UNL     1      29.259   5.564 -17.941  1.00  0.00     0.053 C 
BRANCH   4   5
ATOM      5  C   UNL     1      29.604   7.018 -18.003  1.00  0.00     0.041 C 
ATOM      6  O   UNL     1      30.805   7.380 -18.124  1.00  0.00    -0.550 OA
ATOM      7  O   UNL     1      28.606   7.976 -17.877  1.00  0.00    -0.550 OA
ENDBRANCH   4   5
ENDBRANCH   3   4
ENDBRANCH   2   3
ENDBRANCH   1   2
BRANCH   1   8
ATOM      8  C   UNL     1      30.878   5.181 -21.542  1.00  0.00     0.000 C 
BRANCH   8   9
ATOM      9  C   UNL     1      31.315   4.246 -22.680  1.00  0.00     0.000 C 
BRANCH   9  10
ATOM     10  C   UNL     1      30.505   4.466 -23.970  1.00  0.00     0.006 C 
BRANCH  10  11
ATOM     11  C   UNL     1      31.407   4.744 -25.180  1.00  0.00     0.053 C 
BRANCH  11  12
ATOM     12  C   UNL     1      31.319   6.172 -25.623  1.00  0.00     0.041 C 
ATOM     13  O   UNL     1      31.435   6.468 -26.842  1.00  0.00    -0.550 OA
ATOM     14  O   UNL     1      31.137   7.181 -24.685  1.00  0.00    -0.550 OA
ENDBRANCH  11  12
ENDBRANCH  10  11
ENDBRANCH   9  10
ENDBRANCH   8   9
ENDBRANCH   1   8
TORSDOF 9
ENDMDL
