MODEL 1
REMARK VINA RESULT:    -5.518      0.000      0.000
REMARK INTER + INTRA:          -9.025
REMARK INTER:                  -7.777
REMARK INTRA:                  -1.249
REMARK UNBOUND:                -1.249
REMARK SMILES COc1c(O[C@@H]2O[C@@H](C(=O)[O-])[C@@H](O)[C@H](O)[C@@H]2O)cc(O)c2c(=O)cc(-c3ccccc3)oc12
REMARK SMILES IDX 5 1 6 2 8 3 12 4 7 5 14 6 16 7 9 8 10 9 11 10 13 11 15 13
REMARK SMILES IDX 17 15 4 17 3 18 18 19 33 20 19 21 21 22 32 23 22 24 25 25
REMARK SMILES IDX 24 26 23 27 2 28 1 29 20 30 26 32 27 33 31 34 28 35 30 36
REMARK SMILES IDX 29 37
REMARK H PARENT 13 12 15 14 17 16 20 31
REMARK Flexibility Score: inf
ROOT
ATOM      1  O   UNL     1     -21.360  -2.207   3.274  1.00  0.00    -0.458 OA
ENDROOT
BRANCH   1   2
ATOM      2  C   UNL     1     -20.473  -2.782   2.310  1.00  0.00     0.339 C 
ATOM      3  C   UNL     1     -18.415  -3.088   3.538  1.00  0.00     0.199 C 
ATOM      4  C   UNL     1     -18.480  -1.543   3.712  1.00  0.00     0.180 C 
ATOM      5  O   UNL     1     -19.555  -3.681   2.921  1.00  0.00    -0.328 OA
ATOM      6  C   UNL     1     -18.822  -0.821   2.386  1.00  0.00     0.181 C 
ATOM      7  C   UNL     1     -19.773  -1.670   1.504  1.00  0.00     0.214 C 
BRANCH   3   8
ATOM      8  C   UNL     1     -17.178  -3.534   2.803  1.00  0.00     0.073 C 
ATOM      9  O   UNL     1     -16.041  -3.355   3.317  1.00  0.00    -0.547 OA
ATOM     10  O   UNL     1     -17.271  -4.123   1.551  1.00  0.00    -0.547 OA
ENDBRANCH   3   8
BRANCH   4  11
ATOM     11  O   UNL     1     -17.303  -1.033   4.294  1.00  0.00    -0.387 OA
ATOM     12  H   UNL     1     -17.299  -1.276   5.259  1.00  0.00     0.211 HD
ENDBRANCH   4  11
BRANCH   6  13
ATOM     13  O   UNL     1     -19.404   0.427   2.671  1.00  0.00    -0.387 OA
ATOM     14  H   UNL     1     -19.290   0.584   3.645  1.00  0.00     0.211 HD
ENDBRANCH   6  13
BRANCH   7  15
ATOM     15  O   UNL     1     -20.743  -0.870   0.875  1.00  0.00    -0.384 OA
ATOM     16  H   UNL     1     -20.445  -0.741  -0.067  1.00  0.00     0.211 HD
ENDBRANCH   7  15
ENDBRANCH   1   2
BRANCH   1  17
ATOM     17  C   UNL     1     -22.760  -2.330   3.252  1.00  0.00     0.172 A 
ATOM     18  C   UNL     1     -23.415  -2.624   4.455  1.00  0.00     0.205 A 
ATOM     19  C   UNL     1     -23.504  -2.144   2.080  1.00  0.00     0.097 A 
ATOM     20  C   UNL     1     -24.827  -2.744   4.475  1.00  0.00     0.188 A 
ATOM     21  C   UNL     1     -24.895  -2.247   2.080  1.00  0.00     0.134 A 
ATOM     22  C   UNL     1     -25.577  -2.601   3.275  1.00  0.00     0.111 A 
ATOM     23  O   UNL     1     -25.455  -2.980   5.624  1.00  0.00    -0.452 OA
ATOM     24  C   UNL     1     -26.970  -2.844   3.349  1.00  0.00     0.197 A 
ATOM     25  C   UNL     1     -26.769  -3.133   5.731  1.00  0.00     0.138 A 
ATOM     26  C   UNL     1     -27.564  -3.099   4.583  1.00  0.00     0.100 A 
ATOM     27  O   UNL     1     -27.700  -2.865   2.323  1.00  0.00    -0.289 OA
BRANCH  18  28
ATOM     28  O   UNL     1     -22.605  -2.757   5.601  1.00  0.00    -0.490 OA
ATOM     29  C   UNL     1     -22.211  -3.982   6.212  1.00  0.00     0.278 C 
ENDBRANCH  18  28
BRANCH  21  30
ATOM     30  O   UNL     1     -25.541  -1.951   0.876  1.00  0.00    -0.507 OA
ATOM     31  H   UNL     1     -25.387  -2.445   0.009  1.00  0.00     0.293 HD
ENDBRANCH  21  30
BRANCH  25  32
ATOM     32  C   UNL     1     -27.367  -3.297   7.074  1.00  0.00     0.017 A 
ATOM     33  C   UNL     1     -28.740  -3.556   7.239  1.00  0.00     0.012 A 
ATOM     34  C   UNL     1     -26.555  -3.152   8.213  1.00  0.00     0.012 A 
ATOM     35  C   UNL     1     -29.286  -3.650   8.523  1.00  0.00     0.001 A 
ATOM     36  C   UNL     1     -27.108  -3.226   9.494  1.00  0.00     0.001 A 
ATOM     37  C   UNL     1     -28.473  -3.478   9.647  1.00  0.00     0.000 A 
ENDBRANCH  25  32
ENDBRANCH   1  17
TORSDOF 9
ENDMDL
MODEL 2
REMARK VINA RESULT:    -4.522      1.868      3.885
REMARK INTER + INTRA:          -7.621
REMARK INTER:                  -6.745
REMARK INTRA:                  -0.876
REMARK UNBOUND:                -1.249
REMARK SMILES COc1c(O[C@@H]2O[C@@H](C(=O)[O-])[C@@H](O)[C@H](O)[C@@H]2O)cc(O)c2c(=O)cc(-c3ccccc3)oc12
REMARK SMILES IDX 5 1 6 2 8 3 12 4 7 5 14 6 16 7 9 8 10 9 11 10 13 11 15 13
REMARK SMILES IDX 17 15 4 17 3 18 18 19 33 20 19 21 21 22 32 23 22 24 25 25
REMARK SMILES IDX 24 26 23 27 2 28 1 29 20 30 26 32 27 33 31 34 28 35 30 36
REMARK SMILES IDX 29 37
REMARK H PARENT 13 12 15 14 17 16 20 31
REMARK Flexibility Score: inf
ROOT
ATOM      1  O   UNL     1     -20.905  -2.091   3.927  1.00  0.00    -0.458 OA
ENDROOT
BRANCH   1   2
ATOM      2  C   UNL     1     -19.905  -3.005   3.468  1.00  0.00     0.339 C 
ATOM      3  C   UNL     1     -17.868  -1.707   3.538  1.00  0.00     0.199 C 
ATOM      4  C   UNL     1     -18.610  -0.791   2.522  1.00  0.00     0.180 C 
ATOM      5  O   UNL     1     -18.651  -2.760   4.094  1.00  0.00    -0.328 OA
ATOM      6  C   UNL     1     -19.308  -1.604   1.404  1.00  0.00     0.181 C 
ATOM      7  C   UNL     1     -19.821  -2.970   1.930  1.00  0.00     0.214 C 
BRANCH   3   8
ATOM      8  C   UNL     1     -16.602  -2.292   2.968  1.00  0.00     0.073 C 
ATOM      9  O   UNL     1     -16.400  -3.535   3.029  1.00  0.00    -0.547 OA
ATOM     10  O   UNL     1     -15.640  -1.476   2.393  1.00  0.00    -0.547 OA
ENDBRANCH   3   8
BRANCH   4  11
ATOM     11  O   UNL     1     -17.759   0.198   1.992  1.00  0.00    -0.387 OA
ATOM     12  H   UNL     1     -17.990   0.330   1.033  1.00  0.00     0.211 HD
ENDBRANCH   4  11
BRANCH   6  13
ATOM     13  O   UNL     1     -20.372  -0.853   0.875  1.00  0.00    -0.387 OA
ATOM     14  H   UNL     1     -20.994  -1.497   0.444  1.00  0.00     0.211 HD
ENDBRANCH   6  13
BRANCH   7  15
ATOM     15  O   UNL     1     -21.077  -3.291   1.387  1.00  0.00    -0.384 OA
ATOM     16  H   UNL     1     -21.092  -2.931   0.458  1.00  0.00     0.211 HD
ENDBRANCH   7  15
ENDBRANCH   1   2
BRANCH   1  17
ATOM     17  C   UNL     1     -22.132  -2.463   4.502  1.00  0.00     0.172 A 
ATOM     18  C   UNL     1     -23.301  -2.240   3.764  1.00  0.00     0.205 A 
ATOM     19  C   UNL     1     -22.209  -3.065   5.764  1.00  0.00     0.097 A 
ATOM     20  C   UNL     1     -24.557  -2.613   4.306  1.00  0.00     0.188 A 
ATOM     21  C   UNL     1     -23.432  -3.450   6.311  1.00  0.00     0.134 A 
ATOM     22  C   UNL     1     -24.637  -3.181   5.606  1.00  0.00     0.111 A 
ATOM     23  O   UNL     1     -25.664  -2.442   3.589  1.00  0.00    -0.452 OA
ATOM     24  C   UNL     1     -25.931  -3.427   6.129  1.00  0.00     0.197 A 
ATOM     25  C   UNL     1     -26.882  -2.737   4.027  1.00  0.00     0.138 A 
ATOM     26  C   UNL     1     -27.051  -3.213   5.329  1.00  0.00     0.100 A 
ATOM     27  O   UNL     1     -26.111  -3.810   7.313  1.00  0.00    -0.289 OA
BRANCH  18  28
ATOM     28  O   UNL     1     -23.143  -1.668   2.485  1.00  0.00    -0.490 OA
ATOM     29  C   UNL     1     -23.546  -2.251   1.249  1.00  0.00     0.278 C 
ENDBRANCH  18  28
BRANCH  21  30
ATOM     30  O   UNL     1     -23.383  -4.125   7.535  1.00  0.00    -0.507 OA
ATOM     31  H   UNL     1     -22.532  -4.362   8.022  1.00  0.00     0.293 HD
ENDBRANCH  21  30
BRANCH  25  32
ATOM     32  C   UNL     1     -28.031  -2.594   3.106  1.00  0.00     0.017 A 
ATOM     33  C   UNL     1     -28.844  -3.693   2.771  1.00  0.00     0.012 A 
ATOM     34  C   UNL     1     -28.296  -1.343   2.521  1.00  0.00     0.012 A 
ATOM     35  C   UNL     1     -29.888  -3.539   1.855  1.00  0.00     0.001 A 
ATOM     36  C   UNL     1     -29.328  -1.197   1.590  1.00  0.00     0.001 A 
ATOM     37  C   UNL     1     -30.124  -2.295   1.261  1.00  0.00     0.000 A 
ENDBRANCH  25  32
ENDBRANCH   1  17
TORSDOF 9
ENDMDL
MODEL 3
REMARK VINA RESULT:    -4.430      1.954      3.920
REMARK INTER + INTRA:          -7.491
REMARK INTER:                  -6.423
REMARK INTRA:                  -1.068
REMARK UNBOUND:                -1.249
REMARK SMILES COc1c(O[C@@H]2O[C@@H](C(=O)[O-])[C@@H](O)[C@H](O)[C@@H]2O)cc(O)c2c(=O)cc(-c3ccccc3)oc12
REMARK SMILES IDX 5 1 6 2 8 3 12 4 7 5 14 6 16 7 9 8 10 9 11 10 13 11 15 13
REMARK SMILES IDX 17 15 4 17 3 18 18 19 33 20 19 21 21 22 32 23 22 24 25 25
REMARK SMILES IDX 24 26 23 27 2 28 1 29 20 30 26 32 27 33 31 34 28 35 30 36
REMARK SMILES IDX 29 37
REMARK H PARENT 13 12 15 14 17 16 20 31
REMARK Flexibility Score: inf
ROOT
ATOM      1  O   UNL     1     -20.480  -2.076   3.810  1.00  0.00    -0.458 OA
ENDROOT
BRANCH   1   2
ATOM      2  C   UNL     1     -19.708  -2.810   2.856  1.00  0.00     0.339 C 
ATOM      3  C   UNL     1     -17.549  -3.034   3.917  1.00  0.00     0.199 C 
ATOM      4  C   UNL     1     -17.553  -1.478   3.882  1.00  0.00     0.180 C 
ATOM      5  O   UNL     1     -18.760  -3.657   3.496  1.00  0.00    -0.328 OA
ATOM      6  C   UNL     1     -18.003  -0.926   2.508  1.00  0.00     0.181 C 
ATOM      7  C   UNL     1     -19.060  -1.847   1.843  1.00  0.00     0.214 C 
BRANCH   3   8
ATOM      8  C   UNL     1     -16.403  -3.625   3.137  1.00  0.00     0.073 C 
ATOM      9  O   UNL     1     -16.608  -4.123   1.998  1.00  0.00    -0.547 OA
ATOM     10  O   UNL     1     -15.122  -3.648   3.668  1.00  0.00    -0.547 OA
ENDBRANCH   3   8
BRANCH   4  11
ATOM     11  O   UNL     1     -16.311  -0.944   4.276  1.00  0.00    -0.387 OA
ATOM     12  H   UNL     1     -15.597  -1.376   3.734  1.00  0.00     0.211 HD
ENDBRANCH   4  11
BRANCH   6  13
ATOM     13  O   UNL     1     -18.519   0.371   2.672  1.00  0.00    -0.387 OA
ATOM     14  H   UNL     1     -19.069   0.362   3.499  1.00  0.00     0.211 HD
ENDBRANCH   6  13
BRANCH   7  15
ATOM     15  O   UNL     1     -20.064  -1.098   1.204  1.00  0.00    -0.384 OA
ATOM     16  H   UNL     1     -20.898  -1.220   1.735  1.00  0.00     0.211 HD
ENDBRANCH   7  15
ENDBRANCH   1   2
BRANCH   1  17
ATOM     17  C   UNL     1     -21.718  -2.488   4.331  1.00  0.00     0.172 A 
ATOM     18  C   UNL     1     -22.855  -2.337   3.528  1.00  0.00     0.205 A 
ATOM     19  C   UNL     1     -21.835  -3.059   5.605  1.00  0.00     0.097 A 
ATOM     20  C   UNL     1     -24.121  -2.751   4.015  1.00  0.00     0.188 A 
ATOM     21  C   UNL     1     -23.068  -3.484   6.099  1.00  0.00     0.134 A 
ATOM     22  C   UNL     1     -24.244  -3.288   5.325  1.00  0.00     0.111 A 
ATOM     23  O   UNL     1     -25.195  -2.650   3.237  1.00  0.00    -0.452 OA
ATOM     24  C   UNL     1     -25.552  -3.578   5.787  1.00  0.00     0.197 A 
ATOM     25  C   UNL     1     -26.420  -2.988   3.620  1.00  0.00     0.138 A 
ATOM     26  C   UNL     1     -26.637  -3.436   4.925  1.00  0.00     0.100 A 
ATOM     27  O   UNL     1     -25.778  -3.937   6.971  1.00  0.00    -0.289 OA
BRANCH  18  28
ATOM     28  O   UNL     1     -22.655  -1.792   2.243  1.00  0.00    -0.490 OA
ATOM     29  C   UNL     1     -22.710  -2.505   1.011  1.00  0.00     0.278 C 
ENDBRANCH  18  28
BRANCH  21  30
ATOM     30  O   UNL     1     -23.054  -4.123   7.342  1.00  0.00    -0.507 OA
ATOM     31  H   UNL     1     -22.705  -3.709   8.193  1.00  0.00     0.293 HD
ENDBRANCH  21  30
BRANCH  25  32
ATOM     32  C   UNL     1     -27.524  -2.921   2.637  1.00  0.00     0.017 A 
ATOM     33  C   UNL     1     -27.748  -1.767   1.864  1.00  0.00     0.012 A 
ATOM     34  C   UNL     1     -28.393  -4.017   2.499  1.00  0.00     0.012 A 
ATOM     35  C   UNL     1     -28.833  -1.712   0.984  1.00  0.00     0.001 A 
ATOM     36  C   UNL     1     -29.488  -3.952   1.633  1.00  0.00     0.001 A 
ATOM     37  C   UNL     1     -29.705  -2.800   0.875  1.00  0.00     0.000 A 
ENDBRANCH  25  32
ENDBRANCH   1  17
TORSDOF 9
ENDMDL
MODEL 4
REMARK VINA RESULT:    -3.145      2.804      5.773
REMARK INTER + INTRA:          -5.680
REMARK INTER:                  -5.587
REMARK INTRA:                  -0.093
REMARK UNBOUND:                -1.249
REMARK SMILES COc1c(O[C@@H]2O[C@@H](C(=O)[O-])[C@@H](O)[C@H](O)[C@@H]2O)cc(O)c2c(=O)cc(-c3ccccc3)oc12
REMARK SMILES IDX 5 1 6 2 8 3 12 4 7 5 14 6 16 7 9 8 10 9 11 10 13 11 15 13
REMARK SMILES IDX 17 15 4 17 3 18 18 19 33 20 19 21 21 22 32 23 22 24 25 25
REMARK SMILES IDX 24 26 23 27 2 28 1 29 20 30 26 32 27 33 31 34 28 35 30 36
REMARK SMILES IDX 29 37
REMARK H PARENT 13 12 15 14 17 16 20 31
REMARK Flexibility Score: inf
ROOT
ATOM      1  O   UNL     1     -15.909  -2.899   3.350  1.00  0.00    -0.458 OA
ENDROOT
BRANCH   1   2
ATOM      2  C   UNL     1     -14.618  -2.285   3.290  1.00  0.00     0.339 C 
ATOM      3  C   UNL     1     -13.188  -3.839   4.463  1.00  0.00     0.199 C 
ATOM      4  C   UNL     1     -14.133  -3.548   5.664  1.00  0.00     0.180 C 
ATOM      5  O   UNL     1     -13.583  -3.258   3.222  1.00  0.00    -0.328 OA
ATOM      6  C   UNL     1     -14.413  -2.035   5.833  1.00  0.00     0.181 C 
ATOM      7  C   UNL     1     -14.442  -1.305   4.465  1.00  0.00     0.214 C 
BRANCH   3   8
ATOM      8  C   UNL     1     -11.759  -3.454   4.747  1.00  0.00     0.073 C 
ATOM      9  O   UNL     1     -11.142  -2.697   3.951  1.00  0.00    -0.547 OA
ATOM     10  O   UNL     1     -11.103  -3.942   5.866  1.00  0.00    -0.547 OA
ENDBRANCH   3   8
BRANCH   4  11
ATOM     11  O   UNL     1     -13.655  -4.125   6.857  1.00  0.00    -0.387 OA
ATOM     12  H   UNL     1     -13.365  -5.056   6.660  1.00  0.00     0.211 HD
ENDBRANCH   4  11
BRANCH   6  13
ATOM     13  O   UNL     1     -15.635  -1.858   6.507  1.00  0.00    -0.387 OA
ATOM     14  H   UNL     1     -15.816  -0.881   6.525  1.00  0.00     0.211 HD
ENDBRANCH   6  13
BRANCH   7  15
ATOM     15  O   UNL     1     -15.460  -0.336   4.421  1.00  0.00    -0.384 OA
ATOM     16  H   UNL     1     -15.125   0.459   4.920  1.00  0.00     0.211 HD
ENDBRANCH   7  15
ENDBRANCH   1   2
BRANCH   1  17
ATOM     17  C   UNL     1     -17.129  -2.230   3.153  1.00  0.00     0.172 A 
ATOM     18  C   UNL     1     -18.289  -2.801   3.691  1.00  0.00     0.205 A 
ATOM     19  C   UNL     1     -17.206  -1.013   2.464  1.00  0.00     0.097 A 
ATOM     20  C   UNL     1     -19.537  -2.150   3.523  1.00  0.00     0.188 A 
ATOM     21  C   UNL     1     -18.421  -0.350   2.297  1.00  0.00     0.134 A 
ATOM     22  C   UNL     1     -19.619  -0.938   2.784  1.00  0.00     0.111 A 
ATOM     23  O   UNL     1     -20.633  -2.667   4.070  1.00  0.00    -0.452 OA
ATOM     24  C   UNL     1     -20.911  -0.401   2.561  1.00  0.00     0.197 A 
ATOM     25  C   UNL     1     -21.844  -2.140   3.942  1.00  0.00     0.138 A 
ATOM     26  C   UNL     1     -22.021  -1.001   3.153  1.00  0.00     0.100 A 
ATOM     27  O   UNL     1     -21.101   0.595   1.817  1.00  0.00    -0.289 OA
BRANCH  18  28
ATOM     28  O   UNL     1     -18.129  -4.005   4.406  1.00  0.00    -0.490 OA
ATOM     29  C   UNL     1     -17.783  -4.125   5.783  1.00  0.00     0.278 C 
ENDBRANCH  18  28
BRANCH  21  30
ATOM     30  O   UNL     1     -18.367   0.901   1.675  1.00  0.00    -0.507 OA
ATOM     31  H   UNL     1     -18.945   1.689   1.927  1.00  0.00     0.293 HD
ENDBRANCH  21  30
BRANCH  25  32
ATOM     32  C   UNL     1     -22.975  -2.750   4.674  1.00  0.00     0.017 A 
ATOM     33  C   UNL     1     -24.298  -2.634   4.209  1.00  0.00     0.012 A 
ATOM     34  C   UNL     1     -22.731  -3.428   5.882  1.00  0.00     0.012 A 
ATOM     35  C   UNL     1     -25.352  -3.174   4.951  1.00  0.00     0.001 A 
ATOM     36  C   UNL     1     -23.789  -3.948   6.632  1.00  0.00     0.001 A 
ATOM     37  C   UNL     1     -25.098  -3.822   6.163  1.00  0.00     0.000 A 
ENDBRANCH  25  32
ENDBRANCH   1  17
TORSDOF 9
ENDMDL
MODEL 5
REMARK VINA RESULT:    -2.937      1.229      2.101
REMARK INTER + INTRA:          -5.388
REMARK INTER:                  -5.528
REMARK INTRA:                   0.140
REMARK UNBOUND:                -1.249
REMARK SMILES COc1c(O[C@@H]2O[C@@H](C(=O)[O-])[C@@H](O)[C@H](O)[C@@H]2O)cc(O)c2c(=O)cc(-c3ccccc3)oc12
REMARK SMILES IDX 5 1 6 2 8 3 12 4 7 5 14 6 16 7 9 8 10 9 11 10 13 11 15 13
REMARK SMILES IDX 17 15 4 17 3 18 18 19 33 20 19 21 21 22 32 23 22 24 25 25
REMARK SMILES IDX 24 26 23 27 2 28 1 29 20 30 26 32 27 33 31 34 28 35 30 36
REMARK SMILES IDX 29 37
REMARK H PARENT 13 12 15 14 17 16 20 31
REMARK Flexibility Score: inf
ROOT
ATOM      1  O   UNL     1     -21.103  -1.686   2.723  1.00  0.00    -0.458 OA
ENDROOT
BRANCH   1   2
ATOM      2  C   UNL     1     -20.111  -1.878   3.735  1.00  0.00     0.339 C 
ATOM      3  C   UNL     1     -18.487  -0.148   3.281  1.00  0.00     0.199 C 
ATOM      4  C   UNL     1     -18.348  -0.867   1.908  1.00  0.00     0.180 C 
ATOM      5  O   UNL     1     -19.523  -0.644   4.126  1.00  0.00    -0.328 OA
ATOM      6  C   UNL     1     -18.239  -2.403   2.062  1.00  0.00     0.181 C 
ATOM      7  C   UNL     1     -19.070  -2.914   3.268  1.00  0.00     0.214 C 
BRANCH   3   8
ATOM      8  C   UNL     1     -17.195  -0.128   4.056  1.00  0.00     0.073 C 
ATOM      9  O   UNL     1     -16.145   0.314   3.517  1.00  0.00    -0.547 OA
ATOM     10  O   UNL     1     -17.140  -0.613   5.354  1.00  0.00    -0.547 OA
ENDBRANCH   3   8
BRANCH   4  11
ATOM     11  O   UNL     1     -17.282  -0.343   1.150  1.00  0.00    -0.387 OA
ATOM     12  H   UNL     1     -17.181   0.621   1.375  1.00  0.00     0.211 HD
ENDBRANCH   4  11
BRANCH   6  13
ATOM     13  O   UNL     1     -18.668  -3.024   0.875  1.00  0.00    -0.387 OA
ATOM     14  H   UNL     1     -17.856  -3.199   0.331  1.00  0.00     0.211 HD
ENDBRANCH   6  13
BRANCH   7  15
ATOM     15  O   UNL     1     -19.719  -4.125   2.969  1.00  0.00    -0.384 OA
ATOM     16  H   UNL     1     -20.463  -3.907   2.343  1.00  0.00     0.211 HD
ENDBRANCH   7  15
ENDBRANCH   1   2
BRANCH   1  17
ATOM     17  C   UNL     1     -22.468  -1.988   2.867  1.00  0.00     0.172 A 
ATOM     18  C   UNL     1     -22.921  -2.411   4.123  1.00  0.00     0.205 A 
ATOM     19  C   UNL     1     -23.374  -1.855   1.807  1.00  0.00     0.097 A 
ATOM     20  C   UNL     1     -24.294  -2.715   4.310  1.00  0.00     0.188 A 
ATOM     21  C   UNL     1     -24.730  -2.137   1.972  1.00  0.00     0.134 A 
ATOM     22  C   UNL     1     -25.203  -2.623   3.221  1.00  0.00     0.111 A 
ATOM     23  O   UNL     1     -24.734  -3.074   5.512  1.00  0.00    -0.452 OA
ATOM     24  C   UNL     1     -26.535  -3.046   3.451  1.00  0.00     0.197 A 
ATOM     25  C   UNL     1     -25.995  -3.401   5.771  1.00  0.00     0.138 A 
ATOM     26  C   UNL     1     -26.929  -3.424   4.733  1.00  0.00     0.100 A 
ATOM     27  O   UNL     1     -27.382  -3.121   2.524  1.00  0.00    -0.289 OA
BRANCH  18  28
ATOM     28  O   UNL     1     -21.960  -2.484   5.151  1.00  0.00    -0.490 OA
ATOM     29  C   UNL     1     -21.662  -3.631   5.942  1.00  0.00     0.278 C 
ENDBRANCH  18  28
BRANCH  21  30
ATOM     30  O   UNL     1     -25.557  -1.880   0.875  1.00  0.00    -0.507 OA
ATOM     31  H   UNL     1     -26.437  -1.388   0.926  1.00  0.00     0.293 HD
ENDBRANCH  21  30
BRANCH  25  32
ATOM     32  C   UNL     1     -26.389  -3.692   7.166  1.00  0.00     0.017 A 
ATOM     33  C   UNL     1     -27.739  -3.863   7.526  1.00  0.00     0.012 A 
ATOM     34  C   UNL     1     -25.401  -3.762   8.164  1.00  0.00     0.012 A 
ATOM     35  C   UNL     1     -28.085  -4.083   8.863  1.00  0.00     0.001 A 
ATOM     36  C   UNL     1     -25.752  -3.962   9.501  1.00  0.00     0.001 A 
ATOM     37  C   UNL     1     -27.095  -4.124   9.848  1.00  0.00     0.000 A 
ENDBRANCH  25  32
ENDBRANCH   1  17
TORSDOF 9
ENDMDL
