MODEL 1
REMARK VINA RESULT:    -6.889      0.000      0.000
REMARK INTER + INTRA:          -6.889
REMARK INTER:                  -6.889
REMARK INTRA:                   0.000
REMARK UNBOUND:                 0.000
REMARK SMILES C=C1CCC[C@@]2(C)CC(=O)C(=C(C)C)C[C@H]12
REMARK SMILES IDX 13 1 12 2 11 3 15 4 16 5 2 6 1 7 3 8 4 9 5 10 6 11 8 12 9 13
REMARK SMILES IDX 10 14 7 15 14 16
REMARK H PARENT
REMARK Flexibility Score: inf
ROOT
ATOM      1  C   UNL     1      -5.622 -14.817  32.505  1.00  0.00     0.039 C 
ATOM      2  C   UNL     1      -5.524 -14.823  30.996  1.00  0.00    -0.070 C 
ATOM      3  C   UNL     1      -4.617 -14.050  30.329  1.00  0.00    -0.006 C 
ATOM      4  C   UNL     1      -4.577 -14.024  28.808  1.00  0.00     0.047 C 
ATOM      5  C   UNL     1      -4.041 -12.689  28.226  1.00  0.00     0.025 C 
ATOM      6  C   UNL     1      -3.879 -12.674  26.702  1.00  0.00    -0.073 C 
ATOM      7  C   UNL     1      -4.311 -13.660  25.894  1.00  0.00     0.008 C 
ATOM      8  C   UNL     1      -3.218 -11.471  26.068  1.00  0.00     0.031 C 
ATOM      9  C   UNL     1      -3.001 -10.349  27.086  1.00  0.00     0.005 C 
ATOM     10  C   UNL     1      -2.226 -10.835  28.323  1.00  0.00     0.008 C 
ATOM     11  C   UNL     1      -2.709 -12.218  28.904  1.00  0.00    -0.018 C 
ATOM     12  C   UNL     1      -2.969 -12.055  30.422  1.00  0.00     0.088 C 
ATOM     13  C   UNL     1      -3.545 -13.296  31.037  1.00  0.00     0.159 C 
ATOM     14  O   UNL     1      -3.088 -13.688  32.145  1.00  0.00    -0.295 OA
ATOM     15  C   UNL     1      -1.578 -13.262  28.689  1.00  0.00     0.012 C 
ATOM     16  C   UNL     1      -6.508 -15.698  30.251  1.00  0.00     0.039 C 
ENDROOT
TORSDOF 0
ENDMDL
MODEL 2
REMARK VINA RESULT:    -6.178      2.179      4.269
REMARK INTER + INTRA:          -6.178
REMARK INTER:                  -6.178
REMARK INTRA:                   0.000
REMARK UNBOUND:                 0.000
REMARK SMILES C=C1CCC[C@@]2(C)CC(=O)C(=C(C)C)C[C@H]12
REMARK SMILES IDX 13 1 12 2 11 3 15 4 16 5 2 6 1 7 3 8 4 9 5 10 6 11 8 12 9 13
REMARK SMILES IDX 10 14 7 15 14 16
REMARK H PARENT
REMARK Flexibility Score: inf
ROOT
ATOM      1  C   UNL     1      -5.611 -14.372  25.910  1.00  0.00     0.039 C 
ATOM      2  C   UNL     1      -5.510 -14.232  27.411  1.00  0.00    -0.070 C 
ATOM      3  C   UNL     1      -4.451 -13.610  28.009  1.00  0.00    -0.006 C 
ATOM      4  C   UNL     1      -4.338 -13.535  29.525  1.00  0.00     0.047 C 
ATOM      5  C   UNL     1      -2.874 -13.452  30.033  1.00  0.00     0.025 C 
ATOM      6  C   UNL     1      -2.732 -13.258  31.547  1.00  0.00    -0.073 C 
ATOM      7  C   UNL     1      -3.764 -13.316  32.409  1.00  0.00     0.008 C 
ATOM      8  C   UNL     1      -1.350 -13.012  32.106  1.00  0.00     0.031 C 
ATOM      9  C   UNL     1      -0.270 -13.209  31.039  1.00  0.00     0.005 C 
ATOM     10  C   UNL     1      -0.534 -12.354  29.788  1.00  0.00     0.008 C 
ATOM     11  C   UNL     1      -2.026 -12.372  29.279  1.00  0.00    -0.018 C 
ATOM     12  C   UNL     1      -2.032 -12.717  27.769  1.00  0.00     0.088 C 
ATOM     13  C   UNL     1      -3.421 -12.869  27.227  1.00  0.00     0.159 C 
ATOM     14  O   UNL     1      -3.696 -12.343  26.115  1.00  0.00    -0.295 OA
ATOM     15  C   UNL     1      -2.629 -10.954  29.481  1.00  0.00     0.012 C 
ATOM     16  C   UNL     1      -6.622 -14.849  28.232  1.00  0.00     0.039 C 
ENDROOT
TORSDOF 0
ENDMDL
MODEL 3
REMARK VINA RESULT:    -5.903      1.744      4.051
REMARK INTER + INTRA:          -5.903
REMARK INTER:                  -5.903
REMARK INTRA:                   0.000
REMARK UNBOUND:                 0.000
REMARK SMILES C=C1CCC[C@@]2(C)CC(=O)C(=C(C)C)C[C@H]12
REMARK SMILES IDX 13 1 12 2 11 3 15 4 16 5 2 6 1 7 3 8 4 9 5 10 6 11 8 12 9 13
REMARK SMILES IDX 10 14 7 15 14 16
REMARK H PARENT
REMARK Flexibility Score: inf
ROOT
ATOM      1  C   UNL     1       0.376 -12.887  31.328  1.00  0.00     0.039 C 
ATOM      2  C   UNL     1      -0.286 -13.057  29.979  1.00  0.00    -0.070 C 
ATOM      3  C   UNL     1      -1.644 -13.120  29.846  1.00  0.00    -0.006 C 
ATOM      4  C   UNL     1      -2.288 -13.354  28.486  1.00  0.00     0.047 C 
ATOM      5  C   UNL     1      -3.667 -14.061  28.569  1.00  0.00     0.025 C 
ATOM      6  C   UNL     1      -4.393 -14.206  27.227  1.00  0.00    -0.073 C 
ATOM      7  C   UNL     1      -3.838 -13.904  26.039  1.00  0.00     0.008 C 
ATOM      8  C   UNL     1      -5.807 -14.742  27.237  1.00  0.00     0.031 C 
ATOM      9  C   UNL     1      -6.203 -15.253  28.624  1.00  0.00     0.005 C 
ATOM     10  C   UNL     1      -5.995 -14.187  29.713  1.00  0.00     0.008 C 
ATOM     11  C   UNL     1      -4.626 -13.409  29.622  1.00  0.00    -0.018 C 
ATOM     12  C   UNL     1      -3.934 -13.460  31.007  1.00  0.00     0.088 C 
ATOM     13  C   UNL     1      -2.567 -12.843  30.982  1.00  0.00     0.159 C 
ATOM     14  O   UNL     1      -2.233 -12.078  31.926  1.00  0.00    -0.295 OA
ATOM     15  C   UNL     1      -4.927 -11.929  29.256  1.00  0.00     0.012 C 
ATOM     16  C   UNL     1       0.627 -13.194  28.781  1.00  0.00     0.039 C 
ENDROOT
TORSDOF 0
ENDMDL
MODEL 4
REMARK VINA RESULT:    -5.514      1.801      3.647
REMARK INTER + INTRA:          -5.514
REMARK INTER:                  -5.514
REMARK INTRA:                   0.000
REMARK UNBOUND:                 0.000
REMARK SMILES C=C1CCC[C@@]2(C)CC(=O)C(=C(C)C)C[C@H]12
REMARK SMILES IDX 13 1 12 2 11 3 15 4 16 5 2 6 1 7 3 8 4 9 5 10 6 11 8 12 9 13
REMARK SMILES IDX 10 14 7 15 14 16
REMARK H PARENT
REMARK Flexibility Score: inf
ROOT
ATOM      1  C   UNL     1      -6.747 -15.498  30.247  1.00  0.00     0.039 C 
ATOM      2  C   UNL     1      -5.595 -14.823  30.956  1.00  0.00    -0.070 C 
ATOM      3  C   UNL     1      -4.564 -14.247  30.269  1.00  0.00    -0.006 C 
ATOM      4  C   UNL     1      -3.382 -13.627  31.002  1.00  0.00     0.047 C 
ATOM      5  C   UNL     1      -2.065 -13.653  30.183  1.00  0.00     0.025 C 
ATOM      6  C   UNL     1      -0.885 -12.933  30.846  1.00  0.00    -0.073 C 
ATOM      7  C   UNL     1      -0.913 -12.453  32.103  1.00  0.00     0.008 C 
ATOM      8  C   UNL     1       0.390 -12.775  30.050  1.00  0.00     0.031 C 
ATOM      9  C   UNL     1       0.340 -13.572  28.745  1.00  0.00     0.005 C 
ATOM     10  C   UNL     1      -0.899 -13.221  27.903  1.00  0.00     0.008 C 
ATOM     11  C   UNL     1      -2.246 -13.131  28.717  1.00  0.00    -0.018 C 
ATOM     12  C   UNL     1      -3.309 -14.013  28.016  1.00  0.00     0.088 C 
ATOM     13  C   UNL     1      -4.592 -14.079  28.789  1.00  0.00     0.159 C 
ATOM     14  O   UNL     1      -5.681 -13.969  28.162  1.00  0.00    -0.295 OA
ATOM     15  C   UNL     1      -2.725 -11.653  28.710  1.00  0.00     0.012 C 
ATOM     16  C   UNL     1      -5.613 -14.848  32.468  1.00  0.00     0.039 C 
ENDROOT
TORSDOF 0
ENDMDL
MODEL 5
REMARK VINA RESULT:    -5.214      1.526      2.614
REMARK INTER + INTRA:          -5.214
REMARK INTER:                  -5.214
REMARK INTRA:                   0.000
REMARK UNBOUND:                 0.000
REMARK SMILES C=C1CCC[C@@]2(C)CC(=O)C(=C(C)C)C[C@H]12
REMARK SMILES IDX 13 1 12 2 11 3 15 4 16 5 2 6 1 7 3 8 4 9 5 10 6 11 8 12 9 13
REMARK SMILES IDX 10 14 7 15 14 16
REMARK H PARENT
REMARK Flexibility Score: inf
ROOT
ATOM      1  C   UNL     1      -7.134 -15.920  29.999  1.00  0.00     0.039 C 
ATOM      2  C   UNL     1      -6.244 -15.035  29.157  1.00  0.00    -0.070 C 
ATOM      3  C   UNL     1      -5.263 -14.262  29.712  1.00  0.00    -0.006 C 
ATOM      4  C   UNL     1      -4.419 -13.331  28.853  1.00  0.00     0.047 C 
ATOM      5  C   UNL     1      -3.886 -12.093  29.622  1.00  0.00     0.025 C 
ATOM      6  C   UNL     1      -2.937 -11.198  28.817  1.00  0.00    -0.073 C 
ATOM      7  C   UNL     1      -2.698 -11.354  27.502  1.00  0.00     0.008 C 
ATOM      8  C   UNL     1      -2.251 -10.060  29.537  1.00  0.00     0.031 C 
ATOM      9  C   UNL     1      -2.804  -9.875  30.952  1.00  0.00     0.005 C 
ATOM     10  C   UNL     1      -2.744 -11.178  31.768  1.00  0.00     0.008 C 
ATOM     11  C   UNL     1      -3.226 -12.465  30.994  1.00  0.00    -0.018 C 
ATOM     12  C   UNL     1      -4.282 -13.197  31.859  1.00  0.00     0.088 C 
ATOM     13  C   UNL     1      -4.881 -14.373  31.147  1.00  0.00     0.159 C 
ATOM     14  O   UNL     1      -5.032 -15.451  31.784  1.00  0.00    -0.295 OA
ATOM     15  C   UNL     1      -2.001 -13.397  30.785  1.00  0.00     0.012 C 
ATOM     16  C   UNL     1      -6.512 -15.012  27.669  1.00  0.00     0.039 C 
ENDROOT
TORSDOF 0
ENDMDL
MODEL 6
REMARK VINA RESULT:    -5.101      1.718      3.435
REMARK INTER + INTRA:          -5.101
REMARK INTER:                  -5.101
REMARK INTRA:                   0.000
REMARK UNBOUND:                 0.000
REMARK SMILES C=C1CCC[C@@]2(C)CC(=O)C(=C(C)C)C[C@H]12
REMARK SMILES IDX 13 1 12 2 11 3 15 4 16 5 2 6 1 7 3 8 4 9 5 10 6 11 8 12 9 13
REMARK SMILES IDX 10 14 7 15 14 16
REMARK H PARENT
REMARK Flexibility Score: inf
ROOT
ATOM      1  C   UNL     1      -2.658  -9.875  32.078  1.00  0.00     0.039 C 
ATOM      2  C   UNL     1      -3.532 -11.064  31.750  1.00  0.00    -0.070 C 
ATOM      3  C   UNL     1      -3.388 -11.766  30.587  1.00  0.00    -0.006 C 
ATOM      4  C   UNL     1      -4.319 -12.922  30.248  1.00  0.00     0.047 C 
ATOM      5  C   UNL     1      -4.496 -13.146  28.722  1.00  0.00     0.025 C 
ATOM      6  C   UNL     1      -5.334 -14.374  28.349  1.00  0.00    -0.073 C 
ATOM      7  C   UNL     1      -6.008 -15.120  29.244  1.00  0.00     0.008 C 
ATOM      8  C   UNL     1      -5.427 -14.754  26.889  1.00  0.00     0.031 C 
ATOM      9  C   UNL     1      -4.807 -13.682  25.989  1.00  0.00     0.005 C 
ATOM     10  C   UNL     1      -3.361 -13.354  26.397  1.00  0.00     0.008 C 
ATOM     11  C   UNL     1      -3.135 -13.178  27.947  1.00  0.00    -0.018 C 
ATOM     12  C   UNL     1      -2.405 -11.834  28.192  1.00  0.00     0.088 C 
ATOM     13  C   UNL     1      -2.252 -11.528  29.652  1.00  0.00     0.159 C 
ATOM     14  O   UNL     1      -1.145 -11.089  30.064  1.00  0.00    -0.295 OA
ATOM     15  C   UNL     1      -2.239 -14.344  28.448  1.00  0.00     0.012 C 
ATOM     16  C   UNL     1      -4.604 -11.423  32.755  1.00  0.00     0.039 C 
ENDROOT
TORSDOF 0
ENDMDL
MODEL 7
REMARK VINA RESULT:    -4.737      1.822      2.280
REMARK INTER + INTRA:          -4.737
REMARK INTER:                  -4.737
REMARK INTRA:                   0.000
REMARK UNBOUND:                 0.000
REMARK SMILES C=C1CCC[C@@]2(C)CC(=O)C(=C(C)C)C[C@H]12
REMARK SMILES IDX 13 1 12 2 11 3 15 4 16 5 2 6 1 7 3 8 4 9 5 10 6 11 8 12 9 13
REMARK SMILES IDX 10 14 7 15 14 16
REMARK H PARENT
REMARK Flexibility Score: inf
ROOT
ATOM      1  C   UNL     1      -5.296 -13.040  33.976  1.00  0.00     0.039 C 
ATOM      2  C   UNL     1      -4.493 -13.612  32.830  1.00  0.00    -0.070 C 
ATOM      3  C   UNL     1      -4.067 -12.836  31.790  1.00  0.00    -0.006 C 
ATOM      4  C   UNL     1      -3.313 -13.444  30.615  1.00  0.00     0.047 C 
ATOM      5  C   UNL     1      -3.503 -12.662  29.288  1.00  0.00     0.025 C 
ATOM      6  C   UNL     1      -2.665 -13.181  28.114  1.00  0.00    -0.073 C 
ATOM      7  C   UNL     1      -1.942 -14.316  28.155  1.00  0.00     0.008 C 
ATOM      8  C   UNL     1      -2.670 -12.385  26.829  1.00  0.00     0.031 C 
ATOM      9  C   UNL     1      -3.713 -11.266  26.866  1.00  0.00     0.005 C 
ATOM     10  C   UNL     1      -3.538 -10.356  28.095  1.00  0.00     0.008 C 
ATOM     11  C   UNL     1      -3.286 -11.119  29.451  1.00  0.00    -0.018 C 
ATOM     12  C   UNL     1      -4.290 -10.597  30.508  1.00  0.00     0.088 C 
ATOM     13  C   UNL     1      -4.199 -11.352  31.800  1.00  0.00     0.159 C 
ATOM     14  O   UNL     1      -4.217 -10.703  32.881  1.00  0.00    -0.295 OA
ATOM     15  C   UNL     1      -1.839 -10.810  29.926  1.00  0.00     0.012 C 
ATOM     16  C   UNL     1      -4.214 -15.098  32.865  1.00  0.00     0.039 C 
ENDROOT
TORSDOF 0
ENDMDL
MODEL 8
REMARK VINA RESULT:    -4.526      1.671      4.813
REMARK INTER + INTRA:          -4.526
REMARK INTER:                  -4.526
REMARK INTRA:                   0.000
REMARK UNBOUND:                 0.000
REMARK SMILES C=C1CCC[C@@]2(C)CC(=O)C(=C(C)C)C[C@H]12
REMARK SMILES IDX 13 1 12 2 11 3 15 4 16 5 2 6 1 7 3 8 4 9 5 10 6 11 8 12 9 13
REMARK SMILES IDX 10 14 7 15 14 16
REMARK H PARENT
REMARK Flexibility Score: inf
ROOT
ATOM      1  C   UNL     1      -2.701 -11.247  25.735  1.00  0.00     0.039 C 
ATOM      2  C   UNL     1      -3.649 -12.163  26.475  1.00  0.00    -0.070 C 
ATOM      3  C   UNL     1      -3.684 -12.215  27.840  1.00  0.00    -0.006 C 
ATOM      4  C   UNL     1      -4.602 -13.189  28.564  1.00  0.00     0.047 C 
ATOM      5  C   UNL     1      -4.072 -13.618  29.959  1.00  0.00     0.025 C 
ATOM      6  C   UNL     1      -5.029 -14.506  30.761  1.00  0.00    -0.073 C 
ATOM      7  C   UNL     1      -6.167 -15.023  30.262  1.00  0.00     0.008 C 
ATOM      8  C   UNL     1      -4.660 -14.841  32.189  1.00  0.00     0.031 C 
ATOM      9  C   UNL     1      -3.240 -14.378  32.525  1.00  0.00     0.005 C 
ATOM     10  C   UNL     1      -3.035 -12.884  32.223  1.00  0.00     0.008 C 
ATOM     11  C   UNL     1      -3.614 -12.405  30.837  1.00  0.00    -0.018 C 
ATOM     12  C   UNL     1      -2.503 -11.643  30.072  1.00  0.00     0.088 C 
ATOM     13  C   UNL     1      -2.932 -11.250  28.690  1.00  0.00     0.159 C 
ATOM     14  O   UNL     1      -2.659 -10.089  28.281  1.00  0.00    -0.295 OA
ATOM     15  C   UNL     1      -4.800 -11.438  31.110  1.00  0.00     0.012 C 
ATOM     16  C   UNL     1      -4.535 -13.054  25.633  1.00  0.00     0.039 C 
ENDROOT
TORSDOF 0
ENDMDL
MODEL 9
REMARK VINA RESULT:    -4.298      1.566      3.023
REMARK INTER + INTRA:          -4.298
REMARK INTER:                  -4.298
REMARK INTRA:                   0.000
REMARK UNBOUND:                 0.000
REMARK SMILES C=C1CCC[C@@]2(C)CC(=O)C(=C(C)C)C[C@H]12
REMARK SMILES IDX 13 1 12 2 11 3 15 4 16 5 2 6 1 7 3 8 4 9 5 10 6 11 8 12 9 13
REMARK SMILES IDX 10 14 7 15 14 16
REMARK H PARENT
REMARK Flexibility Score: inf
ROOT
ATOM      1  C   UNL     1      -5.283 -15.841  32.508  1.00  0.00     0.039 C 
ATOM      2  C   UNL     1      -4.771 -14.460  32.169  1.00  0.00    -0.070 C 
ATOM      3  C   UNL     1      -4.762 -13.988  30.887  1.00  0.00    -0.006 C 
ATOM      4  C   UNL     1      -4.185 -12.618  30.559  1.00  0.00     0.047 C 
ATOM      5  C   UNL     1      -3.626 -12.512  29.115  1.00  0.00     0.025 C 
ATOM      6  C   UNL     1      -3.145 -11.113  28.717  1.00  0.00    -0.073 C 
ATOM      7  C   UNL     1      -3.048 -10.081  29.576  1.00  0.00     0.008 C 
ATOM      8  C   UNL     1      -2.730 -10.885  27.281  1.00  0.00     0.031 C 
ATOM      9  C   UNL     1      -2.674 -12.199  26.498  1.00  0.00     0.005 C 
ATOM     10  C   UNL     1      -3.995 -12.980  26.588  1.00  0.00     0.008 C 
ATOM     11  C   UNL     1      -4.620 -13.057  28.034  1.00  0.00    -0.018 C 
ATOM     12  C   UNL     1      -4.929 -14.539  28.362  1.00  0.00     0.088 C 
ATOM     13  C   UNL     1      -5.420 -14.719  29.768  1.00  0.00     0.159 C 
ATOM     14  O   UNL     1      -6.404 -15.481  29.971  1.00  0.00    -0.295 OA
ATOM     15  C   UNL     1      -5.945 -12.246  28.039  1.00  0.00     0.012 C 
ATOM     16  C   UNL     1      -4.230 -13.631  33.313  1.00  0.00     0.039 C 
ENDROOT
TORSDOF 0
ENDMDL
