MODEL 1
REMARK VINA RESULT:    -4.443      0.000      0.000
REMARK INTER + INTRA:          -6.907
REMARK INTER:                  -6.261
REMARK INTRA:                  -0.646
REMARK UNBOUND:                -0.646
REMARK SMILES CCCCCCCCC(=O)[O-]
REMARK SMILES IDX 6 1 7 2 8 3 9 4 10 5 11 6 5 7 4 8 3 9 2 10 1 11
REMARK H PARENT
REMARK Flexibility Score: inf
ROOT
ATOM      1  C   UNL     1       4.882   1.276  14.306  1.00  0.00     0.000 C 
ENDROOT
BRANCH   1   2
ATOM      2  C   UNL     1       3.647   0.518  13.792  1.00  0.00     0.006 C 
BRANCH   2   3
ATOM      3  C   UNL     1       2.947  -0.289  14.894  1.00  0.00     0.053 C 
BRANCH   3   4
ATOM      4  C   UNL     1       1.808   0.491  15.468  1.00  0.00     0.041 C 
ATOM      5  O   UNL     1       0.675   0.457  14.918  1.00  0.00    -0.550 OA
ATOM      6  O   UNL     1       2.007   1.295  16.583  1.00  0.00    -0.550 OA
ENDBRANCH   3   4
ENDBRANCH   2   3
ENDBRANCH   1   2
BRANCH   1   7
ATOM      7  C   UNL     1       5.687   0.467  15.334  1.00  0.00     0.000 C 
BRANCH   7   8
ATOM      8  C   UNL     1       5.874   1.261  16.633  1.00  0.00    -0.000 C 
BRANCH   8   9
ATOM      9  C   UNL     1       5.158   0.574  17.806  1.00  0.00    -0.000 C 
BRANCH   9  10
ATOM     10  C   UNL     1       5.328  -0.952  17.788  1.00  0.00    -0.003 C 
ATOM     11  C   UNL     1       6.291  -1.453  18.865  1.00  0.00     0.004 C 
ENDBRANCH   9  10
ENDBRANCH   8   9
ENDBRANCH   7   8
ENDBRANCH   1   7
TORSDOF 7
ENDMDL
MODEL 2
REMARK VINA RESULT:    -4.323      1.034      1.586
REMARK INTER + INTRA:          -6.737
REMARK INTER:                  -5.951
REMARK INTRA:                  -0.786
REMARK UNBOUND:                -0.646
REMARK SMILES CCCCCCCCC(=O)[O-]
REMARK SMILES IDX 6 1 7 2 8 3 9 4 10 5 11 6 5 7 4 8 3 9 2 10 1 11
REMARK H PARENT
REMARK Flexibility Score: inf
ROOT
ATOM      1  C   UNL     1       3.955   0.925  13.842  1.00  0.00     0.000 C 
ENDROOT
BRANCH   1   2
ATOM      2  C   UNL     1       3.675  -0.575  14.028  1.00  0.00     0.006 C 
BRANCH   2   3
ATOM      3  C   UNL     1       2.838  -0.870  15.280  1.00  0.00     0.053 C 
BRANCH   3   4
ATOM      4  C   UNL     1       1.574  -0.071  15.263  1.00  0.00     0.041 C 
ATOM      5  O   UNL     1       1.359   0.795  16.153  1.00  0.00    -0.550 OA
ATOM      6  O   UNL     1       0.611  -0.316  14.293  1.00  0.00    -0.550 OA
ENDBRANCH   3   4
ENDBRANCH   2   3
ENDBRANCH   1   2
BRANCH   1   7
ATOM      7  C   UNL     1       5.089   1.431  14.745  1.00  0.00     0.000 C 
BRANCH   7   8
ATOM      8  C   UNL     1       4.553   2.390  15.815  1.00  0.00    -0.000 C 
BRANCH   8   9
ATOM      9  C   UNL     1       4.541   1.719  17.198  1.00  0.00    -0.000 C 
BRANCH   9  10
ATOM     10  C   UNL     1       5.588   0.603  17.322  1.00  0.00    -0.003 C 
ATOM     11  C   UNL     1       5.401  -0.248  18.578  1.00  0.00     0.004 C 
ENDBRANCH   9  10
ENDBRANCH   8   9
ENDBRANCH   7   8
ENDBRANCH   1   7
TORSDOF 7
ENDMDL
MODEL 3
REMARK VINA RESULT:    -4.194      2.524      4.614
REMARK INTER + INTRA:          -6.556
REMARK INTER:                  -5.943
REMARK INTRA:                  -0.612
REMARK UNBOUND:                -0.646
REMARK SMILES CCCCCCCCC(=O)[O-]
REMARK SMILES IDX 6 1 7 2 8 3 9 4 10 5 11 6 5 7 4 8 3 9 2 10 1 11
REMARK H PARENT
REMARK Flexibility Score: inf
ROOT
ATOM      1  C   UNL     1       4.310   1.958  16.780  1.00  0.00     0.000 C 
ENDROOT
BRANCH   1   2
ATOM      2  C   UNL     1       5.555   1.067  16.920  1.00  0.00     0.006 C 
BRANCH   2   3
ATOM      3  C   UNL     1       5.208  -0.377  17.306  1.00  0.00     0.053 C 
BRANCH   3   4
ATOM      4  C   UNL     1       5.441  -0.597  18.767  1.00  0.00     0.041 C 
ATOM      5  O   UNL     1       4.703  -0.033  19.619  1.00  0.00    -0.550 OA
ATOM      6  O   UNL     1       6.502  -1.385  19.191  1.00  0.00    -0.550 OA
ENDBRANCH   3   4
ENDBRANCH   2   3
ENDBRANCH   1   2
BRANCH   1   7
ATOM      7  C   UNL     1       4.474   3.038  15.701  1.00  0.00     0.000 C 
BRANCH   7   8
ATOM      8  C   UNL     1       3.743   2.641  14.412  1.00  0.00    -0.000 C 
BRANCH   8   9
ATOM      9  C   UNL     1       4.668   1.845  13.478  1.00  0.00    -0.000 C 
BRANCH   9  10
ATOM     10  C   UNL     1       4.002   0.572  12.934  1.00  0.00    -0.003 C 
ATOM     11  C   UNL     1       3.040  -0.067  13.936  1.00  0.00     0.004 C 
ENDBRANCH   9  10
ENDBRANCH   8   9
ENDBRANCH   7   8
ENDBRANCH   1   7
TORSDOF 7
ENDMDL
MODEL 4
REMARK VINA RESULT:    -4.190      2.327      4.247
REMARK INTER + INTRA:          -6.550
REMARK INTER:                  -5.781
REMARK INTRA:                  -0.768
REMARK UNBOUND:                -0.646
REMARK SMILES CCCCCCCCC(=O)[O-]
REMARK SMILES IDX 6 1 7 2 8 3 9 4 10 5 11 6 5 7 4 8 3 9 2 10 1 11
REMARK H PARENT
REMARK Flexibility Score: inf
ROOT
ATOM      1  C   UNL     1       6.351   0.486  14.365  1.00  0.00     0.000 C 
ENDROOT
BRANCH   1   2
ATOM      2  C   UNL     1       5.568   0.065  15.619  1.00  0.00     0.006 C 
BRANCH   2   3
ATOM      3  C   UNL     1       5.815   0.999  16.811  1.00  0.00     0.053 C 
BRANCH   3   4
ATOM      4  C   UNL     1       4.853   0.701  17.916  1.00  0.00     0.041 C 
ATOM      5  O   UNL     1       4.789  -0.459  18.406  1.00  0.00    -0.550 OA
ATOM      6  O   UNL     1       3.991   1.689  18.373  1.00  0.00    -0.550 OA
ENDBRANCH   3   4
ENDBRANCH   2   3
ENDBRANCH   1   2
BRANCH   1   7
ATOM      7  C   UNL     1       5.519   0.365  13.080  1.00  0.00     0.000 C 
BRANCH   7   8
ATOM      8  C   UNL     1       4.289   1.281  13.133  1.00  0.00    -0.000 C 
BRANCH   8   9
ATOM      9  C   UNL     1       4.706   2.759  13.195  1.00  0.00    -0.000 C 
BRANCH   9  10
ATOM     10  C   UNL     1       3.993   3.526  14.318  1.00  0.00    -0.003 C 
ATOM     11  C   UNL     1       2.983   2.663  15.075  1.00  0.00     0.004 C 
ENDBRANCH   9  10
ENDBRANCH   8   9
ENDBRANCH   7   8
ENDBRANCH   1   7
TORSDOF 7
ENDMDL
MODEL 5
REMARK VINA RESULT:    -4.184      1.563      3.882
REMARK INTER + INTRA:          -6.542
REMARK INTER:                  -5.781
REMARK INTRA:                  -0.761
REMARK UNBOUND:                -0.646
REMARK SMILES CCCCCCCCC(=O)[O-]
REMARK SMILES IDX 6 1 7 2 8 3 9 4 10 5 11 6 5 7 4 8 3 9 2 10 1 11
REMARK H PARENT
REMARK Flexibility Score: inf
ROOT
ATOM      1  C   UNL     1       5.782   0.381  14.893  1.00  0.00     0.000 C 
ENDROOT
BRANCH   1   2
ATOM      2  C   UNL     1       5.944   1.217  16.172  1.00  0.00     0.006 C 
BRANCH   2   3
ATOM      3  C   UNL     1       5.359   0.524  17.410  1.00  0.00     0.053 C 
BRANCH   3   4
ATOM      4  C   UNL     1       4.195   1.299  17.941  1.00  0.00     0.041 C 
ATOM      5  O   UNL     1       4.113   1.556  19.172  1.00  0.00    -0.550 OA
ATOM      6  O   UNL     1       3.177   1.697  17.085  1.00  0.00    -0.550 OA
ENDBRANCH   3   4
ENDBRANCH   2   3
ENDBRANCH   1   2
BRANCH   1   7
ATOM      7  C   UNL     1       4.914   1.079  13.836  1.00  0.00     0.000 C 
BRANCH   7   8
ATOM      8  C   UNL     1       3.550   0.391  13.703  1.00  0.00    -0.000 C 
BRANCH   8   9
ATOM      9  C   UNL     1       3.556  -0.981  14.395  1.00  0.00    -0.000 C 
BRANCH   9  10
ATOM     10  C   UNL     1       2.290  -1.226  15.230  1.00  0.00    -0.003 C 
ATOM     11  C   UNL     1       1.151  -0.270  14.872  1.00  0.00     0.004 C 
ENDBRANCH   9  10
ENDBRANCH   8   9
ENDBRANCH   7   8
ENDBRANCH   1   7
TORSDOF 7
ENDMDL
MODEL 6
REMARK VINA RESULT:    -4.180      2.477      4.357
REMARK INTER + INTRA:          -6.536
REMARK INTER:                  -5.842
REMARK INTRA:                  -0.694
REMARK UNBOUND:                -0.646
REMARK SMILES CCCCCCCCC(=O)[O-]
REMARK SMILES IDX 6 1 7 2 8 3 9 4 10 5 11 6 5 7 4 8 3 9 2 10 1 11
REMARK H PARENT
REMARK Flexibility Score: inf
ROOT
ATOM      1  C   UNL     1       4.376   2.576  16.190  1.00  0.00     0.000 C 
ENDROOT
BRANCH   1   2
ATOM      2  C   UNL     1       4.251   1.475  17.255  1.00  0.00     0.006 C 
BRANCH   2   3
ATOM      3  C   UNL     1       5.445   0.511  17.251  1.00  0.00     0.053 C 
BRANCH   3   4
ATOM      4  C   UNL     1       5.466  -0.299  18.509  1.00  0.00     0.041 C 
ATOM      5  O   UNL     1       6.156  -1.351  18.574  1.00  0.00    -0.550 OA
ATOM      6  O   UNL     1       4.685   0.081  19.592  1.00  0.00    -0.550 OA
ENDBRANCH   3   4
ENDBRANCH   2   3
ENDBRANCH   1   2
BRANCH   1   7
ATOM      7  C   UNL     1       3.416   2.369  15.009  1.00  0.00     0.000 C 
BRANCH   7   8
ATOM      8  C   UNL     1       4.124   1.670  13.841  1.00  0.00    -0.000 C 
BRANCH   8   9
ATOM      9  C   UNL     1       3.592   0.241  13.650  1.00  0.00    -0.000 C 
BRANCH   9  10
ATOM     10  C   UNL     1       2.292  -0.013  14.428  1.00  0.00    -0.003 C 
ATOM     11  C   UNL     1       2.331  -1.310  15.237  1.00  0.00     0.004 C 
ENDBRANCH   9  10
ENDBRANCH   8   9
ENDBRANCH   7   8
ENDBRANCH   1   7
TORSDOF 7
ENDMDL
MODEL 7
REMARK VINA RESULT:    -4.177      1.767      2.930
REMARK INTER + INTRA:          -6.532
REMARK INTER:                  -5.865
REMARK INTRA:                  -0.666
REMARK UNBOUND:                -0.646
REMARK SMILES CCCCCCCCC(=O)[O-]
REMARK SMILES IDX 6 1 7 2 8 3 9 4 10 5 11 6 5 7 4 8 3 9 2 10 1 11
REMARK H PARENT
REMARK Flexibility Score: inf
ROOT
ATOM      1  C   UNL     1       4.950  -0.077  13.887  1.00  0.00     0.000 C 
ENDROOT
BRANCH   1   2
ATOM      2  C   UNL     1       3.446   0.167  13.689  1.00  0.00     0.006 C 
BRANCH   2   3
ATOM      3  C   UNL     1       2.577  -0.818  14.483  1.00  0.00     0.053 C 
BRANCH   3   4
ATOM      4  C   UNL     1       1.402  -0.113  15.081  1.00  0.00     0.041 C 
ATOM      5  O   UNL     1       0.250  -0.275  14.595  1.00  0.00    -0.550 OA
ATOM      6  O   UNL     1       1.584   0.762  16.143  1.00  0.00    -0.550 OA
ENDBRANCH   3   4
ENDBRANCH   2   3
ENDBRANCH   1   2
BRANCH   1   7
ATOM      7  C   UNL     1       5.685   1.160  14.424  1.00  0.00     0.000 C 
BRANCH   7   8
ATOM      8  C   UNL     1       5.521   1.278  15.944  1.00  0.00    -0.000 C 
BRANCH   8   9
ATOM      9  C   UNL     1       4.513   2.381  16.305  1.00  0.00    -0.000 C 
BRANCH   9  10
ATOM     10  C   UNL     1       4.461   3.499  15.253  1.00  0.00    -0.003 C 
ATOM     11  C   UNL     1       3.049   3.740  14.716  1.00  0.00     0.004 C 
ENDBRANCH   9  10
ENDBRANCH   8   9
ENDBRANCH   7   8
ENDBRANCH   1   7
TORSDOF 7
ENDMDL
MODEL 8
REMARK VINA RESULT:    -4.150      1.856      3.076
REMARK INTER + INTRA:          -6.494
REMARK INTER:                  -5.660
REMARK INTRA:                  -0.833
REMARK UNBOUND:                -0.646
REMARK SMILES CCCCCCCCC(=O)[O-]
REMARK SMILES IDX 6 1 7 2 8 3 9 4 10 5 11 6 5 7 4 8 3 9 2 10 1 11
REMARK H PARENT
REMARK Flexibility Score: inf
ROOT
ATOM      1  C   UNL     1       4.608   2.636  13.537  1.00  0.00     0.000 C 
ENDROOT
BRANCH   1   2
ATOM      2  C   UNL     1       3.674   2.811  14.745  1.00  0.00     0.006 C 
BRANCH   2   3
ATOM      3  C   UNL     1       4.407   2.664  16.085  1.00  0.00     0.053 C 
BRANCH   3   4
ATOM      4  C   UNL     1       3.583   1.865  17.045  1.00  0.00     0.041 C 
ATOM      5  O   UNL     1       4.074   1.492  18.143  1.00  0.00    -0.550 OA
ATOM      6  O   UNL     1       2.289   1.492  16.706  1.00  0.00    -0.550 OA
ENDBRANCH   3   4
ENDBRANCH   2   3
ENDBRANCH   1   2
BRANCH   1   7
ATOM      7  C   UNL     1       4.891   1.161  13.217  1.00  0.00     0.000 C 
BRANCH   7   8
ATOM      8  C   UNL     1       3.659   0.292  13.498  1.00  0.00    -0.000 C 
BRANCH   8   9
ATOM      9  C   UNL     1       4.044  -0.969  14.289  1.00  0.00    -0.000 C 
BRANCH   9  10
ATOM     10  C   UNL     1       5.449  -0.874  14.903  1.00  0.00    -0.003 C 
ATOM     11  C   UNL     1       5.476  -1.266  16.381  1.00  0.00     0.004 C 
ENDBRANCH   9  10
ENDBRANCH   8   9
ENDBRANCH   7   8
ENDBRANCH   1   7
TORSDOF 7
ENDMDL
MODEL 9
REMARK VINA RESULT:    -4.133      1.347      2.302
REMARK INTER + INTRA:          -6.470
REMARK INTER:                  -5.718
REMARK INTRA:                  -0.751
REMARK UNBOUND:                -0.646
REMARK SMILES CCCCCCCCC(=O)[O-]
REMARK SMILES IDX 6 1 7 2 8 3 9 4 10 5 11 6 5 7 4 8 3 9 2 10 1 11
REMARK H PARENT
REMARK Flexibility Score: inf
ROOT
ATOM      1  C   UNL     1       5.169  -1.236  14.772  1.00  0.00     0.000 C 
ENDROOT
BRANCH   1   2
ATOM      2  C   UNL     1       3.642  -1.413  14.779  1.00  0.00     0.006 C 
BRANCH   2   3
ATOM      3  C   UNL     1       2.897  -0.143  14.347  1.00  0.00     0.053 C 
BRANCH   3   4
ATOM      4  C   UNL     1       1.554  -0.078  15.001  1.00  0.00     0.041 C 
ATOM      5  O   UNL     1       0.605  -0.789  14.573  1.00  0.00    -0.550 OA
ATOM      6  O   UNL     1       1.334   0.803  16.051  1.00  0.00    -0.550 OA
ENDBRANCH   3   4
ENDBRANCH   2   3
ENDBRANCH   1   2
BRANCH   1   7
ATOM      7  C   UNL     1       5.815  -1.615  16.112  1.00  0.00     0.000 C 
BRANCH   7   8
ATOM      8  C   UNL     1       5.061  -0.977  17.286  1.00  0.00    -0.000 C 
BRANCH   8   9
ATOM      9  C   UNL     1       5.527   0.469  17.518  1.00  0.00    -0.000 C 
BRANCH   9  10
ATOM     10  C   UNL     1       4.374   1.480  17.435  1.00  0.00    -0.003 C 
ATOM     11  C   UNL     1       4.509   2.435  16.249  1.00  0.00     0.004 C 
ENDBRANCH   9  10
ENDBRANCH   8   9
ENDBRANCH   7   8
ENDBRANCH   1   7
TORSDOF 7
ENDMDL
