MODEL 1
REMARK VINA RESULT:    -3.915      0.000      0.000
REMARK INTER + INTRA:          -5.881
REMARK INTER:                  -5.746
REMARK INTRA:                  -0.135
REMARK UNBOUND:                -0.135
REMARK SMILES O=C([O-])CCCCCCCC(=O)[O-]
REMARK SMILES IDX 7 1 6 2 5 3 4 4 2 5 1 6 3 7 8 8 9 9 10 10 11 11 12 12 13 13
REMARK H PARENT
REMARK Flexibility Score: inf
ROOT
ATOM      1  C   UNL     1      -2.020  37.525  18.284  1.00  0.00     0.000 C 
ENDROOT
BRANCH   1   2
ATOM      2  C   UNL     1      -2.785  37.458  19.618  1.00  0.00     0.000 C 
BRANCH   2   3
ATOM      3  C   UNL     1      -4.256  37.890  19.489  1.00  0.00     0.006 C 
BRANCH   3   4
ATOM      4  C   UNL     1      -5.125  37.333  20.624  1.00  0.00     0.053 C 
BRANCH   4   5
ATOM      5  C   UNL     1      -4.974  35.849  20.758  1.00  0.00     0.041 C 
ATOM      6  O   UNL     1      -5.125  35.102  19.755  1.00  0.00    -0.550 OA
ATOM      7  O   UNL     1      -4.632  35.292  21.984  1.00  0.00    -0.550 OA
ENDBRANCH   4   5
ENDBRANCH   3   4
ENDBRANCH   2   3
ENDBRANCH   1   2
BRANCH   1   8
ATOM      8  C   UNL     1      -2.890  37.348  17.026  1.00  0.00     0.000 C 
BRANCH   8   9
ATOM      9  C   UNL     1      -2.279  36.371  16.007  1.00  0.00     0.006 C 
BRANCH   9  10
ATOM     10  C   UNL     1      -2.417  36.876  14.564  1.00  0.00     0.053 C 
BRANCH  10  11
ATOM     11  C   UNL     1      -3.775  37.449  14.304  1.00  0.00     0.041 C 
ATOM     12  O   UNL     1      -4.704  36.714  13.875  1.00  0.00    -0.550 OA
ATOM     13  O   UNL     1      -4.009  38.804  14.509  1.00  0.00    -0.550 OA
ENDBRANCH  10  11
ENDBRANCH   9  10
ENDBRANCH   8   9
ENDBRANCH   1   8
TORSDOF 8
ENDMDL
MODEL 2
REMARK VINA RESULT:    -3.703      0.999      6.128
REMARK INTER + INTRA:          -5.570
REMARK INTER:                  -5.114
REMARK INTRA:                  -0.456
REMARK UNBOUND:                -0.135
REMARK SMILES O=C([O-])CCCCCCCC(=O)[O-]
REMARK SMILES IDX 7 1 6 2 5 3 4 4 2 5 1 6 3 7 8 8 9 9 10 10 11 11 12 12 13 13
REMARK H PARENT
REMARK Flexibility Score: inf
ROOT
ATOM      1  C   UNL     1      -2.864  37.789  19.578  1.00  0.00     0.000 C 
ENDROOT
BRANCH   1   2
ATOM      2  C   UNL     1      -2.174  37.189  18.341  1.00  0.00     0.000 C 
BRANCH   2   3
ATOM      3  C   UNL     1      -3.155  36.877  17.198  1.00  0.00     0.006 C 
BRANCH   3   4
ATOM      4  C   UNL     1      -2.532  37.117  15.817  1.00  0.00     0.053 C 
BRANCH   4   5
ATOM      5  C   UNL     1      -3.566  37.498  14.803  1.00  0.00     0.041 C 
ATOM      6  O   UNL     1      -4.060  36.625  14.041  1.00  0.00    -0.550 OA
ATOM      7  O   UNL     1      -4.010  38.812  14.721  1.00  0.00    -0.550 OA
ENDBRANCH   4   5
ENDBRANCH   3   4
ENDBRANCH   2   3
ENDBRANCH   1   2
BRANCH   1   8
ATOM      8  C   UNL     1      -4.396  37.905  19.477  1.00  0.00     0.000 C 
BRANCH   8   9
ATOM      9  C   UNL     1      -5.125  37.319  20.697  1.00  0.00     0.006 C 
BRANCH   9  10
ATOM     10  C   UNL     1      -5.120  35.784  20.694  1.00  0.00     0.053 C 
BRANCH  10  11
ATOM     11  C   UNL     1      -4.376  35.228  21.870  1.00  0.00     0.041 C 
ATOM     12  O   UNL     1      -3.178  34.860  21.748  1.00  0.00    -0.550 OA
ATOM     13  O   UNL     1      -5.017  35.092  23.095  1.00  0.00    -0.550 OA
ENDBRANCH  10  11
ENDBRANCH   9  10
ENDBRANCH   8   9
ENDBRANCH   1   8
TORSDOF 8
ENDMDL
MODEL 3
REMARK VINA RESULT:    -2.569      1.743      6.425
REMARK INTER + INTRA:          -3.906
REMARK INTER:                  -3.457
REMARK INTRA:                  -0.449
REMARK UNBOUND:                -0.135
REMARK SMILES O=C([O-])CCCCCCCC(=O)[O-]
REMARK SMILES IDX 7 1 6 2 5 3 4 4 2 5 1 6 3 7 8 8 9 9 10 10 11 11 12 12 13 13
REMARK H PARENT
REMARK Flexibility Score: inf
ROOT
ATOM      1  C   UNL     1      -4.142  37.264  19.898  1.00  0.00     0.000 C 
ENDROOT
BRANCH   1   2
ATOM      2  C   UNL     1      -3.054  37.992  19.089  1.00  0.00     0.000 C 
BRANCH   2   3
ATOM      3  C   UNL     1      -1.967  37.044  18.555  1.00  0.00     0.006 C 
BRANCH   3   4
ATOM      4  C   UNL     1      -1.777  37.176  17.039  1.00  0.00     0.053 C 
BRANCH   4   5
ATOM      5  C   UNL     1      -3.032  36.842  16.293  1.00  0.00     0.041 C 
ATOM      6  O   UNL     1      -3.562  37.693  15.530  1.00  0.00    -0.550 OA
ATOM      7  O   UNL     1      -3.597  35.579  16.413  1.00  0.00    -0.550 OA
ENDBRANCH   4   5
ENDBRANCH   3   4
ENDBRANCH   2   3
ENDBRANCH   1   2
BRANCH   1   8
ATOM      8  C   UNL     1      -4.226  35.745  19.656  1.00  0.00     0.000 C 
BRANCH   8   9
ATOM      9  C   UNL     1      -4.631  34.959  20.914  1.00  0.00     0.006 C 
BRANCH   9  10
ATOM     10  C   UNL     1      -5.124  35.878  22.040  1.00  0.00     0.053 C 
BRANCH  10  11
ATOM     11  C   UNL     1      -5.045  35.210  23.378  1.00  0.00     0.041 C 
ATOM     12  O   UNL     1      -5.059  35.896  24.433  1.00  0.00    -0.550 OA
ATOM     13  O   UNL     1      -4.928  33.827  23.458  1.00  0.00    -0.550 OA
ENDBRANCH  10  11
ENDBRANCH   9  10
ENDBRANCH   8   9
ENDBRANCH   1   8
TORSDOF 8
ENDMDL
MODEL 4
REMARK VINA RESULT:    -2.496      2.334      3.047
REMARK INTER + INTRA:          -3.798
REMARK INTER:                  -3.214
REMARK INTRA:                  -0.584
REMARK UNBOUND:                -0.135
REMARK SMILES O=C([O-])CCCCCCCC(=O)[O-]
REMARK SMILES IDX 7 1 6 2 5 3 4 4 2 5 1 6 3 7 8 8 9 9 10 10 11 11 12 12 13 13
REMARK H PARENT
REMARK Flexibility Score: inf
ROOT
ATOM      1  C   UNL     1      -4.350  35.102  18.600  1.00  0.00     0.000 C 
ENDROOT
BRANCH   1   2
ATOM      2  C   UNL     1      -4.647  36.284  19.539  1.00  0.00     0.000 C 
BRANCH   2   3
ATOM      3  C   UNL     1      -3.405  36.766  20.308  1.00  0.00     0.006 C 
BRANCH   3   4
ATOM      4  C   UNL     1      -2.695  37.924  19.594  1.00  0.00     0.053 C 
BRANCH   4   5
ATOM      5  C   UNL     1      -1.217  37.702  19.514  1.00  0.00     0.041 C 
ATOM      6  O   UNL     1      -0.605  37.150  20.467  1.00  0.00    -0.550 OA
ATOM      7  O   UNL     1      -0.518  38.072  18.372  1.00  0.00    -0.550 OA
ENDBRANCH   4   5
ENDBRANCH   3   4
ENDBRANCH   2   3
ENDBRANCH   1   2
BRANCH   1   8
ATOM      8  C   UNL     1      -4.358  35.446  17.099  1.00  0.00     0.000 C 
BRANCH   8   9
ATOM      9  C   UNL     1      -3.023  36.032  16.611  1.00  0.00     0.006 C 
BRANCH   9  10
ATOM     10  C   UNL     1      -3.167  37.483  16.131  1.00  0.00     0.053 C 
BRANCH  10  11
ATOM     11  C   UNL     1      -3.600  37.555  14.699  1.00  0.00     0.041 C 
ATOM     12  O   UNL     1      -3.310  36.626  13.900  1.00  0.00    -0.550 OA
ATOM     13  O   UNL     1      -4.302  38.663  14.240  1.00  0.00    -0.550 OA
ENDBRANCH  10  11
ENDBRANCH   9  10
ENDBRANCH   8   9
ENDBRANCH   1   8
TORSDOF 8
ENDMDL
MODEL 5
REMARK VINA RESULT:    -1.809      2.788      3.850
REMARK INTER + INTRA:          -2.790
REMARK INTER:                  -2.621
REMARK INTRA:                  -0.169
REMARK UNBOUND:                -0.135
REMARK SMILES O=C([O-])CCCCCCCC(=O)[O-]
REMARK SMILES IDX 7 1 6 2 5 3 4 4 2 5 1 6 3 7 8 8 9 9 10 10 11 11 12 12 13 13
REMARK H PARENT
REMARK Flexibility Score: inf
ROOT
ATOM      1  C   UNL     1      -3.872  36.133  21.054  1.00  0.00     0.000 C 
ENDROOT
BRANCH   1   2
ATOM      2  C   UNL     1      -4.815  35.108  21.709  1.00  0.00     0.000 C 
BRANCH   2   3
ATOM      3  C   UNL     1      -4.949  35.300  23.229  1.00  0.00     0.006 C 
BRANCH   3   4
ATOM      4  C   UNL     1      -5.079  36.779  23.617  1.00  0.00     0.053 C 
BRANCH   4   5
ATOM      5  C   UNL     1      -5.065  36.964  25.103  1.00  0.00     0.041 C 
ATOM      6  O   UNL     1      -5.125  35.965  25.868  1.00  0.00    -0.550 OA
ATOM      7  O   UNL     1      -4.951  38.238  25.645  1.00  0.00    -0.550 OA
ENDBRANCH   4   5
ENDBRANCH   3   4
ENDBRANCH   2   3
ENDBRANCH   1   2
BRANCH   1   8
ATOM      8  C   UNL     1      -3.994  36.245  19.524  1.00  0.00     0.000 C 
BRANCH   8   9
ATOM      9  C   UNL     1      -2.945  37.183  18.904  1.00  0.00     0.006 C 
BRANCH   9  10
ATOM     10  C   UNL     1      -3.292  37.569  17.460  1.00  0.00     0.053 C 
BRANCH  10  11
ATOM     11  C   UNL     1      -2.760  36.573  16.476  1.00  0.00     0.041 C 
ATOM     12  O   UNL     1      -3.326  35.456  16.332  1.00  0.00    -0.550 OA
ATOM     13  O   UNL     1      -1.622  36.867  15.735  1.00  0.00    -0.550 OA
ENDBRANCH  10  11
ENDBRANCH   9  10
ENDBRANCH   8   9
ENDBRANCH   1   8
TORSDOF 8
ENDMDL
MODEL 6
REMARK VINA RESULT:    -0.945      2.655      4.773
REMARK INTER + INTRA:          -1.521
REMARK INTER:                  -1.804
REMARK INTRA:                   0.283
REMARK UNBOUND:                -0.135
REMARK SMILES O=C([O-])CCCCCCCC(=O)[O-]
REMARK SMILES IDX 7 1 6 2 5 3 4 4 2 5 1 6 3 7 8 8 9 9 10 10 11 11 12 12 13 13
REMARK H PARENT
REMARK Flexibility Score: inf
ROOT
ATOM      1  C   UNL     1      -3.268  36.174  15.334  1.00  0.00     0.000 C 
ENDROOT
BRANCH   1   2
ATOM      2  C   UNL     1      -1.832  36.711  15.466  1.00  0.00     0.000 C 
BRANCH   2   3
ATOM      3  C   UNL     1      -1.304  36.666  16.910  1.00  0.00     0.006 C 
BRANCH   3   4
ATOM      4  C   UNL     1      -1.693  37.916  17.708  1.00  0.00     0.053 C 
BRANCH   4   5
ATOM      5  C   UNL     1      -1.333  37.783  19.156  1.00  0.00     0.041 C 
ATOM      6  O   UNL     1      -2.212  37.937  20.045  1.00  0.00    -0.550 OA
ATOM      7  O   UNL     1      -0.035  37.452  19.523  1.00  0.00    -0.550 OA
ENDBRANCH   4   5
ENDBRANCH   3   4
ENDBRANCH   2   3
ENDBRANCH   1   2
BRANCH   1   8
ATOM      8  C   UNL     1      -4.125  36.288  16.608  1.00  0.00     0.000 C 
BRANCH   8   9
ATOM      9  C   UNL     1      -3.981  35.072  17.539  1.00  0.00     0.006 C 
BRANCH   9  10
ATOM     10  C   UNL     1      -5.113  34.996  18.573  1.00  0.00     0.053 C 
BRANCH  10  11
ATOM     11  C   UNL     1      -4.802  35.801  19.797  1.00  0.00     0.041 C 
ATOM     12  O   UNL     1      -5.123  37.017  19.857  1.00  0.00    -0.550 OA
ATOM     13  O   UNL     1      -4.132  35.213  20.863  1.00  0.00    -0.550 OA
ENDBRANCH  10  11
ENDBRANCH   9  10
ENDBRANCH   8   9
ENDBRANCH   1   8
TORSDOF 8
ENDMDL
