MODEL 1
REMARK VINA RESULT:    -3.476      0.000      0.000
REMARK INTER + INTRA:          -3.578
REMARK INTER:                  -3.578
REMARK INTRA:                   0.000
REMARK UNBOUND:                 0.000
REMARK SMILES CC1(C)[C@@H]2CC[C@@]1(C)[C@H](O)C2
REMARK SMILES IDX 1 1 2 2 4 3 5 4 6 5 7 6 9 7 11 8 8 9 3 10 10 11
REMARK H PARENT 10 12
REMARK Flexibility Score: inf
ROOT
ATOM      1  C   UNL     1     166.356 164.017 168.112  1.00  0.00     0.012 C 
ATOM      2  C   UNL     1     166.191 165.481 167.599  1.00  0.00    -0.025 C 
ATOM      3  C   UNL     1     165.360 165.595 166.311  1.00  0.00    -0.002 C 
ATOM      4  C   UNL     1     165.251 167.124 166.093  1.00  0.00     0.005 C 
ATOM      5  C   UNL     1     165.149 167.668 167.533  1.00  0.00     0.010 C 
ATOM      6  C   UNL     1     165.204 166.372 168.389  1.00  0.00    -0.001 C 
ATOM      7  C   UNL     1     163.822 165.679 168.184  1.00  0.00     0.121 C 
ATOM      8  C   UNL     1     163.950 165.118 166.746  1.00  0.00     0.036 C 
ATOM      9  C   UNL     1     165.564 166.642 169.857  1.00  0.00     0.015 C 
ATOM     10  C   UNL     1     167.641 166.046 167.467  1.00  0.00     0.012 C 
ENDROOT
BRANCH   7  11
ATOM     11  O   UNL     1     163.602 164.659 169.123  1.00  0.00    -0.393 OA
ATOM     12  H   UNL     1     164.149 164.887 169.919  1.00  0.00     0.210 HD
ENDBRANCH   7  11
TORSDOF 1
ENDMDL
MODEL 2
REMARK VINA RESULT:    -3.474      5.924      7.650
REMARK INTER + INTRA:          -3.576
REMARK INTER:                  -3.576
REMARK INTRA:                   0.000
REMARK UNBOUND:                 0.000
REMARK SMILES CC1(C)[C@@H]2CC[C@@]1(C)[C@H](O)C2
REMARK SMILES IDX 1 1 2 2 4 3 5 4 6 5 7 6 9 7 11 8 8 9 3 10 10 11
REMARK H PARENT 10 12
REMARK Flexibility Score: inf
ROOT
ATOM      1  C   UNL     1     171.127 165.772 171.025  1.00  0.00     0.012 C 
ATOM      2  C   UNL     1     171.114 167.277 170.615  1.00  0.00    -0.025 C 
ATOM      3  C   UNL     1     172.318 168.073 171.144  1.00  0.00    -0.002 C 
ATOM      4  C   UNL     1     172.125 169.471 170.507  1.00  0.00     0.005 C 
ATOM      5  C   UNL     1     171.537 169.138 169.122  1.00  0.00     0.010 C 
ATOM      6  C   UNL     1     171.477 167.585 169.143  1.00  0.00    -0.001 C 
ATOM      7  C   UNL     1     172.957 167.110 169.012  1.00  0.00     0.121 C 
ATOM      8  C   UNL     1     173.526 167.427 170.417  1.00  0.00     0.036 C 
ATOM      9  C   UNL     1     170.531 167.010 168.080  1.00  0.00     0.015 C 
ATOM     10  C   UNL     1     169.733 167.829 171.091  1.00  0.00     0.012 C 
ENDROOT
BRANCH   7  11
ATOM     11  O   UNL     1     173.044 165.741 168.713  1.00  0.00    -0.393 OA
ATOM     12  H   UNL     1     173.471 165.675 167.819  1.00  0.00     0.210 HD
ENDBRANCH   7  11
TORSDOF 1
ENDMDL
MODEL 3
REMARK VINA RESULT:    -3.471      5.403      7.175
REMARK INTER + INTRA:          -3.572
REMARK INTER:                  -3.572
REMARK INTRA:                   0.000
REMARK UNBOUND:                 0.000
REMARK SMILES CC1(C)[C@@H]2CC[C@@]1(C)[C@H](O)C2
REMARK SMILES IDX 1 1 2 2 4 3 5 4 6 5 7 6 9 7 11 8 8 9 3 10 10 11
REMARK H PARENT 10 12
REMARK Flexibility Score: inf
ROOT
ATOM      1  C   UNL     1     160.095 165.484 171.039  1.00  0.00     0.012 C 
ATOM      2  C   UNL     1     160.114 163.978 170.635  1.00  0.00    -0.025 C 
ATOM      3  C   UNL     1     158.919 163.176 171.177  1.00  0.00    -0.002 C 
ATOM      4  C   UNL     1     159.114 161.777 170.544  1.00  0.00     0.005 C 
ATOM      5  C   UNL     1     159.688 162.108 169.152  1.00  0.00     0.010 C 
ATOM      6  C   UNL     1     159.739 163.662 169.167  1.00  0.00    -0.001 C 
ATOM      7  C   UNL     1     158.256 164.128 169.047  1.00  0.00     0.121 C 
ATOM      8  C   UNL     1     157.701 163.812 170.458  1.00  0.00     0.036 C 
ATOM      9  C   UNL     1     160.673 164.238 168.093  1.00  0.00     0.015 C 
ATOM     10  C   UNL     1     161.501 163.435 171.100  1.00  0.00     0.012 C 
ENDROOT
BRANCH   7  11
ATOM     11  O   UNL     1     158.158 165.495 168.743  1.00  0.00    -0.393 OA
ATOM     12  H   UNL     1     159.053 165.887 168.921  1.00  0.00     0.210 HD
ENDBRANCH   7  11
TORSDOF 1
ENDMDL
MODEL 4
REMARK VINA RESULT:    -3.470      1.697      3.168
REMARK INTER + INTRA:          -3.571
REMARK INTER:                  -3.571
REMARK INTRA:                   0.000
REMARK UNBOUND:                 0.000
REMARK SMILES CC1(C)[C@@H]2CC[C@@]1(C)[C@H](O)C2
REMARK SMILES IDX 1 1 2 2 4 3 5 4 6 5 7 6 9 7 11 8 8 9 3 10 10 11
REMARK H PARENT 10 12
REMARK Flexibility Score: inf
ROOT
ATOM      1  C   UNL     1     164.867 167.206 168.120  1.00  0.00     0.012 C 
ATOM      2  C   UNL     1     165.030 165.751 167.580  1.00  0.00    -0.025 C 
ATOM      3  C   UNL     1     165.863 165.660 166.291  1.00  0.00    -0.002 C 
ATOM      4  C   UNL     1     165.970 164.134 166.046  1.00  0.00     0.005 C 
ATOM      5  C   UNL     1     166.070 163.564 167.475  1.00  0.00     0.010 C 
ATOM      6  C   UNL     1     166.015 164.844 168.356  1.00  0.00    -0.001 C 
ATOM      7  C   UNL     1     167.399 165.539 168.165  1.00  0.00     0.121 C 
ATOM      8  C   UNL     1     167.273 166.127 166.738  1.00  0.00     0.036 C 
ATOM      9  C   UNL     1     165.652 164.548 169.817  1.00  0.00     0.015 C 
ATOM     10  C   UNL     1     163.580 165.191 167.436  1.00  0.00     0.012 C 
ENDROOT
BRANCH   7  11
ATOM     11  O   UNL     1     167.619 166.541 169.123  1.00  0.00    -0.393 OA
ATOM     12  H   UNL     1     166.970 166.377 169.856  1.00  0.00     0.210 HD
ENDBRANCH   7  11
TORSDOF 1
ENDMDL
MODEL 5
REMARK VINA RESULT:    -3.466      5.623      7.216
REMARK INTER + INTRA:          -3.567
REMARK INTER:                  -3.567
REMARK INTRA:                   0.000
REMARK UNBOUND:                 0.000
REMARK SMILES CC1(C)[C@@H]2CC[C@@]1(C)[C@H](O)C2
REMARK SMILES IDX 1 1 2 2 4 3 5 4 6 5 7 6 9 7 11 8 8 9 3 10 10 11
REMARK H PARENT 10 12
REMARK Flexibility Score: inf
ROOT
ATOM      1  C   UNL     1     165.456 171.143 171.066  1.00  0.00     0.012 C 
ATOM      2  C   UNL     1     163.945 171.122 170.678  1.00  0.00    -0.025 C 
ATOM      3  C   UNL     1     163.152 172.325 171.213  1.00  0.00    -0.002 C 
ATOM      4  C   UNL     1     161.746 172.125 170.598  1.00  0.00     0.005 C 
ATOM      5  C   UNL     1     162.061 171.532 169.210  1.00  0.00     0.010 C 
ATOM      6  C   UNL     1     163.614 171.478 169.209  1.00  0.00    -0.001 C 
ATOM      7  C   UNL     1     164.082 172.959 169.064  1.00  0.00     0.121 C 
ATOM      8  C   UNL     1     163.782 173.533 170.471  1.00  0.00     0.036 C 
ATOM      9  C   UNL     1     164.177 170.529 168.141  1.00  0.00     0.015 C 
ATOM     10  C   UNL     1     163.405 169.742 171.168  1.00  0.00     0.012 C 
ENDROOT
BRANCH   7  11
ATOM     11  O   UNL     1     165.445 173.049 168.745  1.00  0.00    -0.393 OA
ATOM     12  H   UNL     1     165.566 172.564 167.887  1.00  0.00     0.210 HD
ENDBRANCH   7  11
TORSDOF 1
ENDMDL
MODEL 6
REMARK VINA RESULT:    -3.465      5.880      7.662
REMARK INTER + INTRA:          -3.566
REMARK INTER:                  -3.566
REMARK INTRA:                   0.000
REMARK UNBOUND:                 0.000
REMARK SMILES CC1(C)[C@@H]2CC[C@@]1(C)[C@H](O)C2
REMARK SMILES IDX 1 1 2 2 4 3 5 4 6 5 7 6 9 7 11 8 8 9 3 10 10 11
REMARK H PARENT 10 12
REMARK Flexibility Score: inf
ROOT
ATOM      1  C   UNL     1     165.750 160.114 171.079  1.00  0.00     0.012 C 
ATOM      2  C   UNL     1     167.259 160.111 170.684  1.00  0.00    -0.025 C 
ATOM      3  C   UNL     1     168.040 158.907 171.234  1.00  0.00    -0.002 C 
ATOM      4  C   UNL     1     169.446 159.082 170.609  1.00  0.00     0.005 C 
ATOM      5  C   UNL     1     169.132 159.657 169.214  1.00  0.00     0.010 C 
ATOM      6  C   UNL     1     167.579 159.729 169.219  1.00  0.00    -0.001 C 
ATOM      7  C   UNL     1     167.094 158.252 169.100  1.00  0.00     0.121 C 
ATOM      8  C   UNL     1     167.393 157.696 170.514  1.00  0.00     0.036 C 
ATOM      9  C   UNL     1     167.022 160.668 168.139  1.00  0.00     0.015 C 
ATOM     10  C   UNL     1     167.818 161.493 171.150  1.00  0.00     0.012 C 
ENDROOT
BRANCH   7  11
ATOM     11  O   UNL     1     165.727 158.172 168.788  1.00  0.00    -0.393 OA
ATOM     12  H   UNL     1     165.235 158.351 169.631  1.00  0.00     0.210 HD
ENDBRANCH   7  11
TORSDOF 1
ENDMDL
MODEL 7
REMARK VINA RESULT:    -3.459      1.318      2.242
REMARK INTER + INTRA:          -3.560
REMARK INTER:                  -3.560
REMARK INTRA:                   0.000
REMARK UNBOUND:                 0.000
REMARK SMILES CC1(C)[C@@H]2CC[C@@]1(C)[C@H](O)C2
REMARK SMILES IDX 1 1 2 2 4 3 5 4 6 5 7 6 9 7 11 8 8 9 3 10 10 11
REMARK H PARENT 10 12
REMARK Flexibility Score: inf
ROOT
ATOM      1  C   UNL     1     164.031 164.824 168.151  1.00  0.00     0.012 C 
ATOM      2  C   UNL     1     165.484 165.005 167.613  1.00  0.00    -0.025 C 
ATOM      3  C   UNL     1     165.573 165.884 166.356  1.00  0.00    -0.002 C 
ATOM      4  C   UNL     1     167.097 165.998 166.109  1.00  0.00     0.005 C 
ATOM      5  C   UNL     1     167.672 166.044 167.539  1.00  0.00     0.010 C 
ATOM      6  C   UNL     1     166.395 165.959 168.421  1.00  0.00    -0.001 C 
ATOM      7  C   UNL     1     165.702 167.350 168.284  1.00  0.00     0.121 C 
ATOM      8  C   UNL     1     165.109 167.278 166.855  1.00  0.00     0.036 C 
ATOM      9  C   UNL     1     166.696 165.542 169.868  1.00  0.00     0.015 C 
ATOM     10  C   UNL     1     166.041 163.560 167.414  1.00  0.00     0.012 C 
ENDROOT
BRANCH   7  11
ATOM     11  O   UNL     1     164.704 167.536 169.253  1.00  0.00    -0.393 OA
ATOM     12  H   UNL     1     164.794 168.471 169.574  1.00  0.00     0.210 HD
ENDBRANCH   7  11
TORSDOF 1
ENDMDL
MODEL 8
REMARK VINA RESULT:    -3.458      1.319      2.255
REMARK INTER + INTRA:          -3.559
REMARK INTER:                  -3.559
REMARK INTRA:                   0.000
REMARK UNBOUND:                 0.000
REMARK SMILES CC1(C)[C@@H]2CC[C@@]1(C)[C@H](O)C2
REMARK SMILES IDX 1 1 2 2 4 3 5 4 6 5 7 6 9 7 11 8 8 9 3 10 10 11
REMARK H PARENT 10 12
REMARK Flexibility Score: inf
ROOT
ATOM      1  C   UNL     1     167.151 166.366 168.222  1.00  0.00     0.012 C 
ATOM      2  C   UNL     1     165.689 166.197 167.704  1.00  0.00    -0.025 C 
ATOM      3  C   UNL     1     165.585 165.398 166.395  1.00  0.00    -0.002 C 
ATOM      4  C   UNL     1     164.057 165.277 166.174  1.00  0.00     0.005 C 
ATOM      5  C   UNL     1     163.514 165.131 167.610  1.00  0.00     0.010 C 
ATOM      6  C   UNL     1     164.809 165.180 168.469  1.00  0.00    -0.001 C 
ATOM      7  C   UNL     1     165.518 163.812 168.229  1.00  0.00     0.121 C 
ATOM      8  C   UNL     1     166.078 163.983 166.795  1.00  0.00     0.036 C 
ATOM      9  C   UNL     1     164.534 165.500 169.945  1.00  0.00     0.015 C 
ATOM     10  C   UNL     1     165.107 167.643 167.609  1.00  0.00     0.012 C 
ENDROOT
BRANCH   7  11
ATOM     11  O   UNL     1     166.540 163.580 169.163  1.00  0.00    -0.393 OA
ATOM     12  H   UNL     1     167.089 162.836 168.801  1.00  0.00     0.210 HD
ENDBRANCH   7  11
TORSDOF 1
ENDMDL
MODEL 9
REMARK VINA RESULT:    -3.293      1.464      2.502
REMARK INTER + INTRA:          -3.389
REMARK INTER:                  -3.389
REMARK INTRA:                   0.000
REMARK UNBOUND:                 0.000
REMARK SMILES CC1(C)[C@@H]2CC[C@@]1(C)[C@H](O)C2
REMARK SMILES IDX 1 1 2 2 4 3 5 4 6 5 7 6 9 7 11 8 8 9 3 10 10 11
REMARK H PARENT 10 12
REMARK Flexibility Score: inf
ROOT
ATOM      1  C   UNL     1     166.002 163.375 167.369  1.00  0.00     0.012 C 
ATOM      2  C   UNL     1     165.961 164.549 168.395  1.00  0.00    -0.025 C 
ATOM      3  C   UNL     1     166.952 165.681 168.079  1.00  0.00    -0.002 C 
ATOM      4  C   UNL     1     166.627 166.747 169.155  1.00  0.00     0.005 C 
ATOM      5  C   UNL     1     165.098 166.621 169.310  1.00  0.00     0.010 C 
ATOM      6  C   UNL     1     164.745 165.500 168.293  1.00  0.00    -0.001 C 
ATOM      7  C   UNL     1     164.895 166.155 166.885  1.00  0.00     0.121 C 
ATOM      8  C   UNL     1     166.433 166.252 166.733  1.00  0.00     0.036 C 
ATOM      9  C   UNL     1     163.370 164.869 168.554  1.00  0.00     0.015 C 
ATOM     10  C   UNL     1     166.178 163.892 169.794  1.00  0.00     0.012 C 
ENDROOT
BRANCH   7  11
ATOM     11  O   UNL     1     164.321 165.366 165.876  1.00  0.00    -0.393 OA
ATOM     12  H   UNL     1     163.388 165.685 165.766  1.00  0.00     0.210 HD
ENDBRANCH   7  11
TORSDOF 1
ENDMDL
