MODEL 1
REMARK VINA RESULT:    -6.729      0.000      0.000
REMARK INTER + INTRA:          -8.383
REMARK INTER:                  -7.712
REMARK INTRA:                  -0.671
REMARK UNBOUND:                -0.671
REMARK SMILES C=C(C)[C@@H]1CC[C@@]2(C(=O)[O-])CC[C@]3(C)[C@@H](CC[C@H]4[C@@]5(C)CC[C@H](O)C(C)(C)[C@H]5CC[C@]43C)[C@@H]12
REMARK SMILES IDX 7 1 6 2 33 3 11 4 5 5 15 6 4 7 12 8 16 9 13 10 17 11 31 12
REMARK SMILES IDX 14 13 18 14 30 15 32 16 19 17 29 18 21 19 20 20 28 21 22 22
REMARK SMILES IDX 25 23 23 24 26 25 27 26 8 27 9 28 10 29 2 30 3 31 1 32 24 33
REMARK H PARENT 24 34
REMARK Flexibility Score: inf
ROOT
ATOM      1  C   UNL     1      32.812  16.532 -17.539  1.00  0.00     0.014 C 
ATOM      2  C   UNL     1      32.934  17.913 -16.880  1.00  0.00     0.014 C 
ATOM      3  C   UNL     1      33.329  16.763 -18.964  1.00  0.00     0.012 C 
ATOM      4  C   UNL     1      31.333  16.118 -17.609  1.00  0.00     0.014 C 
ATOM      5  C   UNL     1      32.651  18.935 -17.970  1.00  0.00     0.009 C 
ATOM      6  C   UNL     1      32.988  15.612 -19.998  1.00  0.00     0.000 C 
ATOM      7  C   UNL     1      32.891  18.221 -19.311  1.00  0.00     0.018 C 
ATOM      8  C   UNL     1      31.164  14.753 -18.261  1.00  0.00     0.008 C 
ATOM      9  C   UNL     1      33.060  16.129 -21.448  1.00  0.00     0.005 C 
ATOM     10  C   UNL     1      31.774  14.580 -19.717  1.00  0.00    -0.024 C 
ATOM     11  C   UNL     1      32.727  15.034 -22.434  1.00  0.00     0.005 C 
ATOM     12  C   UNL     1      30.624  14.626 -20.870  1.00  0.00    -0.024 C 
ATOM     13  C   UNL     1      32.388  13.139 -19.697  1.00  0.00     0.012 C 
ATOM     14  C   UNL     1      31.220  14.655 -22.378  1.00  0.00     0.002 C 
ATOM     15  C   UNL     1      29.567  13.477 -20.680  1.00  0.00     0.008 C 
ATOM     16  C   UNL     1      29.789  15.938 -20.667  1.00  0.00     0.012 C 
ATOM     17  C   UNL     1      30.844  13.523 -23.479  1.00  0.00    -0.026 C 
ATOM     18  C   UNL     1      29.727  12.276 -21.586  1.00  0.00     0.005 C 
ATOM     19  C   UNL     1      32.038  12.534 -23.735  1.00  0.00     0.010 C 
ATOM     20  C   UNL     1      30.576  14.295 -24.816  1.00  0.00     0.012 C 
ATOM     21  C   UNL     1      29.568  12.686 -23.066  1.00  0.00     0.003 C 
ATOM     22  C   UNL     1      31.723  11.343 -24.652  1.00  0.00     0.033 C 
ATOM     23  C   UNL     1      29.227  11.434 -24.001  1.00  0.00    -0.006 C 
ATOM     24  C   UNL     1      30.500  10.549 -24.174  1.00  0.00     0.120 C 
ATOM     25  C   UNL     1      28.110  10.545 -23.376  1.00  0.00     0.014 C 
ATOM     26  C   UNL     1      28.653  11.897 -25.378  1.00  0.00     0.014 C 
ENDROOT
BRANCH   1  27
ATOM     27  C   UNL     1      33.629  15.522 -16.748  1.00  0.00     0.048 C 
ATOM     28  O   UNL     1      33.306  15.247 -15.562  1.00  0.00    -0.550 OA
ATOM     29  O   UNL     1      34.748  14.907 -17.301  1.00  0.00    -0.550 OA
ENDBRANCH   1  27
BRANCH   7  30
ATOM     30  C   UNL     1      33.897  18.983 -20.176  1.00  0.00    -0.077 C 
ATOM     31  C   UNL     1      35.356  18.606 -20.153  1.00  0.00     0.039 C 
ATOM     32  C   UNL     1      33.503  19.959 -21.011  1.00  0.00     0.008 C 
ENDBRANCH   7  30
BRANCH  24  33
ATOM     33  O   UNL     1      30.261   9.444 -25.014  1.00  0.00    -0.393 OA
ATOM     34  H   UNL     1      29.318   9.163 -24.897  1.00  0.00     0.210 HD
ENDBRANCH  24  33
TORSDOF 3
ENDMDL
MODEL 2
REMARK VINA RESULT:    -6.655      3.758      7.072
REMARK INTER + INTRA:          -8.299
REMARK INTER:                  -7.609
REMARK INTRA:                  -0.690
REMARK UNBOUND:                -0.671
REMARK SMILES C=C(C)[C@@H]1CC[C@@]2(C(=O)[O-])CC[C@]3(C)[C@@H](CC[C@H]4[C@@]5(C)CC[C@H](O)C(C)(C)[C@H]5CC[C@]43C)[C@@H]12
REMARK SMILES IDX 7 1 6 2 33 3 11 4 5 5 15 6 4 7 12 8 16 9 13 10 17 11 31 12
REMARK SMILES IDX 14 13 18 14 30 15 32 16 19 17 29 18 21 19 20 20 28 21 22 22
REMARK SMILES IDX 25 23 23 24 26 25 27 26 8 27 9 28 10 29 2 30 3 31 1 32 24 33
REMARK H PARENT 24 34
REMARK Flexibility Score: inf
ROOT
ATOM      1  C   UNL     1      35.124  10.421 -18.953  1.00  0.00     0.014 C 
ATOM      2  C   UNL     1      36.295   9.483 -18.628  1.00  0.00     0.014 C 
ATOM      3  C   UNL     1      35.714  11.397 -19.978  1.00  0.00     0.012 C 
ATOM      4  C   UNL     1      34.723  11.208 -17.694  1.00  0.00     0.014 C 
ATOM      5  C   UNL     1      37.556  10.332 -18.698  1.00  0.00     0.009 C 
ATOM      6  C   UNL     1      34.858  12.706 -20.231  1.00  0.00     0.000 C 
ATOM      7  C   UNL     1      37.207  11.563 -19.551  1.00  0.00     0.018 C 
ATOM      8  C   UNL     1      33.564  12.155 -17.971  1.00  0.00     0.008 C 
ATOM      9  C   UNL     1      35.725  13.829 -20.831  1.00  0.00     0.005 C 
ATOM     10  C   UNL     1      33.773  13.209 -19.141  1.00  0.00    -0.024 C 
ATOM     11  C   UNL     1      34.910  15.080 -21.066  1.00  0.00     0.005 C 
ATOM     12  C   UNL     1      34.094  14.700 -18.570  1.00  0.00    -0.024 C 
ATOM     13  C   UNL     1      32.382  13.250 -19.860  1.00  0.00     0.012 C 
ATOM     14  C   UNL     1      34.511  15.760 -19.726  1.00  0.00     0.002 C 
ATOM     15  C   UNL     1      32.921  15.243 -17.674  1.00  0.00     0.008 C 
ATOM     16  C   UNL     1      35.302  14.586 -17.576  1.00  0.00     0.012 C 
ATOM     17  C   UNL     1      33.689  17.138 -19.972  1.00  0.00    -0.026 C 
ATOM     18  C   UNL     1      31.990  16.235 -18.334  1.00  0.00     0.005 C 
ATOM     19  C   UNL     1      32.812  17.072 -21.274  1.00  0.00     0.010 C 
ATOM     20  C   UNL     1      34.770  18.251 -20.187  1.00  0.00     0.012 C 
ATOM     21  C   UNL     1      32.758  17.508 -18.749  1.00  0.00     0.003 C 
ATOM     22  C   UNL     1      31.888  18.276 -21.509  1.00  0.00     0.033 C 
ATOM     23  C   UNL     1      31.779  18.753 -18.975  1.00  0.00    -0.006 C 
ATOM     24  C   UNL     1      30.983  18.557 -20.301  1.00  0.00     0.120 C 
ATOM     25  C   UNL     1      30.748  18.881 -17.813  1.00  0.00     0.014 C 
ATOM     26  C   UNL     1      32.568  20.101 -18.966  1.00  0.00     0.014 C 
ENDROOT
BRANCH   1  27
ATOM     27  C   UNL     1      33.957   9.604 -19.486  1.00  0.00     0.048 C 
ATOM     28  O   UNL     1      33.394   8.758 -18.742  1.00  0.00    -0.550 OA
ATOM     29  O   UNL     1      33.510   9.755 -20.795  1.00  0.00    -0.550 OA
ENDBRANCH   1  27
BRANCH   7  30
ATOM     30  C   UNL     1      38.175  11.721 -20.725  1.00  0.00    -0.077 C 
ATOM     31  C   UNL     1      39.398  12.591 -20.587  1.00  0.00     0.039 C 
ATOM     32  C   UNL     1      37.994  11.052 -21.876  1.00  0.00     0.008 C 
ENDBRANCH   7  30
BRANCH  24  33
ATOM     33  O   UNL     1      30.123  19.642 -20.562  1.00  0.00    -0.393 OA
ATOM     34  H   UNL     1      29.307  19.531 -20.011  1.00  0.00     0.210 HD
ENDBRANCH  24  33
TORSDOF 3
ENDMDL
MODEL 3
REMARK VINA RESULT:    -6.198      4.518      7.808
REMARK INTER + INTRA:          -7.774
REMARK INTER:                  -7.089
REMARK INTRA:                  -0.686
REMARK UNBOUND:                -0.671
REMARK SMILES C=C(C)[C@@H]1CC[C@@]2(C(=O)[O-])CC[C@]3(C)[C@@H](CC[C@H]4[C@@]5(C)CC[C@H](O)C(C)(C)[C@H]5CC[C@]43C)[C@@H]12
REMARK SMILES IDX 7 1 6 2 33 3 11 4 5 5 15 6 4 7 12 8 16 9 13 10 17 11 31 12
REMARK SMILES IDX 14 13 18 14 30 15 32 16 19 17 29 18 21 19 20 20 28 21 22 22
REMARK SMILES IDX 25 23 23 24 26 25 27 26 8 27 9 28 10 29 2 30 3 31 1 32 24 33
REMARK H PARENT 24 34
REMARK Flexibility Score: inf
ROOT
ATOM      1  C   UNL     1      37.229  10.149 -21.237  1.00  0.00     0.014 C 
ATOM      2  C   UNL     1      37.519   8.731 -20.725  1.00  0.00     0.014 C 
ATOM      3  C   UNL     1      37.425  11.029 -19.996  1.00  0.00     0.012 C 
ATOM      4  C   UNL     1      35.763  10.249 -21.688  1.00  0.00     0.014 C 
ATOM      5  C   UNL     1      37.024   8.684 -19.287  1.00  0.00     0.009 C 
ATOM      6  C   UNL     1      36.844  12.498 -20.116  1.00  0.00     0.000 C 
ATOM      7  C   UNL     1      36.951  10.142 -18.803  1.00  0.00     0.018 C 
ATOM      8  C   UNL     1      35.429  11.643 -22.201  1.00  0.00     0.008 C 
ATOM      9  C   UNL     1      36.607  13.116 -18.724  1.00  0.00     0.005 C 
ATOM     10  C   UNL     1      35.701  12.850 -21.206  1.00  0.00    -0.024 C 
ATOM     11  C   UNL     1      36.046  14.514 -18.837  1.00  0.00     0.005 C 
ATOM     12  C   UNL     1      34.328  13.404 -20.528  1.00  0.00    -0.024 C 
ATOM     13  C   UNL     1      36.278  13.975 -22.132  1.00  0.00     0.012 C 
ATOM     14  C   UNL     1      34.581  14.499 -19.357  1.00  0.00     0.002 C 
ATOM     15  C   UNL     1      33.316  13.929 -21.612  1.00  0.00     0.008 C 
ATOM     16  C   UNL     1      33.584  12.185 -19.880  1.00  0.00     0.012 C 
ATOM     17  C   UNL     1      33.950  15.994 -19.422  1.00  0.00    -0.026 C 
ATOM     18  C   UNL     1      33.251  15.430 -21.783  1.00  0.00     0.005 C 
ATOM     19  C   UNL     1      35.041  17.076 -19.756  1.00  0.00     0.010 C 
ATOM     20  C   UNL     1      33.412  16.296 -17.982  1.00  0.00     0.012 C 
ATOM     21  C   UNL     1      32.780  16.107 -20.479  1.00  0.00     0.003 C 
ATOM     22  C   UNL     1      34.509  18.499 -19.980  1.00  0.00     0.033 C 
ATOM     23  C   UNL     1      32.219  17.582 -20.737  1.00  0.00    -0.006 C 
ATOM     24  C   UNL     1      33.406  18.546 -21.045  1.00  0.00     0.120 C 
ATOM     25  C   UNL     1      31.248  17.614 -21.957  1.00  0.00     0.014 C 
ATOM     26  C   UNL     1      31.366  18.082 -19.528  1.00  0.00     0.014 C 
ENDROOT
BRANCH   1  27
ATOM     27  C   UNL     1      38.180  10.477 -22.378  1.00  0.00     0.048 C 
ATOM     28  O   UNL     1      38.062   9.881 -23.482  1.00  0.00    -0.550 OA
ATOM     29  O   UNL     1      39.199  11.411 -22.221  1.00  0.00    -0.550 OA
ENDBRANCH   1  27
BRANCH   7  30
ATOM     30  C   UNL     1      37.757  10.344 -17.519  1.00  0.00    -0.077 C 
ATOM     31  C   UNL     1      37.056  10.415 -16.187  1.00  0.00     0.039 C 
ATOM     32  C   UNL     1      39.099  10.406 -17.538  1.00  0.00     0.008 C 
ENDBRANCH   7  30
BRANCH  24  33
ATOM     33  O   UNL     1      32.967  19.868 -21.255  1.00  0.00    -0.393 OA
ATOM     34  H   UNL     1      33.710  20.381 -21.662  1.00  0.00     0.210 HD
ENDBRANCH  24  33
TORSDOF 3
ENDMDL
MODEL 4
REMARK VINA RESULT:    -6.116      3.648      7.821
REMARK INTER + INTRA:          -7.681
REMARK INTER:                  -6.998
REMARK INTRA:                  -0.683
REMARK UNBOUND:                -0.671
REMARK SMILES C=C(C)[C@@H]1CC[C@@]2(C(=O)[O-])CC[C@]3(C)[C@@H](CC[C@H]4[C@@]5(C)CC[C@H](O)C(C)(C)[C@H]5CC[C@]43C)[C@@H]12
REMARK SMILES IDX 7 1 6 2 33 3 11 4 5 5 15 6 4 7 12 8 16 9 13 10 17 11 31 12
REMARK SMILES IDX 14 13 18 14 30 15 32 16 19 17 29 18 21 19 20 20 28 21 22 22
REMARK SMILES IDX 25 23 23 24 26 25 27 26 8 27 9 28 10 29 2 30 3 31 1 32 24 33
REMARK H PARENT 24 34
REMARK Flexibility Score: inf
ROOT
ATOM      1  C   UNL     1      36.876  10.686 -20.356  1.00  0.00     0.014 C 
ATOM      2  C   UNL     1      36.921   9.263 -20.929  1.00  0.00     0.014 C 
ATOM      3  C   UNL     1      35.569  10.713 -19.554  1.00  0.00     0.012 C 
ATOM      4  C   UNL     1      36.775  11.705 -21.503  1.00  0.00     0.014 C 
ATOM      5  C   UNL     1      35.479   8.870 -21.215  1.00  0.00     0.009 C 
ATOM      6  C   UNL     1      35.061  12.157 -19.145  1.00  0.00     0.000 C 
ATOM      7  C   UNL     1      34.597   9.788 -20.351  1.00  0.00     0.018 C 
ATOM      8  C   UNL     1      36.724  13.134 -20.979  1.00  0.00     0.008 C 
ATOM      9  C   UNL     1      33.553  12.147 -18.830  1.00  0.00     0.005 C 
ATOM     10  C   UNL     1      35.568  13.470 -19.944  1.00  0.00    -0.024 C 
ATOM     11  C   UNL     1      33.067  13.525 -18.447  1.00  0.00     0.005 C 
ATOM     12  C   UNL     1      34.349  14.299 -20.637  1.00  0.00    -0.024 C 
ATOM     13  C   UNL     1      36.263  14.407 -18.898  1.00  0.00     0.012 C 
ATOM     14  C   UNL     1      33.061  14.487 -19.668  1.00  0.00     0.002 C 
ATOM     15  C   UNL     1      34.843  15.670 -21.228  1.00  0.00     0.008 C 
ATOM     16  C   UNL     1      33.877  13.497 -21.899  1.00  0.00     0.012 C 
ATOM     17  C   UNL     1      32.481  15.952 -19.277  1.00  0.00    -0.026 C 
ATOM     18  C   UNL     1      34.542  16.896 -20.394  1.00  0.00     0.005 C 
ATOM     19  C   UNL     1      32.824  16.341 -17.793  1.00  0.00     0.010 C 
ATOM     20  C   UNL     1      30.922  15.840 -19.388  1.00  0.00     0.012 C 
ATOM     21  C   UNL     1      33.018  17.087 -20.238  1.00  0.00     0.003 C 
ATOM     22  C   UNL     1      32.441  17.770 -17.381  1.00  0.00     0.033 C 
ATOM     23  C   UNL     1      32.641  18.584 -19.822  1.00  0.00    -0.006 C 
ATOM     24  C   UNL     1      33.026  18.825 -18.330  1.00  0.00     0.120 C 
ATOM     25  C   UNL     1      33.412  19.625 -20.688  1.00  0.00     0.014 C 
ATOM     26  C   UNL     1      31.130  18.879 -20.084  1.00  0.00     0.014 C 
ENDROOT
BRANCH   1  27
ATOM     27  C   UNL     1      38.118  10.929 -19.512  1.00  0.00     0.048 C 
ATOM     28  O   UNL     1      38.010  11.059 -18.264  1.00  0.00    -0.550 OA
ATOM     29  O   UNL     1      39.377  11.032 -20.095  1.00  0.00    -0.550 OA
ENDBRANCH   1  27
BRANCH   7  30
ATOM     30  C   UNL     1      33.646   8.978 -19.469  1.00  0.00    -0.077 C 
ATOM     31  C   UNL     1      32.216   8.763 -19.893  1.00  0.00     0.039 C 
ATOM     32  C   UNL     1      34.070   8.396 -18.335  1.00  0.00     0.008 C 
ENDBRANCH   7  30
BRANCH  24  33
ATOM     33  O   UNL     1      32.689  20.124 -17.904  1.00  0.00    -0.393 OA
ATOM     34  H   UNL     1      32.257  20.058 -17.015  1.00  0.00     0.210 HD
ENDBRANCH  24  33
TORSDOF 3
ENDMDL
MODEL 5
REMARK VINA RESULT:    -6.076      2.113      3.640
REMARK INTER + INTRA:          -7.635
REMARK INTER:                  -6.946
REMARK INTRA:                  -0.689
REMARK UNBOUND:                -0.671
REMARK SMILES C=C(C)[C@@H]1CC[C@@]2(C(=O)[O-])CC[C@]3(C)[C@@H](CC[C@H]4[C@@]5(C)CC[C@H](O)C(C)(C)[C@H]5CC[C@]43C)[C@@H]12
REMARK SMILES IDX 7 1 6 2 33 3 11 4 5 5 15 6 4 7 12 8 16 9 13 10 17 11 31 12
REMARK SMILES IDX 14 13 18 14 30 15 32 16 19 17 29 18 21 19 20 20 28 21 22 22
REMARK SMILES IDX 25 23 23 24 26 25 27 26 8 27 9 28 10 29 2 30 3 31 1 32 24 33
REMARK H PARENT 24 34
REMARK Flexibility Score: inf
ROOT
ATOM      1  C   UNL     1      32.846  17.740 -20.111  1.00  0.00     0.014 C 
ATOM      2  C   UNL     1      34.222  18.377 -19.870  1.00  0.00     0.014 C 
ATOM      3  C   UNL     1      33.024  16.296 -19.624  1.00  0.00     0.012 C 
ATOM      4  C   UNL     1      32.540  17.720 -21.617  1.00  0.00     0.014 C 
ATOM      5  C   UNL     1      35.251  17.282 -20.113  1.00  0.00     0.009 C 
ATOM      6  C   UNL     1      31.890  15.289 -20.079  1.00  0.00     0.000 C 
ATOM      7  C   UNL     1      34.506  15.944 -19.967  1.00  0.00     0.018 C 
ATOM      8  C   UNL     1      31.183  17.092 -21.904  1.00  0.00     0.008 C 
ATOM      9  C   UNL     1      32.384  13.831 -20.015  1.00  0.00     0.005 C 
ATOM     10  C   UNL     1      30.951  15.620 -21.354  1.00  0.00    -0.024 C 
ATOM     11  C   UNL     1      31.305  12.869 -20.456  1.00  0.00     0.005 C 
ATOM     12  C   UNL     1      31.067  14.502 -22.533  1.00  0.00    -0.024 C 
ATOM     13  C   UNL     1      29.470  15.640 -20.844  1.00  0.00     0.012 C 
ATOM     14  C   UNL     1      31.037  12.976 -21.983  1.00  0.00     0.002 C 
ATOM     15  C   UNL     1      29.999  14.739 -23.663  1.00  0.00     0.008 C 
ATOM     16  C   UNL     1      32.438  14.713 -23.265  1.00  0.00     0.012 C 
ATOM     17  C   UNL     1      29.922  11.902 -22.474  1.00  0.00    -0.026 C 
ATOM     18  C   UNL     1      28.780  13.844 -23.618  1.00  0.00     0.005 C 
ATOM     19  C   UNL     1      28.847  11.624 -21.362  1.00  0.00     0.010 C 
ATOM     20  C   UNL     1      30.697  10.564 -22.727  1.00  0.00     0.012 C 
ATOM     21  C   UNL     1      29.184  12.365 -23.793  1.00  0.00     0.003 C 
ATOM     22  C   UNL     1      27.672  10.731 -21.790  1.00  0.00     0.033 C 
ATOM     23  C   UNL     1      27.949  11.457 -24.252  1.00  0.00    -0.006 C 
ATOM     24  C   UNL     1      26.974  11.257 -23.052  1.00  0.00     0.120 C 
ATOM     25  C   UNL     1      27.151  12.128 -25.410  1.00  0.00     0.014 C 
ATOM     26  C   UNL     1      28.438  10.092 -24.834  1.00  0.00     0.014 C 
ENDROOT
BRANCH   1  27
ATOM     27  C   UNL     1      31.789  18.519 -19.344  1.00  0.00     0.048 C 
ATOM     28  O   UNL     1      31.143  17.956 -18.421  1.00  0.00    -0.550 OA
ATOM     29  O   UNL     1      31.502  19.844 -19.657  1.00  0.00    -0.550 OA
ENDBRANCH   1  27
BRANCH   7  30
ATOM     30  C   UNL     1      35.184  15.039 -18.936  1.00  0.00    -0.077 C 
ATOM     31  C   UNL     1      34.826  15.151 -17.476  1.00  0.00     0.039 C 
ATOM     32  C   UNL     1      36.064  14.094 -19.307  1.00  0.00     0.008 C 
ENDBRANCH   7  30
BRANCH  24  33
ATOM     33  O   UNL     1      25.879  10.439 -23.396  1.00  0.00    -0.393 OA
ATOM     34  H   UNL     1      26.225   9.634 -23.856  1.00  0.00     0.210 HD
ENDBRANCH  24  33
TORSDOF 3
ENDMDL
MODEL 6
REMARK VINA RESULT:    -5.918      3.752      5.966
REMARK INTER + INTRA:          -7.454
REMARK INTER:                  -6.794
REMARK INTRA:                  -0.660
REMARK UNBOUND:                -0.671
REMARK SMILES C=C(C)[C@@H]1CC[C@@]2(C(=O)[O-])CC[C@]3(C)[C@@H](CC[C@H]4[C@@]5(C)CC[C@H](O)C(C)(C)[C@H]5CC[C@]43C)[C@@H]12
REMARK SMILES IDX 7 1 6 2 33 3 11 4 5 5 15 6 4 7 12 8 16 9 13 10 17 11 31 12
REMARK SMILES IDX 14 13 18 14 30 15 32 16 19 17 29 18 21 19 20 20 28 21 22 22
REMARK SMILES IDX 25 23 23 24 26 25 27 26 8 27 9 28 10 29 2 30 3 31 1 32 24 33
REMARK H PARENT 24 34
REMARK Flexibility Score: inf
ROOT
ATOM      1  C   UNL     1      31.392  16.373 -17.862  1.00  0.00     0.014 C 
ATOM      2  C   UNL     1      30.092  17.023 -18.355  1.00  0.00     0.014 C 
ATOM      3  C   UNL     1      32.319  16.445 -19.081  1.00  0.00     0.012 C 
ATOM      4  C   UNL     1      31.138  14.896 -17.520  1.00  0.00     0.014 C 
ATOM      5  C   UNL     1      29.959  16.656 -19.826  1.00  0.00     0.009 C 
ATOM      6  C   UNL     1      33.609  15.528 -19.001  1.00  0.00     0.000 C 
ATOM      7  C   UNL     1      31.370  16.278 -20.309  1.00  0.00     0.018 C 
ATOM      8  C   UNL     1      32.404  14.209 -17.028  1.00  0.00     0.008 C 
ATOM      9  C   UNL     1      34.183  15.253 -20.404  1.00  0.00     0.005 C 
ATOM     10  C   UNL     1      33.662  14.261 -17.997  1.00  0.00    -0.024 C 
ATOM     11  C   UNL     1      35.408  14.373 -20.329  1.00  0.00     0.005 C 
ATOM     12  C   UNL     1      33.893  12.847 -18.773  1.00  0.00    -0.024 C 
ATOM     13  C   UNL     1      34.871  14.490 -17.028  1.00  0.00     0.012 C 
ATOM     14  C   UNL     1      35.041  12.919 -19.918  1.00  0.00     0.002 C 
ATOM     15  C   UNL     1      34.145  11.666 -17.766  1.00  0.00     0.008 C 
ATOM     16  C   UNL     1      32.547  12.458 -19.478  1.00  0.00     0.012 C 
ATOM     17  C   UNL     1      36.346  11.952 -19.896  1.00  0.00    -0.026 C 
ATOM     18  C   UNL     1      35.586  11.239 -17.595  1.00  0.00     0.005 C 
ATOM     19  C   UNL     1      37.645  12.732 -19.479  1.00  0.00     0.010 C 
ATOM     20  C   UNL     1      36.542  11.462 -21.371  1.00  0.00     0.012 C 
ATOM     21  C   UNL     1      36.160  10.716 -18.929  1.00  0.00     0.003 C 
ATOM     22  C   UNL     1      38.900  11.867 -19.290  1.00  0.00     0.033 C 
ATOM     23  C   UNL     1      37.457   9.808 -18.708  1.00  0.00    -0.006 C 
ATOM     24  C   UNL     1      38.665  10.710 -18.310  1.00  0.00     0.120 C 
ATOM     25  C   UNL     1      37.237   8.772 -17.563  1.00  0.00     0.014 C 
ATOM     26  C   UNL     1      37.769   8.950 -19.975  1.00  0.00     0.014 C 
ENDROOT
BRANCH   1  27
ATOM     27  C   UNL     1      31.910  17.136 -16.652  1.00  0.00     0.048 C 
ATOM     28  O   UNL     1      33.020  17.730 -16.715  1.00  0.00    -0.550 OA
ATOM     29  O   UNL     1      31.190  17.176 -15.462  1.00  0.00    -0.550 OA
ENDBRANCH   1  27
BRANCH   7  30
ATOM     30  C   UNL     1      31.781  17.104 -21.529  1.00  0.00    -0.077 C 
ATOM     31  C   UNL     1      32.576  18.372 -21.354  1.00  0.00     0.039 C 
ATOM     32  C   UNL     1      31.495  16.697 -22.778  1.00  0.00     0.008 C 
ENDBRANCH   7  30
BRANCH  24  33
ATOM     33  O   UNL     1      39.844   9.960 -18.129  1.00  0.00    -0.393 OA
ATOM     34  H   UNL     1      40.464  10.172 -18.871  1.00  0.00     0.210 HD
ENDBRANCH  24  33
TORSDOF 3
ENDMDL
MODEL 7
REMARK VINA RESULT:    -5.891      3.981      8.220
REMARK INTER + INTRA:          -7.423
REMARK INTER:                  -6.812
REMARK INTRA:                  -0.610
REMARK UNBOUND:                -0.671
REMARK SMILES C=C(C)[C@@H]1CC[C@@]2(C(=O)[O-])CC[C@]3(C)[C@@H](CC[C@H]4[C@@]5(C)CC[C@H](O)C(C)(C)[C@H]5CC[C@]43C)[C@@H]12
REMARK SMILES IDX 7 1 6 2 33 3 11 4 5 5 15 6 4 7 12 8 16 9 13 10 17 11 31 12
REMARK SMILES IDX 14 13 18 14 30 15 32 16 19 17 29 18 21 19 20 20 28 21 22 22
REMARK SMILES IDX 25 23 23 24 26 25 27 26 8 27 9 28 10 29 2 30 3 31 1 32 24 33
REMARK H PARENT 24 34
REMARK Flexibility Score: inf
ROOT
ATOM      1  C   UNL     1      33.716  15.122 -18.838  1.00  0.00     0.014 C 
ATOM      2  C   UNL     1      34.892  15.357 -19.797  1.00  0.00     0.014 C 
ATOM      3  C   UNL     1      32.722  16.231 -19.204  1.00  0.00     0.012 C 
ATOM      4  C   UNL     1      34.178  15.330 -17.387  1.00  0.00     0.014 C 
ATOM      5  C   UNL     1      34.991  16.863 -19.993  1.00  0.00     0.009 C 
ATOM      6  C   UNL     1      31.569  16.476 -18.146  1.00  0.00     0.000 C 
ATOM      7  C   UNL     1      33.616  17.443 -19.615  1.00  0.00     0.018 C 
ATOM      8  C   UNL     1      33.041  15.109 -16.400  1.00  0.00     0.008 C 
ATOM      9  C   UNL     1      30.960  17.883 -18.304  1.00  0.00     0.005 C 
ATOM     10  C   UNL     1      31.736  15.989 -16.612  1.00  0.00    -0.024 C 
ATOM     11  C   UNL     1      29.865  18.120 -17.291  1.00  0.00     0.005 C 
ATOM     12  C   UNL     1      31.648  17.217 -15.545  1.00  0.00    -0.024 C 
ATOM     13  C   UNL     1      30.562  14.997 -16.313  1.00  0.00     0.012 C 
ATOM     14  C   UNL     1      30.440  18.256 -15.853  1.00  0.00     0.002 C 
ATOM     15  C   UNL     1      31.607  16.695 -14.062  1.00  0.00     0.008 C 
ATOM     16  C   UNL     1      32.992  18.021 -15.622  1.00  0.00     0.012 C 
ATOM     17  C   UNL     1      29.275  18.573 -14.767  1.00  0.00    -0.026 C 
ATOM     18  C   UNL     1      30.245  16.680 -13.404  1.00  0.00     0.005 C 
ATOM     19  C   UNL     1      27.910  17.900 -15.159  1.00  0.00     0.010 C 
ATOM     20  C   UNL     1      29.063  20.125 -14.805  1.00  0.00     0.012 C 
ATOM     21  C   UNL     1      29.672  18.110 -13.309  1.00  0.00     0.003 C 
ATOM     22  C   UNL     1      26.790  18.025 -14.115  1.00  0.00     0.033 C 
ATOM     23  C   UNL     1      28.517  18.221 -12.208  1.00  0.00    -0.006 C 
ATOM     24  C   UNL     1      27.226  17.521 -12.733  1.00  0.00     0.120 C 
ATOM     25  C   UNL     1      28.932  17.521 -10.878  1.00  0.00     0.014 C 
ATOM     26  C   UNL     1      28.250  19.709 -11.816  1.00  0.00     0.014 C 
ENDROOT
BRANCH   1  27
ATOM     27  C   UNL     1      33.170  13.717 -19.047  1.00  0.00     0.048 C 
ATOM     28  O   UNL     1      32.037  13.558 -19.573  1.00  0.00    -0.550 OA
ATOM     29  O   UNL     1      33.891  12.597 -18.645  1.00  0.00    -0.550 OA
ENDBRANCH   1  27
BRANCH   7  30
ATOM     30  C   UNL     1      33.036  18.287 -20.751  1.00  0.00    -0.077 C 
ATOM     31  C   UNL     1      33.481  19.715 -20.938  1.00  0.00     0.039 C 
ATOM     32  C   UNL     1      32.169  17.768 -21.636  1.00  0.00     0.008 C 
ENDBRANCH   7  30
BRANCH  24  33
ATOM     33  O   UNL     1      26.166  17.614 -11.809  1.00  0.00    -0.393 OA
ATOM     34  H   UNL     1      25.392  18.031 -12.264  1.00  0.00     0.210 HD
ENDBRANCH  24  33
TORSDOF 3
ENDMDL
MODEL 8
REMARK VINA RESULT:    -5.857      4.082      5.768
REMARK INTER + INTRA:          -7.383
REMARK INTER:                  -6.741
REMARK INTRA:                  -0.642
REMARK UNBOUND:                -0.671
REMARK SMILES C=C(C)[C@@H]1CC[C@@]2(C(=O)[O-])CC[C@]3(C)[C@@H](CC[C@H]4[C@@]5(C)CC[C@H](O)C(C)(C)[C@H]5CC[C@]43C)[C@@H]12
REMARK SMILES IDX 7 1 6 2 33 3 11 4 5 5 15 6 4 7 12 8 16 9 13 10 17 11 31 12
REMARK SMILES IDX 14 13 18 14 30 15 32 16 19 17 29 18 21 19 20 20 28 21 22 22
REMARK SMILES IDX 25 23 23 24 26 25 27 26 8 27 9 28 10 29 2 30 3 31 1 32 24 33
REMARK H PARENT 24 34
REMARK Flexibility Score: inf
ROOT
ATOM      1  C   UNL     1      31.191  15.819 -20.455  1.00  0.00     0.014 C 
ATOM      2  C   UNL     1      30.635  17.191 -20.861  1.00  0.00     0.014 C 
ATOM      3  C   UNL     1      32.560  16.149 -19.846  1.00  0.00     0.012 C 
ATOM      4  C   UNL     1      31.402  14.952 -21.706  1.00  0.00     0.014 C 
ATOM      5  C   UNL     1      31.830  18.027 -21.297  1.00  0.00     0.009 C 
ATOM      6  C   UNL     1      33.531  14.910 -19.666  1.00  0.00     0.000 C 
ATOM      7  C   UNL     1      33.072  17.375 -20.664  1.00  0.00     0.018 C 
ATOM      8  C   UNL     1      31.957  13.580 -21.350  1.00  0.00     0.008 C 
ATOM      9  C   UNL     1      34.999  15.366 -19.560  1.00  0.00     0.005 C 
ATOM     10  C   UNL     1      33.313  13.556 -20.524  1.00  0.00    -0.024 C 
ATOM     11  C   UNL     1      35.927  14.185 -19.396  1.00  0.00     0.005 C 
ATOM     12  C   UNL     1      34.593  13.187 -21.461  1.00  0.00    -0.024 C 
ATOM     13  C   UNL     1      33.105  12.389 -19.499  1.00  0.00     0.012 C 
ATOM     14  C   UNL     1      36.018  13.347 -20.703  1.00  0.00     0.002 C 
ATOM     15  C   UNL     1      34.438  11.768 -22.122  1.00  0.00     0.008 C 
ATOM     16  C   UNL     1      34.595  14.170 -22.683  1.00  0.00     0.012 C 
ATOM     17  C   UNL     1      37.062  12.112 -20.553  1.00  0.00    -0.026 C 
ATOM     18  C   UNL     1      35.220  10.648 -21.473  1.00  0.00     0.005 C 
ATOM     19  C   UNL     1      37.095  11.548 -19.086  1.00  0.00     0.010 C 
ATOM     20  C   UNL     1      38.478  12.706 -20.862  1.00  0.00     0.012 C 
ATOM     21  C   UNL     1      36.736  10.928 -21.548  1.00  0.00     0.003 C 
ATOM     22  C   UNL     1      37.945  10.285 -18.885  1.00  0.00     0.033 C 
ATOM     23  C   UNL     1      37.601   9.598 -21.349  1.00  0.00    -0.006 C 
ATOM     24  C   UNL     1      37.552   9.161 -19.853  1.00  0.00     0.120 C 
ATOM     25  C   UNL     1      37.043   8.423 -22.209  1.00  0.00     0.014 C 
ATOM     26  C   UNL     1      39.069   9.800 -21.845  1.00  0.00     0.014 C 
ENDROOT
BRANCH   1  27
ATOM     27  C   UNL     1      30.231  15.155 -19.480  1.00  0.00     0.048 C 
ATOM     28  O   UNL     1      29.042  14.927 -19.830  1.00  0.00    -0.550 OA
ATOM     29  O   UNL     1      30.633  14.811 -18.193  1.00  0.00    -0.550 OA
ENDBRANCH   1  27
BRANCH   7  30
ATOM     30  C   UNL     1      33.870  18.385 -19.838  1.00  0.00    -0.077 C 
ATOM     31  C   UNL     1      35.226  18.846 -20.308  1.00  0.00     0.039 C 
ATOM     32  C   UNL     1      33.367  18.923 -18.714  1.00  0.00     0.008 C 
ENDBRANCH   7  30
BRANCH  24  33
ATOM     33  O   UNL     1      38.323   8.005 -19.618  1.00  0.00    -0.393 OA
ATOM     34  H   UNL     1      38.177   7.376 -20.369  1.00  0.00     0.210 HD
ENDBRANCH  24  33
TORSDOF 3
ENDMDL
