MODEL 1
REMARK VINA RESULT:    -4.621      0.000      0.000
REMARK INTER + INTRA:          -6.136
REMARK INTER:                  -5.971
REMARK INTRA:                  -0.164
REMARK UNBOUND:                -0.164
REMARK SMILES CCCCCCC(=O)[O-]
REMARK SMILES IDX 5 1 6 2 7 3 8 4 9 5 4 6 3 7 2 8 1 9
REMARK H PARENT
REMARK Flexibility Score: inf
ROOT
ATOM      1  C   UNL     1     -14.070   2.362  -9.332  1.00  0.00     0.006 C 
ENDROOT
BRANCH   1   2
ATOM      2  C   UNL     1     -12.579   2.712  -9.464  1.00  0.00     0.053 C 
BRANCH   2   3
ATOM      3  C   UNL     1     -12.199   3.884  -8.613  1.00  0.00     0.041 C 
ATOM      4  O   UNL     1     -11.066   3.929  -8.067  1.00  0.00    -0.550 OA
ATOM      5  O   UNL     1     -13.083   4.943  -8.452  1.00  0.00    -0.550 OA
ENDBRANCH   2   3
ENDBRANCH   1   2
BRANCH   1   6
ATOM      6  C   UNL     1     -14.368   0.851  -9.306  1.00  0.00     0.000 C 
BRANCH   6   7
ATOM      7  C   UNL     1     -13.959   0.140 -10.608  1.00  0.00    -0.000 C 
BRANCH   7   8
ATOM      8  C   UNL     1     -12.931  -0.977 -10.371  1.00  0.00    -0.003 C 
ATOM      9  C   UNL     1     -11.488  -0.477 -10.420  1.00  0.00     0.004 C 
ENDBRANCH   7   8
ENDBRANCH   6   7
ENDBRANCH   1   6
TORSDOF 5
ENDMDL
MODEL 2
REMARK VINA RESULT:    -4.342      3.215      4.900
REMARK INTER + INTRA:          -5.776
REMARK INTER:                  -5.623
REMARK INTRA:                  -0.153
REMARK UNBOUND:                -0.164
REMARK SMILES CCCCCCC(=O)[O-]
REMARK SMILES IDX 5 1 6 2 7 3 8 4 9 5 4 6 3 7 2 8 1 9
REMARK H PARENT
REMARK Flexibility Score: inf
ROOT
ATOM      1  C   UNL     1     -12.544   0.355 -10.019  1.00  0.00     0.006 C 
ENDROOT
BRANCH   1   2
ATOM      2  C   UNL     1     -12.486  -1.008 -10.726  1.00  0.00     0.053 C 
BRANCH   2   3
ATOM      3  C   UNL     1     -11.604  -1.980 -10.004  1.00  0.00     0.041 C 
ATOM      4  O   UNL     1     -12.025  -3.134  -9.728  1.00  0.00    -0.550 OA
ATOM      5  O   UNL     1     -10.305  -1.623  -9.666  1.00  0.00    -0.550 OA
ENDBRANCH   2   3
ENDBRANCH   1   2
BRANCH   1   6
ATOM      6  C   UNL     1     -13.970   0.885  -9.776  1.00  0.00     0.000 C 
BRANCH   6   7
ATOM      7  C   UNL     1     -13.991   2.362  -9.347  1.00  0.00    -0.000 C 
BRANCH   7   8
ATOM      8  C   UNL     1     -12.587   2.985  -9.313  1.00  0.00    -0.003 C 
ATOM      9  C   UNL     1     -12.534   4.287  -8.513  1.00  0.00     0.004 C 
ENDBRANCH   7   8
ENDBRANCH   6   7
ENDBRANCH   1   6
TORSDOF 5
ENDMDL
MODEL 3
REMARK VINA RESULT:    -4.317      3.842      5.380
REMARK INTER + INTRA:          -5.744
REMARK INTER:                  -5.560
REMARK INTRA:                  -0.184
REMARK UNBOUND:                -0.164
REMARK SMILES CCCCCCC(=O)[O-]
REMARK SMILES IDX 5 1 6 2 7 3 8 4 9 5 4 6 3 7 2 8 1 9
REMARK H PARENT
REMARK Flexibility Score: inf
ROOT
ATOM      1  C   UNL     1     -10.626  -0.603  -9.556  1.00  0.00     0.006 C 
ENDROOT
BRANCH   1   2
ATOM      2  C   UNL     1     -10.956  -2.099  -9.678  1.00  0.00     0.053 C 
BRANCH   2   3
ATOM      3  C   UNL     1      -9.959  -2.955  -8.960  1.00  0.00     0.041 C 
ATOM      4  O   UNL     1      -9.374  -3.891  -9.566  1.00  0.00    -0.550 OA
ATOM      5  O   UNL     1      -9.650  -2.697  -7.631  1.00  0.00    -0.550 OA
ENDBRANCH   2   3
ENDBRANCH   1   2
BRANCH   1   6
ATOM      6  C   UNL     1     -11.777   0.337  -9.962  1.00  0.00     0.000 C 
BRANCH   6   7
ATOM      7  C   UNL     1     -13.043  -0.423 -10.391  1.00  0.00    -0.000 C 
BRANCH   7   8
ATOM      8  C   UNL     1     -14.331   0.245  -9.886  1.00  0.00    -0.003 C 
ATOM      9  C   UNL     1     -14.149   1.732  -9.582  1.00  0.00     0.004 C 
ENDBRANCH   7   8
ENDBRANCH   6   7
ENDBRANCH   1   6
TORSDOF 5
ENDMDL
MODEL 4
REMARK VINA RESULT:    -4.264      3.810      5.382
REMARK INTER + INTRA:          -5.675
REMARK INTER:                  -5.475
REMARK INTRA:                  -0.200
REMARK UNBOUND:                -0.164
REMARK SMILES CCCCCCC(=O)[O-]
REMARK SMILES IDX 5 1 6 2 7 3 8 4 9 5 4 6 3 7 2 8 1 9
REMARK H PARENT
REMARK Flexibility Score: inf
ROOT
ATOM      1  C   UNL     1     -10.577  -0.633  -9.509  1.00  0.00     0.006 C 
ENDROOT
BRANCH   1   2
ATOM      2  C   UNL     1     -10.819  -2.141  -9.678  1.00  0.00     0.053 C 
BRANCH   2   3
ATOM      3  C   UNL     1     -10.106  -2.946  -8.637  1.00  0.00     0.041 C 
ATOM      4  O   UNL     1      -9.611  -2.380  -7.627  1.00  0.00    -0.550 OA
ATOM      5  O   UNL     1     -10.017  -4.326  -8.764  1.00  0.00    -0.550 OA
ENDBRANCH   2   3
ENDBRANCH   1   2
BRANCH   1   6
ATOM      6  C   UNL     1     -11.743   0.256  -9.984  1.00  0.00     0.000 C 
BRANCH   6   7
ATOM      7  C   UNL     1     -12.978  -0.558 -10.406  1.00  0.00    -0.000 C 
BRANCH   7   8
ATOM      8  C   UNL     1     -14.295   0.098  -9.962  1.00  0.00    -0.003 C 
ATOM      9  C   UNL     1     -14.125   1.565  -9.570  1.00  0.00     0.004 C 
ENDBRANCH   7   8
ENDBRANCH   6   7
ENDBRANCH   1   6
TORSDOF 5
ENDMDL
MODEL 5
REMARK VINA RESULT:    -4.192      3.372      5.060
REMARK INTER + INTRA:          -5.582
REMARK INTER:                  -5.442
REMARK INTRA:                  -0.139
REMARK UNBOUND:                -0.164
REMARK SMILES CCCCCCC(=O)[O-]
REMARK SMILES IDX 5 1 6 2 7 3 8 4 9 5 4 6 3 7 2 8 1 9
REMARK H PARENT
REMARK Flexibility Score: inf
ROOT
ATOM      1  C   UNL     1     -12.183  -0.773 -10.417  1.00  0.00     0.006 C 
ENDROOT
BRANCH   1   2
ATOM      2  C   UNL     1     -10.723  -0.726  -9.940  1.00  0.00     0.053 C 
BRANCH   2   3
ATOM      3  C   UNL     1     -10.299  -2.009  -9.294  1.00  0.00     0.041 C 
ATOM      4  O   UNL     1      -9.887  -2.014  -8.105  1.00  0.00    -0.550 OA
ATOM      5  O   UNL     1     -10.393  -3.204  -9.996  1.00  0.00    -0.550 OA
ENDBRANCH   2   3
ENDBRANCH   1   2
BRANCH   1   6
ATOM      6  C   UNL     1     -13.023   0.454 -10.018  1.00  0.00     0.000 C 
BRANCH   6   7
ATOM      7  C   UNL     1     -12.181   1.567  -9.371  1.00  0.00    -0.000 C 
BRANCH   7   8
ATOM      8  C   UNL     1     -12.934   2.904  -9.291  1.00  0.00    -0.003 C 
ATOM      9  C   UNL     1     -12.047   4.059  -8.826  1.00  0.00     0.004 C 
ENDBRANCH   7   8
ENDBRANCH   6   7
ENDBRANCH   1   6
TORSDOF 5
ENDMDL
MODEL 6
REMARK VINA RESULT:    -3.986      4.556      6.150
REMARK INTER + INTRA:          -5.315
REMARK INTER:                  -5.139
REMARK INTRA:                  -0.176
REMARK UNBOUND:                -0.164
REMARK SMILES CCCCCCC(=O)[O-]
REMARK SMILES IDX 5 1 6 2 7 3 8 4 9 5 4 6 3 7 2 8 1 9
REMARK H PARENT
REMARK Flexibility Score: inf
ROOT
ATOM      1  C   UNL     1     -10.237  -2.468  -9.841  1.00  0.00     0.006 C 
ENDROOT
BRANCH   1   2
ATOM      2  C   UNL     1     -10.628  -3.603  -8.882  1.00  0.00     0.053 C 
BRANCH   2   3
ATOM      3  C   UNL     1      -9.610  -3.804  -7.802  1.00  0.00     0.041 C 
ATOM      4  O   UNL     1      -8.385  -3.654  -8.050  1.00  0.00    -0.550 OA
ATOM      5  O   UNL     1     -10.017  -4.121  -6.512  1.00  0.00    -0.550 OA
ENDBRANCH   2   3
ENDBRANCH   1   2
BRANCH   1   6
ATOM      6  C   UNL     1     -10.572  -1.055  -9.325  1.00  0.00     0.000 C 
BRANCH   6   7
ATOM      7  C   UNL     1     -11.341  -0.212 -10.356  1.00  0.00    -0.000 C 
BRANCH   7   8
ATOM      8  C   UNL     1     -12.835  -0.569 -10.413  1.00  0.00    -0.003 C 
ATOM      9  C   UNL     1     -13.737   0.575  -9.952  1.00  0.00     0.004 C 
ENDBRANCH   7   8
ENDBRANCH   6   7
ENDBRANCH   1   6
TORSDOF 5
ENDMDL
MODEL 7
REMARK VINA RESULT:    -3.808     15.271     16.806
REMARK INTER + INTRA:          -5.085
REMARK INTER:                  -4.681
REMARK INTRA:                  -0.404
REMARK UNBOUND:                -0.164
REMARK SMILES CCCCCCC(=O)[O-]
REMARK SMILES IDX 5 1 6 2 7 3 8 4 9 5 4 6 3 7 2 8 1 9
REMARK H PARENT
REMARK Flexibility Score: inf
ROOT
ATOM      1  C   UNL     1     -10.002   6.092   5.480  1.00  0.00     0.006 C 
ENDROOT
BRANCH   1   2
ATOM      2  C   UNL     1     -10.917   4.964   4.978  1.00  0.00     0.053 C 
BRANCH   2   3
ATOM      3  C   UNL     1     -12.365   5.336   5.057  1.00  0.00     0.041 C 
ATOM      4  O   UNL     1     -13.060   5.405   4.010  1.00  0.00    -0.550 OA
ATOM      5  O   UNL     1     -12.957   5.571   6.292  1.00  0.00    -0.550 OA
ENDBRANCH   2   3
ENDBRANCH   1   2
BRANCH   1   6
ATOM      6  C   UNL     1      -9.274   5.781   6.801  1.00  0.00     0.000 C 
BRANCH   6   7
ATOM      7  C   UNL     1      -9.883   6.519   8.005  1.00  0.00    -0.000 C 
BRANCH   7   8
ATOM      8  C   UNL     1     -10.685   5.584   8.924  1.00  0.00    -0.003 C 
ATOM      9  C   UNL     1     -10.495   4.107   8.580  1.00  0.00     0.004 C 
ENDBRANCH   7   8
ENDBRANCH   6   7
ENDBRANCH   1   6
TORSDOF 5
ENDMDL
MODEL 8
REMARK VINA RESULT:    -3.738      6.994      8.358
REMARK INTER + INTRA:          -4.995
REMARK INTER:                  -4.611
REMARK INTRA:                  -0.384
REMARK UNBOUND:                -0.164
REMARK SMILES CCCCCCC(=O)[O-]
REMARK SMILES IDX 5 1 6 2 7 3 8 4 9 5 4 6 3 7 2 8 1 9
REMARK H PARENT
REMARK Flexibility Score: inf
ROOT
ATOM      1  C   UNL     1     -10.207  -4.269  -6.602  1.00  0.00     0.006 C 
ENDROOT
BRANCH   1   2
ATOM      2  C   UNL     1      -9.284  -4.460  -7.816  1.00  0.00     0.053 C 
BRANCH   2   3
ATOM      3  C   UNL     1      -9.944  -4.051  -9.096  1.00  0.00     0.041 C 
ATOM      4  O   UNL     1     -11.144  -4.360  -9.317  1.00  0.00    -0.550 OA
ATOM      5  O   UNL     1      -9.245  -3.297 -10.030  1.00  0.00    -0.550 OA
ENDBRANCH   2   3
ENDBRANCH   1   2
BRANCH   1   6
ATOM      6  C   UNL     1     -10.691  -5.582  -5.958  1.00  0.00     0.000 C 
BRANCH   6   7
ATOM      7  C   UNL     1      -9.809  -6.787  -6.327  1.00  0.00    -0.000 C 
BRANCH   7   8
ATOM      8  C   UNL     1     -10.620  -7.953  -6.913  1.00  0.00    -0.003 C 
ATOM      9  C   UNL     1     -10.886  -7.798  -8.410  1.00  0.00     0.004 C 
ENDBRANCH   7   8
ENDBRANCH   6   7
ENDBRANCH   1   6
TORSDOF 5
ENDMDL
MODEL 9
REMARK VINA RESULT:    -3.707      6.450      7.792
REMARK INTER + INTRA:          -4.955
REMARK INTER:                  -4.662
REMARK INTRA:                  -0.293
REMARK UNBOUND:                -0.164
REMARK SMILES CCCCCCC(=O)[O-]
REMARK SMILES IDX 5 1 6 2 7 3 8 4 9 5 4 6 3 7 2 8 1 9
REMARK H PARENT
REMARK Flexibility Score: inf
ROOT
ATOM      1  C   UNL     1     -10.951  -4.996  -8.719  1.00  0.00     0.006 C 
ENDROOT
BRANCH   1   2
ATOM      2  C   UNL     1     -10.021  -3.993  -9.419  1.00  0.00     0.053 C 
BRANCH   2   3
ATOM      3  C   UNL     1      -9.181  -3.228  -8.443  1.00  0.00     0.041 C 
ATOM      4  O   UNL     1      -7.981  -3.554  -8.247  1.00  0.00    -0.550 OA
ATOM      5  O   UNL     1      -9.714  -2.133  -7.775  1.00  0.00    -0.550 OA
ENDBRANCH   2   3
ENDBRANCH   1   2
BRANCH   1   6
ATOM      6  C   UNL     1     -10.271  -6.315  -8.308  1.00  0.00     0.000 C 
BRANCH   6   7
ATOM      7  C   UNL     1      -9.915  -6.360  -6.812  1.00  0.00    -0.000 C 
BRANCH   7   8
ATOM      8  C   UNL     1     -10.819  -5.451  -5.964  1.00  0.00    -0.003 C 
ATOM      9  C   UNL     1     -12.066  -6.169  -5.447  1.00  0.00     0.004 C 
ENDBRANCH   7   8
ENDBRANCH   6   7
ENDBRANCH   1   6
TORSDOF 5
ENDMDL
