MODEL 1
REMARK VINA RESULT:    -3.232      0.000      0.000
REMARK INTER + INTRA:          -5.050
REMARK INTER:                  -4.555
REMARK INTRA:                  -0.495
REMARK UNBOUND:                -0.495
REMARK SMILES CCCCCCCCC(=O)[O-]
REMARK SMILES IDX 6 1 7 2 8 3 9 4 10 5 11 6 5 7 4 8 3 9 2 10 1 11
REMARK H PARENT
REMARK Flexibility Score: inf
ROOT
ATOM      1  C   UNL     1       5.423  -6.223   6.054  1.00  0.00     0.000 C 
ENDROOT
BRANCH   1   2
ATOM      2  C   UNL     1       4.807  -5.639   4.777  1.00  0.00     0.006 C 
BRANCH   2   3
ATOM      3  C   UNL     1       4.045  -4.344   5.077  1.00  0.00     0.053 C 
BRANCH   3   4
ATOM      4  C   UNL     1       2.839  -4.230   4.198  1.00  0.00     0.041 C 
ATOM      5  O   UNL     1       2.239  -5.266   3.810  1.00  0.00    -0.550 OA
ATOM      6  O   UNL     1       2.351  -2.979   3.848  1.00  0.00    -0.550 OA
ENDBRANCH   3   4
ENDBRANCH   2   3
ENDBRANCH   1   2
BRANCH   1   7
ATOM      7  C   UNL     1       6.463  -7.299   5.721  1.00  0.00     0.000 C 
BRANCH   7   8
ATOM      8  C   UNL     1       5.951  -8.694   6.097  1.00  0.00    -0.000 C 
BRANCH   8   9
ATOM      9  C   UNL     1       4.927  -8.617   7.235  1.00  0.00    -0.000 C 
BRANCH   9  10
ATOM     10  C   UNL     1       3.630  -9.344   6.860  1.00  0.00    -0.003 C 
ATOM     11  C   UNL     1       3.437  -9.384   5.347  1.00  0.00     0.004 C 
ENDBRANCH   9  10
ENDBRANCH   8   9
ENDBRANCH   7   8
ENDBRANCH   1   7
TORSDOF 7
ENDMDL
MODEL 2
REMARK VINA RESULT:    -3.113     19.046     20.550
REMARK INTER + INTRA:          -4.882
REMARK INTER:                  -4.473
REMARK INTRA:                  -0.409
REMARK UNBOUND:                -0.495
REMARK SMILES CCCCCCCCC(=O)[O-]
REMARK SMILES IDX 6 1 7 2 8 3 9 4 10 5 11 6 5 7 4 8 3 9 2 10 1 11
REMARK H PARENT
REMARK Flexibility Score: inf
ROOT
ATOM      1  C   UNL     1       1.895   8.323  18.685  1.00  0.00     0.000 C 
ENDROOT
BRANCH   1   2
ATOM      2  C   UNL     1       1.890   8.919  20.097  1.00  0.00     0.006 C 
BRANCH   2   3
ATOM      3  C   UNL     1       1.877   7.816  21.160  1.00  0.00     0.053 C 
BRANCH   3   4
ATOM      4  C   UNL     1       2.524   8.295  22.421  1.00  0.00     0.041 C 
ATOM      5  O   UNL     1       2.122   9.350  22.978  1.00  0.00    -0.550 OA
ATOM      6  O   UNL     1       3.540   7.551  23.006  1.00  0.00    -0.550 OA
ENDBRANCH   3   4
ENDBRANCH   2   3
ENDBRANCH   1   2
BRANCH   1   7
ATOM      7  C   UNL     1       1.875   6.791  18.734  1.00  0.00     0.000 C 
BRANCH   7   8
ATOM      8  C   UNL     1       2.496   6.191  17.467  1.00  0.00    -0.000 C 
BRANCH   8   9
ATOM      9  C   UNL     1       3.968   6.596  17.331  1.00  0.00    -0.000 C 
BRANCH   9  10
ATOM     10  C   UNL     1       4.349   6.803  15.860  1.00  0.00    -0.003 C 
ATOM     11  C   UNL     1       4.787   8.241  15.600  1.00  0.00     0.004 C 
ENDBRANCH   9  10
ENDBRANCH   8   9
ENDBRANCH   7   8
ENDBRANCH   1   7
TORSDOF 7
ENDMDL
MODEL 3
REMARK VINA RESULT:    -3.066      3.127      5.215
REMARK INTER + INTRA:          -4.815
REMARK INTER:                  -4.280
REMARK INTRA:                  -0.535
REMARK UNBOUND:                -0.495
REMARK SMILES CCCCCCCCC(=O)[O-]
REMARK SMILES IDX 6 1 7 2 8 3 9 4 10 5 11 6 5 7 4 8 3 9 2 10 1 11
REMARK H PARENT
REMARK Flexibility Score: inf
ROOT
ATOM      1  C   UNL     1       4.892  -5.997   5.119  1.00  0.00     0.000 C 
ENDROOT
BRANCH   1   2
ATOM      2  C   UNL     1       5.680  -6.517   6.327  1.00  0.00     0.006 C 
BRANCH   2   3
ATOM      3  C   UNL     1       5.949  -8.020   6.202  1.00  0.00     0.053 C 
BRANCH   3   4
ATOM      4  C   UNL     1       4.724  -8.802   6.558  1.00  0.00     0.041 C 
ATOM      5  O   UNL     1       4.424  -8.995   7.765  1.00  0.00    -0.550 OA
ATOM      6  O   UNL     1       3.889  -9.278   5.556  1.00  0.00    -0.550 OA
ENDBRANCH   3   4
ENDBRANCH   2   3
ENDBRANCH   1   2
BRANCH   1   7
ATOM      7  C   UNL     1       5.516  -6.480   3.805  1.00  0.00     0.000 C 
BRANCH   7   8
ATOM      8  C   UNL     1       6.712  -5.606   3.409  1.00  0.00    -0.000 C 
BRANCH   8   9
ATOM      9  C   UNL     1       8.022  -6.397   3.483  1.00  0.00    -0.000 C 
BRANCH   9  10
ATOM     10  C   UNL     1       9.047  -5.684   4.373  1.00  0.00    -0.003 C 
ATOM     11  C   UNL     1      10.370  -5.484   3.640  1.00  0.00     0.004 C 
ENDBRANCH   9  10
ENDBRANCH   8   9
ENDBRANCH   7   8
ENDBRANCH   1   7
TORSDOF 7
ENDMDL
MODEL 4
REMARK VINA RESULT:    -3.037      1.602      2.696
REMARK INTER + INTRA:          -4.775
REMARK INTER:                  -4.016
REMARK INTRA:                  -0.758
REMARK UNBOUND:                -0.495
REMARK SMILES CCCCCCCCC(=O)[O-]
REMARK SMILES IDX 6 1 7 2 8 3 9 4 10 5 11 6 5 7 4 8 3 9 2 10 1 11
REMARK H PARENT
REMARK Flexibility Score: inf
ROOT
ATOM      1  C   UNL     1       2.792  -7.948   4.108  1.00  0.00     0.000 C 
ENDROOT
BRANCH   1   2
ATOM      2  C   UNL     1       3.450  -6.711   3.486  1.00  0.00     0.006 C 
BRANCH   2   3
ATOM      3  C   UNL     1       2.811  -5.423   4.016  1.00  0.00     0.053 C 
BRANCH   3   4
ATOM      4  C   UNL     1       3.867  -4.439   4.412  1.00  0.00     0.041 C 
ATOM      5  O   UNL     1       3.968  -4.066   5.610  1.00  0.00    -0.550 OA
ATOM      6  O   UNL     1       4.770  -3.972   3.466  1.00  0.00    -0.550 OA
ENDBRANCH   3   4
ENDBRANCH   2   3
ENDBRANCH   1   2
BRANCH   1   7
ATOM      7  C   UNL     1       3.848  -8.958   4.571  1.00  0.00     0.000 C 
BRANCH   7   8
ATOM      8  C   UNL     1       3.956  -8.979   6.101  1.00  0.00    -0.000 C 
BRANCH   8   9
ATOM      9  C   UNL     1       5.370  -8.605   6.559  1.00  0.00    -0.000 C 
BRANCH   9  10
ATOM     10  C   UNL     1       5.583  -7.088   6.504  1.00  0.00    -0.003 C 
ATOM     11  C   UNL     1       6.631  -6.716   5.458  1.00  0.00     0.004 C 
ENDBRANCH   9  10
ENDBRANCH   8   9
ENDBRANCH   7   8
ENDBRANCH   1   7
TORSDOF 7
ENDMDL
MODEL 5
REMARK VINA RESULT:    -2.983      2.921      4.454
REMARK INTER + INTRA:          -4.698
REMARK INTER:                  -3.894
REMARK INTRA:                  -0.804
REMARK UNBOUND:                -0.495
REMARK SMILES CCCCCCCCC(=O)[O-]
REMARK SMILES IDX 6 1 7 2 8 3 9 4 10 5 11 6 5 7 4 8 3 9 2 10 1 11
REMARK H PARENT
REMARK Flexibility Score: inf
ROOT
ATOM      1  C   UNL     1       5.368  -5.387   4.135  1.00  0.00     0.000 C 
ENDROOT
BRANCH   1   2
ATOM      2  C   UNL     1       6.101  -6.547   4.819  1.00  0.00     0.006 C 
BRANCH   2   3
ATOM      3  C   UNL     1       5.602  -6.743   6.254  1.00  0.00     0.053 C 
BRANCH   3   4
ATOM      4  C   UNL     1       5.552  -8.199   6.596  1.00  0.00     0.041 C 
ATOM      5  O   UNL     1       6.427  -8.985   6.150  1.00  0.00    -0.550 OA
ATOM      6  O   UNL     1       4.565  -8.677   7.448  1.00  0.00    -0.550 OA
ENDBRANCH   3   4
ENDBRANCH   2   3
ENDBRANCH   1   2
BRANCH   1   7
ATOM      7  C   UNL     1       4.118  -4.983   4.926  1.00  0.00     0.000 C 
BRANCH   7   8
ATOM      8  C   UNL     1       2.898  -4.867   4.005  1.00  0.00    -0.000 C 
BRANCH   8   9
ATOM      9  C   UNL     1       2.738  -6.123   3.142  1.00  0.00    -0.000 C 
BRANCH   9  10
ATOM     10  C   UNL     1       2.144  -7.279   3.956  1.00  0.00    -0.003 C 
ATOM     11  C   UNL     1       2.999  -8.537   3.834  1.00  0.00     0.004 C 
ENDBRANCH   9  10
ENDBRANCH   8   9
ENDBRANCH   7   8
ENDBRANCH   1   7
TORSDOF 7
ENDMDL
MODEL 6
REMARK VINA RESULT:    -2.979      2.592      4.623
REMARK INTER + INTRA:          -4.693
REMARK INTER:                  -3.941
REMARK INTRA:                  -0.752
REMARK UNBOUND:                -0.495
REMARK SMILES CCCCCCCCC(=O)[O-]
REMARK SMILES IDX 6 1 7 2 8 3 9 4 10 5 11 6 5 7 4 8 3 9 2 10 1 11
REMARK H PARENT
REMARK Flexibility Score: inf
ROOT
ATOM      1  C   UNL     1       7.066  -6.444   4.452  1.00  0.00     0.000 C 
ENDROOT
BRANCH   1   2
ATOM      2  C   UNL     1       6.724  -7.682   5.289  1.00  0.00     0.006 C 
BRANCH   2   3
ATOM      3  C   UNL     1       5.659  -7.358   6.341  1.00  0.00     0.053 C 
BRANCH   3   4
ATOM      4  C   UNL     1       4.675  -8.480   6.454  1.00  0.00     0.041 C 
ATOM      5  O   UNL     1       4.111  -8.934   5.425  1.00  0.00    -0.550 OA
ATOM      6  O   UNL     1       4.420  -9.057   7.691  1.00  0.00    -0.550 OA
ENDBRANCH   3   4
ENDBRANCH   2   3
ENDBRANCH   1   2
BRANCH   1   7
ATOM      7  C   UNL     1       6.374  -6.497   3.085  1.00  0.00     0.000 C 
BRANCH   7   8
ATOM      8  C   UNL     1       5.301  -5.407   2.970  1.00  0.00    -0.000 C 
BRANCH   8   9
ATOM      9  C   UNL     1       3.924  -5.946   3.373  1.00  0.00    -0.000 C 
BRANCH   9  10
ATOM     10  C   UNL     1       3.126  -4.892   4.150  1.00  0.00    -0.003 C 
ATOM     11  C   UNL     1       3.997  -4.201   5.195  1.00  0.00     0.004 C 
ENDBRANCH   9  10
ENDBRANCH   8   9
ENDBRANCH   7   8
ENDBRANCH   1   7
TORSDOF 7
ENDMDL
MODEL 7
REMARK VINA RESULT:    -2.975      2.132      4.440
REMARK INTER + INTRA:          -4.687
REMARK INTER:                  -4.031
REMARK INTRA:                  -0.656
REMARK UNBOUND:                -0.495
REMARK SMILES CCCCCCCCC(=O)[O-]
REMARK SMILES IDX 6 1 7 2 8 3 9 4 10 5 11 6 5 7 4 8 3 9 2 10 1 11
REMARK H PARENT
REMARK Flexibility Score: inf
ROOT
ATOM      1  C   UNL     1       5.580  -7.111   6.568  1.00  0.00     0.000 C 
ENDROOT
BRANCH   1   2
ATOM      2  C   UNL     1       5.357  -8.619   6.730  1.00  0.00     0.006 C 
BRANCH   2   3
ATOM      3  C   UNL     1       3.902  -8.994   6.434  1.00  0.00     0.053 C 
BRANCH   3   4
ATOM      4  C   UNL     1       3.700  -9.193   4.964  1.00  0.00     0.041 C 
ATOM      5  O   UNL     1       2.710  -8.676   4.385  1.00  0.00    -0.550 OA
ATOM      6  O   UNL     1       4.633  -9.910   4.227  1.00  0.00    -0.550 OA
ENDBRANCH   3   4
ENDBRANCH   2   3
ENDBRANCH   1   2
BRANCH   1   7
ATOM      7  C   UNL     1       6.424  -6.810   5.324  1.00  0.00     0.000 C 
BRANCH   7   8
ATOM      8  C   UNL     1       5.613  -6.027   4.284  1.00  0.00    -0.000 C 
BRANCH   8   9
ATOM      9  C   UNL     1       4.467  -5.256   4.948  1.00  0.00    -0.000 C 
BRANCH   9  10
ATOM     10  C   UNL     1       3.256  -5.156   4.013  1.00  0.00    -0.003 C 
ATOM     11  C   UNL     1       2.705  -3.733   3.973  1.00  0.00     0.004 C 
ENDBRANCH   9  10
ENDBRANCH   8   9
ENDBRANCH   7   8
ENDBRANCH   1   7
TORSDOF 7
ENDMDL
MODEL 8
REMARK VINA RESULT:    -2.966     18.218     19.728
REMARK INTER + INTRA:          -4.674
REMARK INTER:                  -4.537
REMARK INTRA:                  -0.137
REMARK UNBOUND:                -0.495
REMARK SMILES CCCCCCCCC(=O)[O-]
REMARK SMILES IDX 6 1 7 2 8 3 9 4 10 5 11 6 5 7 4 8 3 9 2 10 1 11
REMARK H PARENT
REMARK Flexibility Score: inf
ROOT
ATOM      1  C   UNL     1       2.093   6.540  18.090  1.00  0.00     0.000 C 
ENDROOT
BRANCH   1   2
ATOM      2  C   UNL     1       3.262   6.105  17.198  1.00  0.00     0.006 C 
BRANCH   2   3
ATOM      3  C   UNL     1       4.435   7.083  17.314  1.00  0.00     0.053 C 
BRANCH   3   4
ATOM      4  C   UNL     1       4.485   7.985  16.121  1.00  0.00     0.041 C 
ATOM      5  O   UNL     1       4.469   7.502  14.960  1.00  0.00    -0.550 OA
ATOM      6  O   UNL     1       4.500   9.363  16.294  1.00  0.00    -0.550 OA
ENDBRANCH   3   4
ENDBRANCH   2   3
ENDBRANCH   1   2
BRANCH   1   7
ATOM      7  C   UNL     1       1.876   8.056  18.012  1.00  0.00     0.000 C 
BRANCH   7   8
ATOM      8  C   UNL     1       1.877   8.685  19.411  1.00  0.00    -0.000 C 
BRANCH   8   9
ATOM      9  C   UNL     1       1.962   7.608  20.498  1.00  0.00    -0.000 C 
BRANCH   9  10
ATOM     10  C   UNL     1       1.875   8.230  21.897  1.00  0.00    -0.003 C 
ATOM     11  C   UNL     1       3.071   7.829  22.755  1.00  0.00     0.004 C 
ENDBRANCH   9  10
ENDBRANCH   8   9
ENDBRANCH   7   8
ENDBRANCH   1   7
TORSDOF 7
ENDMDL
MODEL 9
REMARK VINA RESULT:    -2.965      1.447      2.538
REMARK INTER + INTRA:          -4.673
REMARK INTER:                  -3.986
REMARK INTRA:                  -0.688
REMARK UNBOUND:                -0.495
REMARK SMILES CCCCCCCCC(=O)[O-]
REMARK SMILES IDX 6 1 7 2 8 3 9 4 10 5 11 6 5 7 4 8 3 9 2 10 1 11
REMARK H PARENT
REMARK Flexibility Score: inf
ROOT
ATOM      1  C   UNL     1       6.065  -8.501   5.918  1.00  0.00     0.000 C 
ENDROOT
BRANCH   1   2
ATOM      2  C   UNL     1       6.484  -7.048   5.663  1.00  0.00     0.006 C 
BRANCH   2   3
ATOM      3  C   UNL     1       5.393  -6.074   6.119  1.00  0.00     0.053 C 
BRANCH   3   4
ATOM      4  C   UNL     1       4.787  -5.378   4.941  1.00  0.00     0.041 C 
ATOM      5  O   UNL     1       5.117  -5.707   3.772  1.00  0.00    -0.550 OA
ATOM      6  O   UNL     1       3.822  -4.398   5.135  1.00  0.00    -0.550 OA
ENDBRANCH   3   4
ENDBRANCH   2   3
ENDBRANCH   1   2
BRANCH   1   7
ATOM      7  C   UNL     1       4.900  -8.572   6.912  1.00  0.00     0.000 C 
BRANCH   7   8
ATOM      8  C   UNL     1       3.687  -9.271   6.289  1.00  0.00    -0.000 C 
BRANCH   8   9
ATOM      9  C   UNL     1       3.909  -9.533   4.795  1.00  0.00    -0.000 C 
BRANCH   9  10
ATOM     10  C   UNL     1       2.620  -9.300   3.998  1.00  0.00    -0.003 C 
ATOM     11  C   UNL     1       2.258  -7.818   3.955  1.00  0.00     0.004 C 
ENDBRANCH   9  10
ENDBRANCH   8   9
ENDBRANCH   7   8
ENDBRANCH   1   7
TORSDOF 7
ENDMDL
