MODEL 1
REMARK VINA RESULT:    -5.000      0.000      0.000
REMARK INTER + INTRA:          -5.628
REMARK INTER:                  -5.584
REMARK INTRA:                  -0.044
REMARK UNBOUND:                -0.044
REMARK SMILES O=C([O-])c1ccc(O)c(O)c1
REMARK SMILES IDX 4 1 11 2 5 3 9 4 6 5 7 6 2 7 1 8 3 9 10 10 8 12
REMARK H PARENT 10 11 8 13
REMARK Flexibility Score: inf
ROOT
ATOM      1  C   UNL     1      20.371  -0.634 -19.940  1.00  0.00     0.001 A 
ATOM      2  C   UNL     1      20.812   0.690 -19.778  1.00  0.00     0.060 A 
ATOM      3  C   UNL     1      20.595  -1.280 -21.166  1.00  0.00     0.014 A 
ATOM      4  C   UNL     1      21.468   1.364 -20.816  1.00  0.00     0.158 A 
ATOM      5  C   UNL     1      21.247  -0.616 -22.206  1.00  0.00     0.051 A 
ATOM      6  C   UNL     1      21.689   0.702 -22.046  1.00  0.00     0.157 A 
ENDROOT
BRANCH   1   7
ATOM      7  C   UNL     1      19.679  -1.333 -18.834  1.00  0.00     0.072 C 
ATOM      8  O   UNL     1      19.183  -2.478 -19.010  1.00  0.00    -0.545 OA
ATOM      9  O   UNL     1      19.567  -0.735 -17.584  1.00  0.00    -0.545 OA
ENDBRANCH   1   7
BRANCH   4  10
ATOM     10  O   UNL     1      21.879   2.678 -20.582  1.00  0.00    -0.504 OA
ATOM     11  H   UNL     1      21.674   3.452 -21.198  1.00  0.00     0.293 HD
ENDBRANCH   4  10
BRANCH   6  12
ATOM     12  O   UNL     1      22.335   1.310 -23.125  1.00  0.00    -0.504 OA
ATOM     13  H   UNL     1      21.855   1.793 -23.870  1.00  0.00     0.293 HD
ENDBRANCH   6  12
TORSDOF 3
ENDMDL
MODEL 2
REMARK VINA RESULT:    -4.836     17.219     18.933
REMARK INTER + INTRA:          -5.445
REMARK INTER:                  -5.409
REMARK INTRA:                  -0.036
REMARK UNBOUND:                -0.044
REMARK SMILES O=C([O-])c1ccc(O)c(O)c1
REMARK SMILES IDX 4 1 11 2 5 3 9 4 6 5 7 6 2 7 1 8 3 9 10 10 8 12
REMARK H PARENT 10 11 8 13
REMARK Flexibility Score: inf
ROOT
ATOM      1  C   UNL     1       9.448  -7.029  -8.119  1.00  0.00     0.001 A 
ATOM      2  C   UNL     1      10.222  -6.181  -7.310  1.00  0.00     0.060 A 
ATOM      3  C   UNL     1       8.078  -7.167  -7.846  1.00  0.00     0.014 A 
ATOM      4  C   UNL     1       9.645  -5.476  -6.245  1.00  0.00     0.158 A 
ATOM      5  C   UNL     1       7.495  -6.470  -6.787  1.00  0.00     0.051 A 
ATOM      6  C   UNL     1       8.263  -5.622  -5.980  1.00  0.00     0.157 A 
ENDROOT
BRANCH   1   7
ATOM      7  C   UNL     1      10.072  -7.767  -9.241  1.00  0.00     0.072 C 
ATOM      8  O   UNL     1      10.837  -8.743  -9.019  1.00  0.00    -0.545 OA
ATOM      9  O   UNL     1       9.822  -7.392 -10.555  1.00  0.00    -0.545 OA
ENDBRANCH   1   7
BRANCH   4  10
ATOM     10  O   UNL     1      10.476  -4.650  -5.484  1.00  0.00    -0.504 OA
ATOM     11  H   UNL     1      11.449  -4.482  -5.694  1.00  0.00     0.293 HD
ENDBRANCH   4  10
BRANCH   6  12
ATOM     12  O   UNL     1       7.620  -4.953  -4.937  1.00  0.00    -0.504 OA
ATOM     13  H   UNL     1       8.063  -4.260  -4.353  1.00  0.00     0.293 HD
ENDBRANCH   6  12
TORSDOF 3
ENDMDL
MODEL 3
REMARK VINA RESULT:    -4.697      1.245      4.294
REMARK INTER + INTRA:          -5.291
REMARK INTER:                  -5.254
REMARK INTRA:                  -0.037
REMARK UNBOUND:                -0.044
REMARK SMILES O=C([O-])c1ccc(O)c(O)c1
REMARK SMILES IDX 4 1 11 2 5 3 9 4 6 5 7 6 2 7 1 8 3 9 10 10 8 12
REMARK H PARENT 10 11 8 13
REMARK Flexibility Score: inf
ROOT
ATOM      1  C   UNL     1      20.905   0.203 -20.720  1.00  0.00     0.001 A 
ATOM      2  C   UNL     1      21.432   0.403 -19.434  1.00  0.00     0.060 A 
ATOM      3  C   UNL     1      19.709  -0.519 -20.861  1.00  0.00     0.014 A 
ATOM      4  C   UNL     1      20.781  -0.104 -18.301  1.00  0.00     0.158 A 
ATOM      5  C   UNL     1      19.055  -1.028 -19.738  1.00  0.00     0.051 A 
ATOM      6  C   UNL     1      19.576  -0.828 -18.455  1.00  0.00     0.157 A 
ENDROOT
BRANCH   1   7
ATOM      7  C   UNL     1      21.604   0.745 -21.908  1.00  0.00     0.072 C 
ATOM      8  O   UNL     1      21.716   1.989 -22.073  1.00  0.00    -0.545 OA
ATOM      9  O   UNL     1      22.148  -0.113 -22.856  1.00  0.00    -0.545 OA
ENDBRANCH   1   7
BRANCH   4  10
ATOM     10  O   UNL     1      21.363   0.135 -17.054  1.00  0.00    -0.504 OA
ATOM     11  H   UNL     1      22.161  -0.371 -16.697  1.00  0.00     0.293 HD
ENDBRANCH   4  10
BRANCH   6  12
ATOM     12  O   UNL     1      18.874  -1.364 -17.374  1.00  0.00    -0.504 OA
ATOM     13  H   UNL     1      17.924  -1.701 -17.429  1.00  0.00     0.293 HD
ENDBRANCH   6  12
TORSDOF 3
ENDMDL
MODEL 4
REMARK VINA RESULT:    -4.636      1.078      2.342
REMARK INTER + INTRA:          -5.223
REMARK INTER:                  -5.179
REMARK INTRA:                  -0.044
REMARK UNBOUND:                -0.044
REMARK SMILES O=C([O-])c1ccc(O)c(O)c1
REMARK SMILES IDX 4 1 11 2 5 3 9 4 6 5 7 6 2 7 1 8 3 9 10 10 8 12
REMARK H PARENT 10 11 8 13
REMARK Flexibility Score: inf
ROOT
ATOM      1  C   UNL     1      20.039  -0.883 -19.508  1.00  0.00     0.001 A 
ATOM      2  C   UNL     1      20.135  -1.387 -20.816  1.00  0.00     0.060 A 
ATOM      3  C   UNL     1      20.642   0.349 -19.208  1.00  0.00     0.014 A 
ATOM      4  C   UNL     1      20.818  -0.678 -21.814  1.00  0.00     0.158 A 
ATOM      5  C   UNL     1      21.325   1.061 -20.195  1.00  0.00     0.051 A 
ATOM      6  C   UNL     1      21.420   0.562 -21.499  1.00  0.00     0.157 A 
ENDROOT
BRANCH   1   7
ATOM      7  C   UNL     1      19.314  -1.643 -18.465  1.00  0.00     0.072 C 
ATOM      8  O   UNL     1      19.085  -1.127 -17.338  1.00  0.00    -0.545 OA
ATOM      9  O   UNL     1      18.876  -2.938 -18.714  1.00  0.00    -0.545 OA
ENDBRANCH   1   7
BRANCH   4  10
ATOM     10  O   UNL     1      20.871  -1.241 -23.091  1.00  0.00    -0.504 OA
ATOM     11  H   UNL     1      21.111  -0.724 -23.925  1.00  0.00     0.293 HD
ENDBRANCH   4  10
BRANCH   6  12
ATOM     12  O   UNL     1      22.117   1.323 -22.440  1.00  0.00    -0.504 OA
ATOM     13  H   UNL     1      23.123   1.346 -22.514  1.00  0.00     0.293 HD
ENDBRANCH   6  12
TORSDOF 3
ENDMDL
MODEL 5
REMARK VINA RESULT:    -4.635      1.504      2.142
REMARK INTER + INTRA:          -5.221
REMARK INTER:                  -5.183
REMARK INTRA:                  -0.038
REMARK UNBOUND:                -0.044
REMARK SMILES O=C([O-])c1ccc(O)c(O)c1
REMARK SMILES IDX 4 1 11 2 5 3 9 4 6 5 7 6 2 7 1 8 3 9 10 10 8 12
REMARK H PARENT 10 11 8 13
REMARK Flexibility Score: inf
ROOT
ATOM      1  C   UNL     1      19.663  -1.233 -18.918  1.00  0.00     0.001 A 
ATOM      2  C   UNL     1      20.798  -0.608 -18.376  1.00  0.00     0.060 A 
ATOM      3  C   UNL     1      19.176  -0.798 -20.161  1.00  0.00     0.014 A 
ATOM      4  C   UNL     1      21.444   0.433 -19.057  1.00  0.00     0.158 A 
ATOM      5  C   UNL     1      19.812   0.238 -20.846  1.00  0.00     0.051 A 
ATOM      6  C   UNL     1      20.944   0.861 -20.310  1.00  0.00     0.157 A 
ENDROOT
BRANCH   1   7
ATOM      7  C   UNL     1      18.992  -2.331 -18.187  1.00  0.00     0.072 C 
ATOM      8  O   UNL     1      18.534  -2.143 -17.028  1.00  0.00    -0.545 OA
ATOM      9  O   UNL     1      18.857  -3.585 -18.769  1.00  0.00    -0.545 OA
ENDBRANCH   1   7
BRANCH   4  10
ATOM     10  O   UNL     1      22.567   1.006 -18.457  1.00  0.00    -0.504 OA
ATOM     11  H   UNL     1      22.568   1.911 -18.010  1.00  0.00     0.293 HD
ENDBRANCH   4  10
BRANCH   6  12
ATOM     12  O   UNL     1      21.534   1.891 -21.045  1.00  0.00    -0.504 OA
ATOM     13  H   UNL     1      22.104   1.745 -21.865  1.00  0.00     0.293 HD
ENDBRANCH   6  12
TORSDOF 3
ENDMDL
MODEL 6
REMARK VINA RESULT:    -4.364     16.316     17.582
REMARK INTER + INTRA:          -4.919
REMARK INTER:                  -4.881
REMARK INTRA:                  -0.038
REMARK UNBOUND:                -0.044
REMARK SMILES O=C([O-])c1ccc(O)c(O)c1
REMARK SMILES IDX 4 1 11 2 5 3 9 4 6 5 7 6 2 7 1 8 3 9 10 10 8 12
REMARK H PARENT 10 11 8 13
REMARK Flexibility Score: inf
ROOT
ATOM      1  C   UNL     1       8.681  -6.800 -10.154  1.00  0.00     0.001 A 
ATOM      2  C   UNL     1      10.072  -6.651 -10.026  1.00  0.00     0.060 A 
ATOM      3  C   UNL     1       7.858  -6.446  -9.073  1.00  0.00     0.014 A 
ATOM      4  C   UNL     1      10.640  -6.156  -8.845  1.00  0.00     0.158 A 
ATOM      5  C   UNL     1       8.414  -5.953  -7.893  1.00  0.00     0.051 A 
ATOM      6  C   UNL     1       9.799  -5.801  -7.764  1.00  0.00     0.157 A 
ENDROOT
BRANCH   1   7
ATOM      7  C   UNL     1       8.097  -7.325 -11.409  1.00  0.00     0.072 C 
ATOM      8  O   UNL     1       8.313  -6.747 -12.507  1.00  0.00    -0.545 OA
ATOM      9  O   UNL     1       7.301  -8.464 -11.392  1.00  0.00    -0.545 OA
ENDBRANCH   1   7
BRANCH   4  10
ATOM     10  O   UNL     1      12.030  -6.035  -8.791  1.00  0.00    -0.504 OA
ATOM     11  H   UNL     1      12.652  -6.340  -9.526  1.00  0.00     0.293 HD
ENDBRANCH   4  10
BRANCH   6  12
ATOM     12  O   UNL     1      10.292  -5.303  -6.556  1.00  0.00    -0.504 OA
ATOM     13  H   UNL     1      10.686  -5.879  -5.826  1.00  0.00     0.293 HD
ENDBRANCH   6  12
TORSDOF 3
ENDMDL
MODEL 7
REMARK VINA RESULT:    -4.337     16.116     18.040
REMARK INTER + INTRA:          -4.889
REMARK INTER:                  -4.853
REMARK INTRA:                  -0.036
REMARK UNBOUND:                -0.044
REMARK SMILES O=C([O-])c1ccc(O)c(O)c1
REMARK SMILES IDX 4 1 11 2 5 3 9 4 6 5 7 6 2 7 1 8 3 9 10 10 8 12
REMARK H PARENT 10 11 8 13
REMARK Flexibility Score: inf
ROOT
ATOM      1  C   UNL     1       9.818  -6.076  -8.947  1.00  0.00     0.001 A 
ATOM      2  C   UNL     1       9.312  -5.983  -7.640  1.00  0.00     0.060 A 
ATOM      3  C   UNL     1       9.056  -5.564 -10.009  1.00  0.00     0.014 A 
ATOM      4  C   UNL     1       8.068  -5.388  -7.388  1.00  0.00     0.158 A 
ATOM      5  C   UNL     1       7.816  -4.972  -9.768  1.00  0.00     0.051 A 
ATOM      6  C   UNL     1       7.311  -4.876  -8.467  1.00  0.00     0.157 A 
ENDROOT
BRANCH   1   7
ATOM      7  C   UNL     1      11.134  -6.707  -9.197  1.00  0.00     0.072 C 
ATOM      8  O   UNL     1      12.179  -6.006  -9.256  1.00  0.00    -0.545 OA
ATOM      9  O   UNL     1      11.234  -8.082  -9.368  1.00  0.00    -0.545 OA
ENDBRANCH   1   7
BRANCH   4  10
ATOM     10  O   UNL     1       7.630  -5.330  -6.064  1.00  0.00    -0.504 OA
ATOM     11  H   UNL     1       7.480  -4.470  -5.556  1.00  0.00     0.293 HD
ENDBRANCH   4  10
BRANCH   6  12
ATOM     12  O   UNL     1       6.064  -4.271  -8.294  1.00  0.00    -0.504 OA
ATOM     13  H   UNL     1       5.844  -3.333  -8.594  1.00  0.00     0.293 HD
ENDBRANCH   6  12
TORSDOF 3
ENDMDL
MODEL 8
REMARK VINA RESULT:    -4.308     15.391     18.099
REMARK INTER + INTRA:          -4.856
REMARK INTER:                  -4.818
REMARK INTRA:                  -0.038
REMARK UNBOUND:                -0.044
REMARK SMILES O=C([O-])c1ccc(O)c(O)c1
REMARK SMILES IDX 4 1 11 2 5 3 9 4 6 5 7 6 2 7 1 8 3 9 10 10 8 12
REMARK H PARENT 10 11 8 13
REMARK Flexibility Score: inf
ROOT
ATOM      1  C   UNL     1       9.349  -5.757  -9.555  1.00  0.00     0.001 A 
ATOM      2  C   UNL     1       8.040  -5.266  -9.424  1.00  0.00     0.060 A 
ATOM      3  C   UNL     1      10.068  -6.093  -8.397  1.00  0.00     0.014 A 
ATOM      4  C   UNL     1       7.449  -5.110  -8.163  1.00  0.00     0.158 A 
ATOM      5  C   UNL     1       9.488  -5.941  -7.137  1.00  0.00     0.051 A 
ATOM      6  C   UNL     1       8.184  -5.453  -7.004  1.00  0.00     0.157 A 
ENDROOT
BRANCH   1   7
ATOM      7  C   UNL     1       9.958  -5.916 -10.895  1.00  0.00     0.072 C 
ATOM      8  O   UNL     1      11.046  -5.345 -11.176  1.00  0.00    -0.545 OA
ATOM      9  O   UNL     1       9.339  -6.698 -11.862  1.00  0.00    -0.545 OA
ENDBRANCH   1   7
BRANCH   4  10
ATOM     10  O   UNL     1       6.144  -4.616  -8.111  1.00  0.00    -0.504 OA
ATOM     11  H   UNL     1       5.883  -3.682  -8.391  1.00  0.00     0.293 HD
ENDBRANCH   4  10
BRANCH   6  12
ATOM     12  O   UNL     1       7.662  -5.324  -5.715  1.00  0.00    -0.504 OA
ATOM     13  H   UNL     1       7.151  -4.517  -5.391  1.00  0.00     0.293 HD
ENDBRANCH   6  12
TORSDOF 3
ENDMDL
MODEL 9
REMARK VINA RESULT:    -4.279     16.162     17.422
REMARK INTER + INTRA:          -4.824
REMARK INTER:                  -4.786
REMARK INTRA:                  -0.038
REMARK UNBOUND:                -0.044
REMARK SMILES O=C([O-])c1ccc(O)c(O)c1
REMARK SMILES IDX 4 1 11 2 5 3 9 4 6 5 7 6 2 7 1 8 3 9 10 10 8 12
REMARK H PARENT 10 11 8 13
REMARK Flexibility Score: inf
ROOT
ATOM      1  C   UNL     1       8.685  -5.598 -10.547  1.00  0.00     0.001 A 
ATOM      2  C   UNL     1       8.013  -5.239  -9.366  1.00  0.00     0.060 A 
ATOM      3  C   UNL     1      10.008  -6.059 -10.463  1.00  0.00     0.014 A 
ATOM      4  C   UNL     1       8.643  -5.338  -8.119  1.00  0.00     0.158 A 
ATOM      5  C   UNL     1      10.644  -6.160  -9.225  1.00  0.00     0.051 A 
ATOM      6  C   UNL     1       9.977  -5.805  -8.047  1.00  0.00     0.157 A 
ENDROOT
BRANCH   1   7
ATOM      7  C   UNL     1       8.005  -5.488 -11.857  1.00  0.00     0.072 C 
ATOM      8  O   UNL     1       7.594  -4.373 -12.274  1.00  0.00    -0.545 OA
ATOM      9  O   UNL     1       7.812  -6.616 -12.647  1.00  0.00    -0.545 OA
ENDBRANCH   1   7
BRANCH   4  10
ATOM     10  O   UNL     1       7.913  -4.964  -6.988  1.00  0.00    -0.504 OA
ATOM     11  H   UNL     1       8.198  -5.164  -6.041  1.00  0.00     0.293 HD
ENDBRANCH   4  10
BRANCH   6  12
ATOM     12  O   UNL     1      10.669  -5.929  -6.841  1.00  0.00    -0.504 OA
ATOM     13  H   UNL     1      10.426  -6.588  -6.116  1.00  0.00     0.293 HD
ENDBRANCH   6  12
TORSDOF 3
ENDMDL
