MODEL 1
REMARK VINA RESULT:    -3.541      0.000      0.000
REMARK INTER + INTRA:          -3.644
REMARK INTER:                  -3.644
REMARK INTRA:                   0.000
REMARK UNBOUND:                 0.000
REMARK SMILES Oc1ccc2[nH]ccc2c1
REMARK SMILES IDX 3 1 4 2 5 3 9 4 8 5 7 6 6 7 10 8 2 9 1 11
REMARK H PARENT 6 10 1 12
REMARK Flexibility Score: inf
ROOT
ATOM      1  C   UNL     1      74.733  12.091  46.509  1.00  0.00     0.048 A 
ATOM      2  C   UNL     1      74.773  11.593  47.825  1.00  0.00     0.030 A 
ATOM      3  C   UNL     1      75.985  11.088  48.292  1.00  0.00     0.046 A 
ATOM      4  C   UNL     1      77.108  11.070  47.508  1.00  0.00     0.003 A 
ATOM      5  C   UNL     1      78.124  10.515  48.255  1.00  0.00     0.028 A 
ATOM      6  C   UNL     1      77.548  10.218  49.486  1.00  0.00     0.083 A 
ATOM      7  N   UNL     1      76.242  10.569  49.503  1.00  0.00    -0.361 N 
ATOM      8  C   UNL     1      77.102  11.554  46.201  1.00  0.00     0.056 A 
ATOM      9  C   UNL     1      75.890  12.074  45.697  1.00  0.00     0.116 A 
ATOM     10  H   UNL     1      75.574  10.459  50.298  1.00  0.00     0.166 HD
ENDROOT
BRANCH   9  11
ATOM     11  O   UNL     1      75.823  12.572  44.398  1.00  0.00    -0.508 OA
ATOM     12  H   UNL     1      76.661  12.779  43.867  1.00  0.00     0.293 HD
ENDBRANCH   9  11
TORSDOF 1
ENDMDL
MODEL 2
REMARK VINA RESULT:    -3.509     21.794     23.100
REMARK INTER + INTRA:          -3.611
REMARK INTER:                  -3.611
REMARK INTRA:                   0.000
REMARK UNBOUND:                 0.000
REMARK SMILES Oc1ccc2[nH]ccc2c1
REMARK SMILES IDX 3 1 4 2 5 3 9 4 8 5 7 6 6 7 10 8 2 9 1 11
REMARK H PARENT 6 10 1 12
REMARK Flexibility Score: inf
ROOT
ATOM      1  C   UNL     1      63.003   5.957  31.396  1.00  0.00     0.048 A 
ATOM      2  C   UNL     1      62.137   4.847  31.413  1.00  0.00     0.030 A 
ATOM      3  C   UNL     1      60.775   5.082  31.237  1.00  0.00     0.046 A 
ATOM      4  C   UNL     1      60.280   6.346  31.051  1.00  0.00     0.003 A 
ATOM      5  C   UNL     1      58.914   6.237  30.910  1.00  0.00     0.028 A 
ATOM      6  C   UNL     1      58.645   4.877  31.020  1.00  0.00     0.083 A 
ATOM      7  N   UNL     1      59.785   4.176  31.220  1.00  0.00    -0.361 N 
ATOM      8  C   UNL     1      61.110   7.465  31.029  1.00  0.00     0.056 A 
ATOM      9  C   UNL     1      62.496   7.263  31.204  1.00  0.00     0.116 A 
ATOM     10  H   UNL     1      59.872   3.142  31.336  1.00  0.00     0.166 HD
ENDROOT
BRANCH   9  11
ATOM     11  O   UNL     1      63.374   8.344  31.191  1.00  0.00    -0.508 OA
ATOM     12  H   UNL     1      63.993   8.512  30.408  1.00  0.00     0.293 HD
ENDBRANCH   9  11
TORSDOF 1
ENDMDL
MODEL 3
REMARK VINA RESULT:    -3.371     21.831     23.077
REMARK INTER + INTRA:          -3.469
REMARK INTER:                  -3.469
REMARK INTRA:                   0.000
REMARK UNBOUND:                 0.000
REMARK SMILES Oc1ccc2[nH]ccc2c1
REMARK SMILES IDX 3 1 4 2 5 3 9 4 8 5 7 6 6 7 10 8 2 9 1 11
REMARK H PARENT 6 10 1 12
REMARK Flexibility Score: inf
ROOT
ATOM      1  C   UNL     1      62.736   6.754  31.366  1.00  0.00     0.048 A 
ATOM      2  C   UNL     1      61.467   7.364  31.352  1.00  0.00     0.030 A 
ATOM      3  C   UNL     1      60.347   6.535  31.341  1.00  0.00     0.046 A 
ATOM      4  C   UNL     1      60.462   5.170  31.343  1.00  0.00     0.003 A 
ATOM      5  C   UNL     1      59.186   4.649  31.331  1.00  0.00     0.028 A 
ATOM      6  C   UNL     1      58.343   5.756  31.321  1.00  0.00     0.083 A 
ATOM      7  N   UNL     1      59.057   6.905  31.328  1.00  0.00    -0.361 N 
ATOM      8  C   UNL     1      61.702   4.535  31.356  1.00  0.00     0.056 A 
ATOM      9  C   UNL     1      62.857   5.346  31.368  1.00  0.00     0.116 A 
ATOM     10  H   UNL     1      58.678   7.878  31.324  1.00  0.00     0.166 HD
ENDROOT
BRANCH   9  11
ATOM     11  O   UNL     1      64.125   4.767  31.380  1.00  0.00    -0.508 OA
ATOM     12  H   UNL     1      64.898   5.200  31.871  1.00  0.00     0.293 HD
ENDBRANCH   9  11
TORSDOF 1
ENDMDL
MODEL 4
REMARK VINA RESULT:    -3.356     18.119     19.151
REMARK INTER + INTRA:          -3.454
REMARK INTER:                  -3.454
REMARK INTRA:                   0.000
REMARK UNBOUND:                 0.000
REMARK SMILES Oc1ccc2[nH]ccc2c1
REMARK SMILES IDX 3 1 4 2 5 3 9 4 8 5 7 6 6 7 10 8 2 9 1 11
REMARK H PARENT 6 10 1 12
REMARK Flexibility Score: inf
ROOT
ATOM      1  C   UNL     1      58.941   4.432  47.463  1.00  0.00     0.048 A 
ATOM      2  C   UNL     1      58.108   3.514  46.796  1.00  0.00     0.030 A 
ATOM      3  C   UNL     1      58.654   2.285  46.432  1.00  0.00     0.046 A 
ATOM      4  C   UNL     1      59.958   1.966  46.707  1.00  0.00     0.003 A 
ATOM      5  C   UNL     1      60.183   0.696  46.223  1.00  0.00     0.028 A 
ATOM      6  C   UNL     1      58.971   0.301  45.665  1.00  0.00     0.083 A 
ATOM      7  N   UNL     1      58.042   1.274  45.795  1.00  0.00    -0.361 N 
ATOM      8  C   UNL     1      60.809   2.852  47.365  1.00  0.00     0.056 A 
ATOM      9  C   UNL     1      60.287   4.106  47.748  1.00  0.00     0.116 A 
ATOM     10  H   UNL     1      57.051   1.242  45.467  1.00  0.00     0.166 HD
ENDROOT
BRANCH   9  11
ATOM     11  O   UNL     1      61.091   5.032  48.408  1.00  0.00    -0.508 OA
ATOM     12  H   UNL     1      62.081   5.111  48.207  1.00  0.00     0.293 HD
ENDBRANCH   9  11
TORSDOF 1
ENDMDL
MODEL 5
REMARK VINA RESULT:    -3.297     21.625     22.923
REMARK INTER + INTRA:          -3.393
REMARK INTER:                  -3.393
REMARK INTRA:                   0.000
REMARK UNBOUND:                 0.000
REMARK SMILES Oc1ccc2[nH]ccc2c1
REMARK SMILES IDX 3 1 4 2 5 3 9 4 8 5 7 6 6 7 10 8 2 9 1 11
REMARK H PARENT 6 10 1 12
REMARK Flexibility Score: inf
ROOT
ATOM      1  C   UNL     1      60.413   4.248  30.902  1.00  0.00     0.048 A 
ATOM      2  C   UNL     1      61.694   4.563  31.394  1.00  0.00     0.030 A 
ATOM      3  C   UNL     1      61.971   5.898  31.679  1.00  0.00     0.046 A 
ATOM      4  C   UNL     1      61.038   6.883  31.492  1.00  0.00     0.003 A 
ATOM      5  C   UNL     1      61.618   8.077  31.863  1.00  0.00     0.028 A 
ATOM      6  C   UNL     1      62.907   7.743  32.266  1.00  0.00     0.083 A 
ATOM      7  N   UNL     1      63.118   6.412  32.152  1.00  0.00    -0.361 N 
ATOM      8  C   UNL     1      59.762   6.606  31.006  1.00  0.00     0.056 A 
ATOM      9  C   UNL     1      59.448   5.262  30.708  1.00  0.00     0.116 A 
ATOM     10  H   UNL     1      63.994   5.894  32.386  1.00  0.00     0.166 HD
ENDROOT
BRANCH   9  11
ATOM     11  O   UNL     1      58.188   4.924  30.218  1.00  0.00    -0.508 OA
ATOM     12  H   UNL     1      57.978   4.965  29.228  1.00  0.00     0.293 HD
ENDBRANCH   9  11
TORSDOF 1
ENDMDL
MODEL 6
REMARK VINA RESULT:    -3.287     17.818     18.460
REMARK INTER + INTRA:          -3.383
REMARK INTER:                  -3.383
REMARK INTRA:                   0.000
REMARK UNBOUND:                 0.000
REMARK SMILES Oc1ccc2[nH]ccc2c1
REMARK SMILES IDX 3 1 4 2 5 3 9 4 8 5 7 6 6 7 10 8 2 9 1 11
REMARK H PARENT 6 10 1 12
REMARK Flexibility Score: inf
ROOT
ATOM      1  C   UNL     1      62.531  14.794  35.869  1.00  0.00     0.048 A 
ATOM      2  C   UNL     1      62.940  14.529  34.548  1.00  0.00     0.030 A 
ATOM      3  C   UNL     1      63.942  15.330  34.004  1.00  0.00     0.046 A 
ATOM      4  C   UNL     1      64.518  16.347  34.719  1.00  0.00     0.003 A 
ATOM      5  C   UNL     1      65.460  16.939  33.906  1.00  0.00     0.028 A 
ATOM      6  C   UNL     1      65.403  16.232  32.710  1.00  0.00     0.083 A 
ATOM      7  N   UNL     1      64.474  15.251  32.775  1.00  0.00    -0.361 N 
ATOM      8  C   UNL     1      64.136  16.636  36.027  1.00  0.00     0.056 A 
ATOM      9  C   UNL     1      63.125  15.842  36.609  1.00  0.00     0.116 A 
ATOM     10  H   UNL     1      64.227  14.571  32.021  1.00  0.00     0.166 HD
ENDROOT
BRANCH   9  11
ATOM     11  O   UNL     1      62.701  16.084  37.914  1.00  0.00    -0.508 OA
ATOM     12  H   UNL     1      62.249  16.954  38.170  1.00  0.00     0.293 HD
ENDBRANCH   9  11
TORSDOF 1
ENDMDL
MODEL 7
REMARK VINA RESULT:    -3.143     18.270     19.287
REMARK INTER + INTRA:          -3.234
REMARK INTER:                  -3.234
REMARK INTRA:                   0.000
REMARK UNBOUND:                 0.000
REMARK SMILES Oc1ccc2[nH]ccc2c1
REMARK SMILES IDX 3 1 4 2 5 3 9 4 8 5 7 6 6 7 10 8 2 9 1 11
REMARK H PARENT 6 10 1 12
REMARK Flexibility Score: inf
ROOT
ATOM      1  C   UNL     1      57.875   1.236  47.325  1.00  0.00     0.048 A 
ATOM      2  C   UNL     1      57.984   2.565  47.776  1.00  0.00     0.030 A 
ATOM      3  C   UNL     1      59.178   3.240  47.529  1.00  0.00     0.046 A 
ATOM      4  C   UNL     1      60.220   2.643  46.869  1.00  0.00     0.003 A 
ATOM      5  C   UNL     1      61.239   3.566  46.787  1.00  0.00     0.028 A 
ATOM      6  C   UNL     1      60.749   4.704  47.418  1.00  0.00     0.083 A 
ATOM      7  N   UNL     1      59.490   4.500  47.870  1.00  0.00    -0.361 N 
ATOM      8  C   UNL     1      60.144   1.329  46.410  1.00  0.00     0.056 A 
ATOM      9  C   UNL     1      58.948   0.617  46.643  1.00  0.00     0.116 A 
ATOM     10  H   UNL     1      58.888   5.185  48.377  1.00  0.00     0.166 HD
ENDROOT
BRANCH   9  11
ATOM     11  O   UNL     1      58.815  -0.699  46.208  1.00  0.00    -0.508 OA
ATOM     12  H   UNL     1      57.971  -1.231  46.384  1.00  0.00     0.293 HD
ENDBRANCH   9  11
TORSDOF 1
ENDMDL
MODEL 8
REMARK VINA RESULT:    -3.141      1.469      2.198
REMARK INTER + INTRA:          -3.232
REMARK INTER:                  -3.232
REMARK INTRA:                   0.000
REMARK UNBOUND:                 0.000
REMARK SMILES Oc1ccc2[nH]ccc2c1
REMARK SMILES IDX 3 1 4 2 5 3 9 4 8 5 7 6 6 7 10 8 2 9 1 11
REMARK H PARENT 6 10 1 12
REMARK Flexibility Score: inf
ROOT
ATOM      1  C   UNL     1      75.293  11.648  45.771  1.00  0.00     0.048 A 
ATOM      2  C   UNL     1      76.629  11.398  46.140  1.00  0.00     0.030 A 
ATOM      3  C   UNL     1      76.896  11.152  47.485  1.00  0.00     0.046 A 
ATOM      4  C   UNL     1      75.903  11.150  48.429  1.00  0.00     0.003 A 
ATOM      5  C   UNL     1      76.490  10.878  49.645  1.00  0.00     0.028 A 
ATOM      6  C   UNL     1      77.845  10.724  49.367  1.00  0.00     0.083 A 
ATOM      7  N   UNL     1      78.087  10.893  48.047  1.00  0.00    -0.361 N 
ATOM      8  C   UNL     1      74.572  11.395  48.097  1.00  0.00     0.056 A 
ATOM      9  C   UNL     1      74.266  11.647  46.742  1.00  0.00     0.116 A 
ATOM     10  H   UNL     1      79.013  10.831  47.568  1.00  0.00     0.166 HD
ENDROOT
BRANCH   9  11
ATOM     11  O   UNL     1      72.953  11.899  46.351  1.00  0.00    -0.508 OA
ATOM     12  H   UNL     1      72.634  12.838  46.145  1.00  0.00     0.293 HD
ENDBRANCH   9  11
TORSDOF 1
ENDMDL
MODEL 9
REMARK VINA RESULT:    -3.095     22.322     23.060
REMARK INTER + INTRA:          -3.185
REMARK INTER:                  -3.185
REMARK INTRA:                   0.000
REMARK UNBOUND:                 0.000
REMARK SMILES Oc1ccc2[nH]ccc2c1
REMARK SMILES IDX 3 1 4 2 5 3 9 4 8 5 7 6 6 7 10 8 2 9 1 11
REMARK H PARENT 6 10 1 12
REMARK Flexibility Score: inf
ROOT
ATOM      1  C   UNL     1      61.212   4.155  31.335  1.00  0.00     0.048 A 
ATOM      2  C   UNL     1      59.882   4.295  31.776  1.00  0.00     0.030 A 
ATOM      3  C   UNL     1      59.451   5.567  32.149  1.00  0.00     0.046 A 
ATOM      4  C   UNL     1      60.282   6.654  32.095  1.00  0.00     0.003 A 
ATOM      5  C   UNL     1      59.561   7.746  32.525  1.00  0.00     0.028 A 
ATOM      6  C   UNL     1      58.296   7.250  32.825  1.00  0.00     0.083 A 
ATOM      7  N   UNL     1      58.234   5.919  32.595  1.00  0.00    -0.361 N 
ATOM      8  C   UNL     1      61.603   6.550  31.664  1.00  0.00     0.056 A 
ATOM      9  C   UNL     1      62.072   5.276  31.278  1.00  0.00     0.116 A 
ATOM     10  H   UNL     1      57.407   5.297  32.734  1.00  0.00     0.166 HD
ENDROOT
BRANCH   9  11
ATOM     11  O   UNL     1      63.384   5.110  30.839  1.00  0.00    -0.508 OA
ATOM     12  H   UNL     1      64.152   5.610  31.270  1.00  0.00     0.293 HD
ENDBRANCH   9  11
TORSDOF 1
ENDMDL
