MODEL 1
REMARK VINA RESULT:    -4.175      0.000      0.000
REMARK INTER + INTRA:          -5.785
REMARK INTER:                  -5.395
REMARK INTRA:                  -0.390
REMARK UNBOUND:                -0.390
REMARK SMILES CO[C@@]1(CO)O[C@H](CO)[C@@H](O)[C@@H]1O
REMARK SMILES IDX 3 1 12 2 10 3 7 4 6 5 2 6 1 7 4 8 5 9 13 11 11 13 8 15 9 16
REMARK H PARENT 5 10 13 12 11 14 9 17
REMARK Flexibility Score: inf
ROOT
ATOM      1  C   UNL     1       7.001  -3.694  -1.532  1.00  0.00     0.221 C 
ATOM      2  C   UNL     1       8.505  -3.500  -1.269  1.00  0.00     0.207 C 
ATOM      3  C   UNL     1       9.036  -4.906  -1.300  1.00  0.00     0.180 C 
ATOM      4  C   UNL     1       8.085  -5.584  -2.281  1.00  0.00     0.179 C 
ATOM      5  O   UNL     1       6.863  -4.878  -2.306  1.00  0.00    -0.337 OA
ENDROOT
BRANCH   1   6
ATOM      6  O   UNL     1       6.534  -2.547  -2.237  1.00  0.00    -0.349 OA
ATOM      7  C   UNL     1       7.499  -2.019  -3.125  1.00  0.00     0.198 C 
ENDBRANCH   1   6
BRANCH   1   8
ATOM      8  C   UNL     1       6.203  -3.876  -0.214  1.00  0.00     0.224 C 
BRANCH   8   9
ATOM      9  O   UNL     1       5.078  -3.040  -0.200  1.00  0.00    -0.391 OA
ATOM     10  H   UNL     1       4.289  -3.636  -0.274  1.00  0.00     0.210 HD
ENDBRANCH   8   9
ENDBRANCH   1   8
BRANCH   2  11
ATOM     11  O   UNL     1       8.769  -2.871  -0.041  1.00  0.00    -0.385 OA
ATOM     12  H   UNL     1       8.699  -3.573   0.657  1.00  0.00     0.211 HD
ENDBRANCH   2  11
BRANCH   3  13
ATOM     13  O   UNL     1      10.356  -4.946  -1.777  1.00  0.00    -0.387 OA
ATOM     14  H   UNL     1      10.679  -5.874  -1.637  1.00  0.00     0.211 HD
ENDBRANCH   3  13
BRANCH   4  15
ATOM     15  C   UNL     1       7.822  -7.052  -1.919  1.00  0.00     0.191 C 
BRANCH  15  16
ATOM     16  O   UNL     1       8.801  -7.533  -1.038  1.00  0.00    -0.394 OA
ATOM     17  H   UNL     1       9.309  -8.229  -1.531  1.00  0.00     0.210 HD
ENDBRANCH  15  16
ENDBRANCH   4  15
TORSDOF 7
ENDMDL
MODEL 2
REMARK VINA RESULT:    -4.064      1.395      3.922
REMARK INTER + INTRA:          -5.642
REMARK INTER:                  -5.140
REMARK INTRA:                  -0.502
REMARK UNBOUND:                -0.390
REMARK SMILES CO[C@@]1(CO)O[C@H](CO)[C@@H](O)[C@@H]1O
REMARK SMILES IDX 3 1 12 2 10 3 7 4 6 5 2 6 1 7 4 8 5 9 13 11 11 13 8 15 9 16
REMARK H PARENT 5 10 13 12 11 14 9 17
REMARK Flexibility Score: inf
ROOT
ATOM      1  C   UNL     1       8.653  -4.674  -1.825  1.00  0.00     0.221 C 
ATOM      2  C   UNL     1       8.105  -3.933  -0.594  1.00  0.00     0.207 C 
ATOM      3  C   UNL     1       6.711  -3.560  -1.019  1.00  0.00     0.180 C 
ATOM      4  C   UNL     1       6.354  -4.698  -1.970  1.00  0.00     0.179 C 
ATOM      5  O   UNL     1       7.541  -5.258  -2.490  1.00  0.00    -0.337 OA
ENDROOT
BRANCH   1   6
ATOM      6  O   UNL     1       9.568  -5.664  -1.361  1.00  0.00    -0.349 OA
ATOM      7  C   UNL     1       9.111  -6.982  -1.589  1.00  0.00     0.198 C 
ENDBRANCH   1   6
BRANCH   1   8
ATOM      8  C   UNL     1       9.361  -3.710  -2.813  1.00  0.00     0.224 C 
BRANCH   8   9
ATOM      9  O   UNL     1      10.742  -3.680  -2.569  1.00  0.00    -0.391 OA
ATOM     10  H   UNL     1      11.095  -4.556  -2.870  1.00  0.00     0.210 HD
ENDBRANCH   8   9
ENDBRANCH   1   8
BRANCH   2  11
ATOM     11  O   UNL     1       8.864  -2.801  -0.254  1.00  0.00    -0.385 OA
ATOM     12  H   UNL     1       9.639  -3.127   0.273  1.00  0.00     0.211 HD
ENDBRANCH   2  11
BRANCH   3  13
ATOM     13  O   UNL     1       5.832  -3.531   0.076  1.00  0.00    -0.387 OA
ATOM     14  H   UNL     1       4.917  -3.639  -0.294  1.00  0.00     0.211 HD
ENDBRANCH   3  13
BRANCH   4  15
ATOM     15  C   UNL     1       5.457  -4.234  -3.125  1.00  0.00     0.191 C 
BRANCH  15  16
ATOM     16  O   UNL     1       4.335  -3.546  -2.641  1.00  0.00    -0.394 OA
ATOM     17  H   UNL     1       3.571  -4.179  -2.691  1.00  0.00     0.210 HD
ENDBRANCH  15  16
ENDBRANCH   4  15
TORSDOF 7
ENDMDL
MODEL 3
REMARK VINA RESULT:    -4.034      1.497      2.177
REMARK INTER + INTRA:          -5.603
REMARK INTER:                  -5.057
REMARK INTRA:                  -0.546
REMARK UNBOUND:                -0.390
REMARK SMILES CO[C@@]1(CO)O[C@H](CO)[C@@H](O)[C@@H]1O
REMARK SMILES IDX 3 1 12 2 10 3 7 4 6 5 2 6 1 7 4 8 5 9 13 11 11 13 8 15 9 16
REMARK H PARENT 5 10 13 12 11 14 9 17
REMARK Flexibility Score: inf
ROOT
ATOM      1  C   UNL     1       7.045  -3.530  -2.448  1.00  0.00     0.221 C 
ATOM      2  C   UNL     1       7.086  -3.215  -0.943  1.00  0.00     0.207 C 
ATOM      3  C   UNL     1       8.208  -4.086  -0.448  1.00  0.00     0.180 C 
ATOM      4  C   UNL     1       9.122  -4.151  -1.668  1.00  0.00     0.179 C 
ATOM      5  O   UNL     1       8.360  -3.908  -2.832  1.00  0.00    -0.337 OA
ENDROOT
BRANCH   1   6
ATOM      6  O   UNL     1       6.619  -2.350  -3.125  1.00  0.00    -0.349 OA
ATOM      7  C   UNL     1       7.388  -1.214  -2.784  1.00  0.00     0.198 C 
ENDBRANCH   1   6
BRANCH   1   8
ATOM      8  C   UNL     1       6.086  -4.707  -2.767  1.00  0.00     0.224 C 
BRANCH   8   9
ATOM      9  O   UNL     1       4.761  -4.256  -2.849  1.00  0.00    -0.391 OA
ATOM     10  H   UNL     1       4.251  -4.770  -2.172  1.00  0.00     0.210 HD
ENDBRANCH   8   9
ENDBRANCH   1   8
BRANCH   2  11
ATOM     11  O   UNL     1       5.877  -3.505  -0.290  1.00  0.00    -0.385 OA
ATOM     12  H   UNL     1       5.667  -4.454  -0.491  1.00  0.00     0.211 HD
ENDBRANCH   2  11
BRANCH   3  13
ATOM     13  O   UNL     1       8.872  -3.498   0.641  1.00  0.00    -0.387 OA
ATOM     14  H   UNL     1       8.263  -2.801   1.000  1.00  0.00     0.211 HD
ENDBRANCH   3  13
BRANCH   4  15
ATOM     15  C   UNL     1       9.832  -5.506  -1.794  1.00  0.00     0.191 C 
BRANCH  15  16
ATOM     16  O   UNL     1      10.633  -5.756  -0.670  1.00  0.00    -0.394 OA
ATOM     17  H   UNL     1      11.574  -5.759  -0.988  1.00  0.00     0.210 HD
ENDBRANCH  15  16
ENDBRANCH   4  15
TORSDOF 7
ENDMDL
MODEL 4
REMARK VINA RESULT:    -3.699      1.516      2.126
REMARK INTER + INTRA:          -5.170
REMARK INTER:                  -4.667
REMARK INTRA:                  -0.503
REMARK UNBOUND:                -0.390
REMARK SMILES CO[C@@]1(CO)O[C@H](CO)[C@@H](O)[C@@H]1O
REMARK SMILES IDX 3 1 12 2 10 3 7 4 6 5 2 6 1 7 4 8 5 9 13 11 11 13 8 15 9 16
REMARK H PARENT 5 10 13 12 11 14 9 17
REMARK Flexibility Score: inf
ROOT
ATOM      1  C   UNL     1       8.209  -3.887  -1.713  1.00  0.00     0.221 C 
ATOM      2  C   UNL     1       9.280  -4.984  -1.842  1.00  0.00     0.207 C 
ATOM      3  C   UNL     1       8.486  -6.176  -2.304  1.00  0.00     0.180 C 
ATOM      4  C   UNL     1       7.363  -5.520  -3.102  1.00  0.00     0.179 C 
ATOM      5  O   UNL     1       7.181  -4.196  -2.643  1.00  0.00    -0.337 OA
ENDROOT
BRANCH   1   6
ATOM      6  O   UNL     1       8.831  -2.640  -2.013  1.00  0.00    -0.349 OA
ATOM      7  C   UNL     1       7.914  -1.664  -2.463  1.00  0.00     0.198 C 
ENDBRANCH   1   6
BRANCH   1   8
ATOM      8  C   UNL     1       7.588  -3.849  -0.292  1.00  0.00     0.224 C 
BRANCH   8   9
ATOM      9  O   UNL     1       8.522  -3.381   0.643  1.00  0.00    -0.391 OA
ATOM     10  H   UNL     1       7.999  -2.925   1.352  1.00  0.00     0.210 HD
ENDBRANCH   8   9
ENDBRANCH   1   8
BRANCH   2  11
ATOM     11  O   UNL     1       9.947  -5.242  -0.633  1.00  0.00    -0.385 OA
ATOM     12  H   UNL     1      10.919  -5.211  -0.833  1.00  0.00     0.211 HD
ENDBRANCH   2  11
BRANCH   3  13
ATOM     13  O   UNL     1       9.254  -7.017  -3.125  1.00  0.00    -0.387 OA
ATOM     14  H   UNL     1       9.426  -7.842  -2.600  1.00  0.00     0.211 HD
ENDBRANCH   3  13
BRANCH   4  15
ATOM     15  C   UNL     1       6.040  -6.289  -2.988  1.00  0.00     0.191 C 
BRANCH  15  16
ATOM     16  O   UNL     1       6.270  -7.629  -2.645  1.00  0.00    -0.394 OA
ATOM     17  H   UNL     1       6.780  -8.030  -3.396  1.00  0.00     0.210 HD
ENDBRANCH  15  16
ENDBRANCH   4  15
TORSDOF 7
ENDMDL
MODEL 5
REMARK VINA RESULT:    -3.663      1.844      4.249
REMARK INTER + INTRA:          -5.124
REMARK INTER:                  -4.640
REMARK INTRA:                  -0.484
REMARK UNBOUND:                -0.390
REMARK SMILES CO[C@@]1(CO)O[C@H](CO)[C@@H](O)[C@@H]1O
REMARK SMILES IDX 3 1 12 2 10 3 7 4 6 5 2 6 1 7 4 8 5 9 13 11 11 13 8 15 9 16
REMARK H PARENT 5 10 13 12 11 14 9 17
REMARK Flexibility Score: inf
ROOT
ATOM      1  C   UNL     1       9.864  -5.755  -2.098  1.00  0.00     0.221 C 
ATOM      2  C   UNL     1       8.589  -6.381  -2.689  1.00  0.00     0.207 C 
ATOM      3  C   UNL     1       7.490  -5.662  -1.954  1.00  0.00     0.180 C 
ATOM      4  C   UNL     1       8.124  -4.301  -1.686  1.00  0.00     0.179 C 
ATOM      5  O   UNL     1       9.530  -4.436  -1.689  1.00  0.00    -0.337 OA
ENDROOT
BRANCH   1   6
ATOM      6  O   UNL     1      10.857  -5.754  -3.120  1.00  0.00    -0.349 OA
ATOM      7  C   UNL     1      11.711  -4.630  -3.053  1.00  0.00     0.198 C 
ENDBRANCH   1   6
BRANCH   1   8
ATOM      8  C   UNL     1      10.371  -6.537  -0.858  1.00  0.00     0.224 C 
BRANCH   8   9
ATOM      9  O   UNL     1      10.785  -5.652   0.148  1.00  0.00    -0.391 OA
ATOM     10  H   UNL     1       9.970  -5.411   0.658  1.00  0.00     0.210 HD
ENDBRANCH   8   9
ENDBRANCH   1   8
BRANCH   2  11
ATOM     11  O   UNL     1       8.520  -7.770  -2.494  1.00  0.00    -0.385 OA
ATOM     12  H   UNL     1       9.099  -7.977  -1.715  1.00  0.00     0.211 HD
ENDBRANCH   2  11
BRANCH   3  13
ATOM     13  O   UNL     1       6.342  -5.528  -2.752  1.00  0.00    -0.387 OA
ATOM     14  H   UNL     1       6.656  -5.277  -3.659  1.00  0.00     0.211 HD
ENDBRANCH   3  13
BRANCH   4  15
ATOM     15  C   UNL     1       7.669  -3.698  -0.351  1.00  0.00     0.191 C 
BRANCH  15  16
ATOM     16  O   UNL     1       8.760  -3.512   0.511  1.00  0.00    -0.394 OA
ATOM     17  H   UNL     1       9.471  -4.134   0.205  1.00  0.00     0.210 HD
ENDBRANCH  15  16
ENDBRANCH   4  15
TORSDOF 7
ENDMDL
MODEL 6
REMARK VINA RESULT:    -3.434      1.573      1.826
REMARK INTER + INTRA:          -4.828
REMARK INTER:                  -4.683
REMARK INTRA:                  -0.145
REMARK UNBOUND:                -0.390
REMARK SMILES CO[C@@]1(CO)O[C@H](CO)[C@@H](O)[C@@H]1O
REMARK SMILES IDX 3 1 12 2 10 3 7 4 6 5 2 6 1 7 4 8 5 9 13 11 11 13 8 15 9 16
REMARK H PARENT 5 10 13 12 11 14 9 17
REMARK Flexibility Score: inf
ROOT
ATOM      1  C   UNL     1       7.280  -3.841  -2.200  1.00  0.00     0.221 C 
ATOM      2  C   UNL     1       8.516  -2.953  -2.426  1.00  0.00     0.207 C 
ATOM      3  C   UNL     1       9.657  -3.872  -2.084  1.00  0.00     0.180 C 
ATOM      4  C   UNL     1       9.094  -5.235  -2.473  1.00  0.00     0.179 C 
ATOM      5  O   UNL     1       7.684  -5.183  -2.432  1.00  0.00    -0.337 OA
ENDROOT
BRANCH   1   6
ATOM      6  O   UNL     1       6.277  -3.426  -3.124  1.00  0.00    -0.349 OA
ATOM      7  C   UNL     1       5.108  -4.218  -3.055  1.00  0.00     0.198 C 
ENDBRANCH   1   6
BRANCH   1   8
ATOM      8  C   UNL     1       6.749  -3.734  -0.746  1.00  0.00     0.224 C 
BRANCH   8   9
ATOM      9  O   UNL     1       7.801  -3.848   0.173  1.00  0.00    -0.391 OA
ATOM     10  H   UNL     1       8.418  -4.531  -0.197  1.00  0.00     0.210 HD
ENDBRANCH   8   9
ENDBRANCH   1   8
BRANCH   2  11
ATOM     11  O   UNL     1       8.518  -1.802  -1.620  1.00  0.00    -0.385 OA
ATOM     12  H   UNL     1       7.673  -1.319  -1.814  1.00  0.00     0.211 HD
ENDBRANCH   2  11
BRANCH   3  13
ATOM     13  O   UNL     1      10.802  -3.572  -2.840  1.00  0.00    -0.387 OA
ATOM     14  H   UNL     1      10.586  -3.801  -3.782  1.00  0.00     0.211 HD
ENDBRANCH   3  13
BRANCH   4  15
ATOM     15  C   UNL     1       9.593  -6.357  -1.552  1.00  0.00     0.191 C 
BRANCH  15  16
ATOM     16  O   UNL     1      10.304  -5.830  -0.463  1.00  0.00    -0.394 OA
ATOM     17  H   UNL     1      10.505  -4.884  -0.688  1.00  0.00     0.210 HD
ENDBRANCH  15  16
ENDBRANCH   4  15
TORSDOF 7
ENDMDL
MODEL 7
REMARK VINA RESULT:    -3.384      1.385      3.140
REMARK INTER + INTRA:          -4.763
REMARK INTER:                  -4.299
REMARK INTRA:                  -0.465
REMARK UNBOUND:                -0.390
REMARK SMILES CO[C@@]1(CO)O[C@H](CO)[C@@H](O)[C@@H]1O
REMARK SMILES IDX 3 1 12 2 10 3 7 4 6 5 2 6 1 7 4 8 5 9 13 11 11 13 8 15 9 16
REMARK H PARENT 5 10 13 12 11 14 9 17
REMARK Flexibility Score: inf
ROOT
ATOM      1  C   UNL     1       7.527  -4.369  -1.437  1.00  0.00     0.221 C 
ATOM      2  C   UNL     1       7.224  -5.861  -1.662  1.00  0.00     0.207 C 
ATOM      3  C   UNL     1       8.532  -6.395  -2.177  1.00  0.00     0.180 C 
ATOM      4  C   UNL     1       9.542  -5.486  -1.483  1.00  0.00     0.179 C 
ATOM      5  O   UNL     1       8.915  -4.264  -1.153  1.00  0.00    -0.337 OA
ENDROOT
BRANCH   1   6
ATOM      6  O   UNL     1       6.731  -3.929  -0.339  1.00  0.00    -0.349 OA
ATOM      7  C   UNL     1       5.569  -3.236  -0.748  1.00  0.00     0.198 C 
ENDBRANCH   1   6
BRANCH   1   8
ATOM      8  C   UNL     1       7.220  -3.519  -2.698  1.00  0.00     0.224 C 
BRANCH   8   9
ATOM      9  O   UNL     1       8.250  -2.598  -2.934  1.00  0.00    -0.391 OA
ATOM     10  H   UNL     1       8.177  -1.912  -2.222  1.00  0.00     0.210 HD
ENDBRANCH   8   9
ENDBRANCH   1   8
BRANCH   2  11
ATOM     11  O   UNL     1       6.180  -6.074  -2.578  1.00  0.00    -0.385 OA
ATOM     12  H   UNL     1       6.587  -6.497  -3.378  1.00  0.00     0.211 HD
ENDBRANCH   2  11
BRANCH   3  13
ATOM     13  O   UNL     1       8.725  -7.733  -1.797  1.00  0.00    -0.387 OA
ATOM     14  H   UNL     1       7.861  -8.047  -1.421  1.00  0.00     0.211 HD
ENDBRANCH   3  13
BRANCH   4  15
ATOM     15  C   UNL     1      10.775  -5.211  -2.355  1.00  0.00     0.191 C 
BRANCH  15  16
ATOM     16  O   UNL     1      10.907  -3.839  -2.614  1.00  0.00    -0.394 OA
ATOM     17  H   UNL     1      11.691  -3.739  -3.216  1.00  0.00     0.210 HD
ENDBRANCH  15  16
ENDBRANCH   4  15
TORSDOF 7
ENDMDL
MODEL 8
REMARK VINA RESULT:    -3.136      1.445      2.912
REMARK INTER + INTRA:          -4.443
REMARK INTER:                  -3.984
REMARK INTRA:                  -0.459
REMARK UNBOUND:                -0.390
REMARK SMILES CO[C@@]1(CO)O[C@H](CO)[C@@H](O)[C@@H]1O
REMARK SMILES IDX 3 1 12 2 10 3 7 4 6 5 2 6 1 7 4 8 5 9 13 11 11 13 8 15 9 16
REMARK H PARENT 5 10 13 12 11 14 9 17
REMARK Flexibility Score: inf
ROOT
ATOM      1  C   UNL     1       7.064  -5.097  -2.183  1.00  0.00     0.221 C 
ATOM      2  C   UNL     1       7.063  -3.754  -1.433  1.00  0.00     0.207 C 
ATOM      3  C   UNL     1       8.506  -3.332  -1.498  1.00  0.00     0.180 C 
ATOM      4  C   UNL     1       8.959  -3.949  -2.817  1.00  0.00     0.179 C 
ATOM      5  O   UNL     1       8.127  -5.049  -3.125  1.00  0.00    -0.337 OA
ENDROOT
BRANCH   1   6
ATOM      6  O   UNL     1       5.799  -5.234  -2.825  1.00  0.00    -0.349 OA
ATOM      7  C   UNL     1       5.198  -3.990  -3.124  1.00  0.00     0.198 C 
ENDBRANCH   1   6
BRANCH   1   8
ATOM      8  C   UNL     1       7.313  -6.294  -1.228  1.00  0.00     0.224 C 
BRANCH   8   9
ATOM      9  O   UNL     1       8.322  -7.126  -1.732  1.00  0.00    -0.391 OA
ATOM     10  H   UNL     1       8.994  -7.215  -1.008  1.00  0.00     0.210 HD
ENDBRANCH   8   9
ENDBRANCH   1   8
BRANCH   2  11
ATOM     11  O   UNL     1       6.615  -3.869  -0.107  1.00  0.00    -0.385 OA
ATOM     12  H   UNL     1       5.648  -4.089  -0.152  1.00  0.00     0.211 HD
ENDBRANCH   2  11
BRANCH   3  13
ATOM     13  O   UNL     1       8.631  -1.934  -1.533  1.00  0.00    -0.387 OA
ATOM     14  H   UNL     1       7.718  -1.573  -1.685  1.00  0.00     0.211 HD
ENDBRANCH   3  13
BRANCH   4  15
ATOM     15  C   UNL     1      10.422  -4.409  -2.775  1.00  0.00     0.191 C 
BRANCH  15  16
ATOM     16  O   UNL     1      10.686  -5.129  -1.600  1.00  0.00    -0.394 OA
ATOM     17  H   UNL     1       9.833  -5.166  -1.094  1.00  0.00     0.210 HD
ENDBRANCH  15  16
ENDBRANCH   4  15
TORSDOF 7
ENDMDL
