MODEL 1
REMARK VINA RESULT:    -3.639      0.000      0.000
REMARK INTER + INTRA:          -6.420
REMARK INTER:                  -5.553
REMARK INTRA:                  -0.867
REMARK UNBOUND:                -0.867
REMARK SMILES CCCCCCCCCCC(=O)[O-]
REMARK SMILES IDX 7 1 8 2 9 3 10 4 11 5 12 6 13 7 6 8 5 9 4 10 3 11 2 12 1 13
REMARK H PARENT
REMARK Flexibility Score: inf
ROOT
ATOM      1  C   UNL     1      41.399  11.796  14.805  1.00  0.00     0.000 C 
ENDROOT
BRANCH   1   2
ATOM      2  C   UNL     1      41.823  12.707  15.967  1.00  0.00     0.000 C 
BRANCH   2   3
ATOM      3  C   UNL     1      40.828  13.854  16.221  1.00  0.00     0.006 C 
BRANCH   3   4
ATOM      4  C   UNL     1      40.831  14.946  15.140  1.00  0.00     0.053 C 
BRANCH   4   5
ATOM      5  C   UNL     1      40.172  16.205  15.614  1.00  0.00     0.041 C 
ATOM      6  O   UNL     1      38.954  16.412  15.374  1.00  0.00    -0.550 OA
ATOM      7  O   UNL     1      40.913  17.165  16.293  1.00  0.00    -0.550 OA
ENDBRANCH   4   5
ENDBRANCH   3   4
ENDBRANCH   2   3
ENDBRANCH   1   2
BRANCH   1   8
ATOM      8  C   UNL     1      39.931  11.369  14.952  1.00  0.00     0.000 C 
BRANCH   8   9
ATOM      9  C   UNL     1      39.100  11.666  13.693  1.00  0.00    -0.000 C 
BRANCH   9  10
ATOM     10  C   UNL     1      39.959  12.176  12.523  1.00  0.00    -0.000 C 
BRANCH  10  11
ATOM     11  C   UNL     1      39.993  11.192  11.344  1.00  0.00    -0.000 C 
BRANCH  11  12
ATOM     12  C   UNL     1      41.033  10.078  11.534  1.00  0.00    -0.003 C 
ATOM     13  C   UNL     1      40.361   8.715  11.666  1.00  0.00     0.004 C 
ENDBRANCH  11  12
ENDBRANCH  10  11
ENDBRANCH   9  10
ENDBRANCH   8   9
ENDBRANCH   1   8
TORSDOF 9
ENDMDL
MODEL 2
REMARK VINA RESULT:    -3.582      2.365      3.429
REMARK INTER + INTRA:          -6.334
REMARK INTER:                  -5.698
REMARK INTRA:                  -0.635
REMARK UNBOUND:                -0.867
REMARK SMILES CCCCCCCCCCC(=O)[O-]
REMARK SMILES IDX 7 1 8 2 9 3 10 4 11 5 12 6 13 7 6 8 5 9 4 10 3 11 2 12 1 13
REMARK H PARENT
REMARK Flexibility Score: inf
ROOT
ATOM      1  C   UNL     1      41.230  11.801  13.381  1.00  0.00     0.000 C 
ENDROOT
BRANCH   1   2
ATOM      2  C   UNL     1      40.951  12.217  14.833  1.00  0.00     0.000 C 
BRANCH   2   3
ATOM      3  C   UNL     1      42.223  12.255  15.698  1.00  0.00     0.006 C 
BRANCH   3   4
ATOM      4  C   UNL     1      42.040  11.697  17.119  1.00  0.00     0.053 C 
BRANCH   4   5
ATOM      5  C   UNL     1      42.292  12.739  18.166  1.00  0.00     0.041 C 
ATOM      6  O   UNL     1      43.331  12.687  18.874  1.00  0.00    -0.550 OA
ATOM      7  O   UNL     1      41.361  13.749  18.381  1.00  0.00    -0.550 OA
ENDBRANCH   4   5
ENDBRANCH   3   4
ENDBRANCH   2   3
ENDBRANCH   1   2
BRANCH   1   8
ATOM      8  C   UNL     1      39.995  12.032  12.497  1.00  0.00     0.000 C 
BRANCH   8   9
ATOM      9  C   UNL     1      39.893  11.019  11.346  1.00  0.00    -0.000 C 
BRANCH   9  10
ATOM     10  C   UNL     1      40.830   9.813  11.534  1.00  0.00    -0.000 C 
BRANCH  10  11
ATOM     11  C   UNL     1      40.065   8.492  11.706  1.00  0.00    -0.000 C 
BRANCH  11  12
ATOM     12  C   UNL     1      38.687   8.689  12.356  1.00  0.00    -0.003 C 
ATOM     13  C   UNL     1      38.791   8.683  13.877  1.00  0.00     0.004 C 
ENDBRANCH  11  12
ENDBRANCH  10  11
ENDBRANCH   9  10
ENDBRANCH   8   9
ENDBRANCH   1   8
TORSDOF 9
ENDMDL
MODEL 3
REMARK VINA RESULT:    -3.494      1.686      3.150
REMARK INTER + INTRA:          -6.199
REMARK INTER:                  -5.162
REMARK INTRA:                  -1.038
REMARK UNBOUND:                -0.867
REMARK SMILES CCCCCCCCCCC(=O)[O-]
REMARK SMILES IDX 7 1 8 2 9 3 10 4 11 5 12 6 13 7 6 8 5 9 4 10 3 11 2 12 1 13
REMARK H PARENT
REMARK Flexibility Score: inf
ROOT
ATOM      1  C   UNL     1      40.073  12.143  12.634  1.00  0.00     0.000 C 
ENDROOT
BRANCH   1   2
ATOM      2  C   UNL     1      38.695  12.429  13.252  1.00  0.00     0.000 C 
BRANCH   2   3
ATOM      3  C   UNL     1      38.756  12.630  14.777  1.00  0.00     0.006 C 
BRANCH   3   4
ATOM      4  C   UNL     1      40.174  12.584  15.366  1.00  0.00     0.053 C 
BRANCH   4   5
ATOM      5  C   UNL     1      40.639  13.937  15.812  1.00  0.00     0.041 C 
ATOM      6  O   UNL     1      40.765  14.192  17.038  1.00  0.00    -0.550 OA
ATOM      7  O   UNL     1      40.901  14.927  14.872  1.00  0.00    -0.550 OA
ENDBRANCH   4   5
ENDBRANCH   3   4
ENDBRANCH   2   3
ENDBRANCH   1   2
BRANCH   1   8
ATOM      8  C   UNL     1      39.950  11.178  11.445  1.00  0.00     0.000 C 
BRANCH   8   9
ATOM      9  C   UNL     1      41.044  10.099  11.444  1.00  0.00    -0.000 C 
BRANCH   9  10
ATOM     10  C   UNL     1      40.490   8.694  11.738  1.00  0.00    -0.000 C 
BRANCH  10  11
ATOM     11  C   UNL     1      38.960   8.679  11.869  1.00  0.00    -0.000 C 
BRANCH  11  12
ATOM     12  C   UNL     1      38.484   8.009  13.166  1.00  0.00    -0.003 C 
ATOM     13  C   UNL     1      38.701   8.923  14.368  1.00  0.00     0.004 C 
ENDBRANCH  11  12
ENDBRANCH  10  11
ENDBRANCH   9  10
ENDBRANCH   8   9
ENDBRANCH   1   8
TORSDOF 9
ENDMDL
MODEL 4
REMARK VINA RESULT:    -3.460      1.874      2.521
REMARK INTER + INTRA:          -6.148
REMARK INTER:                  -5.003
REMARK INTRA:                  -1.145
REMARK UNBOUND:                -0.867
REMARK SMILES CCCCCCCCCCC(=O)[O-]
REMARK SMILES IDX 7 1 8 2 9 3 10 4 11 5 12 6 13 7 6 8 5 9 4 10 3 11 2 12 1 13
REMARK H PARENT
REMARK Flexibility Score: inf
ROOT
ATOM      1  C   UNL     1      38.957  10.715  14.492  1.00  0.00     0.000 C 
ENDROOT
BRANCH   1   2
ATOM      2  C   UNL     1      39.051  11.085  15.981  1.00  0.00     0.000 C 
BRANCH   2   3
ATOM      3  C   UNL     1      38.835  12.587  16.237  1.00  0.00     0.006 C 
BRANCH   3   4
ATOM      4  C   UNL     1      40.027  13.293  16.901  1.00  0.00     0.053 C 
BRANCH   4   5
ATOM      5  C   UNL     1      41.183  13.448  15.960  1.00  0.00     0.041 C 
ATOM      6  O   UNL     1      41.163  14.341  15.074  1.00  0.00    -0.550 OA
ATOM      7  O   UNL     1      42.267  12.582  16.041  1.00  0.00    -0.550 OA
ENDBRANCH   4   5
ENDBRANCH   3   4
ENDBRANCH   2   3
ENDBRANCH   1   2
BRANCH   1   8
ATOM      8  C   UNL     1      38.740  11.968  13.629  1.00  0.00     0.000 C 
BRANCH   8   9
ATOM      9  C   UNL     1      39.826  12.144  12.557  1.00  0.00    -0.000 C 
BRANCH   9  10
ATOM     10  C   UNL     1      41.093  11.324  12.858  1.00  0.00    -0.000 C 
BRANCH  10  11
ATOM     11  C   UNL     1      41.444  10.344  11.727  1.00  0.00    -0.000 C 
BRANCH  11  12
ATOM     12  C   UNL     1      40.233   9.522  11.262  1.00  0.00    -0.003 C 
ATOM     13  C   UNL     1      40.171   8.179  11.982  1.00  0.00     0.004 C 
ENDBRANCH  11  12
ENDBRANCH  10  11
ENDBRANCH   9  10
ENDBRANCH   8   9
ENDBRANCH   1   8
TORSDOF 9
ENDMDL
MODEL 5
REMARK VINA RESULT:    -3.459      1.140      2.182
REMARK INTER + INTRA:          -6.146
REMARK INTER:                  -5.254
REMARK INTRA:                  -0.891
REMARK UNBOUND:                -0.867
REMARK SMILES CCCCCCCCCCC(=O)[O-]
REMARK SMILES IDX 7 1 8 2 9 3 10 4 11 5 12 6 13 7 6 8 5 9 4 10 3 11 2 12 1 13
REMARK H PARENT
REMARK Flexibility Score: inf
ROOT
ATOM      1  C   UNL     1      40.768  11.846  13.808  1.00  0.00     0.000 C 
ENDROOT
BRANCH   1   2
ATOM      2  C   UNL     1      39.881  11.706  15.055  1.00  0.00     0.000 C 
BRANCH   2   3
ATOM      3  C   UNL     1      40.187  12.768  16.126  1.00  0.00     0.006 C 
BRANCH   3   4
ATOM      4  C   UNL     1      40.918  14.011  15.596  1.00  0.00     0.053 C 
BRANCH   4   5
ATOM      5  C   UNL     1      39.979  15.156  15.362  1.00  0.00     0.041 C 
ATOM      6  O   UNL     1      40.420  16.333  15.297  1.00  0.00    -0.550 OA
ATOM      7  O   UNL     1      38.614  14.924  15.250  1.00  0.00    -0.550 OA
ENDBRANCH   4   5
ENDBRANCH   3   4
ENDBRANCH   2   3
ENDBRANCH   1   2
BRANCH   1   8
ATOM      8  C   UNL     1      39.935  12.262  12.586  1.00  0.00     0.000 C 
BRANCH   8   9
ATOM      9  C   UNL     1      40.014  11.241  11.441  1.00  0.00    -0.000 C 
BRANCH   9  10
ATOM     10  C   UNL     1      41.041  10.128  11.710  1.00  0.00    -0.000 C 
BRANCH  10  11
ATOM     11  C   UNL     1      40.423   8.723  11.628  1.00  0.00    -0.000 C 
BRANCH  11  12
ATOM     12  C   UNL     1      38.945   8.703  12.048  1.00  0.00    -0.003 C 
ATOM     13  C   UNL     1      38.803   8.457  13.547  1.00  0.00     0.004 C 
ENDBRANCH  11  12
ENDBRANCH  10  11
ENDBRANCH   9  10
ENDBRANCH   8   9
ENDBRANCH   1   8
TORSDOF 9
ENDMDL
MODEL 6
REMARK VINA RESULT:    -3.449      2.707      3.843
REMARK INTER + INTRA:          -6.131
REMARK INTER:                  -5.181
REMARK INTRA:                  -0.950
REMARK UNBOUND:                -0.867
REMARK SMILES CCCCCCCCCCC(=O)[O-]
REMARK SMILES IDX 7 1 8 2 9 3 10 4 11 5 12 6 13 7 6 8 5 9 4 10 3 11 2 12 1 13
REMARK H PARENT
REMARK Flexibility Score: inf
ROOT
ATOM      1  C   UNL     1      40.031  11.939  12.398  1.00  0.00     0.000 C 
ENDROOT
BRANCH   1   2
ATOM      2  C   UNL     1      40.235  12.673  13.733  1.00  0.00     0.000 C 
BRANCH   2   3
ATOM      3  C   UNL     1      41.343  12.044  14.596  1.00  0.00     0.006 C 
BRANCH   3   4
ATOM      4  C   UNL     1      41.742  12.881  15.822  1.00  0.00     0.053 C 
BRANCH   4   5
ATOM      5  C   UNL     1      42.035  12.022  17.015  1.00  0.00     0.041 C 
ATOM      6  O   UNL     1      41.528  10.874  17.108  1.00  0.00    -0.550 OA
ATOM      7  O   UNL     1      42.841  12.505  18.039  1.00  0.00    -0.550 OA
ENDBRANCH   4   5
ENDBRANCH   3   4
ENDBRANCH   2   3
ENDBRANCH   1   2
BRANCH   1   8
ATOM      8  C   UNL     1      41.131  10.889  12.177  1.00  0.00     0.000 C 
BRANCH   8   9
ATOM      9  C   UNL     1      40.647   9.693  11.342  1.00  0.00    -0.000 C 
BRANCH   9  10
ATOM     10  C   UNL     1      39.241   9.218  11.748  1.00  0.00    -0.000 C 
BRANCH  10  11
ATOM     11  C   UNL     1      39.278   8.088  12.789  1.00  0.00    -0.000 C 
BRANCH  11  12
ATOM     12  C   UNL     1      38.245   8.283  13.908  1.00  0.00    -0.003 C 
ATOM     13  C   UNL     1      38.611   9.470  14.794  1.00  0.00     0.004 C 
ENDBRANCH  11  12
ENDBRANCH  10  11
ENDBRANCH   9  10
ENDBRANCH   8   9
ENDBRANCH   1   8
TORSDOF 9
ENDMDL
MODEL 7
REMARK VINA RESULT:    -3.436      2.261      3.650
REMARK INTER + INTRA:          -6.111
REMARK INTER:                  -5.035
REMARK INTRA:                  -1.076
REMARK UNBOUND:                -0.867
REMARK SMILES CCCCCCCCCCC(=O)[O-]
REMARK SMILES IDX 7 1 8 2 9 3 10 4 11 5 12 6 13 7 6 8 5 9 4 10 3 11 2 12 1 13
REMARK H PARENT
REMARK Flexibility Score: inf
ROOT
ATOM      1  C   UNL     1      38.136   9.256  14.337  1.00  0.00     0.000 C 
ENDROOT
BRANCH   1   2
ATOM      2  C   UNL     1      39.013   9.569  15.560  1.00  0.00     0.000 C 
BRANCH   2   3
ATOM      3  C   UNL     1      39.156  11.079  15.821  1.00  0.00     0.006 C 
BRANCH   3   4
ATOM      4  C   UNL     1      40.319  11.454  16.752  1.00  0.00     0.053 C 
BRANCH   4   5
ATOM      5  C   UNL     1      41.244  12.449  16.120  1.00  0.00     0.041 C 
ATOM      6  O   UNL     1      42.336  12.070  15.620  1.00  0.00    -0.550 OA
ATOM      7  O   UNL     1      40.915  13.799  16.114  1.00  0.00    -0.550 OA
ENDBRANCH   4   5
ENDBRANCH   3   4
ENDBRANCH   2   3
ENDBRANCH   1   2
BRANCH   1   8
ATOM      8  C   UNL     1      38.803   8.202  13.441  1.00  0.00     0.000 C 
BRANCH   8   9
ATOM      9  C   UNL     1      39.005   8.694  11.999  1.00  0.00    -0.000 C 
BRANCH   9  10
ATOM     10  C   UNL     1      40.490   8.827  11.621  1.00  0.00    -0.000 C 
BRANCH  10  11
ATOM     11  C   UNL     1      40.892  10.276  11.305  1.00  0.00    -0.000 C 
BRANCH  11  12
ATOM     12  C   UNL     1      40.926  11.165  12.557  1.00  0.00    -0.003 C 
ATOM     13  C   UNL     1      39.886  12.278  12.469  1.00  0.00     0.004 C 
ENDBRANCH  11  12
ENDBRANCH  10  11
ENDBRANCH   9  10
ENDBRANCH   8   9
ENDBRANCH   1   8
TORSDOF 9
ENDMDL
MODEL 8
REMARK VINA RESULT:    -3.379      2.485      4.070
REMARK INTER + INTRA:          -6.024
REMARK INTER:                  -4.831
REMARK INTRA:                  -1.193
REMARK UNBOUND:                -0.867
REMARK SMILES CCCCCCCCCCC(=O)[O-]
REMARK SMILES IDX 7 1 8 2 9 3 10 4 11 5 12 6 13 7 6 8 5 9 4 10 3 11 2 12 1 13
REMARK H PARENT
REMARK Flexibility Score: inf
ROOT
ATOM      1  C   UNL     1      38.844   8.253  13.484  1.00  0.00     0.000 C 
ENDROOT
BRANCH   1   2
ATOM      2  C   UNL     1      38.212   9.387  14.306  1.00  0.00     0.000 C 
BRANCH   2   3
ATOM      3  C   UNL     1      39.097   9.836  15.482  1.00  0.00     0.006 C 
BRANCH   3   4
ATOM      4  C   UNL     1      38.734  11.214  16.058  1.00  0.00     0.053 C 
BRANCH   4   5
ATOM      5  C   UNL     1      39.915  11.885  16.691  1.00  0.00     0.041 C 
ATOM      6  O   UNL     1      40.951  11.223  16.961  1.00  0.00    -0.550 OA
ATOM      7  O   UNL     1      39.858  13.236  17.011  1.00  0.00    -0.550 OA
ENDBRANCH   4   5
ENDBRANCH   3   4
ENDBRANCH   2   3
ENDBRANCH   1   2
BRANCH   1   8
ATOM      8  C   UNL     1      39.026   8.673  12.018  1.00  0.00     0.000 C 
BRANCH   8   9
ATOM      9  C   UNL     1      40.505   8.791  11.617  1.00  0.00    -0.000 C 
BRANCH   9  10
ATOM     10  C   UNL     1      40.928  10.244  11.336  1.00  0.00    -0.000 C 
BRANCH  10  11
ATOM     11  C   UNL     1      39.796  11.249  11.600  1.00  0.00    -0.000 C 
BRANCH  11  12
ATOM     12  C   UNL     1      40.151  12.261  12.699  1.00  0.00    -0.003 C 
ATOM     13  C   UNL     1      41.441  11.870  13.412  1.00  0.00     0.004 C 
ENDBRANCH  11  12
ENDBRANCH  10  11
ENDBRANCH   9  10
ENDBRANCH   8   9
ENDBRANCH   1   8
TORSDOF 9
ENDMDL
MODEL 9
REMARK VINA RESULT:    -3.331      3.417      6.111
REMARK INTER + INTRA:          -5.951
REMARK INTER:                  -5.039
REMARK INTRA:                  -0.912
REMARK UNBOUND:                -0.867
REMARK SMILES CCCCCCCCCCC(=O)[O-]
REMARK SMILES IDX 7 1 8 2 9 3 10 4 11 5 12 6 13 7 6 8 5 9 4 10 3 11 2 12 1 13
REMARK H PARENT
REMARK Flexibility Score: inf
ROOT
ATOM      1  C   UNL     1      40.491  11.883  14.673  1.00  0.00     0.000 C 
ENDROOT
BRANCH   1   2
ATOM      2  C   UNL     1      40.232  12.849  13.507  1.00  0.00     0.000 C 
BRANCH   2   3
ATOM      3  C   UNL     1      39.754  12.131  12.232  1.00  0.00     0.006 C 
BRANCH   3   4
ATOM      4  C   UNL     1      39.463  10.634  12.420  1.00  0.00     0.053 C 
BRANCH   4   5
ATOM      5  C   UNL     1      40.518   9.775  11.791  1.00  0.00     0.041 C 
ATOM      6  O   UNL     1      41.650  10.257  11.523  1.00  0.00    -0.550 OA
ATOM      7  O   UNL     1      40.239   8.452  11.472  1.00  0.00    -0.550 OA
ENDBRANCH   4   5
ENDBRANCH   3   4
ENDBRANCH   2   3
ENDBRANCH   1   2
BRANCH   1   8
ATOM      8  C   UNL     1      41.951  11.968  15.142  1.00  0.00     0.000 C 
BRANCH   8   9
ATOM      9  C   UNL     1      42.089  12.590  16.540  1.00  0.00    -0.000 C 
BRANCH   9  10
ATOM     10  C   UNL     1      40.727  12.902  17.186  1.00  0.00    -0.000 C 
BRANCH  10  11
ATOM     11  C   UNL     1      40.542  14.399  17.475  1.00  0.00    -0.000 C 
BRANCH  11  12
ATOM     12  C   UNL     1      39.605  15.084  16.469  1.00  0.00    -0.003 C 
ATOM     13  C   UNL     1      40.386  15.981  15.514  1.00  0.00     0.004 C 
ENDBRANCH  11  12
ENDBRANCH  10  11
ENDBRANCH   9  10
ENDBRANCH   8   9
ENDBRANCH   1   8
TORSDOF 9
ENDMDL
