MODEL 1
REMARK VINA RESULT:    -2.930      0.000      0.000
REMARK INTER + INTRA:          -3.462
REMARK INTER:                  -3.444
REMARK INTRA:                  -0.018
REMARK UNBOUND:                -0.018
REMARK SMILES CCCCC(=O)[O-]
REMARK SMILES IDX 4 1 5 2 6 3 7 4 3 5 2 6 1 7
REMARK H PARENT
REMARK Flexibility Score: inf
ROOT
ATOM      1  C   UNL     1      23.464  15.321 -11.245  1.00  0.00     0.053 C 
ENDROOT
BRANCH   1   2
ATOM      2  C   UNL     1      22.899  16.257 -12.269  1.00  0.00     0.041 C 
ATOM      3  O   UNL     1      22.147  17.203 -11.915  1.00  0.00    -0.550 OA
ATOM      4  O   UNL     1      23.228  16.105 -13.609  1.00  0.00    -0.550 OA
ENDBRANCH   1   2
BRANCH   1   5
ATOM      5  C   UNL     1      24.815  14.743 -11.687  1.00  0.00     0.006 C 
BRANCH   5   6
ATOM      6  C   UNL     1      25.595  14.128 -10.516  1.00  0.00    -0.003 C 
ATOM      7  C   UNL     1      26.464  12.965 -10.985  1.00  0.00     0.004 C 
ENDBRANCH   5   6
ENDBRANCH   1   5
TORSDOF 3
ENDMDL
MODEL 2
REMARK VINA RESULT:    -2.911      7.697      8.573
REMARK INTER + INTRA:          -3.440
REMARK INTER:                  -3.366
REMARK INTRA:                  -0.074
REMARK UNBOUND:                -0.018
REMARK SMILES CCCCC(=O)[O-]
REMARK SMILES IDX 4 1 5 2 6 3 7 4 3 5 2 6 1 7
REMARK H PARENT
REMARK Flexibility Score: inf
ROOT
ATOM      1  C   UNL     1      28.827  13.656 -17.276  1.00  0.00     0.053 C 
ENDROOT
BRANCH   1   2
ATOM      2  C   UNL     1      29.568  14.748 -16.566  1.00  0.00     0.041 C 
ATOM      3  O   UNL     1      29.829  15.827 -17.160  1.00  0.00    -0.550 OA
ATOM      4  O   UNL     1      29.940  14.587 -15.238  1.00  0.00    -0.550 OA
ENDBRANCH   1   2
BRANCH   1   5
ATOM      5  C   UNL     1      29.641  13.082 -18.443  1.00  0.00     0.006 C 
BRANCH   5   6
ATOM      6  C   UNL     1      30.802  12.199 -17.964  1.00  0.00    -0.003 C 
ATOM      7  C   UNL     1      30.907  10.927 -18.799  1.00  0.00     0.004 C 
ENDBRANCH   5   6
ENDBRANCH   1   5
TORSDOF 3
ENDMDL
MODEL 3
REMARK VINA RESULT:    -2.823     17.615     17.986
REMARK INTER + INTRA:          -3.336
REMARK INTER:                  -3.253
REMARK INTRA:                  -0.083
REMARK UNBOUND:                -0.018
REMARK SMILES CCCCC(=O)[O-]
REMARK SMILES IDX 4 1 5 2 6 3 7 4 3 5 2 6 1 7
REMARK H PARENT
REMARK Flexibility Score: inf
ROOT
ATOM      1  C   UNL     1      16.107   0.212 -12.847  1.00  0.00     0.053 C 
ENDROOT
BRANCH   1   2
ATOM      2  C   UNL     1      14.733  -0.219 -12.432  1.00  0.00     0.041 C 
ATOM      3  O   UNL     1      14.181   0.304 -11.428  1.00  0.00    -0.550 OA
ATOM      4  O   UNL     1      14.049  -1.173 -13.173  1.00  0.00    -0.550 OA
ENDBRANCH   1   2
BRANCH   1   5
ATOM      5  C   UNL     1      17.095  -0.962 -12.848  1.00  0.00     0.006 C 
BRANCH   5   6
ATOM      6  C   UNL     1      17.111  -1.709 -11.507  1.00  0.00    -0.003 C 
ATOM      7  C   UNL     1      18.498  -1.671 -10.873  1.00  0.00     0.004 C 
ENDBRANCH   5   6
ENDBRANCH   1   5
TORSDOF 3
ENDMDL
MODEL 4
REMARK VINA RESULT:    -2.813      6.937      7.708
REMARK INTER + INTRA:          -3.324
REMARK INTER:                  -3.224
REMARK INTRA:                  -0.100
REMARK UNBOUND:                -0.018
REMARK SMILES CCCCC(=O)[O-]
REMARK SMILES IDX 4 1 5 2 6 3 7 4 3 5 2 6 1 7
REMARK H PARENT
REMARK Flexibility Score: inf
ROOT
ATOM      1  C   UNL     1      29.971  15.674 -16.965  1.00  0.00     0.053 C 
ENDROOT
BRANCH   1   2
ATOM      2  C   UNL     1      30.211  16.230 -15.595  1.00  0.00     0.041 C 
ATOM      3  O   UNL     1      29.709  15.667 -14.586  1.00  0.00    -0.550 OA
ATOM      4  O   UNL     1      31.015  17.350 -15.429  1.00  0.00    -0.550 OA
ENDBRANCH   1   2
BRANCH   1   5
ATOM      5  C   UNL     1      30.147  14.150 -17.001  1.00  0.00     0.006 C 
BRANCH   5   6
ATOM      6  C   UNL     1      28.826  13.420 -17.282  1.00  0.00    -0.003 C 
ATOM      7  C   UNL     1      28.431  12.528 -16.109  1.00  0.00     0.004 C 
ENDBRANCH   5   6
ENDBRANCH   1   5
TORSDOF 3
ENDMDL
MODEL 5
REMARK VINA RESULT:    -2.785     18.335     18.631
REMARK INTER + INTRA:          -3.291
REMARK INTER:                  -3.196
REMARK INTRA:                  -0.095
REMARK UNBOUND:                -0.018
REMARK SMILES CCCCC(=O)[O-]
REMARK SMILES IDX 4 1 5 2 6 3 7 4 3 5 2 6 1 7
REMARK H PARENT
REMARK Flexibility Score: inf
ROOT
ATOM      1  C   UNL     1      14.126  -1.264 -13.487  1.00  0.00     0.053 C 
ENDROOT
BRANCH   1   2
ATOM      2  C   UNL     1      14.065  -0.617 -14.837  1.00  0.00     0.041 C 
ATOM      3  O   UNL     1      15.126  -0.346 -15.458  1.00  0.00    -0.550 OA
ATOM      4  O   UNL     1      12.836  -0.343 -15.423  1.00  0.00    -0.550 OA
ENDBRANCH   1   2
BRANCH   1   5
ATOM      5  C   UNL     1      14.004  -0.235 -12.356  1.00  0.00     0.006 C 
BRANCH   5   6
ATOM      6  C   UNL     1      15.372   0.180 -11.798  1.00  0.00    -0.003 C 
ATOM      7  C   UNL     1      16.308  -1.019 -11.688  1.00  0.00     0.004 C 
ENDBRANCH   5   6
ENDBRANCH   1   5
TORSDOF 3
ENDMDL
MODEL 6
REMARK VINA RESULT:    -2.761      8.285      9.360
REMARK INTER + INTRA:          -3.264
REMARK INTER:                  -3.216
REMARK INTRA:                  -0.048
REMARK UNBOUND:                -0.018
REMARK SMILES CCCCC(=O)[O-]
REMARK SMILES IDX 4 1 5 2 6 3 7 4 3 5 2 6 1 7
REMARK H PARENT
REMARK Flexibility Score: inf
ROOT
ATOM      1  C   UNL     1      29.827  13.062 -18.311  1.00  0.00     0.053 C 
ENDROOT
BRANCH   1   2
ATOM      2  C   UNL     1      30.465  11.722 -18.112  1.00  0.00     0.041 C 
ATOM      3  O   UNL     1      30.642  10.952 -19.093  1.00  0.00    -0.550 OA
ATOM      4  O   UNL     1      30.895  11.336 -16.849  1.00  0.00    -0.550 OA
ENDBRANCH   1   2
BRANCH   1   5
ATOM      5  C   UNL     1      28.888  13.424 -17.153  1.00  0.00     0.006 C 
BRANCH   5   6
ATOM      6  C   UNL     1      29.513  14.448 -16.196  1.00  0.00    -0.003 C 
ATOM      7  C   UNL     1      29.942  15.708 -16.943  1.00  0.00     0.004 C 
ENDBRANCH   5   6
ENDBRANCH   1   5
TORSDOF 3
ENDMDL
MODEL 7
REMARK VINA RESULT:    -2.757      7.047      7.981
REMARK INTER + INTRA:          -3.258
REMARK INTER:                  -3.201
REMARK INTRA:                  -0.057
REMARK UNBOUND:                -0.018
REMARK SMILES CCCCC(=O)[O-]
REMARK SMILES IDX 4 1 5 2 6 3 7 4 3 5 2 6 1 7
REMARK H PARENT
REMARK Flexibility Score: inf
ROOT
ATOM      1  C   UNL     1      29.633  14.789 -16.395  1.00  0.00     0.053 C 
ENDROOT
BRANCH   1   2
ATOM      2  C   UNL     1      29.871  14.595 -14.929  1.00  0.00     0.041 C 
ATOM      3  O   UNL     1      30.687  13.725 -14.529  1.00  0.00    -0.550 OA
ATOM      4  O   UNL     1      29.215  15.399 -14.005  1.00  0.00    -0.550 OA
ENDBRANCH   1   2
BRANCH   1   5
ATOM      5  C   UNL     1      28.907  13.589 -17.018  1.00  0.00     0.006 C 
BRANCH   5   6
ATOM      6  C   UNL     1      29.494  13.199 -18.382  1.00  0.00    -0.003 C 
ATOM      7  C   UNL     1      30.501  12.061 -18.242  1.00  0.00     0.004 C 
ENDBRANCH   5   6
ENDBRANCH   1   5
TORSDOF 3
ENDMDL
MODEL 8
REMARK VINA RESULT:    -2.734      2.796      4.086
REMARK INTER + INTRA:          -3.232
REMARK INTER:                  -3.214
REMARK INTRA:                  -0.017
REMARK UNBOUND:                -0.018
REMARK SMILES CCCCC(=O)[O-]
REMARK SMILES IDX 4 1 5 2 6 3 7 4 3 5 2 6 1 7
REMARK H PARENT
REMARK Flexibility Score: inf
ROOT
ATOM      1  C   UNL     1      27.206  13.344 -11.744  1.00  0.00     0.053 C 
ENDROOT
BRANCH   1   2
ATOM      2  C   UNL     1      25.947  14.088 -11.417  1.00  0.00     0.041 C 
ATOM      3  O   UNL     1      25.285  14.647 -12.330  1.00  0.00    -0.550 OA
ATOM      4  O   UNL     1      25.488  14.137 -10.107  1.00  0.00    -0.550 OA
ENDBRANCH   1   2
BRANCH   1   5
ATOM      5  C   UNL     1      27.372  12.094 -10.869  1.00  0.00     0.006 C 
BRANCH   5   6
ATOM      6  C   UNL     1      28.604  11.268 -11.265  1.00  0.00    -0.003 C 
ATOM      7  C   UNL     1      29.220  10.583 -10.049  1.00  0.00     0.004 C 
ENDBRANCH   5   6
ENDBRANCH   1   5
TORSDOF 3
ENDMDL
MODEL 9
REMARK VINA RESULT:    -2.673      6.597      7.556
REMARK INTER + INTRA:          -3.159
REMARK INTER:                  -3.029
REMARK INTRA:                  -0.130
REMARK UNBOUND:                -0.018
REMARK SMILES CCCCC(=O)[O-]
REMARK SMILES IDX 4 1 5 2 6 3 7 4 3 5 2 6 1 7
REMARK H PARENT
REMARK Flexibility Score: inf
ROOT
ATOM      1  C   UNL     1      28.509  13.249 -17.218  1.00  0.00     0.053 C 
ENDROOT
BRANCH   1   2
ATOM      2  C   UNL     1      29.743  14.099 -17.213  1.00  0.00     0.041 C 
ATOM      3  O   UNL     1      30.882  13.563 -17.234  1.00  0.00    -0.550 OA
ATOM      4  O   UNL     1      29.634  15.483 -17.218  1.00  0.00    -0.550 OA
ENDBRANCH   1   2
BRANCH   1   5
ATOM      5  C   UNL     1      28.523  12.218 -16.082  1.00  0.00     0.006 C 
BRANCH   5   6
ATOM      6  C   UNL     1      28.489  12.879 -14.697  1.00  0.00    -0.003 C 
ATOM      7  C   UNL     1      29.712  12.490 -13.872  1.00  0.00     0.004 C 
ENDBRANCH   5   6
ENDBRANCH   1   5
TORSDOF 3
ENDMDL
