MODEL 1
REMARK VINA RESULT:    -3.956      0.000      0.000
REMARK INTER + INTRA:          -9.871
REMARK INTER:                  -7.425
REMARK INTRA:                  -2.447
REMARK UNBOUND:                -2.447
REMARK SMILES CCCCCCCCC=CCCCCCCCC(=O)[O-]
REMARK SMILES IDX 10 1 9 2 11 3 12 4 13 5 14 6 15 7 16 8 17 9 18 10 19 11
REMARK SMILES IDX 20 12 8 13 7 14 6 15 5 16 4 17 3 18 2 19 1 20
REMARK H PARENT
REMARK Flexibility Score: inf
ROOT
ATOM      1  C   UNL     1     204.874 196.548 224.356  1.00  0.00    -0.031 C 
ATOM      2  C   UNL     1     204.012 195.659 223.828  1.00  0.00    -0.031 C 
ENDROOT
BRANCH   1   3
ATOM      3  C   UNL     1     205.123 196.739 225.832  1.00  0.00     0.027 C 
BRANCH   3   4
ATOM      4  C   UNL     1     206.503 196.215 226.275  1.00  0.00     0.004 C 
BRANCH   4   5
ATOM      5  C   UNL     1     206.613 194.678 226.294  1.00  0.00     0.000 C 
BRANCH   5   6
ATOM      6  C   UNL     1     207.816 194.098 225.530  1.00  0.00     0.000 C 
BRANCH   6   7
ATOM      7  C   UNL     1     207.890 194.579 224.073  1.00  0.00     0.000 C 
BRANCH   7   8
ATOM      8  C   UNL     1     209.328 194.968 223.699  1.00  0.00     0.006 C 
BRANCH   8   9
ATOM      9  C   UNL     1     209.642 196.431 224.043  1.00  0.00     0.053 C 
BRANCH   9  10
ATOM     10  C   UNL     1     210.412 197.104 222.950  1.00  0.00     0.041 C 
ATOM     11  O   UNL     1     210.082 198.253 222.556  1.00  0.00    -0.550 OA
ATOM     12  O   UNL     1     211.476 196.449 222.344  1.00  0.00    -0.550 OA
ENDBRANCH   9  10
ENDBRANCH   8   9
ENDBRANCH   7   8
ENDBRANCH   6   7
ENDBRANCH   5   6
ENDBRANCH   4   5
ENDBRANCH   3   4
ENDBRANCH   1   3
BRANCH   2  13
ATOM     13  C   UNL     1     203.121 194.733 224.623  1.00  0.00     0.027 C 
BRANCH  13  14
ATOM     14  C   UNL     1     203.179 193.296 224.080  1.00  0.00     0.004 C 
BRANCH  14  15
ATOM     15  C   UNL     1     204.608 192.729 223.992  1.00  0.00     0.000 C 
BRANCH  15  16
ATOM     16  C   UNL     1     204.923 192.147 222.603  1.00  0.00     0.000 C 
BRANCH  16  17
ATOM     17  C   UNL     1     205.651 193.149 221.693  1.00  0.00    -0.000 C 
BRANCH  17  18
ATOM     18  C   UNL     1     204.717 193.792 220.654  1.00  0.00    -0.000 C 
BRANCH  18  19
ATOM     19  C   UNL     1     203.779 192.769 219.995  1.00  0.00    -0.003 C 
ATOM     20  C   UNL     1     204.476 191.927 218.925  1.00  0.00     0.004 C 
ENDBRANCH  18  19
ENDBRANCH  17  18
ENDBRANCH  16  17
ENDBRANCH  15  16
ENDBRANCH  14  15
ENDBRANCH  13  14
ENDBRANCH   2  13
TORSDOF 15
ENDMDL
MODEL 2
REMARK VINA RESULT:    -3.867      2.016      3.626
REMARK INTER + INTRA:          -9.705
REMARK INTER:                  -7.815
REMARK INTRA:                  -1.889
REMARK UNBOUND:                -2.447
REMARK SMILES CCCCCCCCC=CCCCCCCCC(=O)[O-]
REMARK SMILES IDX 10 1 9 2 11 3 12 4 13 5 14 6 15 7 16 8 17 9 18 10 19 11
REMARK SMILES IDX 20 12 8 13 7 14 6 15 5 16 4 17 3 18 2 19 1 20
REMARK H PARENT
REMARK Flexibility Score: inf
ROOT
ATOM      1  C   UNL     1     206.678 195.798 226.498  1.00  0.00    -0.031 C 
ATOM      2  C   UNL     1     205.581 196.548 226.283  1.00  0.00    -0.031 C 
ENDROOT
BRANCH   1   3
ATOM      3  C   UNL     1     206.977 194.487 225.813  1.00  0.00     0.027 C 
BRANCH   3   4
ATOM      4  C   UNL     1     208.289 194.524 225.005  1.00  0.00     0.004 C 
BRANCH   4   5
ATOM      5  C   UNL     1     208.506 195.833 224.222  1.00  0.00     0.000 C 
BRANCH   5   6
ATOM      6  C   UNL     1     209.808 196.584 224.551  1.00  0.00     0.000 C 
BRANCH   6   7
ATOM      7  C   UNL     1     210.177 197.636 223.495  1.00  0.00     0.000 C 
BRANCH   7   8
ATOM      8  C   UNL     1     211.109 197.039 222.430  1.00  0.00     0.006 C 
BRANCH   8   9
ATOM      9  C   UNL     1     212.136 196.072 223.034  1.00  0.00     0.053 C 
BRANCH   9  10
ATOM     10  C   UNL     1     213.460 196.735 223.253  1.00  0.00     0.041 C 
ATOM     11  O   UNL     1     214.193 196.386 224.215  1.00  0.00    -0.550 OA
ATOM     12  O   UNL     1     213.870 197.762 222.413  1.00  0.00    -0.550 OA
ENDBRANCH   9  10
ENDBRANCH   8   9
ENDBRANCH   7   8
ENDBRANCH   6   7
ENDBRANCH   5   6
ENDBRANCH   4   5
ENDBRANCH   3   4
ENDBRANCH   1   3
BRANCH   2  13
ATOM     13  C   UNL     1     204.447 196.184 225.353  1.00  0.00     0.027 C 
BRANCH  13  14
ATOM     14  C   UNL     1     204.704 196.698 223.927  1.00  0.00     0.004 C 
BRANCH  14  15
ATOM     15  C   UNL     1     205.024 195.580 222.918  1.00  0.00     0.000 C 
BRANCH  15  16
ATOM     16  C   UNL     1     203.825 194.646 222.679  1.00  0.00     0.000 C 
BRANCH  16  17
ATOM     17  C   UNL     1     203.984 193.287 223.382  1.00  0.00    -0.000 C 
BRANCH  17  18
ATOM     18  C   UNL     1     202.693 192.827 224.080  1.00  0.00    -0.000 C 
BRANCH  18  19
ATOM     19  C   UNL     1     201.550 193.844 223.930  1.00  0.00    -0.003 C 
ATOM     20  C   UNL     1     201.011 194.333 225.275  1.00  0.00     0.004 C 
ENDBRANCH  18  19
ENDBRANCH  17  18
ENDBRANCH  16  17
ENDBRANCH  15  16
ENDBRANCH  14  15
ENDBRANCH  13  14
ENDBRANCH   2  13
TORSDOF 15
ENDMDL
MODEL 3
REMARK VINA RESULT:    -3.846      3.621      6.500
REMARK INTER + INTRA:          -9.665
REMARK INTER:                  -6.811
REMARK INTRA:                  -2.853
REMARK UNBOUND:                -2.447
REMARK SMILES CCCCCCCCC=CCCCCCCCC(=O)[O-]
REMARK SMILES IDX 10 1 9 2 11 3 12 4 13 5 14 6 15 7 16 8 17 9 18 10 19 11
REMARK SMILES IDX 20 12 8 13 7 14 6 15 5 16 4 17 3 18 2 19 1 20
REMARK H PARENT
REMARK Flexibility Score: inf
ROOT
ATOM      1  C   UNL     1     206.464 192.923 224.642  1.00  0.00    -0.031 C 
ATOM      2  C   UNL     1     206.464 193.098 225.976  1.00  0.00    -0.031 C 
ENDROOT
BRANCH   1   3
ATOM      3  C   UNL     1     207.385 193.629 223.677  1.00  0.00     0.027 C 
BRANCH   3   4
ATOM      4  C   UNL     1     207.247 193.108 222.233  1.00  0.00     0.004 C 
BRANCH   4   5
ATOM      5  C   UNL     1     205.791 192.865 221.791  1.00  0.00     0.000 C 
BRANCH   5   6
ATOM      6  C   UNL     1     205.460 193.308 220.356  1.00  0.00     0.000 C 
BRANCH   6   7
ATOM      7  C   UNL     1     203.970 193.624 220.154  1.00  0.00     0.000 C 
BRANCH   7   8
ATOM      8  C   UNL     1     203.091 192.635 220.933  1.00  0.00     0.006 C 
BRANCH   8   9
ATOM      9  C   UNL     1     201.609 192.749 220.548  1.00  0.00     0.053 C 
BRANCH   9  10
ATOM     10  C   UNL     1     200.840 193.564 221.541  1.00  0.00     0.041 C 
ATOM     11  O   UNL     1     201.081 194.792 221.678  1.00  0.00    -0.550 OA
ATOM     12  O   UNL     1     199.877 192.959 222.340  1.00  0.00    -0.550 OA
ENDBRANCH   9  10
ENDBRANCH   8   9
ENDBRANCH   7   8
ENDBRANCH   6   7
ENDBRANCH   5   6
ENDBRANCH   4   5
ENDBRANCH   3   4
ENDBRANCH   1   3
BRANCH   2  13
ATOM     13  C   UNL     1     207.356 194.059 226.728  1.00  0.00     0.027 C 
BRANCH  13  14
ATOM     14  C   UNL     1     206.601 195.343 227.109  1.00  0.00     0.004 C 
BRANCH  14  15
ATOM     15  C   UNL     1     206.521 196.372 225.965  1.00  0.00     0.000 C 
BRANCH  15  16
ATOM     16  C   UNL     1     205.073 196.641 225.520  1.00  0.00     0.000 C 
BRANCH  16  17
ATOM     17  C   UNL     1     204.907 196.603 223.992  1.00  0.00    -0.000 C 
BRANCH  17  18
ATOM     18  C   UNL     1     203.995 195.457 223.523  1.00  0.00    -0.000 C 
BRANCH  18  19
ATOM     19  C   UNL     1     203.200 194.829 224.679  1.00  0.00    -0.003 C 
ATOM     20  C   UNL     1     202.839 193.365 224.424  1.00  0.00     0.004 C 
ENDBRANCH  18  19
ENDBRANCH  17  18
ENDBRANCH  16  17
ENDBRANCH  15  16
ENDBRANCH  14  15
ENDBRANCH  13  14
ENDBRANCH   2  13
TORSDOF 15
ENDMDL
MODEL 4
REMARK VINA RESULT:    -3.827      1.147      1.902
REMARK INTER + INTRA:          -9.630
REMARK INTER:                  -7.307
REMARK INTRA:                  -2.323
REMARK UNBOUND:                -2.447
REMARK SMILES CCCCCCCCC=CCCCCCCCC(=O)[O-]
REMARK SMILES IDX 10 1 9 2 11 3 12 4 13 5 14 6 15 7 16 8 17 9 18 10 19 11
REMARK SMILES IDX 20 12 8 13 7 14 6 15 5 16 4 17 3 18 2 19 1 20
REMARK H PARENT
REMARK Flexibility Score: inf
ROOT
ATOM      1  C   UNL     1     204.738 196.660 224.534  1.00  0.00    -0.031 C 
ATOM      2  C   UNL     1     204.110 195.686 223.849  1.00  0.00    -0.031 C 
ENDROOT
BRANCH   1   3
ATOM      3  C   UNL     1     205.106 196.590 225.995  1.00  0.00     0.027 C 
BRANCH   3   4
ATOM      4  C   UNL     1     206.594 196.256 226.218  1.00  0.00     0.004 C 
BRANCH   4   5
ATOM      5  C   UNL     1     206.867 194.766 226.501  1.00  0.00     0.000 C 
BRANCH   5   6
ATOM      6  C   UNL     1     207.221 193.920 225.266  1.00  0.00     0.000 C 
BRANCH   6   7
ATOM      7  C   UNL     1     207.803 194.754 224.114  1.00  0.00     0.000 C 
BRANCH   7   8
ATOM      8  C   UNL     1     209.319 194.935 224.281  1.00  0.00     0.006 C 
BRANCH   8   9
ATOM      9  C   UNL     1     209.770 196.369 223.970  1.00  0.00     0.053 C 
BRANCH   9  10
ATOM     10  C   UNL     1     210.661 196.421 222.768  1.00  0.00     0.041 C 
ATOM     11  O   UNL     1     211.072 195.356 222.237  1.00  0.00    -0.550 OA
ATOM     12  O   UNL     1     211.064 197.647 222.254  1.00  0.00    -0.550 OA
ENDBRANCH   9  10
ENDBRANCH   8   9
ENDBRANCH   7   8
ENDBRANCH   6   7
ENDBRANCH   5   6
ENDBRANCH   4   5
ENDBRANCH   3   4
ENDBRANCH   1   3
BRANCH   2  13
ATOM     13  C   UNL     1     203.633 194.378 224.436  1.00  0.00     0.027 C 
BRANCH  13  14
ATOM     14  C   UNL     1     202.100 194.333 224.533  1.00  0.00     0.004 C 
BRANCH  14  15
ATOM     15  C   UNL     1     201.438 193.492 223.426  1.00  0.00     0.000 C 
BRANCH  15  16
ATOM     16  C   UNL     1     201.298 194.268 222.105  1.00  0.00     0.000 C 
BRANCH  16  17
ATOM     17  C   UNL     1     201.898 193.511 220.908  1.00  0.00    -0.000 C 
BRANCH  17  18
ATOM     18  C   UNL     1     203.383 193.839 220.685  1.00  0.00    -0.000 C 
BRANCH  18  19
ATOM     19  C   UNL     1     204.311 192.697 221.128  1.00  0.00    -0.003 C 
ATOM     20  C   UNL     1     205.716 193.179 221.490  1.00  0.00     0.004 C 
ENDBRANCH  18  19
ENDBRANCH  17  18
ENDBRANCH  16  17
ENDBRANCH  15  16
ENDBRANCH  14  15
ENDBRANCH  13  14
ENDBRANCH   2  13
TORSDOF 15
ENDMDL
MODEL 5
REMARK VINA RESULT:    -3.821      3.702      5.496
REMARK INTER + INTRA:          -9.618
REMARK INTER:                  -6.759
REMARK INTRA:                  -2.859
REMARK UNBOUND:                -2.447
REMARK SMILES CCCCCCCCC=CCCCCCCCC(=O)[O-]
REMARK SMILES IDX 10 1 9 2 11 3 12 4 13 5 14 6 15 7 16 8 17 9 18 10 19 11
REMARK SMILES IDX 20 12 8 13 7 14 6 15 5 16 4 17 3 18 2 19 1 20
REMARK H PARENT
REMARK Flexibility Score: inf
ROOT
ATOM      1  C   UNL     1     206.526 194.777 226.317  1.00  0.00    -0.031 C 
ATOM      2  C   UNL     1     207.051 193.934 225.410  1.00  0.00    -0.031 C 
ENDROOT
BRANCH   1   3
ATOM      3  C   UNL     1     206.406 196.271 226.141  1.00  0.00     0.027 C 
BRANCH   3   4
ATOM      4  C   UNL     1     204.997 196.706 225.693  1.00  0.00     0.004 C 
BRANCH   4   5
ATOM      5  C   UNL     1     204.819 196.775 224.164  1.00  0.00     0.000 C 
BRANCH   5   6
ATOM      6  C   UNL     1     204.051 195.598 223.540  1.00  0.00     0.000 C 
BRANCH   6   7
ATOM      7  C   UNL     1     203.337 194.726 224.585  1.00  0.00     0.000 C 
BRANCH   7   8
ATOM      8  C   UNL     1     202.016 194.176 224.028  1.00  0.00     0.006 C 
BRANCH   8   9
ATOM      9  C   UNL     1     201.886 194.400 222.514  1.00  0.00     0.053 C 
BRANCH   9  10
ATOM     10  C   UNL     1     201.163 193.272 221.847  1.00  0.00     0.041 C 
ATOM     11  O   UNL     1     201.279 192.097 222.284  1.00  0.00    -0.550 OA
ATOM     12  O   UNL     1     200.384 193.513 220.723  1.00  0.00    -0.550 OA
ENDBRANCH   9  10
ENDBRANCH   8   9
ENDBRANCH   7   8
ENDBRANCH   6   7
ENDBRANCH   5   6
ENDBRANCH   4   5
ENDBRANCH   3   4
ENDBRANCH   1   3
BRANCH   2  13
ATOM     13  C   UNL     1     207.647 194.344 224.082  1.00  0.00     0.027 C 
BRANCH  13  14
ATOM     14  C   UNL     1     207.063 193.517 222.926  1.00  0.00     0.004 C 
BRANCH  14  15
ATOM     15  C   UNL     1     206.014 192.483 223.378  1.00  0.00     0.000 C 
BRANCH  15  16
ATOM     16  C   UNL     1     204.934 192.239 222.309  1.00  0.00     0.000 C 
BRANCH  16  17
ATOM     17  C   UNL     1     205.163 193.071 221.036  1.00  0.00    -0.000 C 
BRANCH  17  18
ATOM     18  C   UNL     1     204.169 192.723 219.915  1.00  0.00    -0.000 C 
BRANCH  18  19
ATOM     19  C   UNL     1     204.801 191.851 218.819  1.00  0.00    -0.003 C 
ATOM     20  C   UNL     1     206.330 191.866 218.856  1.00  0.00     0.004 C 
ENDBRANCH  18  19
ENDBRANCH  17  18
ENDBRANCH  16  17
ENDBRANCH  15  16
ENDBRANCH  14  15
ENDBRANCH  13  14
ENDBRANCH   2  13
TORSDOF 15
ENDMDL
MODEL 6
REMARK VINA RESULT:    -3.799      3.099      6.119
REMARK INTER + INTRA:          -9.577
REMARK INTER:                  -7.066
REMARK INTRA:                  -2.511
REMARK UNBOUND:                -2.447
REMARK SMILES CCCCCCCCC=CCCCCCCCC(=O)[O-]
REMARK SMILES IDX 10 1 9 2 11 3 12 4 13 5 14 6 15 7 16 8 17 9 18 10 19 11
REMARK SMILES IDX 20 12 8 13 7 14 6 15 5 16 4 17 3 18 2 19 1 20
REMARK H PARENT
REMARK Flexibility Score: inf
ROOT
ATOM      1  C   UNL     1     206.151 196.493 226.315  1.00  0.00    -0.031 C 
ATOM      2  C   UNL     1     206.841 195.423 226.753  1.00  0.00    -0.031 C 
ENDROOT
BRANCH   1   3
ATOM      3  C   UNL     1     204.802 196.436 225.641  1.00  0.00     0.027 C 
BRANCH   3   4
ATOM      4  C   UNL     1     204.904 196.458 224.104  1.00  0.00     0.004 C 
BRANCH   4   5
ATOM      5  C   UNL     1     204.076 195.364 223.404  1.00  0.00     0.000 C 
BRANCH   5   6
ATOM      6  C   UNL     1     203.483 194.295 224.338  1.00  0.00     0.000 C 
BRANCH   6   7
ATOM      7  C   UNL     1     202.215 193.639 223.769  1.00  0.00     0.000 C 
BRANCH   7   8
ATOM      8  C   UNL     1     201.715 194.396 222.530  1.00  0.00     0.006 C 
BRANCH   8   9
ATOM      9  C   UNL     1     201.427 193.455 221.352  1.00  0.00     0.053 C 
BRANCH   9  10
ATOM     10  C   UNL     1     202.681 193.074 220.628  1.00  0.00     0.041 C 
ATOM     11  O   UNL     1     203.485 193.962 220.242  1.00  0.00    -0.550 OA
ATOM     12  O   UNL     1     202.945 191.739 220.351  1.00  0.00    -0.550 OA
ENDBRANCH   9  10
ENDBRANCH   8   9
ENDBRANCH   7   8
ENDBRANCH   6   7
ENDBRANCH   5   6
ENDBRANCH   4   5
ENDBRANCH   3   4
ENDBRANCH   1   3
BRANCH   2  13
ATOM     13  C   UNL     1     206.400 193.985 226.607  1.00  0.00     0.027 C 
BRANCH  13  14
ATOM     14  C   UNL     1     207.410 193.170 225.782  1.00  0.00     0.004 C 
BRANCH  14  15
ATOM     15  C   UNL     1     206.983 192.965 224.316  1.00  0.00     0.000 C 
BRANCH  15  16
ATOM     16  C   UNL     1     207.612 194.003 223.371  1.00  0.00     0.000 C 
BRANCH  16  17
ATOM     17  C   UNL     1     208.996 194.474 223.847  1.00  0.00    -0.000 C 
BRANCH  17  18
ATOM     18  C   UNL     1     209.111 196.006 223.911  1.00  0.00    -0.000 C 
BRANCH  18  19
ATOM     19  C   UNL     1     210.462 196.517 223.388  1.00  0.00    -0.003 C 
ATOM     20  C   UNL     1     210.353 197.871 222.685  1.00  0.00     0.004 C 
ENDBRANCH  18  19
ENDBRANCH  17  18
ENDBRANCH  16  17
ENDBRANCH  15  16
ENDBRANCH  14  15
ENDBRANCH  13  14
ENDBRANCH   2  13
TORSDOF 15
ENDMDL
MODEL 7
REMARK VINA RESULT:    -3.770      2.201      4.485
REMARK INTER + INTRA:          -9.522
REMARK INTER:                  -6.972
REMARK INTRA:                  -2.550
REMARK UNBOUND:                -2.447
REMARK SMILES CCCCCCCCC=CCCCCCCCC(=O)[O-]
REMARK SMILES IDX 10 1 9 2 11 3 12 4 13 5 14 6 15 7 16 8 17 9 18 10 19 11
REMARK SMILES IDX 20 12 8 13 7 14 6 15 5 16 4 17 3 18 2 19 1 20
REMARK H PARENT
REMARK Flexibility Score: inf
ROOT
ATOM      1  C   UNL     1     209.538 193.928 225.092  1.00  0.00    -0.031 C 
ATOM      2  C   UNL     1     208.224 193.852 225.372  1.00  0.00    -0.031 C 
ENDROOT
BRANCH   1   3
ATOM      3  C   UNL     1     210.640 193.986 226.123  1.00  0.00     0.027 C 
BRANCH   3   4
ATOM      4  C   UNL     1     211.370 195.343 226.137  1.00  0.00     0.004 C 
BRANCH   4   5
ATOM      5  C   UNL     1     210.457 196.542 226.461  1.00  0.00     0.000 C 
BRANCH   5   6
ATOM      6  C   UNL     1     210.415 197.642 225.386  1.00  0.00     0.000 C 
BRANCH   6   7
ATOM      7  C   UNL     1     209.895 197.137 224.031  1.00  0.00     0.000 C 
BRANCH   7   8
ATOM      8  C   UNL     1     210.803 197.609 222.886  1.00  0.00     0.006 C 
BRANCH   8   9
ATOM      9  C   UNL     1     211.948 196.625 222.611  1.00  0.00     0.053 C 
BRANCH   9  10
ATOM     10  C   UNL     1     213.278 197.205 222.982  1.00  0.00     0.041 C 
ATOM     11  O   UNL     1     213.502 197.571 224.166  1.00  0.00    -0.550 OA
ATOM     12  O   UNL     1     214.260 197.370 222.013  1.00  0.00    -0.550 OA
ENDBRANCH   9  10
ENDBRANCH   8   9
ENDBRANCH   7   8
ENDBRANCH   6   7
ENDBRANCH   5   6
ENDBRANCH   4   5
ENDBRANCH   3   4
ENDBRANCH   1   3
BRANCH   2  13
ATOM     13  C   UNL     1     207.628 193.853 226.761  1.00  0.00     0.027 C 
BRANCH  13  14
ATOM     14  C   UNL     1     207.056 195.232 227.125  1.00  0.00     0.004 C 
BRANCH  14  15
ATOM     15  C   UNL     1     206.800 196.134 225.903  1.00  0.00     0.000 C 
BRANCH  15  16
ATOM     16  C   UNL     1     205.424 196.820 225.959  1.00  0.00     0.000 C 
BRANCH  16  17
ATOM     17  C   UNL     1     204.380 196.128 225.066  1.00  0.00    -0.000 C 
BRANCH  17  18
ATOM     18  C   UNL     1     204.908 195.847 223.649  1.00  0.00    -0.000 C 
BRANCH  18  19
ATOM     19  C   UNL     1     204.870 194.352 223.294  1.00  0.00    -0.003 C 
ATOM     20  C   UNL     1     204.550 193.464 224.497  1.00  0.00     0.004 C 
ENDBRANCH  18  19
ENDBRANCH  17  18
ENDBRANCH  16  17
ENDBRANCH  15  16
ENDBRANCH  14  15
ENDBRANCH  13  14
ENDBRANCH   2  13
TORSDOF 15
ENDMDL
MODEL 8
REMARK VINA RESULT:    -3.743      3.239      5.532
REMARK INTER + INTRA:          -9.472
REMARK INTER:                  -6.247
REMARK INTRA:                  -3.226
REMARK UNBOUND:                -2.447
REMARK SMILES CCCCCCCCC=CCCCCCCCC(=O)[O-]
REMARK SMILES IDX 10 1 9 2 11 3 12 4 13 5 14 6 15 7 16 8 17 9 18 10 19 11
REMARK SMILES IDX 20 12 8 13 7 14 6 15 5 16 4 17 3 18 2 19 1 20
REMARK H PARENT
REMARK Flexibility Score: inf
ROOT
ATOM      1  C   UNL     1     204.756 196.890 225.073  1.00  0.00    -0.031 C 
ATOM      2  C   UNL     1     205.430 196.517 226.177  1.00  0.00    -0.031 C 
ENDROOT
BRANCH   1   3
ATOM      3  C   UNL     1     205.214 196.643 223.656  1.00  0.00     0.027 C 
BRANCH   3   4
ATOM      4  C   UNL     1     204.566 195.392 223.032  1.00  0.00     0.004 C 
BRANCH   4   5
ATOM      5  C   UNL     1     203.331 194.877 223.796  1.00  0.00     0.000 C 
BRANCH   5   6
ATOM      6  C   UNL     1     203.486 193.483 224.428  1.00  0.00     0.000 C 
BRANCH   6   7
ATOM      7  C   UNL     1     202.589 192.423 223.771  1.00  0.00     0.000 C 
BRANCH   7   8
ATOM      8  C   UNL     1     201.649 193.065 222.740  1.00  0.00     0.006 C 
BRANCH   8   9
ATOM      9  C   UNL     1     201.554 192.241 221.449  1.00  0.00     0.053 C 
BRANCH   9  10
ATOM     10  C   UNL     1     202.505 192.737 220.404  1.00  0.00     0.041 C 
ATOM     11  O   UNL     1     202.882 193.938 220.409  1.00  0.00    -0.550 OA
ATOM     12  O   UNL     1     202.949 191.880 219.405  1.00  0.00    -0.550 OA
ENDBRANCH   9  10
ENDBRANCH   8   9
ENDBRANCH   7   8
ENDBRANCH   6   7
ENDBRANCH   5   6
ENDBRANCH   4   5
ENDBRANCH   3   4
ENDBRANCH   1   3
BRANCH   2  13
ATOM     13  C   UNL     1     206.775 195.827 226.184  1.00  0.00     0.027 C 
BRANCH  13  14
ATOM     14  C   UNL     1     206.643 194.346 226.577  1.00  0.00     0.004 C 
BRANCH  14  15
ATOM     15  C   UNL     1     207.139 193.375 225.490  1.00  0.00     0.000 C 
BRANCH  15  16
ATOM     16  C   UNL     1     207.804 194.105 224.311  1.00  0.00     0.000 C 
BRANCH  16  17
ATOM     17  C   UNL     1     207.672 193.333 222.987  1.00  0.00    -0.000 C 
BRANCH  17  18
ATOM     18  C   UNL     1     206.765 192.098 223.110  1.00  0.00    -0.000 C 
BRANCH  18  19
ATOM     19  C   UNL     1     205.785 191.969 221.933  1.00  0.00    -0.003 C 
ATOM     20  C   UNL     1     206.202 192.800 220.719  1.00  0.00     0.004 C 
ENDBRANCH  18  19
ENDBRANCH  17  18
ENDBRANCH  16  17
ENDBRANCH  15  16
ENDBRANCH  14  15
ENDBRANCH  13  14
ENDBRANCH   2  13
TORSDOF 15
ENDMDL
MODEL 9
REMARK VINA RESULT:    -3.711      3.621      6.533
REMARK INTER + INTRA:          -9.412
REMARK INTER:                  -6.994
REMARK INTRA:                  -2.418
REMARK UNBOUND:                -2.447
REMARK SMILES CCCCCCCCC=CCCCCCCCC(=O)[O-]
REMARK SMILES IDX 10 1 9 2 11 3 12 4 13 5 14 6 15 7 16 8 17 9 18 10 19 11
REMARK SMILES IDX 20 12 8 13 7 14 6 15 5 16 4 17 3 18 2 19 1 20
REMARK H PARENT
REMARK Flexibility Score: inf
ROOT
ATOM      1  C   UNL     1     206.661 194.812 226.937  1.00  0.00    -0.031 C 
ATOM      2  C   UNL     1     207.449 193.730 226.795  1.00  0.00    -0.031 C 
ENDROOT
BRANCH   1   3
ATOM      3  C   UNL     1     206.795 196.089 226.143  1.00  0.00     0.027 C 
BRANCH   3   4
ATOM      4  C   UNL     1     205.464 196.855 226.020  1.00  0.00     0.004 C 
BRANCH   4   5
ATOM      5  C   UNL     1     204.642 196.488 224.769  1.00  0.00     0.000 C 
BRANCH   5   6
ATOM      6  C   UNL     1     205.455 195.911 223.598  1.00  0.00     0.000 C 
BRANCH   6   7
ATOM      7  C   UNL     1     204.916 194.561 223.101  1.00  0.00     0.000 C 
BRANCH   7   8
ATOM      8  C   UNL     1     204.470 193.683 224.280  1.00  0.00     0.006 C 
BRANCH   8   9
ATOM      9  C   UNL     1     203.127 192.988 224.010  1.00  0.00     0.053 C 
BRANCH   9  10
ATOM     10  C   UNL     1     201.989 193.962 224.016  1.00  0.00     0.041 C 
ATOM     11  O   UNL     1     201.412 194.269 222.941  1.00  0.00    -0.550 OA
ATOM     12  O   UNL     1     201.588 194.554 225.207  1.00  0.00    -0.550 OA
ENDBRANCH   9  10
ENDBRANCH   8   9
ENDBRANCH   7   8
ENDBRANCH   6   7
ENDBRANCH   5   6
ENDBRANCH   4   5
ENDBRANCH   3   4
ENDBRANCH   1   3
BRANCH   2  13
ATOM     13  C   UNL     1     208.623 193.626 225.850  1.00  0.00     0.027 C 
BRANCH  13  14
ATOM     14  C   UNL     1     208.171 193.231 224.435  1.00  0.00     0.004 C 
BRANCH  14  15
ATOM     15  C   UNL     1     208.757 194.129 223.329  1.00  0.00     0.000 C 
BRANCH  15  16
ATOM     16  C   UNL     1     209.908 195.013 223.840  1.00  0.00     0.000 C 
BRANCH  16  17
ATOM     17  C   UNL     1     209.609 196.515 223.696  1.00  0.00    -0.000 C 
BRANCH  17  18
ATOM     18  C   UNL     1     210.701 197.263 222.914  1.00  0.00    -0.000 C 
BRANCH  18  19
ATOM     19  C   UNL     1     212.057 197.249 223.639  1.00  0.00    -0.003 C 
ATOM     20  C   UNL     1     213.244 197.216 222.677  1.00  0.00     0.004 C 
ENDBRANCH  18  19
ENDBRANCH  17  18
ENDBRANCH  16  17
ENDBRANCH  15  16
ENDBRANCH  14  15
ENDBRANCH  13  14
ENDBRANCH   2  13
TORSDOF 15
ENDMDL
