MODEL 1
REMARK VINA RESULT:    -4.258      0.000      0.000
REMARK INTER + INTRA:          -9.504
REMARK INTER:                  -7.370
REMARK INTRA:                  -2.134
REMARK UNBOUND:                -2.134
REMARK SMILES OC[C@@H]1O[C@H](O)[C@@H](O)[C@@H](O)[C@@H]1O[C@H]1O[C@H](CO)[C@H](O[C@@H]2O[C@H](CO)[C@H](O)[C@H](O)[C@H]2O)[C@H](O)[C@H]1O
REMARK SMILES IDX 18 1 15 2 14 3 13 4 33 5 31 6 19 7 20 8 22 9 25 10 21 11
REMARK SMILES IDX 27 12 29 13 23 14 24 15 26 17 28 19 30 21 16 23 17 24 32 26
REMARK SMILES IDX 34 28 12 30 11 31 3 32 9 33 4 34 7 35 5 36 2 37 1 38 10 40
REMARK SMILES IDX 8 42 6 44
REMARK H PARENT 24 16 26 18 28 20 30 22 17 25 32 27 34 29 1 39 10 41 8 43 6 45
REMARK Flexibility Score: inf
ROOT
ATOM      1  C   UNL     1      35.067 135.283 -33.755  1.00  0.00     0.184 C 
ATOM      2  C   UNL     1      35.491 135.070 -32.148  1.00  0.00     0.178 C 
ATOM      3  O   UNL     1      35.233 136.173 -31.218  1.00  0.00    -0.341 OA
ATOM      4  C   UNL     1      35.583 137.476 -31.750  1.00  0.00     0.282 C 
ATOM      5  C   UNL     1      35.070 137.715 -33.236  1.00  0.00     0.202 C 
ATOM      6  C   UNL     1      34.162 136.586 -33.776  1.00  0.00     0.180 C 
ENDROOT
BRANCH   1   7
ATOM      7  O   UNL     1      36.244 135.463 -34.639  1.00  0.00    -0.341 OA
BRANCH   7   8
ATOM      8  C   UNL     1      36.233 135.206 -36.055  1.00  0.00     0.282 C 
ATOM      9  C   UNL     1      37.841 133.876 -37.256  1.00  0.00     0.178 C 
ATOM     10  C   UNL     1      37.342 134.438 -38.584  1.00  0.00     0.177 C 
ATOM     11  O   UNL     1      36.837 133.875 -36.297  1.00  0.00    -0.341 OA
ATOM     12  C   UNL     1      36.983 135.956 -38.427  1.00  0.00     0.179 C 
ATOM     13  C   UNL     1      36.861 136.357 -36.922  1.00  0.00     0.202 C 
BRANCH   9  14
ATOM     14  C   UNL     1      39.242 134.434 -36.892  1.00  0.00     0.191 C 
BRANCH  14  15
ATOM     15  O   UNL     1      40.020 134.677 -38.004  1.00  0.00    -0.394 OA
ATOM     16  H   UNL     1      40.418 135.639 -37.906  1.00  0.00     0.210 HD
ENDBRANCH  14  15
ENDBRANCH   9  14
BRANCH  10  17
ATOM     17  O   UNL     1      38.075 134.045 -39.726  1.00  0.00    -0.387 OA
ATOM     18  H   UNL     1      39.079 134.113 -39.444  1.00  0.00     0.211 HD
ENDBRANCH  10  17
BRANCH  12  19
ATOM     19  O   UNL     1      37.897 136.821 -39.088  1.00  0.00    -0.387 OA
ATOM     20  H   UNL     1      38.455 137.345 -38.421  1.00  0.00     0.211 HD
ENDBRANCH  12  19
BRANCH  13  21
ATOM     21  O   UNL     1      35.995 137.491 -37.051  1.00  0.00    -0.385 OA
ATOM     22  H   UNL     1      36.253 138.020 -37.863  1.00  0.00     0.211 HD
ENDBRANCH  13  21
ENDBRANCH   7   8
ENDBRANCH   1   7
BRANCH   2  23
ATOM     23  C   UNL     1      36.970 134.541 -32.056  1.00  0.00     0.191 C 
BRANCH  23  24
ATOM     24  O   UNL     1      37.309 134.387 -30.685  1.00  0.00    -0.394 OA
ATOM     25  H   UNL     1      38.319 134.168 -30.701  1.00  0.00     0.210 HD
ENDBRANCH  23  24
ENDBRANCH   2  23
BRANCH   6  26
ATOM     26  O   UNL     1      33.767 136.873 -35.100  1.00  0.00    -0.387 OA
ATOM     27  H   UNL     1      34.137 137.791 -35.254  1.00  0.00     0.211 HD
ENDBRANCH   6  26
BRANCH   5  28
ATOM     28  O   UNL     1      35.092 139.049 -33.839  1.00  0.00    -0.385 OA
ATOM     29  H   UNL     1      34.865 139.620 -32.975  1.00  0.00     0.211 HD
ENDBRANCH   5  28
BRANCH   4  30
ATOM     30  O   UNL     1      35.094 138.520 -30.860  1.00  0.00    -0.341 OA
BRANCH  30  31
ATOM     31  C   UNL     1      33.691 138.560 -30.599  1.00  0.00     0.184 C 
ATOM     32  C   UNL     1      32.816 139.826 -31.016  1.00  0.00     0.178 C 
ATOM     33  C   UNL     1      33.475 138.154 -29.116  1.00  0.00     0.180 C 
ATOM     34  O   UNL     1      31.494 139.552 -30.686  1.00  0.00    -0.342 OA
ATOM     35  C   UNL     1      32.356 138.963 -28.421  1.00  0.00     0.201 C 
ATOM     36  C   UNL     1      31.181 139.285 -29.367  1.00  0.00     0.279 C 
BRANCH  32  37
ATOM     37  C   UNL     1      33.065 141.325 -30.627  1.00  0.00     0.191 C 
BRANCH  37  38
ATOM     38  O   UNL     1      34.359 141.490 -30.059  1.00  0.00    -0.394 OA
ATOM     39  H   UNL     1      34.981 141.869 -30.723  1.00  0.00     0.210 HD
ENDBRANCH  37  38
ENDBRANCH  32  37
BRANCH  33  40
ATOM     40  O   UNL     1      33.152 136.743 -29.116  1.00  0.00    -0.387 OA
ATOM     41  H   UNL     1      34.025 136.283 -29.200  1.00  0.00     0.211 HD
ENDBRANCH  33  40
BRANCH  35  42
ATOM     42  O   UNL     1      31.876 138.206 -27.374  1.00  0.00    -0.385 OA
ATOM     43  H   UNL     1      32.704 137.660 -27.103  1.00  0.00     0.211 HD
ENDBRANCH  35  42
BRANCH  36  44
ATOM     44  O   UNL     1      30.362 140.322 -28.845  1.00  0.00    -0.366 OA
ATOM     45  H   UNL     1      30.615 140.559 -27.954  1.00  0.00     0.213 HD
ENDBRANCH  36  44
ENDBRANCH  30  31
ENDBRANCH   4  30
TORSDOF 18
ENDMDL
MODEL 2
REMARK VINA RESULT:    -4.207      1.606      2.830
REMARK INTER + INTRA:          -9.415
REMARK INTER:                  -7.215
REMARK INTRA:                  -2.199
REMARK UNBOUND:                -2.134
REMARK SMILES OC[C@@H]1O[C@H](O)[C@@H](O)[C@@H](O)[C@@H]1O[C@H]1O[C@H](CO)[C@H](O[C@@H]2O[C@H](CO)[C@H](O)[C@H](O)[C@H]2O)[C@H](O)[C@H]1O
REMARK SMILES IDX 18 1 15 2 14 3 13 4 33 5 31 6 19 7 20 8 22 9 25 10 21 11
REMARK SMILES IDX 27 12 29 13 23 14 24 15 26 17 28 19 30 21 16 23 17 24 32 26
REMARK SMILES IDX 34 28 12 30 11 31 3 32 9 33 4 34 7 35 5 36 2 37 1 38 10 40
REMARK SMILES IDX 8 42 6 44
REMARK H PARENT 24 16 26 18 28 20 30 22 17 25 32 27 34 29 1 39 10 41 8 43 6 45
REMARK Flexibility Score: inf
ROOT
ATOM      1  C   UNL     1      35.579 134.374 -34.685  1.00  0.00     0.184 C 
ATOM      2  C   UNL     1      35.938 134.240 -33.054  1.00  0.00     0.178 C 
ATOM      3  O   UNL     1      35.277 135.164 -32.128  1.00  0.00    -0.341 OA
ATOM      4  C   UNL     1      35.226 136.531 -32.607  1.00  0.00     0.282 C 
ATOM      5  C   UNL     1      34.767 136.657 -34.125  1.00  0.00     0.202 C 
ATOM      6  C   UNL     1      34.308 135.320 -34.754  1.00  0.00     0.180 C 
ENDROOT
BRANCH   1   7
ATOM      7  O   UNL     1      36.694 134.956 -35.471  1.00  0.00    -0.341 OA
BRANCH   7   8
ATOM      8  C   UNL     1      37.322 134.298 -36.586  1.00  0.00     0.282 C 
ATOM      9  C   UNL     1      39.278 135.072 -37.757  1.00  0.00     0.178 C 
ATOM     10  C   UNL     1      39.002 134.098 -38.899  1.00  0.00     0.177 C 
ATOM     11  O   UNL     1      38.773 134.598 -36.554  1.00  0.00    -0.341 OA
ATOM     12  C   UNL     1      37.461 133.998 -39.163  1.00  0.00     0.179 C 
ATOM     13  C   UNL     1      36.642 134.591 -37.972  1.00  0.00     0.202 C 
BRANCH   9  14
ATOM     14  C   UNL     1      38.995 136.538 -38.178  1.00  0.00     0.191 C 
BRANCH  14  15
ATOM     15  O   UNL     1      39.219 136.755 -39.521  1.00  0.00    -0.394 OA
ATOM     16  H   UNL     1      39.363 135.823 -39.972  1.00  0.00     0.210 HD
ENDBRANCH  14  15
ENDBRANCH   9  14
BRANCH  10  17
ATOM     17  O   UNL     1      39.860 134.210 -40.017  1.00  0.00    -0.387 OA
ATOM     18  H   UNL     1      40.749 134.609 -39.640  1.00  0.00     0.211 HD
ENDBRANCH  10  17
BRANCH  12  19
ATOM     19  O   UNL     1      37.058 134.608 -40.382  1.00  0.00    -0.387 OA
ATOM     20  H   UNL     1      36.185 134.215 -40.719  1.00  0.00     0.211 HD
ENDBRANCH  12  19
BRANCH  13  21
ATOM     21  O   UNL     1      35.414 133.875 -38.151  1.00  0.00    -0.385 OA
ATOM     22  H   UNL     1      35.595 132.889 -38.140  1.00  0.00     0.211 HD
ENDBRANCH  13  21
ENDBRANCH   7   8
ENDBRANCH   1   7
BRANCH   2  23
ATOM     23  C   UNL     1      37.499 134.207 -32.856  1.00  0.00     0.191 C 
BRANCH  23  24
ATOM     24  O   UNL     1      37.778 134.249 -31.463  1.00  0.00    -0.394 OA
ATOM     25  H   UNL     1      37.304 135.108 -31.140  1.00  0.00     0.210 HD
ENDBRANCH  23  24
ENDBRANCH   2  23
BRANCH   6  26
ATOM     26  O   UNL     1      33.933 135.522 -36.100  1.00  0.00    -0.387 OA
ATOM     27  H   UNL     1      33.744 134.594 -36.424  1.00  0.00     0.211 HD
ENDBRANCH   6  26
BRANCH   5  28
ATOM     28  O   UNL     1      34.401 137.952 -34.700  1.00  0.00    -0.385 OA
ATOM     29  H   UNL     1      33.649 138.230 -34.006  1.00  0.00     0.211 HD
ENDBRANCH   5  28
BRANCH   4  30
ATOM     30  O   UNL     1      34.368 137.326 -31.740  1.00  0.00    -0.341 OA
BRANCH  30  31
ATOM     31  C   UNL     1      34.954 138.452 -31.086  1.00  0.00     0.184 C 
ATOM     32  C   UNL     1      34.909 138.591 -29.499  1.00  0.00     0.178 C 
ATOM     33  C   UNL     1      34.450 139.732 -31.806  1.00  0.00     0.180 C 
ATOM     34  O   UNL     1      35.601 139.749 -29.158  1.00  0.00    -0.342 OA
ATOM     35  C   UNL     1      34.164 140.903 -30.839  1.00  0.00     0.201 C 
ATOM     36  C   UNL     1      35.161 140.957 -29.663  1.00  0.00     0.279 C 
BRANCH  32  37
ATOM     37  C   UNL     1      33.643 138.547 -28.574  1.00  0.00     0.191 C 
BRANCH  37  38
ATOM     38  O   UNL     1      32.519 138.040 -29.283  1.00  0.00    -0.394 OA
ATOM     39  H   UNL     1      31.844 138.746 -29.410  1.00  0.00     0.210 HD
ENDBRANCH  37  38
ENDBRANCH  32  37
BRANCH  33  40
ATOM     40  O   UNL     1      35.476 140.103 -32.758  1.00  0.00    -0.387 OA
ATOM     41  H   UNL     1      34.984 140.333 -33.586  1.00  0.00     0.211 HD
ENDBRANCH  33  40
BRANCH  35  42
ATOM     42  O   UNL     1      34.270 142.076 -31.553  1.00  0.00    -0.385 OA
ATOM     43  H   UNL     1      33.910 142.770 -30.886  1.00  0.00     0.211 HD
ENDBRANCH  35  42
BRANCH  36  44
ATOM     44  O   UNL     1      34.676 141.774 -28.607  1.00  0.00    -0.366 OA
ATOM     45  H   UNL     1      35.293 141.815 -27.877  1.00  0.00     0.213 HD
ENDBRANCH  36  44
ENDBRANCH  30  31
ENDBRANCH   4  30
TORSDOF 18
ENDMDL
MODEL 3
REMARK VINA RESULT:    -3.818      1.321      2.170
REMARK INTER + INTRA:          -8.741
REMARK INTER:                  -7.028
REMARK INTRA:                  -1.714
REMARK UNBOUND:                -2.134
REMARK SMILES OC[C@@H]1O[C@H](O)[C@@H](O)[C@@H](O)[C@@H]1O[C@H]1O[C@H](CO)[C@H](O[C@@H]2O[C@H](CO)[C@H](O)[C@H](O)[C@H]2O)[C@H](O)[C@H]1O
REMARK SMILES IDX 18 1 15 2 14 3 13 4 33 5 31 6 19 7 20 8 22 9 25 10 21 11
REMARK SMILES IDX 27 12 29 13 23 14 24 15 26 17 28 19 30 21 16 23 17 24 32 26
REMARK SMILES IDX 34 28 12 30 11 31 3 32 9 33 4 34 7 35 5 36 2 37 1 38 10 40
REMARK SMILES IDX 8 42 6 44
REMARK H PARENT 24 16 26 18 28 20 30 22 17 25 32 27 34 29 1 39 10 41 8 43 6 45
REMARK Flexibility Score: inf
ROOT
ATOM      1  C   UNL     1      35.356 134.363 -34.008  1.00  0.00     0.184 C 
ATOM      2  C   UNL     1      35.483 134.489 -32.342  1.00  0.00     0.178 C 
ATOM      3  O   UNL     1      34.581 135.416 -31.652  1.00  0.00    -0.341 OA
ATOM      4  C   UNL     1      34.429 136.690 -32.327  1.00  0.00     0.282 C 
ATOM      5  C   UNL     1      34.188 136.556 -33.893  1.00  0.00     0.202 C 
ATOM      6  C   UNL     1      33.999 135.099 -34.377  1.00  0.00     0.180 C 
ENDROOT
BRANCH   1   7
ATOM      7  O   UNL     1      36.492 134.998 -34.718  1.00  0.00    -0.341 OA
BRANCH   7   8
ATOM      8  C   UNL     1      36.611 135.058 -36.152  1.00  0.00     0.282 C 
ATOM      9  C   UNL     1      38.440 134.180 -37.448  1.00  0.00     0.178 C 
ATOM     10  C   UNL     1      37.978 134.971 -38.670  1.00  0.00     0.177 C 
ATOM     11  O   UNL     1      37.376 133.875 -36.610  1.00  0.00    -0.341 OA
ATOM     12  C   UNL     1      37.440 136.376 -38.232  1.00  0.00     0.179 C 
ATOM     13  C   UNL     1      37.167 136.424 -36.694  1.00  0.00     0.202 C 
BRANCH   9  14
ATOM     14  C   UNL     1      39.740 134.774 -36.845  1.00  0.00     0.191 C 
BRANCH  14  15
ATOM     15  O   UNL     1      40.018 134.273 -35.591  1.00  0.00    -0.394 OA
ATOM     16  H   UNL     1      41.036 134.425 -35.408  1.00  0.00     0.210 HD
ENDBRANCH  14  15
ENDBRANCH   9  14
BRANCH  10  17
ATOM     17  O   UNL     1      38.830 134.908 -39.795  1.00  0.00    -0.387 OA
ATOM     18  H   UNL     1      39.406 135.778 -39.750  1.00  0.00     0.211 HD
ENDBRANCH  10  17
BRANCH  12  19
ATOM     19  O   UNL     1      38.296 137.447 -38.606  1.00  0.00    -0.387 OA
ATOM     20  H   UNL     1      38.436 137.472 -39.611  1.00  0.00     0.211 HD
ENDBRANCH  12  19
BRANCH  13  21
ATOM     21  O   UNL     1      36.191 137.473 -36.662  1.00  0.00    -0.385 OA
ATOM     22  H   UNL     1      35.407 137.186 -36.106  1.00  0.00     0.211 HD
ENDBRANCH  13  21
ENDBRANCH   7   8
ENDBRANCH   1   7
BRANCH   2  23
ATOM     23  C   UNL     1      36.989 134.708 -31.940  1.00  0.00     0.191 C 
BRANCH  23  24
ATOM     24  O   UNL     1      37.031 135.288 -30.645  1.00  0.00    -0.394 OA
ATOM     25  H   UNL     1      37.463 136.214 -30.800  1.00  0.00     0.210 HD
ENDBRANCH  23  24
ENDBRANCH   2  23
BRANCH   6  26
ATOM     26  O   UNL     1      33.805 135.074 -35.774  1.00  0.00    -0.387 OA
ATOM     27  H   UNL     1      33.561 136.021 -35.987  1.00  0.00     0.211 HD
ENDBRANCH   6  26
BRANCH   5  28
ATOM     28  O   UNL     1      33.750 137.702 -34.692  1.00  0.00    -0.385 OA
ATOM     29  H   UNL     1      33.425 138.333 -33.904  1.00  0.00     0.211 HD
ENDBRANCH   5  28
BRANCH   4  30
ATOM     30  O   UNL     1      33.360 137.455 -31.702  1.00  0.00    -0.341 OA
BRANCH  30  31
ATOM     31  C   UNL     1      33.666 138.776 -31.258  1.00  0.00     0.184 C 
ATOM     32  C   UNL     1      35.055 139.098 -30.542  1.00  0.00     0.178 C 
ATOM     33  C   UNL     1      32.449 139.297 -30.447  1.00  0.00     0.180 C 
ATOM     34  O   UNL     1      35.086 140.462 -30.277  1.00  0.00    -0.342 OA
ATOM     35  C   UNL     1      32.852 140.139 -29.215  1.00  0.00     0.201 C 
ATOM     36  C   UNL     1      34.103 141.004 -29.472  1.00  0.00     0.279 C 
BRANCH  32  37
ATOM     37  C   UNL     1      35.661 138.391 -29.280  1.00  0.00     0.191 C 
BRANCH  37  38
ATOM     38  O   UNL     1      35.159 137.066 -29.155  1.00  0.00    -0.394 OA
ATOM     39  H   UNL     1      34.534 137.004 -28.396  1.00  0.00     0.210 HD
ENDBRANCH  37  38
ENDBRANCH  32  37
BRANCH  33  40
ATOM     40  O   UNL     1      31.652 140.089 -31.361  1.00  0.00    -0.387 OA
ATOM     41  H   UNL     1      31.873 141.029 -31.140  1.00  0.00     0.211 HD
ENDBRANCH  33  40
BRANCH  35  42
ATOM     42  O   UNL     1      31.799 140.974 -28.912  1.00  0.00    -0.385 OA
ATOM     43  H   UNL     1      31.067 140.642 -29.551  1.00  0.00     0.211 HD
ENDBRANCH  35  42
BRANCH  36  44
ATOM     44  O   UNL     1      34.674 141.467 -28.256  1.00  0.00    -0.366 OA
ATOM     45  H   UNL     1      34.578 140.826 -27.553  1.00  0.00     0.213 HD
ENDBRANCH  36  44
ENDBRANCH  30  31
ENDBRANCH   4  30
TORSDOF 18
ENDMDL
MODEL 4
REMARK VINA RESULT:    -3.770      1.671      8.636
REMARK INTER + INTRA:          -8.659
REMARK INTER:                  -6.414
REMARK INTRA:                  -2.245
REMARK UNBOUND:                -2.134
REMARK SMILES OC[C@@H]1O[C@H](O)[C@@H](O)[C@@H](O)[C@@H]1O[C@H]1O[C@H](CO)[C@H](O[C@@H]2O[C@H](CO)[C@H](O)[C@H](O)[C@H]2O)[C@H](O)[C@H]1O
REMARK SMILES IDX 18 1 15 2 14 3 13 4 33 5 31 6 19 7 20 8 22 9 25 10 21 11
REMARK SMILES IDX 27 12 29 13 23 14 24 15 26 17 28 19 30 21 16 23 17 24 32 26
REMARK SMILES IDX 34 28 12 30 11 31 3 32 9 33 4 34 7 35 5 36 2 37 1 38 10 40
REMARK SMILES IDX 8 42 6 44
REMARK H PARENT 24 16 26 18 28 20 30 22 17 25 32 27 34 29 1 39 10 41 8 43 6 45
REMARK Flexibility Score: inf
ROOT
ATOM      1  C   UNL     1      35.169 137.003 -31.283  1.00  0.00     0.184 C 
ATOM      2  C   UNL     1      36.401 135.902 -31.000  1.00  0.00     0.178 C 
ATOM      3  O   UNL     1      36.845 135.066 -32.119  1.00  0.00    -0.341 OA
ATOM      4  C   UNL     1      35.757 134.537 -32.919  1.00  0.00     0.282 C 
ATOM      5  C   UNL     1      34.652 135.620 -33.285  1.00  0.00     0.202 C 
ATOM      6  C   UNL     1      35.020 137.062 -32.861  1.00  0.00     0.180 C 
ENDROOT
BRANCH   1   7
ATOM      7  O   UNL     1      33.885 136.597 -30.662  1.00  0.00    -0.341 OA
BRANCH   7   8
ATOM      8  C   UNL     1      32.961 137.517 -30.053  1.00  0.00     0.282 C 
ATOM      9  C   UNL     1      32.290 139.644 -30.959  1.00  0.00     0.178 C 
ATOM     10  C   UNL     1      31.700 140.053 -29.612  1.00  0.00     0.177 C 
ATOM     11  O   UNL     1      32.266 138.266 -31.126  1.00  0.00    -0.341 OA
ATOM     12  C   UNL     1      32.604 139.527 -28.445  1.00  0.00     0.179 C 
ATOM     13  C   UNL     1      33.601 138.434 -28.948  1.00  0.00     0.202 C 
BRANCH   9  14
ATOM     14  C   UNL     1      33.593 140.427 -31.272  1.00  0.00     0.191 C 
BRANCH  14  15
ATOM     15  O   UNL     1      33.598 140.958 -32.544  1.00  0.00    -0.394 OA
ATOM     16  H   UNL     1      34.587 140.958 -32.882  1.00  0.00     0.210 HD
ENDBRANCH  14  15
ENDBRANCH   9  14
BRANCH  10  17
ATOM     17  O   UNL     1      31.222 141.380 -29.534  1.00  0.00    -0.387 OA
ATOM     18  H   UNL     1      30.915 141.618 -30.503  1.00  0.00     0.211 HD
ENDBRANCH  10  17
BRANCH  12  19
ATOM     19  O   UNL     1      33.313 140.559 -27.774  1.00  0.00    -0.387 OA
ATOM     20  H   UNL     1      33.257 141.435 -28.283  1.00  0.00     0.211 HD
ENDBRANCH  12  19
BRANCH  13  21
ATOM     21  O   UNL     1      33.832 137.741 -27.716  1.00  0.00    -0.385 OA
ATOM     22  H   UNL     1      34.059 136.783 -27.907  1.00  0.00     0.211 HD
ENDBRANCH  13  21
ENDBRANCH   7   8
ENDBRANCH   1   7
BRANCH   2  23
ATOM     23  C   UNL     1      36.071 135.056 -29.714  1.00  0.00     0.191 C 
BRANCH  23  24
ATOM     24  O   UNL     1      36.016 135.935 -28.599  1.00  0.00    -0.394 OA
ATOM     25  H   UNL     1      35.600 136.799 -28.983  1.00  0.00     0.210 HD
ENDBRANCH  23  24
ENDBRANCH   2  23
BRANCH   6  26
ATOM     26  O   UNL     1      33.981 137.950 -33.212  1.00  0.00    -0.387 OA
ATOM     27  H   UNL     1      33.327 137.841 -32.462  1.00  0.00     0.211 HD
ENDBRANCH   6  26
BRANCH   5  28
ATOM     28  O   UNL     1      33.628 135.345 -34.295  1.00  0.00    -0.385 OA
ATOM     29  H   UNL     1      33.220 136.320 -34.380  1.00  0.00     0.211 HD
ENDBRANCH   5  28
BRANCH   4  30
ATOM     30  O   UNL     1      36.287 133.912 -34.121  1.00  0.00    -0.341 OA
BRANCH  30  31
ATOM     31  C   UNL     1      37.043 134.732 -35.013  1.00  0.00     0.184 C 
ATOM     32  C   UNL     1      36.349 135.441 -36.261  1.00  0.00     0.178 C 
ATOM     33  C   UNL     1      38.318 133.943 -35.414  1.00  0.00     0.180 C 
ATOM     34  O   UNL     1      37.317 136.206 -36.902  1.00  0.00    -0.342 OA
ATOM     35  C   UNL     1      38.717 134.142 -36.894  1.00  0.00     0.201 C 
ATOM     36  C   UNL     1      38.443 135.575 -37.394  1.00  0.00     0.279 C 
BRANCH  32  37
ATOM     37  C   UNL     1      35.505 134.760 -37.394  1.00  0.00     0.191 C 
BRANCH  37  38
ATOM     38  O   UNL     1      34.143 134.634 -37.001  1.00  0.00    -0.394 OA
ATOM     39  H   UNL     1      33.920 133.690 -36.828  1.00  0.00     0.210 HD
ENDBRANCH  37  38
ENDBRANCH  32  37
BRANCH  33  40
ATOM     40  O   UNL     1      39.379 134.398 -34.540  1.00  0.00    -0.387 OA
ATOM     41  H   UNL     1      39.231 133.915 -33.688  1.00  0.00     0.211 HD
ENDBRANCH  33  40
BRANCH  35  42
ATOM     42  O   UNL     1      40.068 133.893 -37.004  1.00  0.00    -0.385 OA
ATOM     43  H   UNL     1      40.401 134.075 -36.049  1.00  0.00     0.211 HD
ENDBRANCH  35  42
BRANCH  36  44
ATOM     44  O   UNL     1      38.453 135.642 -38.813  1.00  0.00    -0.366 OA
ATOM     45  H   UNL     1      37.984 136.410 -39.136  1.00  0.00     0.213 HD
ENDBRANCH  36  44
ENDBRANCH  30  31
ENDBRANCH   4  30
TORSDOF 18
ENDMDL
MODEL 5
REMARK VINA RESULT:    -3.687      2.236      8.751
REMARK INTER + INTRA:          -8.515
REMARK INTER:                  -6.170
REMARK INTRA:                  -2.345
REMARK UNBOUND:                -2.134
REMARK SMILES OC[C@@H]1O[C@H](O)[C@@H](O)[C@@H](O)[C@@H]1O[C@H]1O[C@H](CO)[C@H](O[C@@H]2O[C@H](CO)[C@H](O)[C@H](O)[C@H]2O)[C@H](O)[C@H]1O
REMARK SMILES IDX 18 1 15 2 14 3 13 4 33 5 31 6 19 7 20 8 22 9 25 10 21 11
REMARK SMILES IDX 27 12 29 13 23 14 24 15 26 17 28 19 30 21 16 23 17 24 32 26
REMARK SMILES IDX 34 28 12 30 11 31 3 32 9 33 4 34 7 35 5 36 2 37 1 38 10 40
REMARK SMILES IDX 8 42 6 44
REMARK H PARENT 24 16 26 18 28 20 30 22 17 25 32 27 34 29 1 39 10 41 8 43 6 45
REMARK Flexibility Score: inf
ROOT
ATOM      1  C   UNL     1      34.303 136.503 -29.586  1.00  0.00     0.184 C 
ATOM      2  C   UNL     1      33.386 136.527 -30.988  1.00  0.00     0.178 C 
ATOM      3  O   UNL     1      33.678 135.524 -32.017  1.00  0.00    -0.341 OA
ATOM      4  C   UNL     1      35.094 135.321 -32.246  1.00  0.00     0.282 C 
ATOM      5  C   UNL     1      35.942 135.179 -30.908  1.00  0.00     0.202 C 
ATOM      6  C   UNL     1      35.082 135.121 -29.624  1.00  0.00     0.180 C 
ENDROOT
BRANCH   1   7
ATOM      7  O   UNL     1      35.264 137.630 -29.512  1.00  0.00    -0.341 OA
BRANCH   7   8
ATOM      8  C   UNL     1      35.286 138.598 -28.447  1.00  0.00     0.282 C 
ATOM      9  C   UNL     1      34.177 140.735 -28.466  1.00  0.00     0.178 C 
ATOM     10  C   UNL     1      34.997 141.193 -27.263  1.00  0.00     0.177 C 
ATOM     11  O   UNL     1      34.014 139.356 -28.474  1.00  0.00    -0.341 OA
ATOM     12  C   UNL     1      36.463 140.650 -27.371  1.00  0.00     0.179 C 
ATOM     13  C   UNL     1      36.568 139.508 -28.432  1.00  0.00     0.202 C 
BRANCH   9  14
ATOM     14  C   UNL     1      34.622 141.457 -29.766  1.00  0.00     0.191 C 
BRANCH  14  15
ATOM     15  O   UNL     1      33.679 141.370 -30.768  1.00  0.00    -0.394 OA
ATOM     16  H   UNL     1      33.786 140.434 -31.222  1.00  0.00     0.210 HD
ENDBRANCH  14  15
ENDBRANCH   9  14
BRANCH  10  17
ATOM     17  O   UNL     1      34.816 142.540 -26.878  1.00  0.00    -0.387 OA
ATOM     18  H   UNL     1      33.782 142.689 -26.882  1.00  0.00     0.211 HD
ENDBRANCH  10  17
BRANCH  12  19
ATOM     19  O   UNL     1      37.419 141.664 -27.653  1.00  0.00    -0.387 OA
ATOM     20  H   UNL     1      37.365 141.961 -28.621  1.00  0.00     0.211 HD
ENDBRANCH  12  19
BRANCH  13  21
ATOM     21  O   UNL     1      37.726 138.828 -27.931  1.00  0.00    -0.385 OA
ATOM     22  H   UNL     1      37.651 138.725 -26.937  1.00  0.00     0.211 HD
ENDBRANCH  13  21
ENDBRANCH   7   8
ENDBRANCH   1   7
BRANCH   2  23
ATOM     23  C   UNL     1      33.344 137.988 -31.570  1.00  0.00     0.191 C 
BRANCH  23  24
ATOM     24  O   UNL     1      32.536 138.789 -30.719  1.00  0.00    -0.394 OA
ATOM     25  H   UNL     1      32.067 138.105 -30.104  1.00  0.00     0.210 HD
ENDBRANCH  23  24
ENDBRANCH   2  23
BRANCH   6  26
ATOM     26  O   UNL     1      35.914 135.009 -28.489  1.00  0.00    -0.387 OA
ATOM     27  H   UNL     1      35.266 134.812 -27.751  1.00  0.00     0.211 HD
ENDBRANCH   6  26
BRANCH   5  28
ATOM     28  O   UNL     1      37.328 134.708 -30.937  1.00  0.00    -0.385 OA
ATOM     29  H   UNL     1      37.743 135.466 -31.551  1.00  0.00     0.211 HD
ENDBRANCH   5  28
BRANCH   4  30
ATOM     30  O   UNL     1      35.294 134.167 -33.110  1.00  0.00    -0.341 OA
BRANCH  30  31
ATOM     31  C   UNL     1      35.390 134.403 -34.515  1.00  0.00     0.184 C 
ATOM     32  C   UNL     1      36.644 133.881 -35.349  1.00  0.00     0.178 C 
ATOM     33  C   UNL     1      35.099 135.908 -34.762  1.00  0.00     0.180 C 
ATOM     34  O   UNL     1      36.429 134.210 -36.683  1.00  0.00    -0.342 OA
ATOM     35  C   UNL     1      35.984 136.525 -35.868  1.00  0.00     0.201 C 
ATOM     36  C   UNL     1      36.267 135.540 -37.020  1.00  0.00     0.279 C 
BRANCH  32  37
ATOM     37  C   UNL     1      38.161 134.165 -35.066  1.00  0.00     0.191 C 
BRANCH  37  38
ATOM     38  O   UNL     1      38.432 134.107 -33.670  1.00  0.00    -0.394 OA
ATOM     39  H   UNL     1      37.954 134.826 -33.195  1.00  0.00     0.210 HD
ENDBRANCH  37  38
ENDBRANCH  32  37
BRANCH  33  40
ATOM     40  O   UNL     1      33.700 136.005 -35.123  1.00  0.00    -0.387 OA
ATOM     41  H   UNL     1      33.221 136.097 -34.261  1.00  0.00     0.211 HD
ENDBRANCH  33  40
BRANCH  35  42
ATOM     42  O   UNL     1      35.318 137.617 -36.382  1.00  0.00    -0.385 OA
ATOM     43  H   UNL     1      35.781 138.399 -35.902  1.00  0.00     0.211 HD
ENDBRANCH  35  42
BRANCH  36  44
ATOM     44  O   UNL     1      37.361 135.973 -37.818  1.00  0.00    -0.366 OA
ATOM     45  H   UNL     1      37.576 136.891 -37.656  1.00  0.00     0.213 HD
ENDBRANCH  36  44
ENDBRANCH  30  31
ENDBRANCH   4  30
TORSDOF 18
ENDMDL
MODEL 6
REMARK VINA RESULT:    -3.362      1.518      8.958
REMARK INTER + INTRA:          -7.952
REMARK INTER:                  -5.818
REMARK INTRA:                  -2.135
REMARK UNBOUND:                -2.134
REMARK SMILES OC[C@@H]1O[C@H](O)[C@@H](O)[C@@H](O)[C@@H]1O[C@H]1O[C@H](CO)[C@H](O[C@@H]2O[C@H](CO)[C@H](O)[C@H](O)[C@H]2O)[C@H](O)[C@H]1O
REMARK SMILES IDX 18 1 15 2 14 3 13 4 33 5 31 6 19 7 20 8 22 9 25 10 21 11
REMARK SMILES IDX 27 12 29 13 23 14 24 15 26 17 28 19 30 21 16 23 17 24 32 26
REMARK SMILES IDX 34 28 12 30 11 31 3 32 9 33 4 34 7 35 5 36 2 37 1 38 10 40
REMARK SMILES IDX 8 42 6 44
REMARK H PARENT 24 16 26 18 28 20 30 22 17 25 32 27 34 29 1 39 10 41 8 43 6 45
REMARK Flexibility Score: inf
ROOT
ATOM      1  C   UNL     1      34.438 136.885 -32.188  1.00  0.00     0.184 C 
ATOM      2  C   UNL     1      34.189 136.879 -33.845  1.00  0.00     0.178 C 
ATOM      3  O   UNL     1      34.745 135.765 -34.618  1.00  0.00    -0.341 OA
ATOM      4  C   UNL     1      36.091 135.398 -34.226  1.00  0.00     0.282 C 
ATOM      5  C   UNL     1      36.288 135.289 -32.652  1.00  0.00     0.202 C 
ATOM      6  C   UNL     1      34.977 135.432 -31.844  1.00  0.00     0.180 C 
ENDROOT
BRANCH   1   7
ATOM      7  O   UNL     1      35.421 137.910 -31.760  1.00  0.00    -0.341 OA
BRANCH   7   8
ATOM      8  C   UNL     1      35.173 138.879 -30.726  1.00  0.00     0.282 C 
ATOM      9  C   UNL     1      33.564 138.658 -28.948  1.00  0.00     0.178 C 
ATOM     10  C   UNL     1      33.685 140.146 -28.629  1.00  0.00     0.177 C 
ATOM     11  O   UNL     1      34.735 138.162 -29.505  1.00  0.00    -0.341 OA
ATOM     12  C   UNL     1      33.840 140.971 -29.952  1.00  0.00     0.179 C 
ATOM     13  C   UNL     1      34.214 140.047 -31.156  1.00  0.00     0.202 C 
BRANCH   9  14
ATOM     14  C   UNL     1      32.203 138.328 -29.616  1.00  0.00     0.191 C 
BRANCH  14  15
ATOM     15  O   UNL     1      31.128 138.758 -28.867  1.00  0.00    -0.394 OA
ATOM     16  H   UNL     1      30.325 138.122 -29.074  1.00  0.00     0.210 HD
ENDBRANCH  14  15
ENDBRANCH   9  14
BRANCH  10  17
ATOM     17  O   UNL     1      32.795 140.632 -27.645  1.00  0.00    -0.387 OA
ATOM     18  H   UNL     1      31.998 139.957 -27.638  1.00  0.00     0.211 HD
ENDBRANCH  10  17
BRANCH  12  19
ATOM     19  O   UNL     1      32.690 141.743 -30.271  1.00  0.00    -0.387 OA
ATOM     20  H   UNL     1      32.175 141.998 -29.435  1.00  0.00     0.211 HD
ENDBRANCH  12  19
BRANCH  13  21
ATOM     21  O   UNL     1      34.855 141.011 -32.000  1.00  0.00    -0.385 OA
ATOM     22  H   UNL     1      34.258 141.229 -32.775  1.00  0.00     0.211 HD
ENDBRANCH  13  21
ENDBRANCH   7   8
ENDBRANCH   1   7
BRANCH   2  23
ATOM     23  C   UNL     1      34.580 138.280 -34.445  1.00  0.00     0.191 C 
BRANCH  23  24
ATOM     24  O   UNL     1      35.991 138.427 -34.362  1.00  0.00    -0.394 OA
ATOM     25  H   UNL     1      36.281 138.596 -35.339  1.00  0.00     0.210 HD
ENDBRANCH  23  24
ENDBRANCH   2  23
BRANCH   6  26
ATOM     26  O   UNL     1      35.246 135.336 -30.462  1.00  0.00    -0.387 OA
ATOM     27  H   UNL     1      36.247 135.342 -30.425  1.00  0.00     0.211 HD
ENDBRANCH   6  26
BRANCH   5  28
ATOM     28  O   UNL     1      37.489 134.678 -32.080  1.00  0.00    -0.385 OA
ATOM     29  H   UNL     1      37.884 134.242 -32.963  1.00  0.00     0.211 HD
ENDBRANCH   5  28
BRANCH   4  30
ATOM     30  O   UNL     1      36.477 134.158 -34.883  1.00  0.00    -0.341 OA
BRANCH  30  31
ATOM     31  C   UNL     1      37.122 134.257 -36.153  1.00  0.00     0.184 C 
ATOM     32  C   UNL     1      38.661 133.876 -36.322  1.00  0.00     0.178 C 
ATOM     33  C   UNL     1      36.790 135.654 -36.744  1.00  0.00     0.180 C 
ATOM     34  O   UNL     1      38.985 134.019 -37.666  1.00  0.00    -0.342 OA
ATOM     35  C   UNL     1      37.979 136.295 -37.496  1.00  0.00     0.201 C 
ATOM     36  C   UNL     1      38.827 135.257 -38.258  1.00  0.00     0.279 C 
BRANCH  32  37
ATOM     37  C   UNL     1      39.877 134.446 -35.513  1.00  0.00     0.191 C 
BRANCH  37  38
ATOM     38  O   UNL     1      39.707 134.217 -34.119  1.00  0.00    -0.394 OA
ATOM     39  H   UNL     1      38.842 133.779 -33.944  1.00  0.00     0.210 HD
ENDBRANCH  37  38
ENDBRANCH  32  37
BRANCH  33  40
ATOM     40  O   UNL     1      35.668 135.468 -37.641  1.00  0.00    -0.387 OA
ATOM     41  H   UNL     1      35.081 134.816 -37.180  1.00  0.00     0.211 HD
ENDBRANCH  33  40
BRANCH  35  42
ATOM     42  O   UNL     1      37.467 137.194 -38.406  1.00  0.00    -0.385 OA
ATOM     43  H   UNL     1      36.454 137.059 -38.299  1.00  0.00     0.211 HD
ENDBRANCH  35  42
BRANCH  36  44
ATOM     44  O   UNL     1      40.096 135.786 -38.618  1.00  0.00    -0.366 OA
ATOM     45  H   UNL     1      40.554 136.153 -37.863  1.00  0.00     0.213 HD
ENDBRANCH  36  44
ENDBRANCH  30  31
ENDBRANCH   4  30
TORSDOF 18
ENDMDL
MODEL 7
REMARK VINA RESULT:    -3.194      5.504     10.702
REMARK INTER + INTRA:          -7.662
REMARK INTER:                  -5.559
REMARK INTRA:                  -2.103
REMARK UNBOUND:                -2.134
REMARK SMILES OC[C@@H]1O[C@H](O)[C@@H](O)[C@@H](O)[C@@H]1O[C@H]1O[C@H](CO)[C@H](O[C@@H]2O[C@H](CO)[C@H](O)[C@H](O)[C@H]2O)[C@H](O)[C@H]1O
REMARK SMILES IDX 18 1 15 2 14 3 13 4 33 5 31 6 19 7 20 8 22 9 25 10 21 11
REMARK SMILES IDX 27 12 29 13 23 14 24 15 26 17 28 19 30 21 16 23 17 24 32 26
REMARK SMILES IDX 34 28 12 30 11 31 3 32 9 33 4 34 7 35 5 36 2 37 1 38 10 40
REMARK SMILES IDX 8 42 6 44
REMARK H PARENT 24 16 26 18 28 20 30 22 17 25 32 27 34 29 1 39 10 41 8 43 6 45
REMARK Flexibility Score: inf
ROOT
ATOM      1  C   UNL     1      38.414 135.499 -41.266  1.00  0.00     0.184 C 
ATOM      2  C   UNL     1      37.817 135.034 -42.761  1.00  0.00     0.178 C 
ATOM      3  O   UNL     1      37.753 136.046 -43.820  1.00  0.00    -0.341 OA
ATOM      4  C   UNL     1      37.262 137.333 -43.366  1.00  0.00     0.282 C 
ATOM      5  C   UNL     1      37.924 137.823 -42.006  1.00  0.00     0.202 C 
ATOM      6  C   UNL     1      39.077 136.920 -41.508  1.00  0.00     0.180 C 
ENDROOT
BRANCH   1   7
ATOM      7  O   UNL     1      37.356 135.598 -40.233  1.00  0.00    -0.341 OA
BRANCH   7   8
ATOM      8  C   UNL     1      37.544 135.238 -38.852  1.00  0.00     0.282 C 
ATOM      9  C   UNL     1      36.055 133.878 -37.536  1.00  0.00     0.178 C 
ATOM     10  C   UNL     1      36.750 134.326 -36.253  1.00  0.00     0.177 C 
ATOM     11  O   UNL     1      36.921 133.914 -38.621  1.00  0.00    -0.341 OA
ATOM     12  C   UNL     1      37.150 135.837 -36.354  1.00  0.00     0.179 C 
ATOM     13  C   UNL     1      37.087 136.343 -37.832  1.00  0.00     0.202 C 
BRANCH   9  14
ATOM     14  C   UNL     1      34.643 134.508 -37.668  1.00  0.00     0.191 C 
BRANCH  14  15
ATOM     15  O   UNL     1      34.127 134.907 -36.453  1.00  0.00    -0.394 OA
ATOM     16  H   UNL     1      33.632 134.086 -36.036  1.00  0.00     0.210 HD
ENDBRANCH  14  15
ENDBRANCH   9  14
BRANCH  10  17
ATOM     17  O   UNL     1      36.160 133.875 -35.051  1.00  0.00    -0.387 OA
ATOM     18  H   UNL     1      35.130 133.901 -35.226  1.00  0.00     0.211 HD
ENDBRANCH  10  17
BRANCH  12  19
ATOM     19  O   UNL     1      36.371 136.682 -35.519  1.00  0.00    -0.387 OA
ATOM     20  H   UNL     1      36.197 137.579 -35.961  1.00  0.00     0.211 HD
ENDBRANCH  12  19
BRANCH  13  21
ATOM     21  O   UNL     1      38.010 137.435 -37.745  1.00  0.00    -0.385 OA
ATOM     22  H   UNL     1      38.267 137.731 -38.668  1.00  0.00     0.211 HD
ENDBRANCH  13  21
ENDBRANCH   7   8
ENDBRANCH   1   7
BRANCH   2  23
ATOM     23  C   UNL     1      36.452 134.275 -42.574  1.00  0.00     0.191 C 
BRANCH  23  24
ATOM     24  O   UNL     1      35.766 134.266 -43.818  1.00  0.00    -0.394 OA
ATOM     25  H   UNL     1      35.188 133.411 -43.778  1.00  0.00     0.210 HD
ENDBRANCH  23  24
ENDBRANCH   2  23
BRANCH   6  26
ATOM     26  O   UNL     1      39.594 137.420 -40.294  1.00  0.00    -0.387 OA
ATOM     27  H   UNL     1      38.796 137.420 -39.690  1.00  0.00     0.211 HD
ENDBRANCH   6  26
BRANCH   5  28
ATOM     28  O   UNL     1      37.757 139.199 -41.536  1.00  0.00    -0.385 OA
ATOM     29  H   UNL     1      38.132 139.707 -42.387  1.00  0.00     0.211 HD
ENDBRANCH   5  28
BRANCH   4  30
ATOM     30  O   UNL     1      37.439 138.326 -44.415  1.00  0.00    -0.341 OA
BRANCH  30  31
ATOM     31  C   UNL     1      36.294 139.084 -44.806  1.00  0.00     0.184 C 
ATOM     32  C   UNL     1      36.375 140.668 -44.965  1.00  0.00     0.178 C 
ATOM     33  C   UNL     1      35.105 138.640 -43.911  1.00  0.00     0.180 C 
ATOM     34  O   UNL     1      35.132 141.112 -45.404  1.00  0.00    -0.342 OA
ATOM     35  C   UNL     1      34.181 139.809 -43.502  1.00  0.00     0.201 C 
ATOM     36  C   UNL     1      34.024 140.859 -44.620  1.00  0.00     0.279 C 
BRANCH  32  37
ATOM     37  C   UNL     1      36.861 141.709 -43.897  1.00  0.00     0.191 C 
BRANCH  37  38
ATOM     38  O   UNL     1      38.052 141.259 -43.262  1.00  0.00    -0.394 OA
ATOM     39  H   UNL     1      37.892 140.409 -42.790  1.00  0.00     0.210 HD
ENDBRANCH  37  38
ENDBRANCH  32  37
BRANCH  33  40
ATOM     40  O   UNL     1      34.364 137.652 -44.667  1.00  0.00    -0.387 OA
ATOM     41  H   UNL     1      33.896 138.170 -45.370  1.00  0.00     0.211 HD
ENDBRANCH  33  40
BRANCH  35  42
ATOM     42  O   UNL     1      32.938 139.285 -43.218  1.00  0.00    -0.385 OA
ATOM     43  H   UNL     1      33.176 138.415 -42.726  1.00  0.00     0.211 HD
ENDBRANCH  35  42
BRANCH  36  44
ATOM     44  O   UNL     1      33.500 142.081 -44.116  1.00  0.00    -0.366 OA
ATOM     45  H   UNL     1      33.356 142.719 -44.813  1.00  0.00     0.213 HD
ENDBRANCH  36  44
ENDBRANCH  30  31
ENDBRANCH   4  30
TORSDOF 18
ENDMDL
MODEL 8
REMARK VINA RESULT:    -3.088      2.576      8.384
REMARK INTER + INTRA:          -7.478
REMARK INTER:                  -6.240
REMARK INTRA:                  -1.238
REMARK UNBOUND:                -2.134
REMARK SMILES OC[C@@H]1O[C@H](O)[C@@H](O)[C@@H](O)[C@@H]1O[C@H]1O[C@H](CO)[C@H](O[C@@H]2O[C@H](CO)[C@H](O)[C@H](O)[C@H]2O)[C@H](O)[C@H]1O
REMARK SMILES IDX 18 1 15 2 14 3 13 4 33 5 31 6 19 7 20 8 22 9 25 10 21 11
REMARK SMILES IDX 27 12 29 13 23 14 24 15 26 17 28 19 30 21 16 23 17 24 32 26
REMARK SMILES IDX 34 28 12 30 11 31 3 32 9 33 4 34 7 35 5 36 2 37 1 38 10 40
REMARK SMILES IDX 8 42 6 44
REMARK H PARENT 24 16 26 18 28 20 30 22 17 25 32 27 34 29 1 39 10 41 8 43 6 45
REMARK Flexibility Score: inf
ROOT
ATOM      1  C   UNL     1      35.440 137.298 -27.703  1.00  0.00     0.184 C 
ATOM      2  C   UNL     1      35.802 135.763 -28.272  1.00  0.00     0.178 C 
ATOM      3  O   UNL     1      36.404 135.649 -29.603  1.00  0.00    -0.341 OA
ATOM      4  C   UNL     1      35.793 136.513 -30.595  1.00  0.00     0.282 C 
ATOM      5  C   UNL     1      35.563 138.002 -30.086  1.00  0.00     0.202 C 
ATOM      6  C   UNL     1      36.177 138.292 -28.696  1.00  0.00     0.180 C 
ENDROOT
BRANCH   1   7
ATOM      7  O   UNL     1      33.983 137.574 -27.690  1.00  0.00    -0.341 OA
BRANCH   7   8
ATOM      8  C   UNL     1      33.366 138.667 -28.395  1.00  0.00     0.282 C 
ATOM      9  C   UNL     1      31.738 140.188 -27.483  1.00  0.00     0.178 C 
ATOM     10  C   UNL     1      31.384 140.679 -28.884  1.00  0.00     0.177 C 
ATOM     11  O   UNL     1      33.049 139.737 -27.420  1.00  0.00    -0.341 OA
ATOM     12  C   UNL     1      31.409 139.484 -29.898  1.00  0.00     0.179 C 
ATOM     13  C   UNL     1      32.149 138.245 -29.295  1.00  0.00     0.202 C 
BRANCH   9  14
ATOM     14  C   UNL     1      30.603 139.318 -26.881  1.00  0.00     0.191 C 
BRANCH  14  15
ATOM     15  O   UNL     1      29.357 139.672 -27.354  1.00  0.00    -0.394 OA
ATOM     16  H   UNL     1      29.107 140.593 -26.927  1.00  0.00     0.210 HD
ENDBRANCH  14  15
ENDBRANCH   9  14
BRANCH  10  17
ATOM     17  O   UNL     1      30.304 141.587 -28.958  1.00  0.00    -0.387 OA
ATOM     18  H   UNL     1      29.486 141.072 -28.560  1.00  0.00     0.211 HD
ENDBRANCH  10  17
BRANCH  12  19
ATOM     19  O   UNL     1      30.118 139.104 -30.353  1.00  0.00    -0.387 OA
ATOM     20  H   UNL     1      29.716 138.385 -29.760  1.00  0.00     0.211 HD
ENDBRANCH  12  19
BRANCH  13  21
ATOM     21  O   UNL     1      32.552 137.599 -30.509  1.00  0.00    -0.385 OA
ATOM     22  H   UNL     1      33.114 138.227 -31.053  1.00  0.00     0.211 HD
ENDBRANCH  13  21
ENDBRANCH   7   8
ENDBRANCH   1   7
BRANCH   2  23
ATOM     23  C   UNL     1      34.552 134.824 -28.096  1.00  0.00     0.191 C 
BRANCH  23  24
ATOM     24  O   UNL     1      33.687 135.012 -29.207  1.00  0.00    -0.394 OA
ATOM     25  H   UNL     1      32.748 134.801 -28.831  1.00  0.00     0.210 HD
ENDBRANCH  23  24
ENDBRANCH   2  23
BRANCH   6  26
ATOM     26  O   UNL     1      35.914 139.627 -28.320  1.00  0.00    -0.387 OA
ATOM     27  H   UNL     1      36.312 139.687 -27.404  1.00  0.00     0.211 HD
ENDBRANCH   6  26
BRANCH   5  28
ATOM     28  O   UNL     1      35.209 139.074 -31.018  1.00  0.00    -0.385 OA
ATOM     29  H   UNL     1      35.502 139.904 -30.428  1.00  0.00     0.211 HD
ENDBRANCH   5  28
BRANCH   4  30
ATOM     30  O   UNL     1      36.585 136.500 -31.816  1.00  0.00    -0.341 OA
BRANCH  30  31
ATOM     31  C   UNL     1      36.146 135.653 -32.878  1.00  0.00     0.184 C 
ATOM     32  C   UNL     1      36.297 136.103 -34.400  1.00  0.00     0.178 C 
ATOM     33  C   UNL     1      34.706 135.180 -32.541  1.00  0.00     0.180 C 
ATOM     34  O   UNL     1      35.837 135.060 -35.195  1.00  0.00    -0.342 OA
ATOM     35  C   UNL     1      33.785 135.104 -33.779  1.00  0.00     0.201 C 
ATOM     36  C   UNL     1      34.531 134.637 -35.046  1.00  0.00     0.279 C 
BRANCH  32  37
ATOM     37  C   UNL     1      35.767 137.424 -35.059  1.00  0.00     0.191 C 
BRANCH  37  38
ATOM     38  O   UNL     1      35.574 138.435 -34.076  1.00  0.00    -0.394 OA
ATOM     39  H   UNL     1      36.080 139.247 -34.312  1.00  0.00     0.210 HD
ENDBRANCH  37  38
ENDBRANCH  32  37
BRANCH  33  40
ATOM     40  O   UNL     1      34.832 133.875 -31.926  1.00  0.00    -0.387 OA
ATOM     41  H   UNL     1      34.225 133.290 -32.446  1.00  0.00     0.211 HD
ENDBRANCH  33  40
BRANCH  35  42
ATOM     42  O   UNL     1      32.783 134.199 -33.505  1.00  0.00    -0.385 OA
ATOM     43  H   UNL     1      33.131 133.739 -32.655  1.00  0.00     0.211 HD
ENDBRANCH  35  42
BRANCH  36  44
ATOM     44  O   UNL     1      33.791 134.930 -36.223  1.00  0.00    -0.366 OA
ATOM     45  H   UNL     1      33.253 134.188 -36.498  1.00  0.00     0.213 HD
ENDBRANCH  36  44
ENDBRANCH  30  31
ENDBRANCH   4  30
TORSDOF 18
ENDMDL
MODEL 9
REMARK VINA RESULT:    -3.037      1.701      2.392
REMARK INTER + INTRA:          -7.390
REMARK INTER:                  -5.856
REMARK INTRA:                  -1.534
REMARK UNBOUND:                -2.134
REMARK SMILES OC[C@@H]1O[C@H](O)[C@@H](O)[C@@H](O)[C@@H]1O[C@H]1O[C@H](CO)[C@H](O[C@@H]2O[C@H](CO)[C@H](O)[C@H](O)[C@H]2O)[C@H](O)[C@H]1O
REMARK SMILES IDX 18 1 15 2 14 3 13 4 33 5 31 6 19 7 20 8 22 9 25 10 21 11
REMARK SMILES IDX 27 12 29 13 23 14 24 15 26 17 28 19 30 21 16 23 17 24 32 26
REMARK SMILES IDX 34 28 12 30 11 31 3 32 9 33 4 34 7 35 5 36 2 37 1 38 10 40
REMARK SMILES IDX 8 42 6 44
REMARK H PARENT 24 16 26 18 28 20 30 22 17 25 32 27 34 29 1 39 10 41 8 43 6 45
REMARK Flexibility Score: inf
ROOT
ATOM      1  C   UNL     1      35.564 134.222 -35.211  1.00  0.00     0.184 C 
ATOM      2  C   UNL     1      35.921 134.147 -33.575  1.00  0.00     0.178 C 
ATOM      3  O   UNL     1      35.333 135.164 -32.697  1.00  0.00    -0.341 OA
ATOM      4  C   UNL     1      35.377 136.504 -33.247  1.00  0.00     0.282 C 
ATOM      5  C   UNL     1      34.921 136.584 -34.768  1.00  0.00     0.202 C 
ATOM      6  C   UNL     1      34.363 135.253 -35.327  1.00  0.00     0.180 C 
ENDROOT
BRANCH   1   7
ATOM      7  O   UNL     1      36.713 134.681 -36.027  1.00  0.00    -0.341 OA
BRANCH   7   8
ATOM      8  C   UNL     1      36.611 135.081 -37.406  1.00  0.00     0.282 C 
ATOM      9  C   UNL     1      37.712 134.017 -39.264  1.00  0.00     0.178 C 
ATOM     10  C   UNL     1      37.404 135.216 -40.157  1.00  0.00     0.177 C 
ATOM     11  O   UNL     1      36.766 133.879 -38.258  1.00  0.00    -0.341 OA
ATOM     12  C   UNL     1      37.539 136.547 -39.341  1.00  0.00     0.179 C 
ATOM     13  C   UNL     1      37.561 136.269 -37.803  1.00  0.00     0.202 C 
BRANCH   9  14
ATOM     14  C   UNL     1      39.220 133.945 -38.908  1.00  0.00     0.191 C 
BRANCH  14  15
ATOM     15  O   UNL     1      40.031 134.041 -40.019  1.00  0.00    -0.394 OA
ATOM     16  H   UNL     1      40.972 133.669 -39.756  1.00  0.00     0.210 HD
ENDBRANCH  14  15
ENDBRANCH   9  14
BRANCH  10  17
ATOM     17  O   UNL     1      37.967 135.173 -41.452  1.00  0.00    -0.387 OA
ATOM     18  H   UNL     1      37.525 134.347 -41.915  1.00  0.00     0.211 HD
ENDBRANCH  10  17
BRANCH  12  19
ATOM     19  O   UNL     1      38.673 137.321 -39.710  1.00  0.00    -0.387 OA
ATOM     20  H   UNL     1      39.431 136.730 -40.036  1.00  0.00     0.211 HD
ENDBRANCH  12  19
BRANCH  13  21
ATOM     21  O   UNL     1      37.094 137.537 -37.328  1.00  0.00    -0.385 OA
ATOM     22  H   UNL     1      37.801 137.964 -36.760  1.00  0.00     0.211 HD
ENDBRANCH  13  21
ENDBRANCH   7   8
ENDBRANCH   1   7
BRANCH   2  23
ATOM     23  C   UNL     1      37.476 134.012 -33.378  1.00  0.00     0.191 C 
BRANCH  23  24
ATOM     24  O   UNL     1      37.794 134.373 -32.041  1.00  0.00    -0.394 OA
ATOM     25  H   UNL     1      36.880 134.606 -31.622  1.00  0.00     0.210 HD
ENDBRANCH  23  24
ENDBRANCH   2  23
BRANCH   6  26
ATOM     26  O   UNL     1      33.997 135.412 -36.680  1.00  0.00    -0.387 OA
ATOM     27  H   UNL     1      32.997 135.430 -36.644  1.00  0.00     0.211 HD
ENDBRANCH   6  26
BRANCH   5  28
ATOM     28  O   UNL     1      34.646 137.871 -35.409  1.00  0.00    -0.385 OA
ATOM     29  H   UNL     1      34.106 138.331 -34.622  1.00  0.00     0.211 HD
ENDBRANCH   5  28
BRANCH   4  30
ATOM     30  O   UNL     1      34.584 137.403 -32.421  1.00  0.00    -0.341 OA
BRANCH  30  31
ATOM     31  C   UNL     1      34.437 137.072 -31.040  1.00  0.00     0.184 C 
ATOM     32  C   UNL     1      33.065 137.348 -30.275  1.00  0.00     0.178 C 
ATOM     33  C   UNL     1      35.663 137.649 -30.283  1.00  0.00     0.180 C 
ATOM     34  O   UNL     1      33.207 136.876 -28.974  1.00  0.00    -0.342 OA
ATOM     35  C   UNL     1      35.306 138.221 -28.892  1.00  0.00     0.201 C 
ATOM     36  C   UNL     1      34.205 137.407 -28.181  1.00  0.00     0.279 C 
BRANCH  32  37
ATOM     37  C   UNL     1      32.291 138.707 -30.167  1.00  0.00     0.191 C 
BRANCH  37  38
ATOM     38  O   UNL     1      32.474 139.486 -31.344  1.00  0.00    -0.394 OA
ATOM     39  H   UNL     1      31.610 139.833 -31.666  1.00  0.00     0.210 HD
ENDBRANCH  37  38
ENDBRANCH  32  37
BRANCH  33  40
ATOM     40  O   UNL     1      36.616 136.566 -30.153  1.00  0.00    -0.387 OA
ATOM     41  H   UNL     1      37.094 136.544 -31.020  1.00  0.00     0.211 HD
ENDBRANCH  33  40
BRANCH  35  42
ATOM     42  O   UNL     1      36.444 138.185 -28.116  1.00  0.00    -0.385 OA
ATOM     43  H   UNL     1      36.091 138.484 -27.198  1.00  0.00     0.211 HD
ENDBRANCH  35  42
BRANCH  36  44
ATOM     44  O   UNL     1      33.630 138.139 -27.106  1.00  0.00    -0.366 OA
ATOM     45  H   UNL     1      32.690 137.980 -27.032  1.00  0.00     0.213 HD
ENDBRANCH  36  44
ENDBRANCH  30  31
ENDBRANCH   4  30
TORSDOF 18
ENDMDL
