MODEL 1
REMARK VINA RESULT:    -3.508      0.000      0.000
REMARK INTER + INTRA:          -3.942
REMARK INTER:                  -3.816
REMARK INTRA:                  -0.126
REMARK UNBOUND:                -0.126
REMARK SMILES Cc1ccc(C(C)C)cc1O
REMARK SMILES IDX 1 1 2 2 10 3 9 4 5 5 4 6 3 7 11 8 6 10 7 11 8 12
REMARK H PARENT 11 9
REMARK Flexibility Score: inf
ROOT
ATOM      1  C   UNL     1     123.995 127.646 106.027  1.00  0.00     0.048 C 
ATOM      2  C   UNL     1     124.494 126.229 106.066  1.00  0.00    -0.009 A 
ATOM      3  C   UNL     1     125.718 125.927 106.689  1.00  0.00     0.118 A 
ATOM      4  C   UNL     1     126.178 124.602 106.721  1.00  0.00     0.050 A 
ATOM      5  C   UNL     1     125.426 123.566 106.136  1.00  0.00    -0.042 A 
ATOM      6  C   UNL     1     124.205 123.879 105.516  1.00  0.00     0.004 A 
ATOM      7  C   UNL     1     123.745 125.198 105.482  1.00  0.00     0.007 A 
ENDROOT
BRANCH   3   8
ATOM      8  O   UNL     1     126.473 126.942 107.274  1.00  0.00    -0.508 OA
ATOM      9  H   UNL     1     126.866 126.846 108.203  1.00  0.00     0.293 HD
ENDBRANCH   3   8
BRANCH   5  10
ATOM     10  C   UNL     1     125.915 122.131 106.167  1.00  0.00     0.013 C 
ATOM     11  C   UNL     1     124.749 121.145 106.027  1.00  0.00     0.012 C 
ATOM     12  C   UNL     1     126.726 121.849 107.438  1.00  0.00     0.012 C 
ENDBRANCH   5  10
TORSDOF 2
ENDMDL
MODEL 2
REMARK VINA RESULT:    -3.481      2.125      3.365
REMARK INTER + INTRA:          -3.913
REMARK INTER:                  -3.787
REMARK INTRA:                  -0.126
REMARK UNBOUND:                -0.126
REMARK SMILES Cc1ccc(C(C)C)cc1O
REMARK SMILES IDX 1 1 2 2 10 3 9 4 5 5 4 6 3 7 11 8 6 10 7 11 8 12
REMARK H PARENT 11 9
REMARK Flexibility Score: inf
ROOT
ATOM      1  C   UNL     1     121.460 123.977 106.004  1.00  0.00     0.048 C 
ATOM      2  C   UNL     1     122.881 124.461 106.062  1.00  0.00    -0.009 A 
ATOM      3  C   UNL     1     123.184 125.697 106.662  1.00  0.00     0.118 A 
ATOM      4  C   UNL     1     124.513 126.143 106.711  1.00  0.00     0.050 A 
ATOM      5  C   UNL     1     125.552 125.366 106.168  1.00  0.00    -0.042 A 
ATOM      6  C   UNL     1     125.239 124.133 105.572  1.00  0.00     0.004 A 
ATOM      7  C   UNL     1     123.916 123.686 105.519  1.00  0.00     0.007 A 
ENDROOT
BRANCH   3   8
ATOM      8  O   UNL     1     122.165 126.478 107.205  1.00  0.00    -0.508 OA
ATOM      9  H   UNL     1     121.422 126.857 106.630  1.00  0.00     0.293 HD
ENDBRANCH   3   8
BRANCH   5  10
ATOM     10  C   UNL     1     126.993 125.839 106.218  1.00  0.00     0.013 C 
ATOM     11  C   UNL     1     127.966 124.654 106.207  1.00  0.00     0.012 C 
ATOM     12  C   UNL     1     127.236 126.742 107.434  1.00  0.00     0.012 C 
ENDBRANCH   5  10
TORSDOF 2
ENDMDL
MODEL 3
REMARK VINA RESULT:    -3.473      2.273      4.833
REMARK INTER + INTRA:          -3.904
REMARK INTER:                  -3.778
REMARK INTRA:                  -0.126
REMARK UNBOUND:                -0.126
REMARK SMILES Cc1ccc(C(C)C)cc1O
REMARK SMILES IDX 1 1 2 2 10 3 9 4 5 5 4 6 3 7 11 8 6 10 7 11 8 12
REMARK H PARENT 11 9
REMARK Flexibility Score: inf
ROOT
ATOM      1  C   UNL     1     124.808 121.415 105.971  1.00  0.00     0.048 C 
ATOM      2  C   UNL     1     124.377 122.853 106.026  1.00  0.00    -0.009 A 
ATOM      3  C   UNL     1     123.147 123.202 106.613  1.00  0.00     0.118 A 
ATOM      4  C   UNL     1     122.751 124.547 106.659  1.00  0.00     0.050 A 
ATOM      5  C   UNL     1     123.573 125.557 106.125  1.00  0.00    -0.042 A 
ATOM      6  C   UNL     1     124.799 125.197 105.542  1.00  0.00     0.004 A 
ATOM      7  C   UNL     1     125.196 123.859 105.492  1.00  0.00     0.007 A 
ENDROOT
BRANCH   3   8
ATOM      8  O   UNL     1     122.323 122.213 107.146  1.00  0.00    -0.508 OA
ATOM      9  H   UNL     1     121.907 122.306 108.065  1.00  0.00     0.293 HD
ENDBRANCH   3   8
BRANCH   5  10
ATOM     10  C   UNL     1     123.154 127.014 106.172  1.00  0.00     0.013 C 
ATOM     11  C   UNL     1     124.373 127.943 106.126  1.00  0.00     0.012 C 
ATOM     12  C   UNL     1     122.287 127.301 107.404  1.00  0.00     0.012 C 
ENDBRANCH   5  10
TORSDOF 2
ENDMDL
MODEL 4
REMARK VINA RESULT:    -3.471      2.218      3.427
REMARK INTER + INTRA:          -3.902
REMARK INTER:                  -3.775
REMARK INTRA:                  -0.127
REMARK UNBOUND:                -0.126
REMARK SMILES Cc1ccc(C(C)C)cc1O
REMARK SMILES IDX 1 1 2 2 10 3 9 4 5 5 4 6 3 7 11 8 6 10 7 11 8 12
REMARK H PARENT 11 9
REMARK Flexibility Score: inf
ROOT
ATOM      1  C   UNL     1     127.577 125.025 106.010  1.00  0.00     0.048 C 
ATOM      2  C   UNL     1     126.160 124.528 106.064  1.00  0.00    -0.009 A 
ATOM      3  C   UNL     1     125.872 123.269 106.620  1.00  0.00     0.118 A 
ATOM      4  C   UNL     1     124.547 122.812 106.667  1.00  0.00     0.050 A 
ATOM      5  C   UNL     1     123.496 123.600 106.164  1.00  0.00    -0.042 A 
ATOM      6  C   UNL     1     123.795 124.856 105.610  1.00  0.00     0.004 A 
ATOM      7  C   UNL     1     125.113 125.315 105.561  1.00  0.00     0.007 A 
ENDROOT
BRANCH   3   8
ATOM      8  O   UNL     1     126.903 122.477 107.124  1.00  0.00    -0.508 OA
ATOM      9  H   UNL     1     127.759 122.882 107.481  1.00  0.00     0.293 HD
ENDBRANCH   3   8
BRANCH   5  10
ATOM     10  C   UNL     1     122.060 123.115 106.210  1.00  0.00     0.013 C 
ATOM     11  C   UNL     1     121.077 124.272 106.000  1.00  0.00     0.012 C 
ATOM     12  C   UNL     1     121.769 122.375 107.522  1.00  0.00     0.012 C 
ENDBRANCH   5  10
TORSDOF 2
ENDMDL
MODEL 5
REMARK VINA RESULT:    -3.429      1.617      4.428
REMARK INTER + INTRA:          -3.856
REMARK INTER:                  -3.738
REMARK INTRA:                  -0.118
REMARK UNBOUND:                -0.126
REMARK SMILES Cc1ccc(C(C)C)cc1O
REMARK SMILES IDX 1 1 2 2 10 3 9 4 5 5 4 6 3 7 11 8 6 10 7 11 8 12
REMARK H PARENT 11 9
REMARK Flexibility Score: inf
ROOT
ATOM      1  C   UNL     1     124.897 121.435 105.983  1.00  0.00     0.048 C 
ATOM      2  C   UNL     1     124.415 122.857 106.038  1.00  0.00    -0.009 A 
ATOM      3  C   UNL     1     125.325 123.919 105.885  1.00  0.00     0.118 A 
ATOM      4  C   UNL     1     124.868 125.244 105.938  1.00  0.00     0.050 A 
ATOM      5  C   UNL     1     123.504 125.527 106.140  1.00  0.00    -0.042 A 
ATOM      6  C   UNL     1     122.604 124.459 106.291  1.00  0.00     0.004 A 
ATOM      7  C   UNL     1     123.056 123.138 106.240  1.00  0.00     0.007 A 
ENDROOT
BRANCH   3   8
ATOM      8  O   UNL     1     126.679 123.655 105.683  1.00  0.00    -0.508 OA
ATOM      9  H   UNL     1     126.990 122.844 105.163  1.00  0.00     0.293 HD
ENDBRANCH   3   8
BRANCH   5  10
ATOM     10  C   UNL     1     123.000 126.956 106.198  1.00  0.00     0.013 C 
ATOM     11  C   UNL     1     124.150 127.956 106.030  1.00  0.00     0.012 C 
ATOM     12  C   UNL     1     122.227 127.218 107.496  1.00  0.00     0.012 C 
ENDBRANCH   5  10
TORSDOF 2
ENDMDL
MODEL 6
REMARK VINA RESULT:    -3.400      1.482      1.980
REMARK INTER + INTRA:          -3.824
REMARK INTER:                  -3.713
REMARK INTRA:                  -0.111
REMARK UNBOUND:                -0.126
REMARK SMILES Cc1ccc(C(C)C)cc1O
REMARK SMILES IDX 1 1 2 2 10 3 9 4 5 5 4 6 3 7 11 8 6 10 7 11 8 12
REMARK H PARENT 11 9
REMARK Flexibility Score: inf
ROOT
ATOM      1  C   UNL     1     123.903 127.627 106.008  1.00  0.00     0.048 C 
ATOM      2  C   UNL     1     124.429 126.221 106.063  1.00  0.00    -0.009 A 
ATOM      3  C   UNL     1     123.544 125.140 106.223  1.00  0.00     0.118 A 
ATOM      4  C   UNL     1     124.042 123.829 106.274  1.00  0.00     0.050 A 
ATOM      5  C   UNL     1     125.423 123.581 106.164  1.00  0.00    -0.042 A 
ATOM      6  C   UNL     1     126.298 124.668 106.003  1.00  0.00     0.004 A 
ATOM      7  C   UNL     1     125.805 125.975 105.954  1.00  0.00     0.007 A 
ENDROOT
BRANCH   3   8
ATOM      8  O   UNL     1     122.173 125.370 106.333  1.00  0.00    -0.508 OA
ATOM      9  H   UNL     1     121.584 125.472 105.515  1.00  0.00     0.293 HD
ENDBRANCH   3   8
BRANCH   5  10
ATOM     10  C   UNL     1     125.972 122.168 106.216  1.00  0.00     0.013 C 
ATOM     11  C   UNL     1     124.854 121.133 106.045  1.00  0.00     0.012 C 
ATOM     12  C   UNL     1     126.754 121.926 107.513  1.00  0.00     0.012 C 
ENDBRANCH   5  10
TORSDOF 2
ENDMDL
MODEL 7
REMARK VINA RESULT:    -3.393      2.307      3.581
REMARK INTER + INTRA:          -3.817
REMARK INTER:                  -3.693
REMARK INTRA:                  -0.124
REMARK UNBOUND:                -0.126
REMARK SMILES Cc1ccc(C(C)C)cc1O
REMARK SMILES IDX 1 1 2 2 10 3 9 4 5 5 4 6 3 7 11 8 6 10 7 11 8 12
REMARK H PARENT 11 9
REMARK Flexibility Score: inf
ROOT
ATOM      1  C   UNL     1     121.505 124.259 105.989  1.00  0.00     0.048 C 
ATOM      2  C   UNL     1     122.947 124.672 106.074  1.00  0.00    -0.009 A 
ATOM      3  C   UNL     1     123.968 123.730 105.850  1.00  0.00     0.118 A 
ATOM      4  C   UNL     1     125.312 124.123 105.932  1.00  0.00     0.050 A 
ATOM      5  C   UNL     1     125.654 125.453 106.235  1.00  0.00    -0.042 A 
ATOM      6  C   UNL     1     124.628 126.386 106.457  1.00  0.00     0.004 A 
ATOM      7  C   UNL     1     123.288 125.998 106.377  1.00  0.00     0.007 A 
ENDROOT
BRANCH   3   8
ATOM      8  O   UNL     1     123.644 122.408 105.548  1.00  0.00    -0.508 OA
ATOM      9  H   UNL     1     123.804 122.018 104.627  1.00  0.00     0.293 HD
ENDBRANCH   3   8
BRANCH   5  10
ATOM     10  C   UNL     1     127.105 125.888 106.325  1.00  0.00     0.013 C 
ATOM     11  C   UNL     1     128.042 124.677 106.404  1.00  0.00     0.012 C 
ATOM     12  C   UNL     1     127.326 126.835 107.511  1.00  0.00     0.012 C 
ENDBRANCH   5  10
TORSDOF 2
ENDMDL
MODEL 8
REMARK VINA RESULT:    -3.341      1.796      3.072
REMARK INTER + INTRA:          -3.761
REMARK INTER:                  -3.649
REMARK INTRA:                  -0.112
REMARK UNBOUND:                -0.126
REMARK SMILES Cc1ccc(C(C)C)cc1O
REMARK SMILES IDX 1 1 2 2 10 3 9 4 5 5 4 6 3 7 11 8 6 10 7 11 8 12
REMARK H PARENT 11 9
REMARK Flexibility Score: inf
ROOT
ATOM      1  C   UNL     1     127.373 125.711 106.008  1.00  0.00     0.048 C 
ATOM      2  C   UNL     1     126.023 125.053 106.052  1.00  0.00    -0.009 A 
ATOM      3  C   UNL     1     124.862 125.831 106.207  1.00  0.00     0.118 A 
ATOM      4  C   UNL     1     123.605 125.210 106.248  1.00  0.00     0.050 A 
ATOM      5  C   UNL     1     123.489 123.813 106.133  1.00  0.00    -0.042 A 
ATOM      6  C   UNL     1     124.656 123.045 105.978  1.00  0.00     0.004 A 
ATOM      7  C   UNL     1     125.910 123.660 105.938  1.00  0.00     0.007 A 
ENDROOT
BRANCH   3   8
ATOM      8  O   UNL     1     124.960 127.217 106.321  1.00  0.00    -0.508 OA
ATOM      9  H   UNL     1     125.790 127.662 106.694  1.00  0.00     0.293 HD
ENDBRANCH   3   8
BRANCH   5  10
ATOM     10  C   UNL     1     122.134 123.132 106.175  1.00  0.00     0.013 C 
ATOM     11  C   UNL     1     120.998 124.150 106.016  1.00  0.00     0.012 C 
ATOM     12  C   UNL     1     121.966 122.313 107.461  1.00  0.00     0.012 C 
ENDBRANCH   5  10
TORSDOF 2
ENDMDL
MODEL 9
REMARK VINA RESULT:    -3.275      3.047      3.939
REMARK INTER + INTRA:          -3.689
REMARK INTER:                  -3.565
REMARK INTRA:                  -0.124
REMARK UNBOUND:                -0.126
REMARK SMILES Cc1ccc(C(C)C)cc1O
REMARK SMILES IDX 1 1 2 2 10 3 9 4 5 5 4 6 3 7 11 8 6 10 7 11 8 12
REMARK H PARENT 11 9
REMARK Flexibility Score: inf
ROOT
ATOM      1  C   UNL     1     119.534 126.314 108.764  1.00  0.00     0.048 C 
ATOM      2  C   UNL     1     120.701 125.947 107.892  1.00  0.00    -0.009 A 
ATOM      3  C   UNL     1     121.760 126.853 107.708  1.00  0.00     0.118 A 
ATOM      4  C   UNL     1     122.846 126.504 106.892  1.00  0.00     0.050 A 
ATOM      5  C   UNL     1     122.890 125.251 106.252  1.00  0.00    -0.042 A 
ATOM      6  C   UNL     1     121.827 124.353 106.443  1.00  0.00     0.004 A 
ATOM      7  C   UNL     1     120.743 124.698 107.254  1.00  0.00     0.007 A 
ENDROOT
BRANCH   3   8
ATOM      8  O   UNL     1     121.731 128.098 108.335  1.00  0.00    -0.508 OA
ATOM      9  H   UNL     1     121.090 128.825 108.044  1.00  0.00     0.293 HD
ENDBRANCH   3   8
BRANCH   5  10
ATOM     10  C   UNL     1     124.060 124.863 105.368  1.00  0.00     0.013 C 
ATOM     11  C   UNL     1     124.457 123.398 105.585  1.00  0.00     0.012 C 
ATOM     12  C   UNL     1     125.256 125.798 105.592  1.00  0.00     0.012 C 
ENDBRANCH   5  10
TORSDOF 2
ENDMDL
