MODEL 1
REMARK VINA RESULT:     5.635      0.000      0.000
REMARK INTER + INTRA:           5.780
REMARK INTER:                   5.965
REMARK INTRA:                  -0.185
REMARK UNBOUND:                -0.185
REMARK SMILES C=C(C)[C@@H]1CC[C@@]2(C)CCCC(=C)[C@H]2C1
REMARK SMILES IDX 4 1 5 2 6 3 7 4 9 5 10 6 11 7 12 8 13 9 14 10 15 11 8 12
REMARK SMILES IDX 2 13 3 14 1 15
REMARK H PARENT
REMARK Flexibility Score: inf
ROOT
ATOM      1  C   UNL     1     -16.170  -1.093  17.220  1.00  0.00     0.015 C 
ATOM      2  C   UNL     1     -15.146  -1.606  18.243  1.00  0.00     0.008 C 
ATOM      3  C   UNL     1     -14.811  -3.079  17.978  1.00  0.00     0.008 C 
ATOM      4  C   UNL     1     -14.278  -3.354  16.539  1.00  0.00    -0.026 C 
ATOM      5  C   UNL     1     -14.118  -4.913  16.372  1.00  0.00     0.008 C 
ATOM      6  C   UNL     1     -14.627  -5.437  15.027  1.00  0.00     0.005 C 
ATOM      7  C   UNL     1     -16.120  -5.134  14.876  1.00  0.00     0.031 C 
ATOM      8  C   UNL     1     -16.433  -3.686  15.183  1.00  0.00    -0.074 C 
ATOM      9  C   UNL     1     -17.721  -3.298  15.111  1.00  0.00     0.008 C 
ATOM     10  C   UNL     1     -15.259  -2.739  15.466  1.00  0.00     0.021 C 
ATOM     11  C   UNL     1     -15.639  -1.267  15.786  1.00  0.00     0.016 C 
ATOM     12  C   UNL     1     -12.870  -2.722  16.375  1.00  0.00     0.012 C 
ENDROOT
BRANCH   1  13
ATOM     13  C   UNL     1     -16.545   0.357  17.495  1.00  0.00    -0.077 C 
ATOM     14  C   UNL     1     -15.506   1.451  17.497  1.00  0.00     0.039 C 
ATOM     15  C   UNL     1     -17.826   0.689  17.728  1.00  0.00     0.008 C 
ENDBRANCH   1  13
TORSDOF 1
ENDMDL
MODEL 2
REMARK VINA RESULT:     6.762      1.210      4.766
REMARK INTER + INTRA:           6.973
REMARK INTER:                   7.167
REMARK INTRA:                  -0.195
REMARK UNBOUND:                -0.185
REMARK SMILES C=C(C)[C@@H]1CC[C@@]2(C)CCCC(=C)[C@H]2C1
REMARK SMILES IDX 4 1 5 2 6 3 7 4 9 5 10 6 11 7 12 8 13 9 14 10 15 11 8 12
REMARK SMILES IDX 2 13 3 14 1 15
REMARK H PARENT
REMARK Flexibility Score: inf
ROOT
ATOM      1  C   UNL     1     -14.904  -4.071  15.675  1.00  0.00     0.015 C 
ATOM      2  C   UNL     1     -13.533  -3.586  16.169  1.00  0.00     0.008 C 
ATOM      3  C   UNL     1     -13.591  -2.101  16.548  1.00  0.00     0.008 C 
ATOM      4  C   UNL     1     -14.669  -1.769  17.625  1.00  0.00    -0.026 C 
ATOM      5  C   UNL     1     -14.708  -0.204  17.802  1.00  0.00     0.008 C 
ATOM      6  C   UNL     1     -16.127   0.365  17.886  1.00  0.00     0.005 C 
ATOM      7  C   UNL     1     -16.895   0.053  16.600  1.00  0.00     0.031 C 
ATOM      8  C   UNL     1     -16.789  -1.408  16.221  1.00  0.00    -0.074 C 
ATOM      9  C   UNL     1     -17.402  -1.805  15.090  1.00  0.00     0.008 C 
ATOM     10  C   UNL     1     -16.070  -2.354  17.194  1.00  0.00     0.021 C 
ATOM     11  C   UNL     1     -15.980  -3.840  16.750  1.00  0.00     0.016 C 
ATOM     12  C   UNL     1     -14.250  -2.381  18.988  1.00  0.00     0.012 C 
ENDROOT
BRANCH   1  13
ATOM     13  C   UNL     1     -14.853  -5.534  15.254  1.00  0.00    -0.077 C 
ATOM     14  C   UNL     1     -16.105  -6.287  14.875  1.00  0.00     0.039 C 
ATOM     15  C   UNL     1     -13.676  -6.179  15.200  1.00  0.00     0.008 C 
ENDBRANCH   1  13
TORSDOF 1
ENDMDL
MODEL 3
REMARK VINA RESULT:     7.382      1.928      3.707
REMARK INTER + INTRA:           7.628
REMARK INTER:                   7.808
REMARK INTRA:                  -0.179
REMARK UNBOUND:                -0.185
REMARK SMILES C=C(C)[C@@H]1CC[C@@]2(C)CCCC(=C)[C@H]2C1
REMARK SMILES IDX 4 1 5 2 6 3 7 4 9 5 10 6 11 7 12 8 13 9 14 10 15 11 8 12
REMARK SMILES IDX 2 13 3 14 1 15
REMARK H PARENT
REMARK Flexibility Score: inf
ROOT
ATOM      1  C   UNL     1     -14.903  -1.831  19.805  1.00  0.00     0.015 C 
ATOM      2  C   UNL     1     -14.656  -3.284  19.376  1.00  0.00     0.008 C 
ATOM      3  C   UNL     1     -15.375  -3.586  18.055  1.00  0.00     0.008 C 
ATOM      4  C   UNL     1     -14.973  -2.633  16.888  1.00  0.00    -0.026 C 
ATOM      5  C   UNL     1     -15.891  -2.968  15.652  1.00  0.00     0.008 C 
ATOM      6  C   UNL     1     -16.423  -1.726  14.933  1.00  0.00     0.005 C 
ATOM      7  C   UNL     1     -17.273  -0.888  15.891  1.00  0.00     0.031 C 
ATOM      8  C   UNL     1     -16.561  -0.639  17.203  1.00  0.00    -0.074 C 
ATOM      9  C   UNL     1     -17.218   0.066  18.144  1.00  0.00     0.008 C 
ATOM     10  C   UNL     1     -15.112  -1.127  17.340  1.00  0.00     0.021 C 
ATOM     11  C   UNL     1     -14.434  -0.855  18.711  1.00  0.00     0.016 C 
ATOM     12  C   UNL     1     -13.506  -2.914  16.468  1.00  0.00     0.012 C 
ENDROOT
BRANCH   1  13
ATOM     13  C   UNL     1     -14.230  -1.527  21.137  1.00  0.00    -0.077 C 
ATOM     14  C   UNL     1     -14.999  -1.570  22.435  1.00  0.00     0.039 C 
ATOM     15  C   UNL     1     -12.921  -1.226  21.178  1.00  0.00     0.008 C 
ENDBRANCH   1  13
TORSDOF 1
ENDMDL
