MODEL 1
REMARK VINA RESULT:    -6.859      0.000      0.000
REMARK INTER + INTRA:          -8.633
REMARK INTER:                  -8.263
REMARK INTRA:                  -0.370
REMARK UNBOUND:                -0.370
REMARK SMILES Oc1cc(O)c2c(c1)O[C@H](c1ccc(O)c(O)c1)[C@@H](O)C2
REMARK SMILES IDX 21 1 19 2 10 3 9 4 7 5 8 6 2 7 3 8 4 9 6 10 20 11 11 13
REMARK SMILES IDX 18 14 12 15 16 16 13 17 14 18 17 19 15 21 5 23 1 25
REMARK H PARENT 20 12 17 20 15 22 5 24 1 26
REMARK Flexibility Score: inf
ROOT
ATOM      1  C   UNL     1      -3.176  -6.036  -5.843  1.00  0.00     0.079 C 
ATOM      2  C   UNL     1      -3.709  -4.591  -5.857  1.00  0.00     0.164 C 
ATOM      3  C   UNL     1      -2.558  -3.595  -5.612  1.00  0.00     0.232 C 
ATOM      4  O   UNL     1      -1.905  -3.909  -4.382  1.00  0.00    -0.482 OA
ATOM      5  C   UNL     1      -1.685  -5.227  -3.967  1.00  0.00     0.131 A 
ATOM      6  C   UNL     1      -0.877  -5.459  -2.851  1.00  0.00     0.093 A 
ATOM      7  C   UNL     1      -0.626  -6.766  -2.421  1.00  0.00     0.122 A 
ATOM      8  C   UNL     1      -1.178  -7.843  -3.116  1.00  0.00     0.092 A 
ATOM      9  C   UNL     1      -1.990  -7.632  -4.236  1.00  0.00     0.126 A 
ATOM     10  C   UNL     1      -2.284  -6.309  -4.651  1.00  0.00     0.039 A 
ENDROOT
BRANCH   2  11
ATOM     11  O   UNL     1      -4.374  -4.320  -7.067  1.00  0.00    -0.389 OA
ATOM     12  H   UNL     1      -5.197  -3.810  -6.850  1.00  0.00     0.211 HD
ENDBRANCH   2  11
BRANCH   3  13
ATOM     13  C   UNL     1      -3.066  -2.173  -5.569  1.00  0.00    -0.001 A 
ATOM     14  C   UNL     1      -3.934  -1.755  -4.546  1.00  0.00     0.057 A 
ATOM     15  C   UNL     1      -2.713  -1.266  -6.582  1.00  0.00     0.012 A 
ATOM     16  C   UNL     1      -4.428  -0.442  -4.523  1.00  0.00     0.157 A 
ATOM     17  C   UNL     1      -3.205   0.042  -6.561  1.00  0.00     0.050 A 
ATOM     18  C   UNL     1      -4.059   0.460  -5.536  1.00  0.00     0.157 A 
BRANCH  16  19
ATOM     19  O   UNL     1      -5.284  -0.033  -3.502  1.00  0.00    -0.504 OA
ATOM     20  H   UNL     1      -5.981   0.688  -3.651  1.00  0.00     0.293 HD
ENDBRANCH  16  19
BRANCH  18  21
ATOM     21  O   UNL     1      -4.531   1.773  -5.540  1.00  0.00    -0.504 OA
ATOM     22  H   UNL     1      -5.259   2.084  -4.908  1.00  0.00     0.293 HD
ENDBRANCH  18  21
ENDBRANCH   3  13
BRANCH   9  23
ATOM     23  O   UNL     1      -2.477  -8.750  -4.916  1.00  0.00    -0.507 OA
ATOM     24  H   UNL     1      -3.085  -9.438  -4.493  1.00  0.00     0.293 HD
ENDBRANCH   9  23
BRANCH   7  25
ATOM     25  O   UNL     1       0.178  -7.005  -1.309  1.00  0.00    -0.508 OA
ATOM     26  H   UNL     1       1.004  -7.588  -1.367  1.00  0.00     0.293 HD
ENDBRANCH   7  25
TORSDOF 6
ENDMDL
MODEL 2
REMARK VINA RESULT:    -6.707      1.356      6.852
REMARK INTER + INTRA:          -8.450
REMARK INTER:                  -8.102
REMARK INTRA:                  -0.348
REMARK UNBOUND:                -0.370
REMARK SMILES Oc1cc(O)c2c(c1)O[C@H](c1ccc(O)c(O)c1)[C@@H](O)C2
REMARK SMILES IDX 21 1 19 2 10 3 9 4 7 5 8 6 2 7 3 8 4 9 6 10 20 11 11 13
REMARK SMILES IDX 18 14 12 15 16 16 13 17 14 18 17 19 15 21 5 23 1 25
REMARK H PARENT 20 12 17 20 15 22 5 24 1 26
REMARK Flexibility Score: inf
ROOT
ATOM      1  C   UNL     1      -2.126  -2.482  -6.580  1.00  0.00     0.079 C 
ATOM      2  C   UNL     1      -1.565  -3.722  -5.858  1.00  0.00     0.164 C 
ATOM      3  C   UNL     1      -2.717  -4.583  -5.303  1.00  0.00     0.232 C 
ATOM      4  O   UNL     1      -3.537  -3.792  -4.443  1.00  0.00    -0.482 OA
ATOM      5  C   UNL     1      -3.839  -2.454  -4.720  1.00  0.00     0.131 A 
ATOM      6  C   UNL     1      -4.795  -1.801  -3.938  1.00  0.00     0.093 A 
ATOM      7  C   UNL     1      -5.130  -0.468  -4.199  1.00  0.00     0.122 A 
ATOM      8  C   UNL     1      -4.512   0.208  -5.253  1.00  0.00     0.092 A 
ATOM      9  C   UNL     1      -3.552  -0.429  -6.047  1.00  0.00     0.126 A 
ATOM     10  C   UNL     1      -3.177  -1.764  -5.760  1.00  0.00     0.039 A 
ENDROOT
BRANCH   2  11
ATOM     11  O   UNL     1      -0.738  -4.464  -6.720  1.00  0.00    -0.389 OA
ATOM     12  H   UNL     1      -0.581  -3.916  -7.533  1.00  0.00     0.211 HD
ENDBRANCH   2  11
BRANCH   3  13
ATOM     13  C   UNL     1      -2.190  -5.778  -4.545  1.00  0.00    -0.001 A 
ATOM     14  C   UNL     1      -1.576  -5.615  -3.292  1.00  0.00     0.057 A 
ATOM     15  C   UNL     1      -2.264  -7.062  -5.110  1.00  0.00     0.012 A 
ATOM     16  C   UNL     1      -1.060  -6.722  -2.602  1.00  0.00     0.157 A 
ATOM     17  C   UNL     1      -1.750  -8.166  -4.423  1.00  0.00     0.050 A 
ATOM     18  C   UNL     1      -1.150  -8.004  -3.171  1.00  0.00     0.157 A 
BRANCH  16  19
ATOM     19  O   UNL     1      -0.457  -6.553  -1.356  1.00  0.00    -0.504 OA
ATOM     20  H   UNL     1      -0.999  -6.564  -0.499  1.00  0.00     0.293 HD
ENDBRANCH  16  19
BRANCH  18  21
ATOM     21  O   UNL     1      -0.649  -9.125  -2.509  1.00  0.00    -0.504 OA
ATOM     22  H   UNL     1       0.080  -9.054  -1.810  1.00  0.00     0.293 HD
ENDBRANCH  18  21
ENDBRANCH   3  13
BRANCH   9  23
ATOM     23  O   UNL     1      -3.002   0.286  -7.113  1.00  0.00    -0.507 OA
ATOM     24  H   UNL     1      -2.144   0.020  -7.578  1.00  0.00     0.293 HD
ENDBRANCH   9  23
BRANCH   7  25
ATOM     25  O   UNL     1      -6.081   0.189  -3.423  1.00  0.00    -0.508 OA
ATOM     26  H   UNL     1      -6.936  -0.269  -3.130  1.00  0.00     0.293 HD
ENDBRANCH   7  25
TORSDOF 6
ENDMDL
MODEL 3
REMARK VINA RESULT:    -6.427      1.869      6.614
REMARK INTER + INTRA:          -8.113
REMARK INTER:                  -7.759
REMARK INTRA:                  -0.353
REMARK UNBOUND:                -0.370
REMARK SMILES Oc1cc(O)c2c(c1)O[C@H](c1ccc(O)c(O)c1)[C@@H](O)C2
REMARK SMILES IDX 21 1 19 2 10 3 9 4 7 5 8 6 2 7 3 8 4 9 6 10 20 11 11 13
REMARK SMILES IDX 18 14 12 15 16 16 13 17 14 18 17 19 15 21 5 23 1 25
REMARK H PARENT 20 12 17 20 15 22 5 24 1 26
REMARK Flexibility Score: inf
ROOT
ATOM      1  C   UNL     1      -5.294  -3.988  -5.108  1.00  0.00     0.079 C 
ATOM      2  C   UNL     1      -3.963  -4.762  -5.137  1.00  0.00     0.164 C 
ATOM      3  C   UNL     1      -2.971  -4.157  -4.124  1.00  0.00     0.232 C 
ATOM      4  O   UNL     1      -2.785  -2.770  -4.403  1.00  0.00    -0.482 OA
ATOM      5  C   UNL     1      -3.836  -1.942  -4.814  1.00  0.00     0.131 A 
ATOM      6  C   UNL     1      -3.622  -0.563  -4.887  1.00  0.00     0.093 A 
ATOM      7  C   UNL     1      -4.657   0.291  -5.279  1.00  0.00     0.122 A 
ATOM      8  C   UNL     1      -5.912  -0.236  -5.590  1.00  0.00     0.092 A 
ATOM      9  C   UNL     1      -6.146  -1.614  -5.524  1.00  0.00     0.126 A 
ATOM     10  C   UNL     1      -5.090  -2.489  -5.169  1.00  0.00     0.039 A 
ENDROOT
BRANCH   2  11
ATOM     11  O   UNL     1      -4.181  -6.130  -4.889  1.00  0.00    -0.389 OA
ATOM     12  H   UNL     1      -3.858  -6.325  -3.970  1.00  0.00     0.211 HD
ENDBRANCH   2  11
BRANCH   3  13
ATOM     13  C   UNL     1      -1.639  -4.868  -4.172  1.00  0.00    -0.001 A 
ATOM     14  C   UNL     1      -1.059  -5.379  -2.998  1.00  0.00     0.057 A 
ATOM     15  C   UNL     1      -0.942  -4.982  -5.386  1.00  0.00     0.012 A 
ATOM     16  C   UNL     1       0.192  -6.013  -3.039  1.00  0.00     0.157 A 
ATOM     17  C   UNL     1       0.304  -5.613  -5.428  1.00  0.00     0.050 A 
ATOM     18  C   UNL     1       0.874  -6.132  -4.261  1.00  0.00     0.157 A 
BRANCH  16  19
ATOM     19  O   UNL     1       0.757  -6.523  -1.871  1.00  0.00    -0.504 OA
ATOM     20  H   UNL     1       1.404  -5.976  -1.313  1.00  0.00     0.293 HD
ENDBRANCH  16  19
BRANCH  18  21
ATOM     21  O   UNL     1       2.118  -6.759  -4.336  1.00  0.00    -0.504 OA
ATOM     22  H   UNL     1       2.626  -6.843  -5.209  1.00  0.00     0.293 HD
ENDBRANCH  18  21
ENDBRANCH   3  13
BRANCH   9  23
ATOM     23  O   UNL     1      -7.433  -2.077  -5.804  1.00  0.00    -0.507 OA
ATOM     24  H   UNL     1      -8.220  -1.465  -5.974  1.00  0.00     0.293 HD
ENDBRANCH   9  23
BRANCH   7  25
ATOM     25  O   UNL     1      -4.451   1.667  -5.355  1.00  0.00    -0.508 OA
ATOM     26  H   UNL     1      -3.578   2.089  -5.064  1.00  0.00     0.293 HD
ENDBRANCH   7  25
TORSDOF 6
ENDMDL
MODEL 4
REMARK VINA RESULT:    -6.382      2.046      2.779
REMARK INTER + INTRA:          -8.058
REMARK INTER:                  -7.900
REMARK INTRA:                  -0.158
REMARK UNBOUND:                -0.370
REMARK SMILES Oc1cc(O)c2c(c1)O[C@H](c1ccc(O)c(O)c1)[C@@H](O)C2
REMARK SMILES IDX 21 1 19 2 10 3 9 4 7 5 8 6 2 7 3 8 4 9 6 10 20 11 11 13
REMARK SMILES IDX 18 14 12 15 16 16 13 17 14 18 17 19 15 21 5 23 1 25
REMARK H PARENT 20 12 17 20 15 22 5 24 1 26
REMARK Flexibility Score: inf
ROOT
ATOM      1  C   UNL     1      -3.569  -4.482  -4.123  1.00  0.00     0.079 C 
ATOM      2  C   UNL     1      -4.028  -3.046  -4.437  1.00  0.00     0.164 C 
ATOM      3  C   UNL     1      -3.753  -2.709  -5.916  1.00  0.00     0.232 C 
ATOM      4  O   UNL     1      -2.368  -2.899  -6.203  1.00  0.00    -0.482 OA
ATOM      5  C   UNL     1      -1.629  -3.956  -5.659  1.00  0.00     0.131 A 
ATOM      6  C   UNL     1      -0.335  -4.189  -6.130  1.00  0.00     0.093 A 
ATOM      7  C   UNL     1       0.423  -5.247  -5.617  1.00  0.00     0.122 A 
ATOM      8  C   UNL     1      -0.122  -6.079  -4.637  1.00  0.00     0.092 A 
ATOM      9  C   UNL     1      -1.417  -5.862  -4.153  1.00  0.00     0.126 A 
ATOM     10  C   UNL     1      -2.173  -4.766  -4.637  1.00  0.00     0.039 A 
ENDROOT
BRANCH   2  11
ATOM     11  O   UNL     1      -5.387  -2.880  -4.116  1.00  0.00    -0.389 OA
ATOM     12  H   UNL     1      -5.921  -3.257  -4.863  1.00  0.00     0.211 HD
ENDBRANCH   2  11
BRANCH   3  13
ATOM     13  C   UNL     1      -4.147  -1.286  -6.235  1.00  0.00    -0.001 A 
ATOM     14  C   UNL     1      -3.204  -0.248  -6.154  1.00  0.00     0.057 A 
ATOM     15  C   UNL     1      -5.477  -0.979  -6.568  1.00  0.00     0.012 A 
ATOM     16  C   UNL     1      -3.578   1.077  -6.421  1.00  0.00     0.157 A 
ATOM     17  C   UNL     1      -5.851   0.341  -6.835  1.00  0.00     0.050 A 
ATOM     18  C   UNL     1      -4.908   1.371  -6.765  1.00  0.00     0.157 A 
BRANCH  16  19
ATOM     19  O   UNL     1      -2.634   2.101  -6.344  1.00  0.00    -0.504 OA
ATOM     20  H   UNL     1      -2.454   2.717  -7.129  1.00  0.00     0.293 HD
ENDBRANCH  16  19
BRANCH  18  21
ATOM     21  O   UNL     1      -5.311   2.678  -7.039  1.00  0.00    -0.504 OA
ATOM     22  H   UNL     1      -5.857   2.911  -7.860  1.00  0.00     0.293 HD
ENDBRANCH  18  21
ENDBRANCH   3  13
BRANCH   9  23
ATOM     23  O   UNL     1      -1.923  -6.755  -3.206  1.00  0.00    -0.507 OA
ATOM     24  H   UNL     1      -1.985  -7.752  -3.359  1.00  0.00     0.293 HD
ENDBRANCH   9  23
BRANCH   7  25
ATOM     25  O   UNL     1       1.715  -5.485  -6.080  1.00  0.00    -0.508 OA
ATOM     26  H   UNL     1       2.201  -6.349  -5.874  1.00  0.00     0.293 HD
ENDBRANCH   7  25
TORSDOF 6
ENDMDL
MODEL 5
REMARK VINA RESULT:    -6.375      2.366      4.107
REMARK INTER + INTRA:          -8.050
REMARK INTER:                  -8.035
REMARK INTRA:                  -0.015
REMARK UNBOUND:                -0.370
REMARK SMILES Oc1cc(O)c2c(c1)O[C@H](c1ccc(O)c(O)c1)[C@@H](O)C2
REMARK SMILES IDX 21 1 19 2 10 3 9 4 7 5 8 6 2 7 3 8 4 9 6 10 20 11 11 13
REMARK SMILES IDX 18 14 12 15 16 16 13 17 14 18 17 19 15 21 5 23 1 25
REMARK H PARENT 20 12 17 20 15 22 5 24 1 26
REMARK Flexibility Score: inf
ROOT
ATOM      1  C   UNL     1      -2.889  -3.623  -4.469  1.00  0.00     0.079 C 
ATOM      2  C   UNL     1      -3.342  -2.171  -4.713  1.00  0.00     0.164 C 
ATOM      3  C   UNL     1      -4.786  -1.971  -4.212  1.00  0.00     0.232 C 
ATOM      4  O   UNL     1      -5.650  -2.910  -4.848  1.00  0.00    -0.482 OA
ATOM      5  C   UNL     1      -5.260  -4.229  -5.108  1.00  0.00     0.131 A 
ATOM      6  C   UNL     1      -6.217  -5.142  -5.559  1.00  0.00     0.093 A 
ATOM      7  C   UNL     1      -5.862  -6.470  -5.813  1.00  0.00     0.122 A 
ATOM      8  C   UNL     1      -4.546  -6.888  -5.604  1.00  0.00     0.092 A 
ATOM      9  C   UNL     1      -3.573  -5.989  -5.153  1.00  0.00     0.126 A 
ATOM     10  C   UNL     1      -3.917  -4.632  -4.936  1.00  0.00     0.039 A 
ENDROOT
BRANCH   2  11
ATOM     11  O   UNL     1      -2.455  -1.267  -4.101  1.00  0.00    -0.389 OA
ATOM     12  H   UNL     1      -2.938  -0.835  -3.348  1.00  0.00     0.211 HD
ENDBRANCH   2  11
BRANCH   3  13
ATOM     13  C   UNL     1      -5.270  -0.567  -4.488  1.00  0.00    -0.001 A 
ATOM     14  C   UNL     1      -4.657   0.219  -5.478  1.00  0.00     0.057 A 
ATOM     15  C   UNL     1      -6.309  -0.014  -3.721  1.00  0.00     0.012 A 
ATOM     16  C   UNL     1      -5.088   1.533  -5.714  1.00  0.00     0.157 A 
ATOM     17  C   UNL     1      -6.740   1.295  -3.955  1.00  0.00     0.050 A 
ATOM     18  C   UNL     1      -6.136   2.071  -4.949  1.00  0.00     0.157 A 
BRANCH  16  19
ATOM     19  O   UNL     1      -4.478   2.304  -6.702  1.00  0.00    -0.504 OA
ATOM     20  H   UNL     1      -4.782   3.251  -6.900  1.00  0.00     0.293 HD
ENDBRANCH  16  19
BRANCH  18  21
ATOM     21  O   UNL     1      -6.590   3.373  -5.160  1.00  0.00    -0.504 OA
ATOM     22  H   UNL     1      -5.959   4.129  -5.401  1.00  0.00     0.293 HD
ENDBRANCH  18  21
ENDBRANCH   3  13
BRANCH   9  23
ATOM     23  O   UNL     1      -2.285  -6.477  -4.920  1.00  0.00    -0.507 OA
ATOM     24  H   UNL     1      -1.851  -6.488  -4.007  1.00  0.00     0.293 HD
ENDBRANCH   9  23
BRANCH   7  25
ATOM     25  O   UNL     1      -6.810  -7.385  -6.264  1.00  0.00    -0.508 OA
ATOM     26  H   UNL     1      -7.245  -8.051  -5.636  1.00  0.00     0.293 HD
ENDBRANCH   7  25
TORSDOF 6
ENDMDL
MODEL 6
REMARK VINA RESULT:    -6.360      1.582      7.105
REMARK INTER + INTRA:          -8.031
REMARK INTER:                  -7.726
REMARK INTRA:                  -0.305
REMARK UNBOUND:                -0.370
REMARK SMILES Oc1cc(O)c2c(c1)O[C@H](c1ccc(O)c(O)c1)[C@@H](O)C2
REMARK SMILES IDX 21 1 19 2 10 3 9 4 7 5 8 6 2 7 3 8 4 9 6 10 20 11 11 13
REMARK SMILES IDX 18 14 12 15 16 16 13 17 14 18 17 19 15 21 5 23 1 25
REMARK H PARENT 20 12 17 20 15 22 5 24 1 26
REMARK Flexibility Score: inf
ROOT
ATOM      1  C   UNL     1      -3.047  -0.716  -6.595  1.00  0.00     0.079 C 
ATOM      2  C   UNL     1      -2.506  -2.033  -6.008  1.00  0.00     0.164 C 
ATOM      3  C   UNL     1      -3.671  -2.970  -5.632  1.00  0.00     0.232 C 
ATOM      4  O   UNL     1      -4.549  -2.305  -4.725  1.00  0.00    -0.482 OA
ATOM      5  C   UNL     1      -4.858  -0.945  -4.844  1.00  0.00     0.131 A 
ATOM      6  C   UNL     1      -5.866  -0.407  -4.040  1.00  0.00     0.093 A 
ATOM      7  C   UNL     1      -6.209   0.944  -4.146  1.00  0.00     0.122 A 
ATOM      8  C   UNL     1      -5.547   1.757  -5.069  1.00  0.00     0.092 A 
ATOM      9  C   UNL     1      -4.535   1.237  -5.883  1.00  0.00     0.126 A 
ATOM     10  C   UNL     1      -4.153  -0.120  -5.749  1.00  0.00     0.039 A 
ENDROOT
BRANCH   2  11
ATOM     11  O   UNL     1      -1.620  -2.650  -6.911  1.00  0.00    -0.389 OA
ATOM     12  H   UNL     1      -0.783  -2.856  -6.418  1.00  0.00     0.211 HD
ENDBRANCH   2  11
BRANCH   3  13
ATOM     13  C   UNL     1      -3.164  -4.247  -5.005  1.00  0.00    -0.001 A 
ATOM     14  C   UNL     1      -2.186  -4.210  -3.997  1.00  0.00     0.057 A 
ATOM     15  C   UNL     1      -3.631  -5.492  -5.460  1.00  0.00     0.012 A 
ATOM     16  C   UNL     1      -1.696  -5.398  -3.435  1.00  0.00     0.157 A 
ATOM     17  C   UNL     1      -3.143  -6.676  -4.902  1.00  0.00     0.050 A 
ATOM     18  C   UNL     1      -2.179  -6.636  -3.890  1.00  0.00     0.157 A 
BRANCH  16  19
ATOM     19  O   UNL     1      -0.730  -5.351  -2.431  1.00  0.00    -0.504 OA
ATOM     20  H   UNL     1      -0.788  -4.685  -1.669  1.00  0.00     0.293 HD
ENDBRANCH  16  19
BRANCH  18  21
ATOM     21  O   UNL     1      -1.713  -7.835  -3.351  1.00  0.00    -0.504 OA
ATOM     22  H   UNL     1      -1.214  -8.518  -3.910  1.00  0.00     0.293 HD
ENDBRANCH  18  21
ENDBRANCH   3  13
BRANCH   9  23
ATOM     23  O   UNL     1      -3.941   2.088  -6.818  1.00  0.00    -0.507 OA
ATOM     24  H   UNL     1      -3.643   3.030  -6.602  1.00  0.00     0.293 HD
ENDBRANCH   9  23
BRANCH   7  25
ATOM     25  O   UNL     1      -7.212   1.487  -3.347  1.00  0.00    -0.508 OA
ATOM     26  H   UNL     1      -7.014   2.212  -2.667  1.00  0.00     0.293 HD
ENDBRANCH   7  25
TORSDOF 6
ENDMDL
MODEL 7
REMARK VINA RESULT:    -6.311      1.741      2.291
REMARK INTER + INTRA:          -7.972
REMARK INTER:                  -7.617
REMARK INTRA:                  -0.355
REMARK UNBOUND:                -0.370
REMARK SMILES Oc1cc(O)c2c(c1)O[C@H](c1ccc(O)c(O)c1)[C@@H](O)C2
REMARK SMILES IDX 21 1 19 2 10 3 9 4 7 5 8 6 2 7 3 8 4 9 6 10 20 11 11 13
REMARK SMILES IDX 18 14 12 15 16 16 13 17 14 18 17 19 15 21 5 23 1 25
REMARK H PARENT 20 12 17 20 15 22 5 24 1 26
REMARK Flexibility Score: inf
ROOT
ATOM      1  C   UNL     1      -0.447  -5.958  -5.860  1.00  0.00     0.079 C 
ATOM      2  C   UNL     1      -1.636  -4.982  -5.947  1.00  0.00     0.164 C 
ATOM      3  C   UNL     1      -1.683  -4.085  -4.694  1.00  0.00     0.232 C 
ATOM      4  O   UNL     1      -1.749  -4.898  -3.523  1.00  0.00    -0.482 OA
ATOM      5  C   UNL     1      -1.034  -6.095  -3.403  1.00  0.00     0.131 A 
ATOM      6  C   UNL     1      -0.997  -6.739  -2.164  1.00  0.00     0.093 A 
ATOM      7  C   UNL     1      -0.279  -7.930  -2.008  1.00  0.00     0.122 A 
ATOM      8  C   UNL     1       0.411  -8.470  -3.095  1.00  0.00     0.092 A 
ATOM      9  C   UNL     1       0.386  -7.840  -4.344  1.00  0.00     0.126 A 
ATOM     10  C   UNL     1      -0.375  -6.658  -4.519  1.00  0.00     0.039 A 
ENDROOT
BRANCH   2  11
ATOM     11  O   UNL     1      -1.561  -4.216  -7.125  1.00  0.00    -0.389 OA
ATOM     12  H   UNL     1      -0.619  -4.234  -7.436  1.00  0.00     0.211 HD
ENDBRANCH   2  11
BRANCH   3  13
ATOM     13  C   UNL     1      -2.873  -3.154  -4.733  1.00  0.00    -0.001 A 
ATOM     14  C   UNL     1      -2.696  -1.777  -4.951  1.00  0.00     0.057 A 
ATOM     15  C   UNL     1      -4.166  -3.650  -4.502  1.00  0.00     0.012 A 
ATOM     16  C   UNL     1      -3.798  -0.910  -4.959  1.00  0.00     0.157 A 
ATOM     17  C   UNL     1      -5.265  -2.787  -4.509  1.00  0.00     0.050 A 
ATOM     18  C   UNL     1      -5.089  -1.419  -4.738  1.00  0.00     0.157 A 
BRANCH  16  19
ATOM     19  O   UNL     1      -3.614   0.454  -5.181  1.00  0.00    -0.504 OA
ATOM     20  H   UNL     1      -2.712   0.832  -5.447  1.00  0.00     0.293 HD
ENDBRANCH  16  19
BRANCH  18  21
ATOM     21  O   UNL     1      -6.205  -0.583  -4.741  1.00  0.00    -0.504 OA
ATOM     22  H   UNL     1      -6.996  -0.745  -5.353  1.00  0.00     0.293 HD
ENDBRANCH  18  21
ENDBRANCH   3  13
BRANCH   9  23
ATOM     23  O   UNL     1       1.133  -8.405  -5.380  1.00  0.00    -0.507 OA
ATOM     24  H   UNL     1       0.894  -9.281  -5.825  1.00  0.00     0.293 HD
ENDBRANCH   9  23
BRANCH   7  25
ATOM     25  O   UNL     1      -0.238  -8.578  -0.776  1.00  0.00    -0.508 OA
ATOM     26  H   UNL     1       0.196  -9.487  -0.669  1.00  0.00     0.293 HD
ENDBRANCH   7  25
TORSDOF 6
ENDMDL
MODEL 8
REMARK VINA RESULT:    -6.199      2.796      5.261
REMARK INTER + INTRA:          -7.837
REMARK INTER:                  -7.609
REMARK INTRA:                  -0.228
REMARK UNBOUND:                -0.370
REMARK SMILES Oc1cc(O)c2c(c1)O[C@H](c1ccc(O)c(O)c1)[C@@H](O)C2
REMARK SMILES IDX 21 1 19 2 10 3 9 4 7 5 8 6 2 7 3 8 4 9 6 10 20 11 11 13
REMARK SMILES IDX 18 14 12 15 16 16 13 17 14 18 17 19 15 21 5 23 1 25
REMARK H PARENT 20 12 17 20 15 22 5 24 1 26
REMARK Flexibility Score: inf
ROOT
ATOM      1  C   UNL     1      -2.876  -0.592  -5.646  1.00  0.00     0.079 C 
ATOM      2  C   UNL     1      -3.895   0.518  -5.964  1.00  0.00     0.164 C 
ATOM      3  C   UNL     1      -5.069   0.465  -4.967  1.00  0.00     0.232 C 
ATOM      4  O   UNL     1      -5.668  -0.830  -4.996  1.00  0.00    -0.482 OA
ATOM      5  C   UNL     1      -4.912  -2.000  -5.128  1.00  0.00     0.131 A 
ATOM      6  C   UNL     1      -5.543  -3.235  -4.960  1.00  0.00     0.093 A 
ATOM      7  C   UNL     1      -4.811  -4.422  -5.070  1.00  0.00     0.122 A 
ATOM      8  C   UNL     1      -3.442  -4.371  -5.339  1.00  0.00     0.092 A 
ATOM      9  C   UNL     1      -2.792  -3.144  -5.511  1.00  0.00     0.126 A 
ATOM     10  C   UNL     1      -3.536  -1.940  -5.444  1.00  0.00     0.039 A 
ENDROOT
BRANCH   2  11
ATOM     11  O   UNL     1      -3.271   1.779  -5.958  1.00  0.00    -0.389 OA
ATOM     12  H   UNL     1      -2.316   1.643  -6.196  1.00  0.00     0.211 HD
ENDBRANCH   2  11
BRANCH   3  13
ATOM     13  C   UNL     1      -6.108   1.513  -5.291  1.00  0.00    -0.001 A 
ATOM     14  C   UNL     1      -6.046   2.788  -4.704  1.00  0.00     0.057 A 
ATOM     15  C   UNL     1      -7.179   1.205  -6.147  1.00  0.00     0.012 A 
ATOM     16  C   UNL     1      -7.027   3.750  -4.983  1.00  0.00     0.157 A 
ATOM     17  C   UNL     1      -8.158   2.163  -6.426  1.00  0.00     0.050 A 
ATOM     18  C   UNL     1      -8.087   3.435  -5.850  1.00  0.00     0.157 A 
BRANCH  16  19
ATOM     19  O   UNL     1      -6.954   5.015  -4.401  1.00  0.00    -0.504 OA
ATOM     20  H   UNL     1      -6.196   5.269  -3.777  1.00  0.00     0.293 HD
ENDBRANCH  16  19
BRANCH  18  21
ATOM     21  O   UNL     1      -9.077   4.370  -6.149  1.00  0.00    -0.504 OA
ATOM     22  H   UNL     1      -9.891   4.132  -6.704  1.00  0.00     0.293 HD
ENDBRANCH  18  21
ENDBRANCH   3  13
BRANCH   9  23
ATOM     23  O   UNL     1      -1.414  -3.155  -5.734  1.00  0.00    -0.507 OA
ATOM     24  H   UNL     1      -0.974  -2.703  -6.524  1.00  0.00     0.293 HD
ENDBRANCH   9  23
BRANCH   7  25
ATOM     25  O   UNL     1      -5.434  -5.657  -4.905  1.00  0.00    -0.508 OA
ATOM     26  H   UNL     1      -5.490  -6.106  -3.998  1.00  0.00     0.293 HD
ENDBRANCH   7  25
TORSDOF 6
ENDMDL
MODEL 9
REMARK VINA RESULT:    -6.143      3.504      8.546
REMARK INTER + INTRA:          -7.770
REMARK INTER:                  -7.591
REMARK INTRA:                  -0.179
REMARK UNBOUND:                -0.370
REMARK SMILES Oc1cc(O)c2c(c1)O[C@H](c1ccc(O)c(O)c1)[C@@H](O)C2
REMARK SMILES IDX 21 1 19 2 10 3 9 4 7 5 8 6 2 7 3 8 4 9 6 10 20 11 11 13
REMARK SMILES IDX 18 14 12 15 16 16 13 17 14 18 17 19 15 21 5 23 1 25
REMARK H PARENT 20 12 17 20 15 22 5 24 1 26
REMARK Flexibility Score: inf
ROOT
ATOM      1  C   UNL     1      -8.488   0.286  -4.562  1.00  0.00     0.079 C 
ATOM      2  C   UNL     1      -7.278  -0.559  -5.000  1.00  0.00     0.164 C 
ATOM      3  C   UNL     1      -6.015  -0.123  -4.232  1.00  0.00     0.232 C 
ATOM      4  O   UNL     1      -5.788   1.272  -4.433  1.00  0.00    -0.482 OA
ATOM      5  C   UNL     1      -6.835   2.200  -4.486  1.00  0.00     0.131 A 
ATOM      6  C   UNL     1      -6.531   3.563  -4.496  1.00  0.00     0.093 A 
ATOM      7  C   UNL     1      -7.555   4.515  -4.533  1.00  0.00     0.122 A 
ATOM      8  C   UNL     1      -8.887   4.099  -4.551  1.00  0.00     0.092 A 
ATOM      9  C   UNL     1      -9.213   2.738  -4.542  1.00  0.00     0.126 A 
ATOM     10  C   UNL     1      -8.179   1.769  -4.549  1.00  0.00     0.039 A 
ENDROOT
BRANCH   2  11
ATOM     11  O   UNL     1      -7.541  -1.930  -4.820  1.00  0.00    -0.389 OA
ATOM     12  H   UNL     1      -7.504  -2.118  -3.846  1.00  0.00     0.211 HD
ENDBRANCH   2  11
BRANCH   3  13
ATOM     13  C   UNL     1      -4.803  -0.904  -4.684  1.00  0.00    -0.001 A 
ATOM     14  C   UNL     1      -4.486  -2.138  -4.090  1.00  0.00     0.057 A 
ATOM     15  C   UNL     1      -3.951  -0.379  -5.670  1.00  0.00     0.012 A 
ATOM     16  C   UNL     1      -3.345  -2.849  -4.490  1.00  0.00     0.157 A 
ATOM     17  C   UNL     1      -2.813  -1.087  -6.069  1.00  0.00     0.050 A 
ATOM     18  C   UNL     1      -2.507  -2.320  -5.486  1.00  0.00     0.157 A 
BRANCH  16  19
ATOM     19  O   UNL     1      -3.042  -4.075  -3.900  1.00  0.00    -0.504 OA
ATOM     20  H   UNL     1      -3.755  -4.640  -3.453  1.00  0.00     0.293 HD
ENDBRANCH  16  19
BRANCH  18  21
ATOM     21  O   UNL     1      -1.366  -3.003  -5.906  1.00  0.00    -0.504 OA
ATOM     22  H   UNL     1      -0.908  -3.694  -5.324  1.00  0.00     0.293 HD
ENDBRANCH  18  21
ENDBRANCH   3  13
BRANCH   9  23
ATOM     23  O   UNL     1     -10.564   2.385  -4.516  1.00  0.00    -0.507 OA
ATOM     24  H   UNL     1     -10.993   1.777  -5.200  1.00  0.00     0.293 HD
ENDBRANCH   9  23
BRANCH   7  25
ATOM     25  O   UNL     1      -7.259   5.876  -4.544  1.00  0.00    -0.508 OA
ATOM     26  H   UNL     1      -6.602   6.281  -3.887  1.00  0.00     0.293 HD
ENDBRANCH   7  25
TORSDOF 6
ENDMDL
