MODEL 1
REMARK VINA RESULT:    -2.461      0.000      0.000
REMARK INTER + INTRA:          -3.413
REMARK INTER:                  -3.037
REMARK INTRA:                  -0.376
REMARK UNBOUND:                -0.376
REMARK SMILES CCCCC(=O)CC
REMARK SMILES IDX 4 1 3 2 2 3 1 4 5 5 6 6 7 7 8 8
REMARK H PARENT
REMARK Flexibility Score: inf
ROOT
ATOM      1  C   UNL     1     118.208 114.966 121.314  1.00  0.00     0.075 C 
ENDROOT
BRANCH   1   2
ATOM      2  C   UNL     1     118.534 115.529 119.926  1.00  0.00     0.008 C 
BRANCH   2   3
ATOM      3  C   UNL     1     118.327 114.467 118.839  1.00  0.00    -0.003 C 
ATOM      4  C   UNL     1     118.038 113.100 119.453  1.00  0.00     0.004 C 
ENDBRANCH   2   3
ENDBRANCH   1   2
BRANCH   1   5
ATOM      5  C   UNL     1     117.118 115.771 121.971  1.00  0.00     0.132 C 
ATOM      6  O   UNL     1     117.274 116.169 123.116  1.00  0.00    -0.300 OA
BRANCH   5   7
ATOM      7  C   UNL     1     115.848 116.112 121.237  1.00  0.00     0.072 C 
ATOM      8  C   UNL     1     114.975 114.874 121.061  1.00  0.00     0.012 C 
ENDBRANCH   5   7
ENDBRANCH   1   5
TORSDOF 4
ENDMDL
MODEL 2
REMARK VINA RESULT:    -2.454      2.201      3.161
REMARK INTER + INTRA:          -3.404
REMARK INTER:                  -3.032
REMARK INTRA:                  -0.372
REMARK UNBOUND:                -0.376
REMARK SMILES CCCCC(=O)CC
REMARK SMILES IDX 4 1 3 2 2 3 1 4 5 5 6 6 7 7 8 8
REMARK H PARENT
REMARK Flexibility Score: inf
ROOT
ATOM      1  C   UNL     1     118.206 118.134 121.368  1.00  0.00     0.075 C 
ENDROOT
BRANCH   1   2
ATOM      2  C   UNL     1     117.656 118.522 119.991  1.00  0.00     0.008 C 
BRANCH   2   3
ATOM      3  C   UNL     1     118.754 118.459 118.923  1.00  0.00    -0.003 C 
ATOM      4  C   UNL     1     120.085 118.018 119.526  1.00  0.00     0.004 C 
ENDBRANCH   2   3
ENDBRANCH   1   2
BRANCH   1   5
ATOM      5  C   UNL     1     117.380 117.033 121.979  1.00  0.00     0.132 C 
ATOM      6  O   UNL     1     116.940 117.172 123.111  1.00  0.00    -0.300 OA
BRANCH   5   7
ATOM      7  C   UNL     1     117.069 115.773 121.215  1.00  0.00     0.072 C 
ATOM      8  C   UNL     1     118.330 114.941 121.006  1.00  0.00     0.012 C 
ENDBRANCH   5   7
ENDBRANCH   1   5
TORSDOF 4
ENDMDL
MODEL 3
REMARK VINA RESULT:    -2.434      2.216      4.094
REMARK INTER + INTRA:          -3.380
REMARK INTER:                  -2.971
REMARK INTRA:                  -0.408
REMARK UNBOUND:                -0.376
REMARK SMILES CCCCC(=O)CC
REMARK SMILES IDX 4 1 3 2 2 3 1 4 5 5 6 6 7 7 8 8
REMARK H PARENT
REMARK Flexibility Score: inf
ROOT
ATOM      1  C   UNL     1     113.768 115.652 119.722  1.00  0.00     0.075 C 
ENDROOT
BRANCH   1   2
ATOM      2  C   UNL     1     114.331 116.985 119.217  1.00  0.00     0.008 C 
BRANCH   2   3
ATOM      3  C   UNL     1     114.722 117.896 120.387  1.00  0.00    -0.003 C 
ATOM      4  C   UNL     1     116.095 118.523 120.161  1.00  0.00     0.004 C 
ENDBRANCH   2   3
ENDBRANCH   1   2
BRANCH   1   5
ATOM      5  C   UNL     1     114.816 114.893 120.493  1.00  0.00     0.132 C 
ATOM      6  O   UNL     1     114.622 114.636 121.673  1.00  0.00    -0.300 OA
BRANCH   5   7
ATOM      7  C   UNL     1     116.087 114.425 119.835  1.00  0.00     0.072 C 
ATOM      8  C   UNL     1     117.309 114.945 120.586  1.00  0.00     0.012 C 
ENDBRANCH   5   7
ENDBRANCH   1   5
TORSDOF 4
ENDMDL
MODEL 4
REMARK VINA RESULT:    -2.432      3.029      4.515
REMARK INTER + INTRA:          -3.377
REMARK INTER:                  -3.011
REMARK INTRA:                  -0.366
REMARK UNBOUND:                -0.376
REMARK SMILES CCCCC(=O)CC
REMARK SMILES IDX 4 1 3 2 2 3 1 4 5 5 6 6 7 7 8 8
REMARK H PARENT
REMARK Flexibility Score: inf
ROOT
ATOM      1  C   UNL     1     115.142 118.062 121.304  1.00  0.00     0.075 C 
ENDROOT
BRANCH   1   2
ATOM      2  C   UNL     1     114.597 117.677 119.924  1.00  0.00     0.008 C 
BRANCH   2   3
ATOM      3  C   UNL     1     114.818 118.806 118.911  1.00  0.00    -0.003 C 
ATOM      4  C   UNL     1     115.141 120.121 119.613  1.00  0.00     0.004 C 
ENDBRANCH   2   3
ENDBRANCH   1   2
BRANCH   1   5
ATOM      5  C   UNL     1     116.314 117.192 121.673  1.00  0.00     0.132 C 
ATOM      6  O   UNL     1     116.157 115.983 121.764  1.00  0.00    -0.300 OA
BRANCH   5   7
ATOM      7  C   UNL     1     117.680 117.779 121.913  1.00  0.00     0.072 C 
ATOM      8  C   UNL     1     118.308 118.242 120.602  1.00  0.00     0.012 C 
ENDBRANCH   5   7
ENDBRANCH   1   5
TORSDOF 4
ENDMDL
MODEL 5
REMARK VINA RESULT:    -2.424      2.912      3.784
REMARK INTER + INTRA:          -3.367
REMARK INTER:                  -2.951
REMARK INTRA:                  -0.416
REMARK UNBOUND:                -0.376
REMARK SMILES CCCCC(=O)CC
REMARK SMILES IDX 4 1 3 2 2 3 1 4 5 5 6 6 7 7 8 8
REMARK H PARENT
REMARK Flexibility Score: inf
ROOT
ATOM      1  C   UNL     1     115.702 119.469 119.690  1.00  0.00     0.075 C 
ENDROOT
BRANCH   1   2
ATOM      2  C   UNL     1     117.012 118.857 119.183  1.00  0.00     0.008 C 
BRANCH   2   3
ATOM      3  C   UNL     1     117.904 118.423 120.352  1.00  0.00    -0.003 C 
ATOM      4  C   UNL     1     118.447 117.013 120.136  1.00  0.00     0.004 C 
ENDBRANCH   2   3
ENDBRANCH   1   2
BRANCH   1   5
ATOM      5  C   UNL     1     114.875 118.433 120.406  1.00  0.00     0.132 C 
ATOM      6  O   UNL     1     114.568 118.616 121.575  1.00  0.00    -0.300 OA
BRANCH   5   7
ATOM      7  C   UNL     1     114.403 117.187 119.705  1.00  0.00     0.072 C 
ATOM      8  C   UNL     1     114.849 115.939 120.460  1.00  0.00     0.012 C 
ENDBRANCH   5   7
ENDBRANCH   1   5
TORSDOF 4
ENDMDL
MODEL 6
REMARK VINA RESULT:    -2.402      2.278      2.740
REMARK INTER + INTRA:          -3.341
REMARK INTER:                  -2.931
REMARK INTRA:                  -0.410
REMARK UNBOUND:                -0.376
REMARK SMILES CCCCC(=O)CC
REMARK SMILES IDX 4 1 3 2 2 3 1 4 5 5 6 6 7 7 8 8
REMARK H PARENT
REMARK Flexibility Score: inf
ROOT
ATOM      1  C   UNL     1     119.436 117.541 119.698  1.00  0.00     0.075 C 
ENDROOT
BRANCH   1   2
ATOM      2  C   UNL     1     118.875 116.210 119.185  1.00  0.00     0.008 C 
BRANCH   2   3
ATOM      3  C   UNL     1     118.506 115.284 120.350  1.00  0.00    -0.003 C 
ATOM      4  C   UNL     1     117.185 114.568 120.087  1.00  0.00     0.004 C 
ENDBRANCH   2   3
ENDBRANCH   1   2
BRANCH   1   5
ATOM      5  C   UNL     1     118.386 118.298 120.469  1.00  0.00     0.132 C 
ATOM      6  O   UNL     1     118.601 118.602 121.633  1.00  0.00    -0.300 OA
BRANCH   5   7
ATOM      7  C   UNL     1     117.086 118.704 119.827  1.00  0.00     0.072 C 
ATOM      8  C   UNL     1     115.901 118.108 120.581  1.00  0.00     0.012 C 
ENDBRANCH   5   7
ENDBRANCH   1   5
TORSDOF 4
ENDMDL
MODEL 7
REMARK VINA RESULT:    -2.399      2.330      3.402
REMARK INTER + INTRA:          -3.336
REMARK INTER:                  -2.961
REMARK INTRA:                  -0.376
REMARK UNBOUND:                -0.376
REMARK SMILES CCCCC(=O)CC
REMARK SMILES IDX 4 1 3 2 2 3 1 4 5 5 6 6 7 7 8 8
REMARK H PARENT
REMARK Flexibility Score: inf
ROOT
ATOM      1  C   UNL     1     116.212 116.228 120.664  1.00  0.00     0.075 C 
ENDROOT
BRANCH   1   2
ATOM      2  C   UNL     1     115.204 115.084 120.822  1.00  0.00     0.008 C 
BRANCH   2   3
ATOM      3  C   UNL     1     114.487 114.797 119.497  1.00  0.00    -0.003 C 
ATOM      4  C   UNL     1     113.010 115.172 119.578  1.00  0.00     0.004 C 
ENDBRANCH   2   3
ENDBRANCH   1   2
BRANCH   1   5
ATOM      5  C   UNL     1     115.837 117.391 121.546  1.00  0.00     0.132 C 
ATOM      6  O   UNL     1     116.409 117.539 122.616  1.00  0.00    -0.300 OA
BRANCH   5   7
ATOM      7  C   UNL     1     114.786 118.384 121.126  1.00  0.00     0.072 C 
ATOM      8  C   UNL     1     114.822 118.605 119.617  1.00  0.00     0.012 C 
ENDBRANCH   5   7
ENDBRANCH   1   5
TORSDOF 4
ENDMDL
MODEL 8
REMARK VINA RESULT:    -2.390      1.835      2.841
REMARK INTER + INTRA:          -3.325
REMARK INTER:                  -3.108
REMARK INTRA:                  -0.217
REMARK UNBOUND:                -0.376
REMARK SMILES CCCCC(=O)CC
REMARK SMILES IDX 4 1 3 2 2 3 1 4 5 5 6 6 7 7 8 8
REMARK H PARENT
REMARK Flexibility Score: inf
ROOT
ATOM      1  C   UNL     1     117.347 114.095 119.756  1.00  0.00     0.075 C 
ENDROOT
BRANCH   1   2
ATOM      2  C   UNL     1     118.127 112.790 119.559  1.00  0.00     0.008 C 
BRANCH   2   3
ATOM      3  C   UNL     1     118.587 112.639 118.104  1.00  0.00    -0.003 C 
ATOM      4  C   UNL     1     119.332 111.324 117.896  1.00  0.00     0.004 C 
ENDBRANCH   2   3
ENDBRANCH   1   2
BRANCH   1   5
ATOM      5  C   UNL     1     118.139 115.064 120.595  1.00  0.00     0.132 C 
ATOM      6  O   UNL     1     118.478 114.741 121.724  1.00  0.00    -0.300 OA
BRANCH   5   7
ATOM      7  C   UNL     1     118.537 116.415 120.062  1.00  0.00     0.072 C 
ATOM      8  C   UNL     1     118.968 116.316 118.602  1.00  0.00     0.012 C 
ENDBRANCH   5   7
ENDBRANCH   1   5
TORSDOF 4
ENDMDL
MODEL 9
REMARK VINA RESULT:    -2.381      1.143      3.356
REMARK INTER + INTRA:          -3.314
REMARK INTER:                  -2.993
REMARK INTRA:                  -0.321
REMARK UNBOUND:                -0.376
REMARK SMILES CCCCC(=O)CC
REMARK SMILES IDX 4 1 3 2 2 3 1 4 5 5 6 6 7 7 8 8
REMARK H PARENT
REMARK Flexibility Score: inf
ROOT
ATOM      1  C   UNL     1     115.888 116.017 121.766  1.00  0.00     0.075 C 
ENDROOT
BRANCH   1   2
ATOM      2  C   UNL     1     114.989 114.902 121.221  1.00  0.00     0.008 C 
BRANCH   2   3
ATOM      3  C   UNL     1     114.296 115.338 119.925  1.00  0.00    -0.003 C 
ATOM      4  C   UNL     1     114.305 116.857 119.780  1.00  0.00     0.004 C 
ENDBRANCH   2   3
ENDBRANCH   1   2
BRANCH   1   5
ATOM      5  C   UNL     1     117.287 115.506 121.997  1.00  0.00     0.132 C 
ATOM      6  O   UNL     1     117.757 115.536 123.125  1.00  0.00    -0.300 OA
BRANCH   5   7
ATOM      7  C   UNL     1     118.109 114.941 120.869  1.00  0.00     0.072 C 
ATOM      8  C   UNL     1     118.482 116.033 119.871  1.00  0.00     0.012 C 
ENDBRANCH   5   7
ENDBRANCH   1   5
TORSDOF 4
ENDMDL
