MODEL 1
REMARK VINA RESULT:    -5.074      0.000      0.000
REMARK INTER + INTRA:          -5.738
REMARK INTER:                  -5.668
REMARK INTRA:                  -0.070
REMARK UNBOUND:                -0.070
REMARK SMILES COc1ccc(C(=O)[O-])cc1
REMARK SMILES IDX 6 1 5 2 10 3 4 4 11 5 3 6 7 7 8 8 9 9 2 10 1 11
REMARK H PARENT
REMARK Flexibility Score: inf
ROOT
ATOM      1  C   UNL     1       5.524  -3.512  24.231  1.00  0.00    -0.003 A 
ATOM      2  C   UNL     1       5.777  -2.188  24.626  1.00  0.00     0.014 A 
ATOM      3  C   UNL     1       6.607  -4.335  23.875  1.00  0.00     0.014 A 
ATOM      4  C   UNL     1       7.086  -1.696  24.662  1.00  0.00     0.047 A 
ATOM      5  C   UNL     1       7.916  -3.843  23.913  1.00  0.00     0.047 A 
ATOM      6  C   UNL     1       8.164  -2.515  24.308  1.00  0.00     0.118 A 
ENDROOT
BRANCH   1   7
ATOM      7  C   UNL     1       4.138  -4.029  24.193  1.00  0.00     0.071 C 
ATOM      8  O   UNL     1       3.917  -5.269  24.173  1.00  0.00    -0.545 OA
ATOM      9  O   UNL     1       3.060  -3.152  24.178  1.00  0.00    -0.545 OA
ENDBRANCH   1   7
BRANCH   6  10
ATOM     10  O   UNL     1       9.458  -1.975  24.361  1.00  0.00    -0.497 OA
ATOM     11  C   UNL     1       9.755  -0.635  24.739  1.00  0.00     0.278 C 
ENDBRANCH   6  10
TORSDOF 2
ENDMDL
MODEL 2
REMARK VINA RESULT:    -4.798      1.052      4.956
REMARK INTER + INTRA:          -5.429
REMARK INTER:                  -5.368
REMARK INTRA:                  -0.061
REMARK UNBOUND:                -0.070
REMARK SMILES COc1ccc(C(=O)[O-])cc1
REMARK SMILES IDX 6 1 5 2 10 3 4 4 11 5 3 6 7 7 8 8 9 9 2 10 1 11
REMARK H PARENT
REMARK Flexibility Score: inf
ROOT
ATOM      1  C   UNL     1       8.163  -1.842  24.388  1.00  0.00    -0.003 A 
ATOM      2  C   UNL     1       8.400  -3.163  23.971  1.00  0.00     0.014 A 
ATOM      3  C   UNL     1       6.849  -1.454  24.707  1.00  0.00     0.014 A 
ATOM      4  C   UNL     1       7.346  -4.076  23.875  1.00  0.00     0.047 A 
ATOM      5  C   UNL     1       5.796  -2.369  24.611  1.00  0.00     0.047 A 
ATOM      6  C   UNL     1       6.039  -3.691  24.193  1.00  0.00     0.118 A 
ENDROOT
BRANCH   1   7
ATOM      7  C   UNL     1       9.281  -0.878  24.488  1.00  0.00     0.071 C 
ATOM      8  O   UNL     1      10.379  -1.221  25.000  1.00  0.00    -0.545 OA
ATOM      9  O   UNL     1       9.134   0.422  24.018  1.00  0.00    -0.545 OA
ENDBRANCH   1   7
BRANCH   6  10
ATOM     10  O   UNL     1       5.016  -4.644  24.081  1.00  0.00    -0.497 OA
ATOM     11  C   UNL     1       3.643  -4.329  23.875  1.00  0.00     0.278 C 
ENDBRANCH   6  10
TORSDOF 2
ENDMDL
MODEL 3
REMARK VINA RESULT:    -4.072     19.615     22.059
REMARK INTER + INTRA:          -4.617
REMARK INTER:                  -4.553
REMARK INTRA:                  -0.064
REMARK UNBOUND:                -0.070
REMARK SMILES COc1ccc(C(=O)[O-])cc1
REMARK SMILES IDX 6 1 5 2 10 3 4 4 11 5 3 6 7 7 8 8 9 9 2 10 1 11
REMARK H PARENT
REMARK Flexibility Score: inf
ROOT
ATOM      1  C   UNL     1      14.129  12.658  36.014  1.00  0.00    -0.003 A 
ATOM      2  C   UNL     1      13.729  13.765  36.780  1.00  0.00     0.014 A 
ATOM      3  C   UNL     1      15.251  11.917  36.424  1.00  0.00     0.014 A 
ATOM      4  C   UNL     1      14.437  14.125  37.931  1.00  0.00     0.047 A 
ATOM      5  C   UNL     1      15.959  12.276  37.575  1.00  0.00     0.047 A 
ATOM      6  C   UNL     1      15.554  13.388  38.339  1.00  0.00     0.118 A 
ENDROOT
BRANCH   1   7
ATOM      7  C   UNL     1      13.377  12.281  34.796  1.00  0.00     0.071 C 
ATOM      8  O   UNL     1      12.651  13.123  34.205  1.00  0.00    -0.545 OA
ATOM      9  O   UNL     1      13.463  10.990  34.288  1.00  0.00    -0.545 OA
ENDBRANCH   1   7
BRANCH   6  10
ATOM     10  O   UNL     1      16.230  13.788  39.501  1.00  0.00    -0.497 OA
ATOM     11  C   UNL     1      15.591  14.125  40.727  1.00  0.00     0.278 C 
ENDBRANCH   6  10
TORSDOF 2
ENDMDL
MODEL 4
REMARK VINA RESULT:    -3.982     19.627     22.081
REMARK INTER + INTRA:          -4.518
REMARK INTER:                  -4.455
REMARK INTRA:                  -0.063
REMARK UNBOUND:                -0.070
REMARK SMILES COc1ccc(C(=O)[O-])cc1
REMARK SMILES IDX 6 1 5 2 10 3 4 4 11 5 3 6 7 7 8 8 9 9 2 10 1 11
REMARK H PARENT
REMARK Flexibility Score: inf
ROOT
ATOM      1  C   UNL     1      14.146  12.620  36.030  1.00  0.00    -0.003 A 
ATOM      2  C   UNL     1      15.262  11.881  36.457  1.00  0.00     0.014 A 
ATOM      3  C   UNL     1      13.751  13.746  36.773  1.00  0.00     0.014 A 
ATOM      4  C   UNL     1      15.967  12.260  37.604  1.00  0.00     0.047 A 
ATOM      5  C   UNL     1      14.457  14.125  37.919  1.00  0.00     0.047 A 
ATOM      6  C   UNL     1      15.574  13.380  38.344  1.00  0.00     0.118 A 
ENDROOT
BRANCH   1   7
ATOM      7  C   UNL     1      13.403  12.216  34.816  1.00  0.00     0.071 C 
ATOM      8  O   UNL     1      13.593  11.086  34.295  1.00  0.00    -0.545 OA
ATOM      9  O   UNL     1      12.482  13.080  34.234  1.00  0.00    -0.545 OA
ENDBRANCH   1   7
BRANCH   6  10
ATOM     10  O   UNL     1      16.314  13.719  39.486  1.00  0.00    -0.497 OA
ATOM     11  C   UNL     1      15.740  14.079  40.738  1.00  0.00     0.278 C 
ENDBRANCH   6  10
TORSDOF 2
ENDMDL
MODEL 5
REMARK VINA RESULT:    -3.964     19.878     22.321
REMARK INTER + INTRA:          -4.497
REMARK INTER:                  -4.437
REMARK INTRA:                  -0.060
REMARK UNBOUND:                -0.070
REMARK SMILES COc1ccc(C(=O)[O-])cc1
REMARK SMILES IDX 6 1 5 2 10 3 4 4 11 5 3 6 7 7 8 8 9 9 2 10 1 11
REMARK H PARENT
REMARK Flexibility Score: inf
ROOT
ATOM      1  C   UNL     1      14.284  12.708  36.355  1.00  0.00    -0.003 A 
ATOM      2  C   UNL     1      13.697  13.673  37.192  1.00  0.00     0.014 A 
ATOM      3  C   UNL     1      15.555  12.205  36.684  1.00  0.00     0.014 A 
ATOM      4  C   UNL     1      14.369  14.125  38.332  1.00  0.00     0.047 A 
ATOM      5  C   UNL     1      16.225  12.657  37.825  1.00  0.00     0.047 A 
ATOM      6  C   UNL     1      15.633  13.624  38.660  1.00  0.00     0.118 A 
ENDROOT
BRANCH   1   7
ATOM      7  C   UNL     1      13.571  12.233  35.149  1.00  0.00     0.071 C 
ATOM      8  O   UNL     1      13.711  11.046  34.749  1.00  0.00    -0.545 OA
ATOM      9  O   UNL     1      12.737  13.089  34.440  1.00  0.00    -0.545 OA
ENDBRANCH   1   7
BRANCH   6  10
ATOM     10  O   UNL     1      16.265  14.109  39.815  1.00  0.00    -0.497 OA
ATOM     11  C   UNL     1      16.907  13.288  40.785  1.00  0.00     0.278 C 
ENDBRANCH   6  10
TORSDOF 2
ENDMDL
MODEL 6
REMARK VINA RESULT:    -3.542     20.395     23.298
REMARK INTER + INTRA:          -4.027
REMARK INTER:                  -3.966
REMARK INTRA:                  -0.061
REMARK UNBOUND:                -0.070
REMARK SMILES COc1ccc(C(=O)[O-])cc1
REMARK SMILES IDX 6 1 5 2 10 3 4 4 11 5 3 6 7 7 8 8 9 9 2 10 1 11
REMARK H PARENT
REMARK Flexibility Score: inf
ROOT
ATOM      1  C   UNL     1      15.511  13.456  38.919  1.00  0.00    -0.003 A 
ATOM      2  C   UNL     1      16.260  12.629  38.065  1.00  0.00     0.014 A 
ATOM      3  C   UNL     1      14.386  14.125  38.405  1.00  0.00     0.014 A 
ATOM      4  C   UNL     1      15.893  12.477  36.724  1.00  0.00     0.047 A 
ATOM      5  C   UNL     1      14.019  13.971  37.064  1.00  0.00     0.047 A 
ATOM      6  C   UNL     1      14.774  13.142  36.212  1.00  0.00     0.118 A 
ENDROOT
BRANCH   1   7
ATOM      7  C   UNL     1      15.902  13.615  40.337  1.00  0.00     0.071 C 
ATOM      8  O   UNL     1      15.105  14.125  41.168  1.00  0.00    -0.545 OA
ATOM      9  O   UNL     1      17.157  13.205  40.772  1.00  0.00    -0.545 OA
ENDBRANCH   1   7
BRANCH   6  10
ATOM     10  O   UNL     1      14.447  12.956  34.860  1.00  0.00    -0.497 OA
ATOM     11  C   UNL     1      13.853  11.775  34.333  1.00  0.00     0.278 C 
ENDBRANCH   6  10
TORSDOF 2
ENDMDL
MODEL 7
REMARK VINA RESULT:    -3.452     21.558     24.368
REMARK INTER + INTRA:          -3.925
REMARK INTER:                  -3.861
REMARK INTRA:                  -0.064
REMARK UNBOUND:                -0.070
REMARK SMILES COc1ccc(C(=O)[O-])cc1
REMARK SMILES IDX 6 1 5 2 10 3 4 4 11 5 3 6 7 7 8 8 9 9 2 10 1 11
REMARK H PARENT
REMARK Flexibility Score: inf
ROOT
ATOM      1  C   UNL     1      16.417  13.225  40.065  1.00  0.00    -0.003 A 
ATOM      2  C   UNL     1      16.676  12.693  38.791  1.00  0.00     0.014 A 
ATOM      3  C   UNL     1      15.226  13.943  40.274  1.00  0.00     0.014 A 
ATOM      4  C   UNL     1      15.764  12.876  37.747  1.00  0.00     0.047 A 
ATOM      5  C   UNL     1      14.314  14.125  39.230  1.00  0.00     0.047 A 
ATOM      6  C   UNL     1      14.579  13.590  37.954  1.00  0.00     0.118 A 
ENDROOT
BRANCH   1   7
ATOM      7  C   UNL     1      17.385  13.030  41.167  1.00  0.00     0.071 C 
ATOM      8  O   UNL     1      17.712  11.871  41.535  1.00  0.00    -0.545 OA
ATOM      9  O   UNL     1      17.948  14.125  41.812  1.00  0.00    -0.545 OA
ENDBRANCH   1   7
BRANCH   6  10
ATOM     10  O   UNL     1      13.696  13.746  36.875  1.00  0.00    -0.497 OA
ATOM     11  C   UNL     1      13.925  13.231  35.568  1.00  0.00     0.278 C 
ENDBRANCH   6  10
TORSDOF 2
ENDMDL
