MODEL 1
REMARK VINA RESULT:    -2.518      0.000      0.000
REMARK INTER + INTRA:          -2.822
REMARK INTER:                  -2.812
REMARK INTRA:                  -0.010
REMARK UNBOUND:                -0.010
REMARK SMILES CCCC(=O)[O-]
REMARK SMILES IDX 3 1 4 2 5 3 6 4 2 5 1 6
REMARK H PARENT
REMARK Flexibility Score: inf
ROOT
ATOM      1  C   UNL     1     -34.033  -5.198 -31.967  1.00  0.00     0.052 C 
ENDROOT
BRANCH   1   2
ATOM      2  C   UNL     1     -34.334  -4.670 -33.336  1.00  0.00     0.041 C 
ATOM      3  O   UNL     1     -35.025  -5.348 -34.141  1.00  0.00    -0.550 OA
ATOM      4  O   UNL     1     -33.823  -3.441 -33.735  1.00  0.00    -0.550 OA
ENDBRANCH   1   2
BRANCH   1   5
ATOM      5  C   UNL     1     -34.653  -6.584 -31.745  1.00  0.00     0.003 C 
ATOM      6  C   UNL     1     -36.023  -6.507 -31.072  1.00  0.00     0.004 C 
ENDBRANCH   1   5
TORSDOF 2
ENDMDL
MODEL 2
REMARK VINA RESULT:    -2.504      0.138      1.328
REMARK INTER + INTRA:          -2.807
REMARK INTER:                  -2.794
REMARK INTRA:                  -0.013
REMARK UNBOUND:                -0.010
REMARK SMILES CCCC(=O)[O-]
REMARK SMILES IDX 3 1 4 2 5 3 6 4 2 5 1 6
REMARK H PARENT
REMARK Flexibility Score: inf
ROOT
ATOM      1  C   UNL     1     -34.195  -5.031 -31.879  1.00  0.00     0.052 C 
ENDROOT
BRANCH   1   2
ATOM      2  C   UNL     1     -34.319  -4.613 -33.312  1.00  0.00     0.041 C 
ATOM      3  O   UNL     1     -33.780  -3.547 -33.711  1.00  0.00    -0.550 OA
ATOM      4  O   UNL     1     -35.057  -5.384 -34.201  1.00  0.00    -0.550 OA
ENDBRANCH   1   2
BRANCH   1   5
ATOM      5  C   UNL     1     -34.654  -6.480 -31.670  1.00  0.00     0.003 C 
ATOM      6  C   UNL     1     -36.085  -6.566 -31.140  1.00  0.00     0.004 C 
ENDBRANCH   1   5
TORSDOF 2
ENDMDL
MODEL 3
REMARK VINA RESULT:    -2.467      2.416      3.386
REMARK INTER + INTRA:          -2.765
REMARK INTER:                  -2.760
REMARK INTRA:                  -0.006
REMARK UNBOUND:                -0.010
REMARK SMILES CCCC(=O)[O-]
REMARK SMILES IDX 3 1 4 2 5 3 6 4 2 5 1 6
REMARK H PARENT
REMARK Flexibility Score: inf
ROOT
ATOM      1  C   UNL     1     -34.025  -5.592 -31.962  1.00  0.00     0.052 C 
ENDROOT
BRANCH   1   2
ATOM      2  C   UNL     1     -34.742  -6.865 -31.633  1.00  0.00     0.041 C 
ATOM      3  O   UNL     1     -34.100  -7.940 -31.502  1.00  0.00    -0.550 OA
ATOM      4  O   UNL     1     -36.125  -6.869 -31.501  1.00  0.00    -0.550 OA
ENDBRANCH   1   2
BRANCH   1   5
ATOM      5  C   UNL     1     -34.513  -4.993 -33.287  1.00  0.00     0.003 C 
ATOM      6  C   UNL     1     -33.860  -3.644 -33.591  1.00  0.00     0.004 C 
ENDBRANCH   1   5
TORSDOF 2
ENDMDL
MODEL 4
REMARK VINA RESULT:    -2.349      2.049      3.216
REMARK INTER + INTRA:          -2.634
REMARK INTER:                  -2.619
REMARK INTRA:                  -0.015
REMARK UNBOUND:                -0.010
REMARK SMILES CCCC(=O)[O-]
REMARK SMILES IDX 3 1 4 2 5 3 6 4 2 5 1 6
REMARK H PARENT
REMARK Flexibility Score: inf
ROOT
ATOM      1  C   UNL     1     -34.678  -4.978 -33.441  1.00  0.00     0.052 C 
ENDROOT
BRANCH   1   2
ATOM      2  C   UNL     1     -34.748  -5.922 -32.281  1.00  0.00     0.041 C 
ATOM      3  O   UNL     1     -35.862  -6.323 -31.855  1.00  0.00    -0.550 OA
ATOM      4  O   UNL     1     -33.581  -6.335 -31.650  1.00  0.00    -0.550 OA
ENDBRANCH   1   2
BRANCH   1   5
ATOM      5  C   UNL     1     -33.380  -4.160 -33.430  1.00  0.00     0.003 C 
ATOM      6  C   UNL     1     -33.638  -2.657 -33.537  1.00  0.00     0.004 C 
ENDBRANCH   1   5
TORSDOF 2
ENDMDL
MODEL 5
REMARK VINA RESULT:    -2.348     15.468     16.110
REMARK INTER + INTRA:          -2.633
REMARK INTER:                  -2.622
REMARK INTRA:                  -0.011
REMARK UNBOUND:                -0.010
REMARK SMILES CCCC(=O)[O-]
REMARK SMILES IDX 3 1 4 2 5 3 6 4 2 5 1 6
REMARK H PARENT
REMARK Flexibility Score: inf
ROOT
ATOM      1  C   UNL     1     -25.097   6.860 -29.910  1.00  0.00     0.052 C 
ENDROOT
BRANCH   1   2
ATOM      2  C   UNL     1     -24.236   5.976 -30.759  1.00  0.00     0.041 C 
ATOM      3  O   UNL     1     -24.345   5.998 -32.013  1.00  0.00    -0.550 OA
ATOM      4  O   UNL     1     -23.335   5.103 -30.163  1.00  0.00    -0.550 OA
ENDBRANCH   1   2
BRANCH   1   5
ATOM      5  C   UNL     1     -24.264   7.672 -28.910  1.00  0.00     0.003 C 
ATOM      6  C   UNL     1     -25.056   8.036 -27.654  1.00  0.00     0.004 C 
ENDBRANCH   1   5
TORSDOF 2
ENDMDL
MODEL 6
REMARK VINA RESULT:    -2.271      3.916      4.539
REMARK INTER + INTRA:          -2.547
REMARK INTER:                  -2.521
REMARK INTRA:                  -0.026
REMARK UNBOUND:                -0.010
REMARK SMILES CCCC(=O)[O-]
REMARK SMILES IDX 3 1 4 2 5 3 6 4 2 5 1 6
REMARK H PARENT
REMARK Flexibility Score: inf
ROOT
ATOM      1  C   UNL     1     -33.270  -7.714 -30.466  1.00  0.00     0.052 C 
ENDROOT
BRANCH   1   2
ATOM      2  C   UNL     1     -32.708  -9.071 -30.760  1.00  0.00     0.041 C 
ATOM      3  O   UNL     1     -33.281  -9.831 -31.584  1.00  0.00    -0.550 OA
ATOM      4  O   UNL     1     -31.569  -9.510 -30.098  1.00  0.00    -0.550 OA
ENDBRANCH   1   2
BRANCH   1   5
ATOM      5  C   UNL     1     -34.167  -7.212 -31.605  1.00  0.00     0.003 C 
ATOM      6  C   UNL     1     -35.464  -6.588 -31.091  1.00  0.00     0.004 C 
ENDBRANCH   1   5
TORSDOF 2
ENDMDL
MODEL 7
REMARK VINA RESULT:    -2.230     13.877     14.324
REMARK INTER + INTRA:          -2.501
REMARK INTER:                  -2.464
REMARK INTRA:                  -0.038
REMARK UNBOUND:                -0.010
REMARK SMILES CCCC(=O)[O-]
REMARK SMILES IDX 3 1 4 2 5 3 6 4 2 5 1 6
REMARK H PARENT
REMARK Flexibility Score: inf
ROOT
ATOM      1  C   UNL     1     -26.006   4.696 -33.726  1.00  0.00     0.052 C 
ENDROOT
BRANCH   1   2
ATOM      2  C   UNL     1     -24.602   5.005 -33.305  1.00  0.00     0.041 C 
ATOM      3  O   UNL     1     -24.383   5.845 -32.393  1.00  0.00    -0.550 OA
ATOM      4  O   UNL     1     -23.534   4.387 -33.942  1.00  0.00    -0.550 OA
ENDBRANCH   1   2
BRANCH   1   5
ATOM      5  C   UNL     1     -26.427   5.523 -34.947  1.00  0.00     0.003 C 
ATOM      6  C   UNL     1     -26.436   4.696 -36.234  1.00  0.00     0.004 C 
ENDBRANCH   1   5
TORSDOF 2
ENDMDL
MODEL 8
REMARK VINA RESULT:    -2.207     15.989     16.565
REMARK INTER + INTRA:          -2.475
REMARK INTER:                  -2.421
REMARK INTRA:                  -0.054
REMARK UNBOUND:                -0.010
REMARK SMILES CCCC(=O)[O-]
REMARK SMILES IDX 3 1 4 2 5 3 6 4 2 5 1 6
REMARK H PARENT
REMARK Flexibility Score: inf
ROOT
ATOM      1  C   UNL     1     -24.107   6.774 -29.267  1.00  0.00     0.052 C 
ENDROOT
BRANCH   1   2
ATOM      2  C   UNL     1     -23.980   6.108 -27.932  1.00  0.00     0.041 C 
ATOM      3  O   UNL     1     -24.146   4.865 -27.824  1.00  0.00    -0.550 OA
ATOM      4  O   UNL     1     -23.710   6.866 -26.799  1.00  0.00    -0.550 OA
ENDBRANCH   1   2
BRANCH   1   5
ATOM      5  C   UNL     1     -24.838   8.119 -29.163  1.00  0.00     0.003 C 
ATOM      6  C   UNL     1     -26.357   7.953 -29.131  1.00  0.00     0.004 C 
ENDBRANCH   1   5
TORSDOF 2
ENDMDL
MODEL 9
REMARK VINA RESULT:    -2.146     14.850     15.469
REMARK INTER + INTRA:          -2.407
REMARK INTER:                  -2.370
REMARK INTRA:                  -0.038
REMARK UNBOUND:                -0.010
REMARK SMILES CCCC(=O)[O-]
REMARK SMILES IDX 3 1 4 2 5 3 6 4 2 5 1 6
REMARK H PARENT
REMARK Flexibility Score: inf
ROOT
ATOM      1  C   UNL     1     -20.563  -1.594 -33.034  1.00  0.00     0.052 C 
ENDROOT
BRANCH   1   2
ATOM      2  C   UNL     1     -20.278  -0.236 -33.598  1.00  0.00     0.041 C 
ATOM      3  O   UNL     1     -20.388  -0.027 -34.835  1.00  0.00    -0.550 OA
ATOM      4  O   UNL     1     -19.860   0.791 -32.762  1.00  0.00    -0.550 OA
ENDBRANCH   1   2
BRANCH   1   5
ATOM      5  C   UNL     1     -19.272  -2.370 -32.742  1.00  0.00     0.003 C 
ATOM      6  C   UNL     1     -18.909  -3.337 -33.869  1.00  0.00     0.004 C 
ENDBRANCH   1   5
TORSDOF 2
ENDMDL
