MODEL 1
REMARK VINA RESULT:    -4.906      0.000      0.000
REMARK INTER + INTRA:          -5.050
REMARK INTER:                  -5.050
REMARK INTRA:                   0.000
REMARK UNBOUND:                 0.000
REMARK SMILES Nc1ncnc2nc[nH]c12
REMARK SMILES IDX 8 1 7 2 6 3 5 4 4 5 3 6 2 7 10 8 9 9 1 11
REMARK H PARENT 9 10 1 12 1 13
REMARK Flexibility Score: inf
ROOT
ATOM      1  C   UNL     1     -24.527 -20.389 -13.462  1.00  0.00     0.199 A 
ATOM      2  N   UNL     1     -24.501 -21.276 -12.429  1.00  0.00    -0.217 NA
ATOM      3  C   UNL     1     -24.668 -22.452 -13.058  1.00  0.00     0.182 A 
ATOM      4  N   UNL     1     -24.719 -23.676 -12.482  1.00  0.00    -0.215 NA
ATOM      5  C   UNL     1     -24.896 -24.764 -13.292  1.00  0.00     0.226 A 
ATOM      6  N   UNL     1     -25.018 -24.607 -14.650  1.00  0.00    -0.217 NA
ATOM      7  C   UNL     1     -24.967 -23.373 -15.232  1.00  0.00     0.152 A 
ATOM      8  C   UNL     1     -24.786 -22.276 -14.394  1.00  0.00     0.127 A 
ATOM      9  N   UNL     1     -24.699 -20.971 -14.676  1.00  0.00    -0.340 N 
ATOM     10  H   UNL     1     -24.750 -20.498 -15.606  1.00  0.00     0.168 HD
ENDROOT
BRANCH   7  11
ATOM     11  N   UNL     1     -25.097 -23.234 -16.649  1.00  0.00    -0.382 N 
ATOM     12  H   UNL     1     -25.686 -22.468 -17.046  1.00  0.00     0.158 HD
ATOM     13  H   UNL     1     -24.615 -23.886 -17.305  1.00  0.00     0.158 HD
ENDBRANCH   7  11
TORSDOF 1
ENDMDL
MODEL 2
REMARK VINA RESULT:    -4.847      2.087      2.608
REMARK INTER + INTRA:          -4.989
REMARK INTER:                  -4.989
REMARK INTRA:                   0.000
REMARK UNBOUND:                 0.000
REMARK SMILES Nc1ncnc2nc[nH]c12
REMARK SMILES IDX 8 1 7 2 6 3 5 4 4 5 3 6 2 7 10 8 9 9 1 11
REMARK H PARENT 9 10 1 12 1 13
REMARK Flexibility Score: inf
ROOT
ATOM      1  C   UNL     1     -24.786 -18.941 -13.770  1.00  0.00     0.199 A 
ATOM      2  N   UNL     1     -25.279 -19.112 -12.513  1.00  0.00    -0.217 NA
ATOM      3  C   UNL     1     -24.880 -20.361 -12.218  1.00  0.00     0.182 A 
ATOM      4  N   UNL     1     -25.113 -21.032 -11.066  1.00  0.00    -0.215 NA
ATOM      5  C   UNL     1     -24.624 -22.304 -10.949  1.00  0.00     0.226 A 
ATOM      6  N   UNL     1     -23.918 -22.875 -11.978  1.00  0.00    -0.217 NA
ATOM      7  C   UNL     1     -23.682 -22.199 -13.141  1.00  0.00     0.152 A 
ATOM      8  C   UNL     1     -24.186 -20.906 -13.244  1.00  0.00     0.127 A 
ATOM      9  N   UNL     1     -24.113 -20.020 -14.245  1.00  0.00    -0.340 N 
ATOM     10  H   UNL     1     -23.650 -20.122 -15.175  1.00  0.00     0.168 HD
ENDROOT
BRANCH   7  11
ATOM     11  N   UNL     1     -22.944 -22.813 -14.199  1.00  0.00    -0.382 N 
ATOM     12  H   UNL     1     -23.301 -22.767 -15.180  1.00  0.00     0.158 HD
ATOM     13  H   UNL     1     -22.047 -23.314 -14.018  1.00  0.00     0.158 HD
ENDBRANCH   7  11
TORSDOF 1
ENDMDL
MODEL 3
REMARK VINA RESULT:    -4.579      2.445      2.758
REMARK INTER + INTRA:          -4.713
REMARK INTER:                  -4.713
REMARK INTRA:                   0.000
REMARK UNBOUND:                 0.000
REMARK SMILES Nc1ncnc2nc[nH]c12
REMARK SMILES IDX 8 1 7 2 6 3 5 4 4 5 3 6 2 7 10 8 9 9 1 11
REMARK H PARENT 9 10 1 12 1 13
REMARK Flexibility Score: inf
ROOT
ATOM      1  C   UNL     1     -26.318 -23.456 -12.093  1.00  0.00     0.199 A 
ATOM      2  N   UNL     1     -25.046 -23.931 -12.197  1.00  0.00    -0.217 NA
ATOM      3  C   UNL     1     -25.055 -24.507 -13.411  1.00  0.00     0.182 A 
ATOM      4  N   UNL     1     -24.020 -25.140 -14.013  1.00  0.00    -0.215 NA
ATOM      5  C   UNL     1     -24.222 -25.667 -15.258  1.00  0.00     0.226 A 
ATOM      6  N   UNL     1     -25.444 -25.552 -15.872  1.00  0.00    -0.217 NA
ATOM      7  C   UNL     1     -26.488 -24.914 -15.267  1.00  0.00     0.152 A 
ATOM      8  C   UNL     1     -26.267 -24.383 -14.000  1.00  0.00     0.127 A 
ATOM      9  N   UNL     1     -27.088 -23.717 -13.179  1.00  0.00    -0.340 N 
ATOM     10  H   UNL     1     -28.088 -23.453 -13.328  1.00  0.00     0.168 HD
ENDROOT
BRANCH   7  11
ATOM     11  N   UNL     1     -27.752 -24.807 -15.926  1.00  0.00    -0.382 N 
ATOM     12  H   UNL     1     -27.850 -25.118 -16.919  1.00  0.00     0.158 HD
ATOM     13  H   UNL     1     -28.589 -24.420 -15.439  1.00  0.00     0.158 HD
ENDBRANCH   7  11
TORSDOF 1
ENDMDL
MODEL 4
REMARK VINA RESULT:    -4.546      2.170      3.599
REMARK INTER + INTRA:          -4.679
REMARK INTER:                  -4.679
REMARK INTRA:                   0.000
REMARK UNBOUND:                 0.000
REMARK SMILES Nc1ncnc2nc[nH]c12
REMARK SMILES IDX 8 1 7 2 6 3 5 4 4 5 3 6 2 7 10 8 9 9 1 11
REMARK H PARENT 9 10 1 12 1 13
REMARK Flexibility Score: inf
ROOT
ATOM      1  C   UNL     1     -24.821 -23.032 -10.232  1.00  0.00     0.199 A 
ATOM      2  N   UNL     1     -25.401 -21.804 -10.156  1.00  0.00    -0.217 NA
ATOM      3  C   UNL     1     -25.040 -21.244 -11.323  1.00  0.00     0.182 A 
ATOM      4  N   UNL     1     -25.361 -20.003 -11.757  1.00  0.00    -0.215 NA
ATOM      5  C   UNL     1     -24.898 -19.607 -12.982  1.00  0.00     0.226 A 
ATOM      6  N   UNL     1     -24.130 -20.453 -13.741  1.00  0.00    -0.217 NA
ATOM      7  C   UNL     1     -23.806 -21.707 -13.305  1.00  0.00     0.152 A 
ATOM      8  C   UNL     1     -24.285 -22.094 -12.057  1.00  0.00     0.127 A 
ATOM      9  N   UNL     1     -24.131 -23.240 -11.383  1.00  0.00    -0.340 N 
ATOM     10  H   UNL     1     -23.607 -24.098 -11.665  1.00  0.00     0.168 HD
ENDROOT
BRANCH   7  11
ATOM     11  N   UNL     1     -23.005 -22.570 -14.114  1.00  0.00    -0.382 N 
ATOM     12  H   UNL     1     -22.650 -23.471 -13.721  1.00  0.00     0.158 HD
ATOM     13  H   UNL     1     -22.761 -22.323 -15.097  1.00  0.00     0.158 HD
ENDBRANCH   7  11
TORSDOF 1
ENDMDL
MODEL 5
REMARK VINA RESULT:    -4.533      1.828      2.697
REMARK INTER + INTRA:          -4.666
REMARK INTER:                  -4.666
REMARK INTRA:                   0.000
REMARK UNBOUND:                 0.000
REMARK SMILES Nc1ncnc2nc[nH]c12
REMARK SMILES IDX 8 1 7 2 6 3 5 4 4 5 3 6 2 7 10 8 9 9 1 11
REMARK H PARENT 9 10 1 12 1 13
REMARK Flexibility Score: inf
ROOT
ATOM      1  C   UNL     1     -26.755 -22.995 -11.453  1.00  0.00     0.199 A 
ATOM      2  N   UNL     1     -25.816 -22.010 -11.449  1.00  0.00    -0.217 NA
ATOM      3  C   UNL     1     -24.926 -22.460 -12.349  1.00  0.00     0.182 A 
ATOM      4  N   UNL     1     -23.780 -21.847 -12.729  1.00  0.00    -0.215 NA
ATOM      5  C   UNL     1     -22.997 -22.465 -13.665  1.00  0.00     0.226 A 
ATOM      6  N   UNL     1     -23.372 -23.672 -14.199  1.00  0.00    -0.217 NA
ATOM      7  C   UNL     1     -24.528 -24.291 -13.817  1.00  0.00     0.152 A 
ATOM      8  C   UNL     1     -25.313 -23.650 -12.864  1.00  0.00     0.127 A 
ATOM      9  N   UNL     1     -26.476 -24.012 -12.308  1.00  0.00    -0.340 N 
ATOM     10  H   UNL     1     -27.045 -24.870 -12.483  1.00  0.00     0.168 HD
ENDROOT
BRANCH   7  11
ATOM     11  N   UNL     1     -24.898 -25.548 -14.387  1.00  0.00    -0.382 N 
ATOM     12  H   UNL     1     -24.542 -25.818 -15.331  1.00  0.00     0.158 HD
ATOM     13  H   UNL     1     -25.523 -26.212 -13.881  1.00  0.00     0.158 HD
ENDBRANCH   7  11
TORSDOF 1
ENDMDL
MODEL 6
REMARK VINA RESULT:    -4.526      1.816      3.796
REMARK INTER + INTRA:          -4.659
REMARK INTER:                  -4.659
REMARK INTRA:                   0.000
REMARK UNBOUND:                 0.000
REMARK SMILES Nc1ncnc2nc[nH]c12
REMARK SMILES IDX 8 1 7 2 6 3 5 4 4 5 3 6 2 7 10 8 9 9 1 11
REMARK H PARENT 9 10 1 12 1 13
REMARK Flexibility Score: inf
ROOT
ATOM      1  C   UNL     1     -24.097 -24.617 -14.254  1.00  0.00     0.199 A 
ATOM      2  N   UNL     1     -23.412 -23.444 -14.168  1.00  0.00    -0.217 NA
ATOM      3  C   UNL     1     -23.965 -22.869 -13.087  1.00  0.00     0.182 A 
ATOM      4  N   UNL     1     -23.641 -21.666 -12.556  1.00  0.00    -0.215 NA
ATOM      5  C   UNL     1     -24.320 -21.246 -11.446  1.00  0.00     0.226 A 
ATOM      6  N   UNL     1     -25.301 -22.029 -10.892  1.00  0.00    -0.217 NA
ATOM      7  C   UNL     1     -25.629 -23.243 -11.426  1.00  0.00     0.152 A 
ATOM      8  C   UNL     1     -24.929 -23.656 -12.556  1.00  0.00     0.127 A 
ATOM      9  N   UNL     1     -25.031 -24.776 -13.282  1.00  0.00    -0.340 N 
ATOM     10  H   UNL     1     -25.674 -25.587 -13.144  1.00  0.00     0.168 HD
ENDROOT
BRANCH   7  11
ATOM     11  N   UNL     1     -26.654 -24.042 -10.832  1.00  0.00    -0.382 N 
ATOM     12  H   UNL     1     -27.566 -24.170 -11.325  1.00  0.00     0.158 HD
ATOM     13  H   UNL     1     -26.516 -24.506  -9.909  1.00  0.00     0.158 HD
ENDBRANCH   7  11
TORSDOF 1
ENDMDL
MODEL 7
REMARK VINA RESULT:    -4.488      1.317      3.164
REMARK INTER + INTRA:          -4.619
REMARK INTER:                  -4.619
REMARK INTRA:                   0.000
REMARK UNBOUND:                 0.000
REMARK SMILES Nc1ncnc2nc[nH]c12
REMARK SMILES IDX 8 1 7 2 6 3 5 4 4 5 3 6 2 7 10 8 9 9 1 11
REMARK H PARENT 9 10 1 12 1 13
REMARK Flexibility Score: inf
ROOT
ATOM      1  C   UNL     1     -24.266 -24.183 -14.497  1.00  0.00     0.199 A 
ATOM      2  N   UNL     1     -24.475 -24.346 -13.162  1.00  0.00    -0.217 NA
ATOM      3  C   UNL     1     -24.471 -23.078 -12.717  1.00  0.00     0.182 A 
ATOM      4  N   UNL     1     -24.640 -22.671 -11.436  1.00  0.00    -0.215 NA
ATOM      5  C   UNL     1     -24.604 -21.329 -11.175  1.00  0.00     0.226 A 
ATOM      6  N   UNL     1     -24.402 -20.428 -12.190  1.00  0.00    -0.217 NA
ATOM      7  C   UNL     1     -24.231 -20.837 -13.482  1.00  0.00     0.152 A 
ATOM      8  C   UNL     1     -24.270 -22.206 -13.732  1.00  0.00     0.127 A 
ATOM      9  N   UNL     1     -24.137 -22.886 -14.876  1.00  0.00    -0.340 N 
ATOM     10  H   UNL     1     -23.972 -22.518 -15.839  1.00  0.00     0.168 HD
ENDROOT
BRANCH   7  11
ATOM     11  N   UNL     1     -24.022 -19.880 -14.523  1.00  0.00    -0.382 N 
ATOM     12  H   UNL     1     -24.199 -18.867 -14.343  1.00  0.00     0.158 HD
ATOM     13  H   UNL     1     -23.694 -20.170 -15.470  1.00  0.00     0.158 HD
ENDBRANCH   7  11
TORSDOF 1
ENDMDL
MODEL 8
REMARK VINA RESULT:    -4.481      1.850      2.202
REMARK INTER + INTRA:          -4.612
REMARK INTER:                  -4.612
REMARK INTRA:                   0.000
REMARK UNBOUND:                 0.000
REMARK SMILES Nc1ncnc2nc[nH]c12
REMARK SMILES IDX 8 1 7 2 6 3 5 4 4 5 3 6 2 7 10 8 9 9 1 11
REMARK H PARENT 9 10 1 12 1 13
REMARK Flexibility Score: inf
ROOT
ATOM      1  C   UNL     1     -24.800 -21.046 -10.959  1.00  0.00     0.199 A 
ATOM      2  N   UNL     1     -25.755 -22.014 -11.024  1.00  0.00    -0.217 NA
ATOM      3  C   UNL     1     -25.299 -22.799 -12.014  1.00  0.00     0.182 A 
ATOM      4  N   UNL     1     -25.885 -23.924 -12.488  1.00  0.00    -0.215 NA
ATOM      5  C   UNL     1     -25.267 -24.594 -13.507  1.00  0.00     0.226 A 
ATOM      6  N   UNL     1     -24.085 -24.131 -14.028  1.00  0.00    -0.217 NA
ATOM      7  C   UNL     1     -23.492 -22.997 -13.551  1.00  0.00     0.152 A 
ATOM      8  C   UNL     1     -24.134 -22.326 -12.514  1.00  0.00     0.127 A 
ATOM      9  N   UNL     1     -23.795 -21.210 -11.858  1.00  0.00    -0.340 N 
ATOM     10  H   UNL     1     -22.959 -20.600 -11.995  1.00  0.00     0.168 HD
ENDROOT
BRANCH   7  11
ATOM     11  N   UNL     1     -22.261 -22.533 -14.109  1.00  0.00    -0.382 N 
ATOM     12  H   UNL     1     -21.528 -23.219 -14.397  1.00  0.00     0.158 HD
ATOM     13  H   UNL     1     -22.071 -21.516 -14.238  1.00  0.00     0.158 HD
ENDBRANCH   7  11
TORSDOF 1
ENDMDL
MODEL 9
REMARK VINA RESULT:    -4.379      1.415      2.495
REMARK INTER + INTRA:          -4.507
REMARK INTER:                  -4.507
REMARK INTRA:                   0.000
REMARK UNBOUND:                 0.000
REMARK SMILES Nc1ncnc2nc[nH]c12
REMARK SMILES IDX 8 1 7 2 6 3 5 4 4 5 3 6 2 7 10 8 9 9 1 11
REMARK H PARENT 9 10 1 12 1 13
REMARK Flexibility Score: inf
ROOT
ATOM      1  C   UNL     1     -24.640 -20.412 -12.632  1.00  0.00     0.199 A 
ATOM      2  N   UNL     1     -23.896 -20.963 -13.629  1.00  0.00    -0.217 NA
ATOM      3  C   UNL     1     -24.258 -22.256 -13.575  1.00  0.00     0.182 A 
ATOM      4  N   UNL     1     -23.805 -23.257 -14.367  1.00  0.00    -0.215 NA
ATOM      5  C   UNL     1     -24.294 -24.517 -14.158  1.00  0.00     0.226 A 
ATOM      6  N   UNL     1     -25.218 -24.750 -13.171  1.00  0.00    -0.217 NA
ATOM      7  C   UNL     1     -25.676 -23.742 -12.372  1.00  0.00     0.152 A 
ATOM      8  C   UNL     1     -25.169 -22.466 -12.596  1.00  0.00     0.127 A 
ATOM      9  N   UNL     1     -25.429 -21.305 -11.982  1.00  0.00    -0.340 N 
ATOM     10  H   UNL     1     -26.081 -21.118 -11.188  1.00  0.00     0.168 HD
ENDROOT
BRANCH   7  11
ATOM     11  N   UNL     1     -26.639 -24.009 -11.350  1.00  0.00    -0.382 N 
ATOM     12  H   UNL     1     -27.073 -24.957 -11.277  1.00  0.00     0.158 HD
ATOM     13  H   UNL     1     -26.926 -23.274 -10.668  1.00  0.00     0.158 HD
ENDBRANCH   7  11
TORSDOF 1
ENDMDL
