MODEL 1
REMARK VINA RESULT:    -4.190      0.000      0.000
REMARK INTER + INTRA:          -9.411
REMARK INTER:                  -7.864
REMARK INTRA:                  -1.547
REMARK UNBOUND:                -1.547
REMARK SMILES CCCCCCCCC=CCCCCCCCC(=O)[O-]
REMARK SMILES IDX 10 1 9 2 11 3 12 4 13 5 14 6 15 7 16 8 17 9 18 10 19 11
REMARK SMILES IDX 20 12 8 13 7 14 6 15 5 16 4 17 3 18 2 19 1 20
REMARK H PARENT
REMARK Flexibility Score: inf
ROOT
ATOM      1  C   UNL     1      10.942  20.005  47.842  1.00  0.00    -0.031 C 
ATOM      2  C   UNL     1      11.284  18.743  47.541  1.00  0.00    -0.031 C 
ENDROOT
BRANCH   1   3
ATOM      3  C   UNL     1      11.976  21.087  47.999  1.00  0.00     0.027 C 
BRANCH   3   4
ATOM      4  C   UNL     1      13.217  20.612  48.776  1.00  0.00     0.004 C 
BRANCH   4   5
ATOM      5  C   UNL     1      13.995  21.739  49.480  1.00  0.00     0.000 C 
BRANCH   5   6
ATOM      6  C   UNL     1      13.473  23.140  49.118  1.00  0.00     0.000 C 
BRANCH   6   7
ATOM      7  C   UNL     1      14.470  23.939  48.264  1.00  0.00     0.000 C 
BRANCH   7   8
ATOM      8  C   UNL     1      15.921  23.784  48.746  1.00  0.00     0.006 C 
BRANCH   8   9
ATOM      9  C   UNL     1      16.774  24.978  48.306  1.00  0.00     0.053 C 
BRANCH   9  10
ATOM     10  C   UNL     1      18.218  24.593  48.236  1.00  0.00     0.041 C 
ATOM     11  O   UNL     1      18.547  23.429  47.887  1.00  0.00    -0.550 OA
ATOM     12  O   UNL     1      19.202  25.535  48.510  1.00  0.00    -0.550 OA
ENDBRANCH   9  10
ENDBRANCH   8   9
ENDBRANCH   7   8
ENDBRANCH   6   7
ENDBRANCH   5   6
ENDBRANCH   4   5
ENDBRANCH   3   4
ENDBRANCH   1   3
BRANCH   2  13
ATOM     13  C   UNL     1      10.250  17.660  47.384  1.00  0.00     0.027 C 
BRANCH  13  14
ATOM     14  C   UNL     1      10.855  16.254  47.494  1.00  0.00     0.004 C 
BRANCH  14  15
ATOM     15  C   UNL     1      12.391  16.283  47.510  1.00  0.00     0.000 C 
BRANCH  15  16
ATOM     16  C   UNL     1      12.941  15.642  48.791  1.00  0.00     0.000 C 
BRANCH  16  17
ATOM     17  C   UNL     1      13.647  16.652  49.710  1.00  0.00    -0.000 C 
BRANCH  17  18
ATOM     18  C   UNL     1      12.677  17.497  50.564  1.00  0.00    -0.000 C 
BRANCH  18  19
ATOM     19  C   UNL     1      12.058  16.685  51.712  1.00  0.00    -0.003 C 
ATOM     20  C   UNL     1      13.093  16.378  52.790  1.00  0.00     0.004 C 
ENDBRANCH  18  19
ENDBRANCH  17  18
ENDBRANCH  16  17
ENDBRANCH  15  16
ENDBRANCH  14  15
ENDBRANCH  13  14
ENDBRANCH   2  13
TORSDOF 15
ENDMDL
MODEL 2
REMARK VINA RESULT:    -4.165      2.195      2.683
REMARK INTER + INTRA:          -9.365
REMARK INTER:                  -7.415
REMARK INTRA:                  -1.950
REMARK UNBOUND:                -1.547
REMARK SMILES CCCCCCCCC=CCCCCCCCC(=O)[O-]
REMARK SMILES IDX 10 1 9 2 11 3 12 4 13 5 14 6 15 7 16 8 17 9 18 10 19 11
REMARK SMILES IDX 20 12 8 13 7 14 6 15 5 16 4 17 3 18 2 19 1 20
REMARK H PARENT
REMARK Flexibility Score: inf
ROOT
ATOM      1  C   UNL     1      12.225  19.420  48.637  1.00  0.00    -0.031 C 
ATOM      2  C   UNL     1      11.641  19.112  47.469  1.00  0.00    -0.031 C 
ENDROOT
BRANCH   1   3
ATOM      3  C   UNL     1      13.635  19.942  48.700  1.00  0.00     0.027 C 
BRANCH   3   4
ATOM      4  C   UNL     1      14.636  19.038  47.959  1.00  0.00     0.004 C 
BRANCH   4   5
ATOM      5  C   UNL     1      15.960  19.729  47.584  1.00  0.00     0.000 C 
BRANCH   5   6
ATOM      6  C   UNL     1      15.749  21.107  46.933  1.00  0.00     0.000 C 
BRANCH   6   7
ATOM      7  C   UNL     1      16.904  22.079  47.223  1.00  0.00     0.000 C 
BRANCH   7   8
ATOM      8  C   UNL     1      16.415  23.491  47.578  1.00  0.00     0.006 C 
BRANCH   8   9
ATOM      9  C   UNL     1      15.445  23.453  48.762  1.00  0.00     0.053 C 
BRANCH   9  10
ATOM     10  C   UNL     1      14.127  24.049  48.380  1.00  0.00     0.041 C 
ATOM     11  O   UNL     1      13.054  23.496  48.738  1.00  0.00    -0.550 OA
ATOM     12  O   UNL     1      14.083  25.242  47.669  1.00  0.00    -0.550 OA
ENDBRANCH   9  10
ENDBRANCH   8   9
ENDBRANCH   7   8
ENDBRANCH   6   7
ENDBRANCH   5   6
ENDBRANCH   4   5
ENDBRANCH   3   4
ENDBRANCH   1   3
BRANCH   2  13
ATOM     13  C   UNL     1      10.230  18.590  47.405  1.00  0.00     0.027 C 
BRANCH  13  14
ATOM     14  C   UNL     1      10.164  17.150  46.875  1.00  0.00     0.004 C 
BRANCH  14  15
ATOM     15  C   UNL     1      10.705  16.133  47.891  1.00  0.00     0.000 C 
BRANCH  15  16
ATOM     16  C   UNL     1      12.138  15.712  47.541  1.00  0.00     0.000 C 
BRANCH  16  17
ATOM     17  C   UNL     1      13.073  15.695  48.761  1.00  0.00    -0.000 C 
BRANCH  17  18
ATOM     18  C   UNL     1      12.410  16.211  50.057  1.00  0.00    -0.000 C 
BRANCH  18  19
ATOM     19  C   UNL     1      13.444  16.634  51.110  1.00  0.00    -0.003 C 
ATOM     20  C   UNL     1      12.853  16.582  52.516  1.00  0.00     0.004 C 
ENDBRANCH  18  19
ENDBRANCH  17  18
ENDBRANCH  16  17
ENDBRANCH  15  16
ENDBRANCH  14  15
ENDBRANCH  13  14
ENDBRANCH   2  13
TORSDOF 15
ENDMDL
MODEL 3
REMARK VINA RESULT:    -4.073      3.684      8.205
REMARK INTER + INTRA:          -9.191
REMARK INTER:                  -7.879
REMARK INTRA:                  -1.312
REMARK UNBOUND:                -1.547
REMARK SMILES CCCCCCCCC=CCCCCCCCC(=O)[O-]
REMARK SMILES IDX 10 1 9 2 11 3 12 4 13 5 14 6 15 7 16 8 17 9 18 10 19 11
REMARK SMILES IDX 20 12 8 13 7 14 6 15 5 16 4 17 3 18 2 19 1 20
REMARK H PARENT
REMARK Flexibility Score: inf
ROOT
ATOM      1  C   UNL     1      15.788  20.387  47.910  1.00  0.00    -0.031 C 
ATOM      2  C   UNL     1      14.760  20.655  48.728  1.00  0.00    -0.031 C 
ENDROOT
BRANCH   1   3
ATOM      3  C   UNL     1      15.933  19.047  47.238  1.00  0.00     0.027 C 
BRANCH   3   4
ATOM      4  C   UNL     1      15.102  17.947  47.923  1.00  0.00     0.004 C 
BRANCH   4   5
ATOM      5  C   UNL     1      13.827  17.546  47.159  1.00  0.00     0.000 C 
BRANCH   5   6
ATOM      6  C   UNL     1      12.542  18.050  47.838  1.00  0.00     0.000 C 
BRANCH   6   7
ATOM      7  C   UNL     1      11.727  16.913  48.476  1.00  0.00     0.000 C 
BRANCH   7   8
ATOM      8  C   UNL     1      12.517  16.146  49.547  1.00  0.00     0.006 C 
BRANCH   8   9
ATOM      9  C   UNL     1      13.089  17.104  50.595  1.00  0.00     0.053 C 
BRANCH   9  10
ATOM     10  C   UNL     1      12.619  16.724  51.965  1.00  0.00     0.041 C 
ATOM     11  O   UNL     1      11.390  16.730  52.236  1.00  0.00    -0.550 OA
ATOM     12  O   UNL     1      13.536  16.317  52.926  1.00  0.00    -0.550 OA
ENDBRANCH   9  10
ENDBRANCH   8   9
ENDBRANCH   7   8
ENDBRANCH   6   7
ENDBRANCH   5   6
ENDBRANCH   4   5
ENDBRANCH   3   4
ENDBRANCH   1   3
BRANCH   2  13
ATOM     13  C   UNL     1      14.614  21.994  49.401  1.00  0.00     0.027 C 
BRANCH  13  14
ATOM     14  C   UNL     1      13.815  22.991  48.551  1.00  0.00     0.004 C 
BRANCH  14  15
ATOM     15  C   UNL     1      14.351  24.425  48.681  1.00  0.00     0.000 C 
BRANCH  15  16
ATOM     16  C   UNL     1      15.850  24.426  49.004  1.00  0.00     0.000 C 
BRANCH  16  17
ATOM     17  C   UNL     1      16.732  24.584  47.755  1.00  0.00    -0.000 C 
BRANCH  17  18
ATOM     18  C   UNL     1      17.815  23.492  47.618  1.00  0.00    -0.000 C 
BRANCH  18  19
ATOM     19  C   UNL     1      19.132  23.891  48.300  1.00  0.00    -0.003 C 
ATOM     20  C   UNL     1      19.306  25.407  48.317  1.00  0.00     0.004 C 
ENDBRANCH  18  19
ENDBRANCH  17  18
ENDBRANCH  16  17
ENDBRANCH  15  16
ENDBRANCH  14  15
ENDBRANCH  13  14
ENDBRANCH   2  13
TORSDOF 15
ENDMDL
MODEL 4
REMARK VINA RESULT:    -4.054      1.121      1.736
REMARK INTER + INTRA:          -9.156
REMARK INTER:                  -7.639
REMARK INTRA:                  -1.517
REMARK UNBOUND:                -1.547
REMARK SMILES CCCCCCCCC=CCCCCCCCC(=O)[O-]
REMARK SMILES IDX 10 1 9 2 11 3 12 4 13 5 14 6 15 7 16 8 17 9 18 10 19 11
REMARK SMILES IDX 20 12 8 13 7 14 6 15 5 16 4 17 3 18 2 19 1 20
REMARK H PARENT
REMARK Flexibility Score: inf
ROOT
ATOM      1  C   UNL     1      13.005  19.881  48.834  1.00  0.00    -0.031 C 
ATOM      2  C   UNL     1      12.170  19.451  47.877  1.00  0.00    -0.031 C 
ENDROOT
BRANCH   1   3
ATOM      3  C   UNL     1      14.327  20.518  48.499  1.00  0.00     0.027 C 
BRANCH   3   4
ATOM      4  C   UNL     1      14.241  21.459  47.284  1.00  0.00     0.004 C 
BRANCH   4   5
ATOM      5  C   UNL     1      15.399  22.470  47.181  1.00  0.00     0.000 C 
BRANCH   5   6
ATOM      6  C   UNL     1      15.755  23.108  48.535  1.00  0.00     0.000 C 
BRANCH   6   7
ATOM      7  C   UNL     1      15.227  24.545  48.667  1.00  0.00     0.000 C 
BRANCH   7   8
ATOM      8  C   UNL     1      16.350  25.572  48.877  1.00  0.00     0.006 C 
BRANCH   8   9
ATOM      9  C   UNL     1      17.456  25.394  47.833  1.00  0.00     0.053 C 
BRANCH   9  10
ATOM     10  C   UNL     1      18.772  25.143  48.501  1.00  0.00     0.041 C 
ATOM     11  O   UNL     1      19.345  26.067  49.137  1.00  0.00    -0.550 OA
ATOM     12  O   UNL     1      19.342  23.877  48.462  1.00  0.00    -0.550 OA
ENDBRANCH   9  10
ENDBRANCH   8   9
ENDBRANCH   7   8
ENDBRANCH   6   7
ENDBRANCH   5   6
ENDBRANCH   4   5
ENDBRANCH   3   4
ENDBRANCH   1   3
BRANCH   2  13
ATOM     13  C   UNL     1      10.847  18.813  48.211  1.00  0.00     0.027 C 
BRANCH  13  14
ATOM     14  C   UNL     1      10.882  17.285  48.066  1.00  0.00     0.004 C 
BRANCH  14  15
ATOM     15  C   UNL     1      12.123  16.804  47.300  1.00  0.00     0.000 C 
BRANCH  15  16
ATOM     16  C   UNL     1      12.998  15.901  48.179  1.00  0.00     0.000 C 
BRANCH  16  17
ATOM     17  C   UNL     1      12.561  15.895  49.653  1.00  0.00    -0.000 C 
BRANCH  17  18
ATOM     18  C   UNL     1      13.566  16.585  50.601  1.00  0.00    -0.000 C 
BRANCH  18  19
ATOM     19  C   UNL     1      13.070  16.611  52.054  1.00  0.00    -0.003 C 
ATOM     20  C   UNL     1      11.602  17.023  52.128  1.00  0.00     0.004 C 
ENDBRANCH  18  19
ENDBRANCH  17  18
ENDBRANCH  16  17
ENDBRANCH  15  16
ENDBRANCH  14  15
ENDBRANCH  13  14
ENDBRANCH   2  13
TORSDOF 15
ENDMDL
MODEL 5
REMARK VINA RESULT:    -4.031      1.421      2.149
REMARK INTER + INTRA:          -9.112
REMARK INTER:                  -7.717
REMARK INTRA:                  -1.395
REMARK UNBOUND:                -1.547
REMARK SMILES CCCCCCCCC=CCCCCCCCC(=O)[O-]
REMARK SMILES IDX 10 1 9 2 11 3 12 4 13 5 14 6 15 7 16 8 17 9 18 10 19 11
REMARK SMILES IDX 20 12 8 13 7 14 6 15 5 16 4 17 3 18 2 19 1 20
REMARK H PARENT
REMARK Flexibility Score: inf
ROOT
ATOM      1  C   UNL     1      14.818  17.877  47.592  1.00  0.00    -0.031 C 
ATOM      2  C   UNL     1      13.600  17.854  47.032  1.00  0.00    -0.031 C 
ENDROOT
BRANCH   1   3
ATOM      3  C   UNL     1      15.664  19.122  47.589  1.00  0.00     0.027 C 
BRANCH   3   4
ATOM      4  C   UNL     1      14.825  20.410  47.678  1.00  0.00     0.004 C 
BRANCH   4   5
ATOM      5  C   UNL     1      14.592  20.919  49.112  1.00  0.00     0.000 C 
BRANCH   5   6
ATOM      6  C   UNL     1      13.448  21.943  49.203  1.00  0.00     0.000 C 
BRANCH   6   7
ATOM      7  C   UNL     1      13.871  23.343  48.729  1.00  0.00     0.000 C 
BRANCH   7   8
ATOM      8  C   UNL     1      15.346  23.650  49.029  1.00  0.00     0.006 C 
BRANCH   8   9
ATOM      9  C   UNL     1      16.066  24.154  47.774  1.00  0.00     0.053 C 
BRANCH   9  10
ATOM     10  C   UNL     1      17.410  23.510  47.646  1.00  0.00     0.041 C 
ATOM     11  O   UNL     1      17.562  22.505  46.903  1.00  0.00    -0.550 OA
ATOM     12  O   UNL     1      18.505  24.048  48.310  1.00  0.00    -0.550 OA
ENDBRANCH   9  10
ENDBRANCH   8   9
ENDBRANCH   7   8
ENDBRANCH   6   7
ENDBRANCH   5   6
ENDBRANCH   4   5
ENDBRANCH   3   4
ENDBRANCH   1   3
BRANCH   2  13
ATOM     13  C   UNL     1      12.753  16.609  47.034  1.00  0.00     0.027 C 
BRANCH  13  14
ATOM     14  C   UNL     1      11.407  16.819  47.742  1.00  0.00     0.004 C 
BRANCH  14  15
ATOM     15  C   UNL     1      11.290  18.219  48.362  1.00  0.00     0.000 C 
BRANCH  15  16
ATOM     16  C   UNL     1      11.847  18.237  49.791  1.00  0.00     0.000 C 
BRANCH  16  17
ATOM     17  C   UNL     1      12.176  16.833  50.324  1.00  0.00    -0.000 C 
BRANCH  17  18
ATOM     18  C   UNL     1      11.626  16.562  51.741  1.00  0.00    -0.000 C 
BRANCH  18  19
ATOM     19  C   UNL     1      12.722  16.641  52.814  1.00  0.00    -0.003 C 
ATOM     20  C   UNL     1      14.104  16.408  52.209  1.00  0.00     0.004 C 
ENDBRANCH  18  19
ENDBRANCH  17  18
ENDBRANCH  16  17
ENDBRANCH  15  16
ENDBRANCH  14  15
ENDBRANCH  13  14
ENDBRANCH   2  13
TORSDOF 15
ENDMDL
MODEL 6
REMARK VINA RESULT:    -3.997      1.538      2.121
REMARK INTER + INTRA:          -9.049
REMARK INTER:                  -7.236
REMARK INTRA:                  -1.813
REMARK UNBOUND:                -1.547
REMARK SMILES CCCCCCCCC=CCCCCCCCC(=O)[O-]
REMARK SMILES IDX 10 1 9 2 11 3 12 4 13 5 14 6 15 7 16 8 17 9 18 10 19 11
REMARK SMILES IDX 20 12 8 13 7 14 6 15 5 16 4 17 3 18 2 19 1 20
REMARK H PARENT
REMARK Flexibility Score: inf
ROOT
ATOM      1  C   UNL     1      10.008  18.452  47.701  1.00  0.00    -0.031 C 
ATOM      2  C   UNL     1      10.141  17.405  46.875  1.00  0.00    -0.031 C 
ENDROOT
BRANCH   1   3
ATOM      3  C   UNL     1       9.758  19.842  47.179  1.00  0.00     0.027 C 
BRANCH   3   4
ATOM      4  C   UNL     1      11.060  20.614  46.900  1.00  0.00     0.004 C 
BRANCH   4   5
ATOM      5  C   UNL     1      12.249  20.195  47.786  1.00  0.00     0.000 C 
BRANCH   5   6
ATOM      6  C   UNL     1      13.593  20.250  47.042  1.00  0.00     0.000 C 
BRANCH   6   7
ATOM      7  C   UNL     1      14.396  21.520  47.365  1.00  0.00     0.000 C 
BRANCH   7   8
ATOM      8  C   UNL     1      15.724  21.218  48.074  1.00  0.00     0.006 C 
BRANCH   8   9
ATOM      9  C   UNL     1      16.915  21.625  47.201  1.00  0.00     0.053 C 
BRANCH   9  10
ATOM     10  C   UNL     1      17.331  23.030  47.503  1.00  0.00     0.041 C 
ATOM     11  O   UNL     1      18.288  23.556  46.876  1.00  0.00    -0.550 OA
ATOM     12  O   UNL     1      16.631  23.776  48.443  1.00  0.00    -0.550 OA
ENDBRANCH   9  10
ENDBRANCH   8   9
ENDBRANCH   7   8
ENDBRANCH   6   7
ENDBRANCH   5   6
ENDBRANCH   4   5
ENDBRANCH   3   4
ENDBRANCH   1   3
BRANCH   2  13
ATOM     13  C   UNL     1      10.392  16.014  47.397  1.00  0.00     0.027 C 
BRANCH  13  14
ATOM     14  C   UNL     1      11.759  15.466  46.964  1.00  0.00     0.004 C 
BRANCH  14  15
ATOM     15  C   UNL     1      12.913  16.391  47.380  1.00  0.00     0.000 C 
BRANCH  15  16
ATOM     16  C   UNL     1      13.421  16.040  48.784  1.00  0.00     0.000 C 
BRANCH  16  17
ATOM     17  C   UNL     1      13.437  17.248  49.735  1.00  0.00    -0.000 C 
BRANCH  17  18
ATOM     18  C   UNL     1      12.082  17.512  50.425  1.00  0.00    -0.000 C 
BRANCH  18  19
ATOM     19  C   UNL     1      11.864  16.603  51.643  1.00  0.00    -0.003 C 
ATOM     20  C   UNL     1      13.112  16.546  52.519  1.00  0.00     0.004 C 
ENDBRANCH  18  19
ENDBRANCH  17  18
ENDBRANCH  16  17
ENDBRANCH  15  16
ENDBRANCH  14  15
ENDBRANCH  13  14
ENDBRANCH   2  13
TORSDOF 15
ENDMDL
MODEL 7
REMARK VINA RESULT:    -3.992      1.745      2.951
REMARK INTER + INTRA:          -9.040
REMARK INTER:                  -7.104
REMARK INTRA:                  -1.936
REMARK UNBOUND:                -1.547
REMARK SMILES CCCCCCCCC=CCCCCCCCC(=O)[O-]
REMARK SMILES IDX 10 1 9 2 11 3 12 4 13 5 14 6 15 7 16 8 17 9 18 10 19 11
REMARK SMILES IDX 20 12 8 13 7 14 6 15 5 16 4 17 3 18 2 19 1 20
REMARK H PARENT
REMARK Flexibility Score: inf
ROOT
ATOM      1  C   UNL     1      14.437  21.272  49.249  1.00  0.00    -0.031 C 
ATOM      2  C   UNL     1      15.083  21.317  48.075  1.00  0.00    -0.031 C 
ENDROOT
BRANCH   1   3
ATOM      3  C   UNL     1      13.493  22.366  49.673  1.00  0.00     0.027 C 
BRANCH   3   4
ATOM      4  C   UNL     1      13.256  23.406  48.563  1.00  0.00     0.004 C 
BRANCH   4   5
ATOM      5  C   UNL     1      13.127  24.855  49.068  1.00  0.00     0.000 C 
BRANCH   5   6
ATOM      6  C   UNL     1      13.985  25.845  48.263  1.00  0.00     0.000 C 
BRANCH   6   7
ATOM      7  C   UNL     1      14.953  25.139  47.300  1.00  0.00     0.000 C 
BRANCH   7   8
ATOM      8  C   UNL     1      16.422  25.503  47.564  1.00  0.00     0.006 C 
BRANCH   8   9
ATOM      9  C   UNL     1      17.061  24.518  48.548  1.00  0.00     0.053 C 
BRANCH   9  10
ATOM     10  C   UNL     1      18.184  23.776  47.894  1.00  0.00     0.041 C 
ATOM     11  O   UNL     1      17.963  23.054  46.886  1.00  0.00    -0.550 OA
ATOM     12  O   UNL     1      19.481  23.920  48.367  1.00  0.00    -0.550 OA
ENDBRANCH   9  10
ENDBRANCH   8   9
ENDBRANCH   7   8
ENDBRANCH   6   7
ENDBRANCH   5   6
ENDBRANCH   4   5
ENDBRANCH   3   4
ENDBRANCH   1   3
BRANCH   2  13
ATOM     13  C   UNL     1      16.028  20.223  47.652  1.00  0.00     0.027 C 
BRANCH  13  14
ATOM     14  C   UNL     1      15.289  18.985  47.124  1.00  0.00     0.004 C 
BRANCH  14  15
ATOM     15  C   UNL     1      15.414  17.785  48.076  1.00  0.00     0.000 C 
BRANCH  15  16
ATOM     16  C   UNL     1      14.052  17.119  48.304  1.00  0.00     0.000 C 
BRANCH  16  17
ATOM     17  C   UNL     1      12.928  18.131  48.580  1.00  0.00    -0.000 C 
BRANCH  17  18
ATOM     18  C   UNL     1      12.056  17.771  49.802  1.00  0.00    -0.000 C 
BRANCH  18  19
ATOM     19  C   UNL     1      12.848  17.016  50.879  1.00  0.00    -0.003 C 
ATOM     20  C   UNL     1      11.983  16.734  52.105  1.00  0.00     0.004 C 
ENDBRANCH  18  19
ENDBRANCH  17  18
ENDBRANCH  16  17
ENDBRANCH  15  16
ENDBRANCH  14  15
ENDBRANCH  13  14
ENDBRANCH   2  13
TORSDOF 15
ENDMDL
MODEL 8
REMARK VINA RESULT:    -3.918      3.521      7.328
REMARK INTER + INTRA:          -8.901
REMARK INTER:                  -6.677
REMARK INTRA:                  -2.224
REMARK UNBOUND:                -1.547
REMARK SMILES CCCCCCCCC=CCCCCCCCC(=O)[O-]
REMARK SMILES IDX 10 1 9 2 11 3 12 4 13 5 14 6 15 7 16 8 17 9 18 10 19 11
REMARK SMILES IDX 20 12 8 13 7 14 6 15 5 16 4 17 3 18 2 19 1 20
REMARK H PARENT
REMARK Flexibility Score: inf
ROOT
ATOM      1  C   UNL     1      11.878  19.603  47.057  1.00  0.00    -0.031 C 
ATOM      2  C   UNL     1      13.095  19.376  47.572  1.00  0.00    -0.031 C 
ENDROOT
BRANCH   1   3
ATOM      3  C   UNL     1      10.627  19.138  47.754  1.00  0.00     0.027 C 
BRANCH   3   4
ATOM      4  C   UNL     1       9.926  17.988  47.008  1.00  0.00     0.004 C 
BRANCH   4   5
ATOM      5  C   UNL     1      10.220  16.588  47.579  1.00  0.00     0.000 C 
BRANCH   5   6
ATOM      6  C   UNL     1      11.555  16.010  47.082  1.00  0.00     0.000 C 
BRANCH   6   7
ATOM      7  C   UNL     1      12.510  15.655  48.233  1.00  0.00     0.000 C 
BRANCH   7   8
ATOM      8  C   UNL     1      12.118  16.328  49.557  1.00  0.00     0.006 C 
BRANCH   8   9
ATOM      9  C   UNL     1      13.354  16.869  50.283  1.00  0.00     0.053 C 
BRANCH   9  10
ATOM     10  C   UNL     1      13.248  16.620  51.755  1.00  0.00     0.041 C 
ATOM     11  O   UNL     1      12.129  16.681  52.329  1.00  0.00    -0.550 OA
ATOM     12  O   UNL     1      14.379  16.274  52.484  1.00  0.00    -0.550 OA
ENDBRANCH   9  10
ENDBRANCH   8   9
ENDBRANCH   7   8
ENDBRANCH   6   7
ENDBRANCH   5   6
ENDBRANCH   4   5
ENDBRANCH   3   4
ENDBRANCH   1   3
BRANCH   2  13
ATOM     13  C   UNL     1      14.346  19.841  46.875  1.00  0.00     0.027 C 
BRANCH  13  14
ATOM     14  C   UNL     1      15.615  19.527  47.681  1.00  0.00     0.004 C 
BRANCH  14  15
ATOM     15  C   UNL     1      16.567  20.730  47.757  1.00  0.00     0.000 C 
BRANCH  15  16
ATOM     16  C   UNL     1      15.973  21.949  47.038  1.00  0.00     0.000 C 
BRANCH  16  17
ATOM     17  C   UNL     1      15.701  23.129  47.986  1.00  0.00    -0.000 C 
BRANCH  17  18
ATOM     18  C   UNL     1      14.211  23.291  48.361  1.00  0.00    -0.000 C 
BRANCH  18  19
ATOM     19  C   UNL     1      13.293  23.224  47.132  1.00  0.00    -0.003 C 
ATOM     20  C   UNL     1      11.876  23.674  47.477  1.00  0.00     0.004 C 
ENDBRANCH  18  19
ENDBRANCH  17  18
ENDBRANCH  16  17
ENDBRANCH  15  16
ENDBRANCH  14  15
ENDBRANCH  13  14
ENDBRANCH   2  13
TORSDOF 15
ENDMDL
