MODEL 1
REMARK VINA RESULT:    -3.793      0.000      0.000
REMARK INTER + INTRA:          -4.201
REMARK INTER:                  -4.126
REMARK INTRA:                  -0.076
REMARK UNBOUND:                -0.076
REMARK SMILES CCc1cccc(O)c1
REMARK SMILES IDX 3 1 9 2 7 3 6 4 5 5 4 6 2 7 1 8 8 9
REMARK H PARENT 8 10
REMARK Flexibility Score: inf
ROOT
ATOM      1  C   UNL     1     -96.349 -16.452 -79.100  1.00  0.00    -0.045 A 
ATOM      2  C   UNL     1     -95.668 -15.329 -78.604  1.00  0.00     0.049 A 
ATOM      3  C   UNL     1     -94.303 -15.151 -78.876  1.00  0.00     0.115 A 
ATOM      4  C   UNL     1     -93.617 -16.103 -79.636  1.00  0.00     0.046 A 
ATOM      5  C   UNL     1     -94.285 -17.229 -80.122  1.00  0.00     0.004 A 
ATOM      6  C   UNL     1     -95.646 -17.408 -79.853  1.00  0.00     0.004 A 
ENDROOT
BRANCH   1   7
ATOM      7  C   UNL     1     -97.805 -16.659 -78.782  1.00  0.00     0.032 C 
ATOM      8  C   UNL     1     -98.294 -17.995 -79.333  1.00  0.00     0.009 C 
ENDBRANCH   1   7
BRANCH   3   9
ATOM      9  O   UNL     1     -93.622 -14.036 -78.392  1.00  0.00    -0.508 OA
ATOM     10  H   UNL     1     -92.929 -13.554 -78.955  1.00  0.00     0.293 HD
ENDBRANCH   3   9
TORSDOF 2
ENDMDL
MODEL 2
REMARK VINA RESULT:    -3.491     15.066     15.589
REMARK INTER + INTRA:          -3.872
REMARK INTER:                  -3.803
REMARK INTRA:                  -0.070
REMARK UNBOUND:                -0.076
REMARK SMILES CCc1cccc(O)c1
REMARK SMILES IDX 3 1 9 2 7 3 6 4 5 5 4 6 2 7 1 8 8 9
REMARK H PARENT 8 10
REMARK Flexibility Score: inf
ROOT
ATOM      1  C   UNL     1     -94.745 -17.899 -64.212  1.00  0.00    -0.045 A 
ATOM      2  C   UNL     1     -93.935 -18.812 -64.908  1.00  0.00     0.049 A 
ATOM      3  C   UNL     1     -92.736 -19.270 -64.342  1.00  0.00     0.115 A 
ATOM      4  C   UNL     1     -92.342 -18.807 -63.083  1.00  0.00     0.046 A 
ATOM      5  C   UNL     1     -93.135 -17.889 -62.391  1.00  0.00     0.004 A 
ATOM      6  C   UNL     1     -94.331 -17.432 -62.954  1.00  0.00     0.004 A 
ENDROOT
BRANCH   1   7
ATOM      7  C   UNL     1     -96.015 -17.383 -64.834  1.00  0.00     0.032 C 
ATOM      8  C   UNL     1     -96.100 -15.865 -64.707  1.00  0.00     0.009 C 
ENDBRANCH   1   7
BRANCH   3   9
ATOM      9  O   UNL     1     -91.931 -20.181 -65.023  1.00  0.00    -0.508 OA
ATOM     10  H   UNL     1     -91.017 -19.920 -65.375  1.00  0.00     0.293 HD
ENDBRANCH   3   9
TORSDOF 2
ENDMDL
MODEL 3
REMARK VINA RESULT:    -3.470     14.956     15.433
REMARK INTER + INTRA:          -3.850
REMARK INTER:                  -3.796
REMARK INTRA:                  -0.054
REMARK UNBOUND:                -0.076
REMARK SMILES CCc1cccc(O)c1
REMARK SMILES IDX 3 1 9 2 7 3 6 4 5 5 4 6 2 7 1 8 8 9
REMARK H PARENT 8 10
REMARK Flexibility Score: inf
ROOT
ATOM      1  C   UNL     1     -95.716 -16.675 -64.204  1.00  0.00    -0.045 A 
ATOM      2  C   UNL     1     -94.639 -16.581 -63.307  1.00  0.00     0.049 A 
ATOM      3  C   UNL     1     -93.627 -17.553 -63.311  1.00  0.00     0.115 A 
ATOM      4  C   UNL     1     -93.697 -18.623 -64.207  1.00  0.00     0.046 A 
ATOM      5  C   UNL     1     -94.771 -18.729 -65.094  1.00  0.00     0.004 A 
ATOM      6  C   UNL     1     -95.781 -17.762 -65.091  1.00  0.00     0.004 A 
ENDROOT
BRANCH   1   7
ATOM      7  C   UNL     1     -96.818 -15.650 -64.176  1.00  0.00     0.032 C 
ATOM      8  C   UNL     1     -97.947 -16.096 -63.252  1.00  0.00     0.009 C 
ENDBRANCH   1   7
BRANCH   3   9
ATOM      9  O   UNL     1     -92.552 -17.463 -62.429  1.00  0.00    -0.508 OA
ATOM     10  H   UNL     1     -92.508 -18.030 -61.589  1.00  0.00     0.293 HD
ENDBRANCH   3   9
TORSDOF 2
ENDMDL
MODEL 4
REMARK VINA RESULT:    -3.414     14.669     15.232
REMARK INTER + INTRA:          -3.789
REMARK INTER:                  -3.714
REMARK INTRA:                  -0.075
REMARK UNBOUND:                -0.076
REMARK SMILES CCc1cccc(O)c1
REMARK SMILES IDX 3 1 9 2 7 3 6 4 5 5 4 6 2 7 1 8 8 9
REMARK H PARENT 8 10
REMARK Flexibility Score: inf
ROOT
ATOM      1  C   UNL     1     -95.163 -18.483 -64.336  1.00  0.00    -0.045 A 
ATOM      2  C   UNL     1     -96.046 -17.681 -65.077  1.00  0.00     0.049 A 
ATOM      3  C   UNL     1     -96.068 -16.291 -64.890  1.00  0.00     0.115 A 
ATOM      4  C   UNL     1     -95.212 -15.703 -63.953  1.00  0.00     0.046 A 
ATOM      5  C   UNL     1     -94.340 -16.497 -63.203  1.00  0.00     0.004 A 
ATOM      6  C   UNL     1     -94.317 -17.883 -63.389  1.00  0.00     0.004 A 
ENDROOT
BRANCH   1   7
ATOM      7  C   UNL     1     -95.164 -19.978 -64.514  1.00  0.00     0.032 C 
ATOM      8  C   UNL     1     -94.062 -20.621 -63.677  1.00  0.00     0.009 C 
ENDBRANCH   1   7
BRANCH   3   9
ATOM      9  O   UNL     1     -96.936 -15.488 -65.626  1.00  0.00    -0.508 OA
ATOM     10  H   UNL     1     -96.611 -14.941 -66.415  1.00  0.00     0.293 HD
ENDBRANCH   3   9
TORSDOF 2
ENDMDL
MODEL 5
REMARK VINA RESULT:    -3.383     15.357     16.104
REMARK INTER + INTRA:          -3.755
REMARK INTER:                  -3.705
REMARK INTRA:                  -0.050
REMARK UNBOUND:                -0.076
REMARK SMILES CCc1cccc(O)c1
REMARK SMILES IDX 3 1 9 2 7 3 6 4 5 5 4 6 2 7 1 8 8 9
REMARK H PARENT 8 10
REMARK Flexibility Score: inf
ROOT
ATOM      1  C   UNL     1     -95.120 -17.102 -62.930  1.00  0.00    -0.045 A 
ATOM      2  C   UNL     1     -95.387 -16.466 -64.153  1.00  0.00     0.049 A 
ATOM      3  C   UNL     1     -96.693 -16.063 -64.472  1.00  0.00     0.115 A 
ATOM      4  C   UNL     1     -97.733 -16.305 -63.571  1.00  0.00     0.046 A 
ATOM      5  C   UNL     1     -97.477 -16.948 -62.357  1.00  0.00     0.004 A 
ATOM      6  C   UNL     1     -96.176 -17.351 -62.038  1.00  0.00     0.004 A 
ENDROOT
BRANCH   1   7
ATOM      7  C   UNL     1     -93.725 -17.564 -62.603  1.00  0.00     0.032 C 
ATOM      8  C   UNL     1     -93.272 -18.647 -63.577  1.00  0.00     0.009 C 
ENDBRANCH   1   7
BRANCH   3   9
ATOM      9  O   UNL     1     -96.964 -15.426 -65.681  1.00  0.00    -0.508 OA
ATOM     10  H   UNL     1     -97.891 -15.440 -66.091  1.00  0.00     0.293 HD
ENDBRANCH   3   9
TORSDOF 2
ENDMDL
MODEL 6
REMARK VINA RESULT:    -3.337     14.644     15.321
REMARK INTER + INTRA:          -3.705
REMARK INTER:                  -3.637
REMARK INTRA:                  -0.069
REMARK UNBOUND:                -0.076
REMARK SMILES CCc1cccc(O)c1
REMARK SMILES IDX 3 1 9 2 7 3 6 4 5 5 4 6 2 7 1 8 8 9
REMARK H PARENT 8 10
REMARK Flexibility Score: inf
ROOT
ATOM      1  C   UNL     1     -95.092 -18.235 -64.123  1.00  0.00    -0.045 A 
ATOM      2  C   UNL     1     -96.396 -18.276 -64.644  1.00  0.00     0.049 A 
ATOM      3  C   UNL     1     -97.135 -17.093 -64.798  1.00  0.00     0.115 A 
ATOM      4  C   UNL     1     -96.573 -15.870 -64.422  1.00  0.00     0.046 A 
ATOM      5  C   UNL     1     -95.281 -15.823 -63.891  1.00  0.00     0.004 A 
ATOM      6  C   UNL     1     -94.543 -17.001 -63.737  1.00  0.00     0.004 A 
ENDROOT
BRANCH   1   7
ATOM      7  C   UNL     1     -94.313 -19.507 -63.927  1.00  0.00     0.032 C 
ATOM      8  C   UNL     1     -92.849 -19.308 -64.310  1.00  0.00     0.009 C 
ENDBRANCH   1   7
BRANCH   3   9
ATOM      9  O   UNL     1     -98.426 -17.126 -65.320  1.00  0.00    -0.508 OA
ATOM     10  H   UNL     1     -99.173 -17.632 -64.856  1.00  0.00     0.293 HD
ENDBRANCH   3   9
TORSDOF 2
ENDMDL
MODEL 7
REMARK VINA RESULT:    -3.317     15.079     15.697
REMARK INTER + INTRA:          -3.684
REMARK INTER:                  -3.631
REMARK INTRA:                  -0.053
REMARK UNBOUND:                -0.076
REMARK SMILES CCc1cccc(O)c1
REMARK SMILES IDX 3 1 9 2 7 3 6 4 5 5 4 6 2 7 1 8 8 9
REMARK H PARENT 8 10
REMARK Flexibility Score: inf
ROOT
ATOM      1  C   UNL     1     -94.551 -17.209 -63.168  1.00  0.00    -0.045 A 
ATOM      2  C   UNL     1     -95.370 -16.225 -63.746  1.00  0.00     0.049 A 
ATOM      3  C   UNL     1     -96.057 -16.487 -64.941  1.00  0.00     0.115 A 
ATOM      4  C   UNL     1     -95.918 -17.731 -65.562  1.00  0.00     0.046 A 
ATOM      5  C   UNL     1     -95.095 -18.711 -65.000  1.00  0.00     0.004 A 
ATOM      6  C   UNL     1     -94.409 -18.451 -63.809  1.00  0.00     0.004 A 
ENDROOT
BRANCH   1   7
ATOM      7  C   UNL     1     -93.789 -16.916 -61.903  1.00  0.00     0.032 C 
ATOM      8  C   UNL     1     -94.487 -17.536 -60.697  1.00  0.00     0.009 C 
ENDBRANCH   1   7
BRANCH   3   9
ATOM      9  O   UNL     1     -96.876 -15.518 -65.517  1.00  0.00    -0.508 OA
ATOM     10  H   UNL     1     -97.846 -15.709 -65.739  1.00  0.00     0.293 HD
ENDBRANCH   3   9
TORSDOF 2
ENDMDL
MODEL 8
REMARK VINA RESULT:    -3.265     14.670     15.850
REMARK INTER + INTRA:          -3.627
REMARK INTER:                  -3.572
REMARK INTRA:                  -0.055
REMARK UNBOUND:                -0.076
REMARK SMILES CCc1cccc(O)c1
REMARK SMILES IDX 3 1 9 2 7 3 6 4 5 5 4 6 2 7 1 8 8 9
REMARK H PARENT 8 10
REMARK Flexibility Score: inf
ROOT
ATOM      1  C   UNL     1    -100.725  -7.210 -67.696  1.00  0.00    -0.045 A 
ATOM      2  C   UNL     1     -99.846  -7.616 -66.679  1.00  0.00     0.049 A 
ATOM      3  C   UNL     1    -100.192  -8.674 -65.824  1.00  0.00     0.115 A 
ATOM      4  C   UNL     1    -101.420  -9.321 -65.983  1.00  0.00     0.046 A 
ATOM      5  C   UNL     1    -102.305  -8.915 -66.985  1.00  0.00     0.004 A 
ATOM      6  C   UNL     1    -101.962  -7.860 -67.838  1.00  0.00     0.004 A 
ENDROOT
BRANCH   1   7
ATOM      7  C   UNL     1    -100.368  -6.054 -68.592  1.00  0.00     0.032 C 
ATOM      8  C   UNL     1    -100.001  -6.546 -69.988  1.00  0.00     0.009 C 
ENDBRANCH   1   7
BRANCH   3   9
ATOM      9  O   UNL     1     -99.322  -9.086 -64.816  1.00  0.00    -0.508 OA
ATOM     10  H   UNL     1     -98.797  -8.417 -64.264  1.00  0.00     0.293 HD
ENDBRANCH   3   9
TORSDOF 2
ENDMDL
MODEL 9
REMARK VINA RESULT:    -3.199     14.353     15.478
REMARK INTER + INTRA:          -3.556
REMARK INTER:                  -3.488
REMARK INTRA:                  -0.068
REMARK UNBOUND:                -0.076
REMARK SMILES CCc1cccc(O)c1
REMARK SMILES IDX 3 1 9 2 7 3 6 4 5 5 4 6 2 7 1 8 8 9
REMARK H PARENT 8 10
REMARK Flexibility Score: inf
ROOT
ATOM      1  C   UNL     1    -100.861  -7.638 -68.523  1.00  0.00    -0.045 A 
ATOM      2  C   UNL     1    -101.589  -8.258 -67.495  1.00  0.00     0.049 A 
ATOM      3  C   UNL     1    -101.138  -8.192 -66.168  1.00  0.00     0.115 A 
ATOM      4  C   UNL     1     -99.953  -7.514 -65.871  1.00  0.00     0.046 A 
ATOM      5  C   UNL     1     -99.216  -6.905 -66.891  1.00  0.00     0.004 A 
ATOM      6  C   UNL     1     -99.664  -6.970 -68.214  1.00  0.00     0.004 A 
ENDROOT
BRANCH   1   7
ATOM      7  C   UNL     1    -101.328  -7.736 -69.951  1.00  0.00     0.032 C 
ATOM      8  C   UNL     1    -100.213  -8.266 -70.848  1.00  0.00     0.009 C 
ENDBRANCH   1   7
BRANCH   3   9
ATOM      9  O   UNL     1    -101.859  -8.799 -65.142  1.00  0.00    -0.508 OA
ATOM     10  H   UNL     1    -102.552  -8.288 -64.608  1.00  0.00     0.293 HD
ENDBRANCH   3   9
TORSDOF 2
ENDMDL
