MODEL 1
REMARK VINA RESULT:    -3.518      0.000      0.000
REMARK INTER + INTRA:          -5.923
REMARK INTER:                  -5.368
REMARK INTRA:                  -0.554
REMARK UNBOUND:                -0.554
REMARK SMILES O=C([O-])CCCCCCCCC(=O)[O-]
REMARK SMILES IDX 7 1 6 2 5 3 4 4 2 5 1 6 3 7 8 8 9 9 10 10 11 11 12 12 13 13
REMARK SMILES IDX 14 14
REMARK H PARENT
REMARK Flexibility Score: inf
ROOT
ATOM      1  C   UNL     1     118.908  53.649  54.079  1.00  0.00     0.000 C 
ENDROOT
BRANCH   1   2
ATOM      2  C   UNL     1     119.366  54.320  55.386  1.00  0.00     0.000 C 
BRANCH   2   3
ATOM      3  C   UNL     1     120.533  53.577  56.060  1.00  0.00     0.006 C 
BRANCH   3   4
ATOM      4  C   UNL     1     121.880  54.266  55.808  1.00  0.00     0.053 C 
BRANCH   4   5
ATOM      5  C   UNL     1     122.577  53.707  54.605  1.00  0.00     0.041 C 
ATOM      6  O   UNL     1     122.472  52.485  54.323  1.00  0.00    -0.550 OA
ATOM      7  O   UNL     1     123.368  54.530  53.813  1.00  0.00    -0.550 OA
ENDBRANCH   4   5
ENDBRANCH   3   4
ENDBRANCH   2   3
ENDBRANCH   1   2
BRANCH   1   8
ATOM      8  C   UNL     1     118.275  52.253  54.247  1.00  0.00     0.000 C 
BRANCH   8   9
ATOM      9  C   UNL     1     116.807  52.254  54.719  1.00  0.00     0.000 C 
BRANCH   9  10
ATOM     10  C   UNL     1     115.761  52.086  53.599  1.00  0.00     0.006 C 
BRANCH  10  11
ATOM     11  C   UNL     1     115.316  53.402  52.944  1.00  0.00     0.053 C 
BRANCH  11  12
ATOM     12  C   UNL     1     115.532  53.393  51.461  1.00  0.00     0.041 C 
ATOM     13  O   UNL     1     116.179  52.457  50.922  1.00  0.00    -0.550 OA
ATOM     14  O   UNL     1     114.989  54.398  50.672  1.00  0.00    -0.550 OA
ENDBRANCH  11  12
ENDBRANCH  10  11
ENDBRANCH   9  10
ENDBRANCH   8   9
ENDBRANCH   1   8
TORSDOF 9
ENDMDL
MODEL 2
REMARK VINA RESULT:    -3.489      9.439     11.457
REMARK INTER + INTRA:          -5.879
REMARK INTER:                  -5.134
REMARK INTRA:                  -0.745
REMARK UNBOUND:                -0.554
REMARK SMILES O=C([O-])CCCCCCCCC(=O)[O-]
REMARK SMILES IDX 7 1 6 2 5 3 4 4 2 5 1 6 3 7 8 8 9 9 10 10 11 11 12 12 13 13
REMARK SMILES IDX 14 14
REMARK H PARENT
REMARK Flexibility Score: inf
ROOT
ATOM      1  C   UNL     1     124.685  55.886  43.587  1.00  0.00     0.000 C 
ENDROOT
BRANCH   1   2
ATOM      2  C   UNL     1     126.050  55.545  42.962  1.00  0.00     0.000 C 
BRANCH   2   3
ATOM      3  C   UNL     1     126.667  54.260  43.542  1.00  0.00     0.006 C 
BRANCH   3   4
ATOM      4  C   UNL     1     125.654  53.109  43.601  1.00  0.00     0.053 C 
BRANCH   4   5
ATOM      5  C   UNL     1     125.685  52.405  44.924  1.00  0.00     0.041 C 
ATOM      6  O   UNL     1     126.481  52.782  45.824  1.00  0.00    -0.550 OA
ATOM      7  O   UNL     1     124.856  51.314  45.152  1.00  0.00    -0.550 OA
ENDBRANCH   4   5
ENDBRANCH   3   4
ENDBRANCH   2   3
ENDBRANCH   1   2
BRANCH   1   8
ATOM      8  C   UNL     1     124.629  57.228  44.343  1.00  0.00     0.000 C 
BRANCH   8   9
ATOM      9  C   UNL     1     124.305  57.119  45.847  1.00  0.00     0.000 C 
BRANCH   9  10
ATOM     10  C   UNL     1     124.574  55.736  46.473  1.00  0.00     0.006 C 
BRANCH  10  11
ATOM     11  C   UNL     1     125.361  55.779  47.792  1.00  0.00     0.053 C 
BRANCH  11  12
ATOM     12  C   UNL     1     124.509  55.407  48.967  1.00  0.00     0.041 C 
ATOM     13  O   UNL     1     123.702  54.444  48.883  1.00  0.00    -0.550 OA
ATOM     14  O   UNL     1     124.633  56.099  50.164  1.00  0.00    -0.550 OA
ENDBRANCH  11  12
ENDBRANCH  10  11
ENDBRANCH   9  10
ENDBRANCH   8   9
ENDBRANCH   1   8
TORSDOF 9
ENDMDL
MODEL 3
REMARK VINA RESULT:    -3.480      1.054      6.373
REMARK INTER + INTRA:          -5.866
REMARK INTER:                  -5.253
REMARK INTRA:                  -0.613
REMARK UNBOUND:                -0.554
REMARK SMILES O=C([O-])CCCCCCCCC(=O)[O-]
REMARK SMILES IDX 7 1 6 2 5 3 4 4 2 5 1 6 3 7 8 8 9 9 10 10 11 11 12 12 13 13
REMARK SMILES IDX 14 14
REMARK H PARENT
REMARK Flexibility Score: inf
ROOT
ATOM      1  C   UNL     1     117.593  51.916  53.930  1.00  0.00     0.000 C 
ENDROOT
BRANCH   1   2
ATOM      2  C   UNL     1     116.397  52.635  54.580  1.00  0.00     0.000 C 
BRANCH   2   3
ATOM      3  C   UNL     1     115.298  52.998  53.566  1.00  0.00     0.006 C 
BRANCH   3   4
ATOM      4  C   UNL     1     115.735  52.734  52.119  1.00  0.00     0.053 C 
BRANCH   4   5
ATOM      5  C   UNL     1     115.936  54.007  51.355  1.00  0.00     0.041 C 
ATOM      6  O   UNL     1     117.007  54.658  51.477  1.00  0.00    -0.550 OA
ATOM      7  O   UNL     1     114.929  54.490  50.529  1.00  0.00    -0.550 OA
ENDBRANCH   4   5
ENDBRANCH   3   4
ENDBRANCH   2   3
ENDBRANCH   1   2
BRANCH   1   8
ATOM      8  C   UNL     1     118.945  52.644  54.065  1.00  0.00     0.000 C 
BRANCH   8   9
ATOM      9  C   UNL     1     118.971  53.789  55.098  1.00  0.00     0.000 C 
BRANCH   9  10
ATOM     10  C   UNL     1     120.260  53.882  55.938  1.00  0.00     0.006 C 
BRANCH  10  11
ATOM     11  C   UNL     1     121.244  52.723  55.719  1.00  0.00     0.053 C 
BRANCH  11  12
ATOM     12  C   UNL     1     122.409  53.128  54.867  1.00  0.00     0.041 C 
ATOM     13  O   UNL     1     122.744  54.338  54.788  1.00  0.00    -0.550 OA
ATOM     14  O   UNL     1     123.144  52.164  54.189  1.00  0.00    -0.550 OA
ENDBRANCH  11  12
ENDBRANCH  10  11
ENDBRANCH   9  10
ENDBRANCH   8   9
ENDBRANCH   1   8
TORSDOF 9
ENDMDL
MODEL 4
REMARK VINA RESULT:    -3.465      0.960      6.393
REMARK INTER + INTRA:          -5.842
REMARK INTER:                  -5.238
REMARK INTRA:                  -0.604
REMARK UNBOUND:                -0.554
REMARK SMILES O=C([O-])CCCCCCCCC(=O)[O-]
REMARK SMILES IDX 7 1 6 2 5 3 4 4 2 5 1 6 3 7 8 8 9 9 10 10 11 11 12 12 13 13
REMARK SMILES IDX 14 14
REMARK H PARENT
REMARK Flexibility Score: inf
ROOT
ATOM      1  C   UNL     1     119.434  53.233  53.700  1.00  0.00     0.000 C 
ENDROOT
BRANCH   1   2
ATOM      2  C   UNL     1     118.252  52.361  53.238  1.00  0.00     0.000 C 
BRANCH   2   3
ATOM      3  C   UNL     1     117.173  52.196  54.323  1.00  0.00     0.006 C 
BRANCH   3   4
ATOM      4  C   UNL     1     115.817  52.762  53.880  1.00  0.00     0.053 C 
BRANCH   4   5
ATOM      5  C   UNL     1     115.432  52.283  52.513  1.00  0.00     0.041 C 
ATOM      6  O   UNL     1     115.261  51.055  52.297  1.00  0.00    -0.550 OA
ATOM      7  O   UNL     1     115.291  53.192  51.471  1.00  0.00    -0.550 OA
ENDBRANCH   4   5
ENDBRANCH   3   4
ENDBRANCH   2   3
ENDBRANCH   1   2
BRANCH   1   8
ATOM      8  C   UNL     1     119.088  54.287  54.772  1.00  0.00     0.000 C 
BRANCH   8   9
ATOM      9  C   UNL     1     119.804  54.103  56.125  1.00  0.00     0.000 C 
BRANCH   9  10
ATOM     10  C   UNL     1     121.018  53.154  56.097  1.00  0.00     0.006 C 
BRANCH  10  11
ATOM     11  C   UNL     1     122.372  53.861  55.932  1.00  0.00     0.053 C 
BRANCH  11  12
ATOM     12  C   UNL     1     122.953  53.651  54.567  1.00  0.00     0.041 C 
ATOM     13  O   UNL     1     123.166  52.486  54.143  1.00  0.00    -0.550 OA
ATOM     14  O   UNL     1     123.226  54.742  53.751  1.00  0.00    -0.550 OA
ENDBRANCH  11  12
ENDBRANCH  10  11
ENDBRANCH   9  10
ENDBRANCH   8   9
ENDBRANCH   1   8
TORSDOF 9
ENDMDL
MODEL 5
REMARK VINA RESULT:    -3.389      9.883     11.595
REMARK INTER + INTRA:          -5.727
REMARK INTER:                  -4.935
REMARK INTRA:                  -0.791
REMARK UNBOUND:                -0.554
REMARK SMILES O=C([O-])CCCCCCCCC(=O)[O-]
REMARK SMILES IDX 7 1 6 2 5 3 4 4 2 5 1 6 3 7 8 8 9 9 10 10 11 11 12 12 13 13
REMARK SMILES IDX 14 14
REMARK H PARENT
REMARK Flexibility Score: inf
ROOT
ATOM      1  C   UNL     1     126.489  54.350  43.420  1.00  0.00     0.000 C 
ENDROOT
BRANCH   1   2
ATOM      2  C   UNL     1     125.542  53.145  43.275  1.00  0.00     0.000 C 
BRANCH   2   3
ATOM      3  C   UNL     1     125.124  52.549  44.631  1.00  0.00     0.006 C 
BRANCH   3   4
ATOM      4  C   UNL     1     126.174  52.802  45.722  1.00  0.00     0.053 C 
BRANCH   4   5
ATOM      5  C   UNL     1     126.578  51.535  46.412  1.00  0.00     0.041 C 
ATOM      6  O   UNL     1     127.552  51.530  47.210  1.00  0.00    -0.550 OA
ATOM      7  O   UNL     1     125.897  50.352  46.152  1.00  0.00    -0.550 OA
ENDBRANCH   4   5
ENDBRANCH   3   4
ENDBRANCH   2   3
ENDBRANCH   1   2
BRANCH   1   8
ATOM      8  C   UNL     1     125.893  55.704  42.985  1.00  0.00     0.000 C 
BRANCH   8   9
ATOM      9  C   UNL     1     124.528  56.050  43.613  1.00  0.00     0.000 C 
BRANCH   9  10
ATOM     10  C   UNL     1     124.562  57.175  44.667  1.00  0.00     0.006 C 
BRANCH  10  11
ATOM     11  C   UNL     1     123.625  56.952  45.863  1.00  0.00     0.053 C 
BRANCH  11  12
ATOM     12  C   UNL     1     124.041  55.775  46.692  1.00  0.00     0.041 C 
ATOM     13  O   UNL     1     123.287  54.772  46.790  1.00  0.00    -0.550 OA
ATOM     14  O   UNL     1     125.278  55.771  47.324  1.00  0.00    -0.550 OA
ENDBRANCH  11  12
ENDBRANCH  10  11
ENDBRANCH   9  10
ENDBRANCH   8   9
ENDBRANCH   1   8
TORSDOF 9
ENDMDL
MODEL 6
REMARK VINA RESULT:    -3.384     10.519     11.703
REMARK INTER + INTRA:          -5.719
REMARK INTER:                  -5.260
REMARK INTRA:                  -0.459
REMARK UNBOUND:                -0.554
REMARK SMILES O=C([O-])CCCCCCCCC(=O)[O-]
REMARK SMILES IDX 7 1 6 2 5 3 4 4 2 5 1 6 3 7 8 8 9 9 10 10 11 11 12 12 13 13
REMARK SMILES IDX 14 14
REMARK H PARENT
REMARK Flexibility Score: inf
ROOT
ATOM      1  C   UNL     1     125.272  52.426  44.545  1.00  0.00     0.000 C 
ENDROOT
BRANCH   1   2
ATOM      2  C   UNL     1     126.150  52.778  45.760  1.00  0.00     0.000 C 
BRANCH   2   3
ATOM      3  C   UNL     1     126.213  51.644  46.798  1.00  0.00     0.006 C 
BRANCH   3   4
ATOM      4  C   UNL     1     127.648  51.371  47.268  1.00  0.00     0.053 C 
BRANCH   4   5
ATOM      5  C   UNL     1     127.759  51.392  48.763  1.00  0.00     0.041 C 
ATOM      6  O   UNL     1     127.666  52.480  49.390  1.00  0.00    -0.550 OA
ATOM      7  O   UNL     1     127.996  50.214  49.460  1.00  0.00    -0.550 OA
ENDBRANCH   4   5
ENDBRANCH   3   4
ENDBRANCH   2   3
ENDBRANCH   1   2
BRANCH   1   8
ATOM      8  C   UNL     1     125.667  53.127  43.229  1.00  0.00     0.000 C 
BRANCH   8   9
ATOM      9  C   UNL     1     126.543  54.385  43.395  1.00  0.00     0.000 C 
BRANCH   9  10
ATOM     10  C   UNL     1     125.861  55.711  43.002  1.00  0.00     0.006 C 
BRANCH  10  11
ATOM     11  C   UNL     1     124.577  56.021  43.786  1.00  0.00     0.053 C 
BRANCH  11  12
ATOM     12  C   UNL     1     124.739  57.211  44.681  1.00  0.00     0.041 C 
ATOM     13  O   UNL     1     125.242  58.275  44.234  1.00  0.00    -0.550 OA
ATOM     14  O   UNL     1     124.302  57.156  45.998  1.00  0.00    -0.550 OA
ENDBRANCH  11  12
ENDBRANCH  10  11
ENDBRANCH   9  10
ENDBRANCH   8   9
ENDBRANCH   1   8
TORSDOF 9
ENDMDL
MODEL 7
REMARK VINA RESULT:    -3.379      9.703     11.462
REMARK INTER + INTRA:          -5.712
REMARK INTER:                  -4.938
REMARK INTRA:                  -0.774
REMARK UNBOUND:                -0.554
REMARK SMILES O=C([O-])CCCCCCCCC(=O)[O-]
REMARK SMILES IDX 7 1 6 2 5 3 4 4 2 5 1 6 3 7 8 8 9 9 10 10 11 11 12 12 13 13
REMARK SMILES IDX 14 14
REMARK H PARENT
REMARK Flexibility Score: inf
ROOT
ATOM      1  C   UNL     1     125.146  52.459  44.384  1.00  0.00     0.000 C 
ENDROOT
BRANCH   1   2
ATOM      2  C   UNL     1     126.119  52.238  45.555  1.00  0.00     0.000 C 
BRANCH   2   3
ATOM      3  C   UNL     1     125.513  52.626  46.915  1.00  0.00     0.006 C 
BRANCH   3   4
ATOM      4  C   UNL     1     125.044  54.087  46.944  1.00  0.00     0.053 C 
BRANCH   4   5
ATOM      5  C   UNL     1     125.367  54.752  48.247  1.00  0.00     0.041 C 
ATOM      6  O   UNL     1     125.579  54.059  49.277  1.00  0.00    -0.550 OA
ATOM      7  O   UNL     1     125.404  56.138  48.332  1.00  0.00    -0.550 OA
ENDBRANCH   4   5
ENDBRANCH   3   4
ENDBRANCH   2   3
ENDBRANCH   1   2
BRANCH   1   8
ATOM      8  C   UNL     1     125.754  53.156  43.150  1.00  0.00     0.000 C 
BRANCH   8   9
ATOM      9  C   UNL     1     126.489  54.480  43.444  1.00  0.00     0.000 C 
BRANCH   9  10
ATOM     10  C   UNL     1     125.735  55.754  43.014  1.00  0.00     0.006 C 
BRANCH  10  11
ATOM     11  C   UNL     1     124.505  56.083  43.873  1.00  0.00     0.053 C 
BRANCH  11  12
ATOM     12  C   UNL     1     124.652  57.391  44.589  1.00  0.00     0.041 C 
ATOM     13  O   UNL     1     123.955  57.636  45.608  1.00  0.00    -0.550 OA
ATOM     14  O   UNL     1     125.585  58.322  44.151  1.00  0.00    -0.550 OA
ENDBRANCH  11  12
ENDBRANCH  10  11
ENDBRANCH   9  10
ENDBRANCH   8   9
ENDBRANCH   1   8
TORSDOF 9
ENDMDL
MODEL 8
REMARK VINA RESULT:    -3.352      2.575      6.741
REMARK INTER + INTRA:          -5.671
REMARK INTER:                  -5.297
REMARK INTRA:                  -0.374
REMARK UNBOUND:                -0.554
REMARK SMILES O=C([O-])CCCCCCCCC(=O)[O-]
REMARK SMILES IDX 7 1 6 2 5 3 4 4 2 5 1 6 3 7 8 8 9 9 10 10 11 11 12 12 13 13
REMARK SMILES IDX 14 14
REMARK H PARENT
REMARK Flexibility Score: inf
ROOT
ATOM      1  C   UNL     1     115.518  52.943  53.490  1.00  0.00     0.000 C 
ENDROOT
BRANCH   1   2
ATOM      2  C   UNL     1     115.311  52.214  52.151  1.00  0.00     0.000 C 
BRANCH   2   3
ATOM      3  C   UNL     1     116.076  50.881  52.073  1.00  0.00     0.006 C 
BRANCH   3   4
ATOM      4  C   UNL     1     115.410  49.888  51.111  1.00  0.00     0.053 C 
BRANCH   4   5
ATOM      5  C   UNL     1     115.894  48.487  51.331  1.00  0.00     0.041 C 
ATOM      6  O   UNL     1     115.080  47.526  51.318  1.00  0.00    -0.550 OA
ATOM      7  O   UNL     1     117.239  48.245  51.581  1.00  0.00    -0.550 OA
ENDBRANCH   4   5
ENDBRANCH   3   4
ENDBRANCH   2   3
ENDBRANCH   1   2
BRANCH   1   8
ATOM      8  C   UNL     1     116.418  52.206  54.503  1.00  0.00     0.000 C 
BRANCH   8   9
ATOM      9  C   UNL     1     117.281  53.119  55.397  1.00  0.00     0.000 C 
BRANCH   9  10
ATOM     10  C   UNL     1     118.606  53.588  54.764  1.00  0.00     0.006 C 
BRANCH  10  11
ATOM     11  C   UNL     1     119.594  54.221  55.756  1.00  0.00     0.053 C 
BRANCH  11  12
ATOM     12  C   UNL     1     120.923  53.529  55.743  1.00  0.00     0.041 C 
ATOM     13  O   UNL     1     120.989  52.288  55.547  1.00  0.00    -0.550 OA
ATOM     14  O   UNL     1     122.091  54.263  55.910  1.00  0.00    -0.550 OA
ENDBRANCH  11  12
ENDBRANCH  10  11
ENDBRANCH   9  10
ENDBRANCH   8   9
ENDBRANCH   1   8
TORSDOF 9
ENDMDL
MODEL 9
REMARK VINA RESULT:    -3.351      9.365     11.131
REMARK INTER + INTRA:          -5.669
REMARK INTER:                  -4.731
REMARK INTRA:                  -0.938
REMARK UNBOUND:                -0.554
REMARK SMILES O=C([O-])CCCCCCCCC(=O)[O-]
REMARK SMILES IDX 7 1 6 2 5 3 4 4 2 5 1 6 3 7 8 8 9 9 10 10 11 11 12 12 13 13
REMARK SMILES IDX 14 14
REMARK H PARENT
REMARK Flexibility Score: inf
ROOT
ATOM      1  C   UNL     1     123.676  56.455  44.537  1.00  0.00     0.000 C 
ENDROOT
BRANCH   1   2
ATOM      2  C   UNL     1     124.612  56.547  45.755  1.00  0.00     0.000 C 
BRANCH   2   3
ATOM      3  C   UNL     1     124.259  55.531  46.856  1.00  0.00     0.006 C 
BRANCH   3   4
ATOM      4  C   UNL     1     125.412  55.331  47.848  1.00  0.00     0.053 C 
BRANCH   4   5
ATOM      5  C   UNL     1     125.092  54.286  48.873  1.00  0.00     0.041 C 
ATOM      6  O   UNL     1     124.833  53.106  48.517  1.00  0.00    -0.550 OA
ATOM      7  O   UNL     1     125.050  54.622  50.221  1.00  0.00    -0.550 OA
ENDBRANCH   4   5
ENDBRANCH   3   4
ENDBRANCH   2   3
ENDBRANCH   1   2
BRANCH   1   8
ATOM      8  C   UNL     1     124.231  55.649  43.345  1.00  0.00     0.000 C 
BRANCH   8   9
ATOM      9  C   UNL     1     125.756  55.752  43.140  1.00  0.00     0.000 C 
BRANCH   9  10
ATOM     10  C   UNL     1     126.542  54.457  43.428  1.00  0.00     0.006 C 
BRANCH  10  11
ATOM     11  C   UNL     1     125.678  53.188  43.474  1.00  0.00     0.053 C 
BRANCH  11  12
ATOM     12  C   UNL     1     125.528  52.661  44.869  1.00  0.00     0.041 C 
ATOM     13  O   UNL     1     126.512  52.660  45.653  1.00  0.00    -0.550 OA
ATOM     14  O   UNL     1     124.293  52.205  45.312  1.00  0.00    -0.550 OA
ENDBRANCH  11  12
ENDBRANCH  10  11
ENDBRANCH   9  10
ENDBRANCH   8   9
ENDBRANCH   1   8
TORSDOF 9
ENDMDL
