MODEL 1
REMARK VINA RESULT:    -3.069      0.000      0.000
REMARK INTER + INTRA:          -3.473
REMARK INTER:                  -3.428
REMARK INTRA:                  -0.045
REMARK UNBOUND:                -0.045
REMARK SMILES CCCC(=O)[O-]
REMARK SMILES IDX 3 1 4 2 5 3 6 4 2 5 1 6
REMARK H PARENT
REMARK Flexibility Score: inf
ROOT
ATOM      1  C   UNL     1      27.244 -13.071  15.890  1.00  0.00     0.052 C 
ENDROOT
BRANCH   1   2
ATOM      2  C   UNL     1      27.840 -11.727  15.601  1.00  0.00     0.041 C 
ATOM      3  O   UNL     1      28.866 -11.344  16.219  1.00  0.00    -0.550 OA
ATOM      4  O   UNL     1      27.238 -10.884  14.674  1.00  0.00    -0.550 OA
ENDBRANCH   1   2
BRANCH   1   5
ATOM      5  C   UNL     1      27.927 -14.181  15.082  1.00  0.00     0.003 C 
ATOM      6  C   UNL     1      27.307 -14.357  13.695  1.00  0.00     0.004 C 
ENDBRANCH   1   5
TORSDOF 2
ENDMDL
MODEL 2
REMARK VINA RESULT:    -3.064      0.803      1.297
REMARK INTER + INTRA:          -3.467
REMARK INTER:                  -3.409
REMARK INTRA:                  -0.058
REMARK UNBOUND:                -0.045
REMARK SMILES CCCC(=O)[O-]
REMARK SMILES IDX 3 1 4 2 5 3 6 4 2 5 1 6
REMARK H PARENT
REMARK Flexibility Score: inf
ROOT
ATOM      1  C   UNL     1      27.789 -13.133  16.270  1.00  0.00     0.052 C 
ENDROOT
BRANCH   1   2
ATOM      2  C   UNL     1      28.273 -11.790  15.815  1.00  0.00     0.041 C 
ATOM      3  O   UNL     1      27.489 -10.806  15.805  1.00  0.00    -0.550 OA
ATOM      4  O   UNL     1      29.580 -11.636  15.369  1.00  0.00    -0.550 OA
ENDBRANCH   1   2
BRANCH   1   5
ATOM      5  C   UNL     1      28.348 -14.265  15.398  1.00  0.00     0.003 C 
ATOM      6  C   UNL     1      27.637 -14.365  14.049  1.00  0.00     0.004 C 
ENDBRANCH   1   5
TORSDOF 2
ENDMDL
MODEL 3
REMARK VINA RESULT:    -3.053      2.248      2.958
REMARK INTER + INTRA:          -3.455
REMARK INTER:                  -3.419
REMARK INTRA:                  -0.036
REMARK UNBOUND:                -0.045
REMARK SMILES CCCC(=O)[O-]
REMARK SMILES IDX 3 1 4 2 5 3 6 4 2 5 1 6
REMARK H PARENT
REMARK Flexibility Score: inf
ROOT
ATOM      1  C   UNL     1      27.331 -13.172  15.713  1.00  0.00     0.052 C 
ENDROOT
BRANCH   1   2
ATOM      2  C   UNL     1      27.976 -14.254  14.903  1.00  0.00     0.041 C 
ATOM      3  O   UNL     1      28.823 -15.021  15.431  1.00  0.00    -0.550 OA
ATOM      4  O   UNL     1      27.667 -14.393  13.555  1.00  0.00    -0.550 OA
ENDBRANCH   1   2
BRANCH   1   5
ATOM      5  C   UNL     1      27.997 -11.811  15.477  1.00  0.00     0.003 C 
ATOM      6  C   UNL     1      27.272 -10.986  14.413  1.00  0.00     0.004 C 
ENDBRANCH   1   5
TORSDOF 2
ENDMDL
MODEL 4
REMARK VINA RESULT:    -2.949      2.047      3.115
REMARK INTER + INTRA:          -3.338
REMARK INTER:                  -3.268
REMARK INTRA:                  -0.070
REMARK UNBOUND:                -0.045
REMARK SMILES CCCC(=O)[O-]
REMARK SMILES IDX 3 1 4 2 5 3 6 4 2 5 1 6
REMARK H PARENT
REMARK Flexibility Score: inf
ROOT
ATOM      1  C   UNL     1      28.394 -11.743  14.788  1.00  0.00     0.052 C 
ENDROOT
BRANCH   1   2
ATOM      2  C   UNL     1      28.194 -12.527  16.048  1.00  0.00     0.041 C 
ATOM      3  O   UNL     1      29.175 -12.793  16.790  1.00  0.00    -0.550 OA
ATOM      4  O   UNL     1      26.929 -12.995  16.384  1.00  0.00    -0.550 OA
ENDBRANCH   1   2
BRANCH   1   5
ATOM      5  C   UNL     1      27.539 -10.470  14.768  1.00  0.00     0.003 C 
ATOM      6  C   UNL     1      27.966  -9.466  15.838  1.00  0.00     0.004 C 
ENDBRANCH   1   5
TORSDOF 2
ENDMDL
MODEL 5
REMARK VINA RESULT:    -2.932      2.222      3.379
REMARK INTER + INTRA:          -3.320
REMARK INTER:                  -3.281
REMARK INTRA:                  -0.038
REMARK UNBOUND:                -0.045
REMARK SMILES CCCC(=O)[O-]
REMARK SMILES IDX 3 1 4 2 5 3 6 4 2 5 1 6
REMARK H PARENT
REMARK Flexibility Score: inf
ROOT
ATOM      1  C   UNL     1      28.261 -11.977  14.169  1.00  0.00     0.052 C 
ENDROOT
BRANCH   1   2
ATOM      2  C   UNL     1      27.614 -13.298  14.450  1.00  0.00     0.041 C 
ATOM      3  O   UNL     1      27.710 -14.239  13.620  1.00  0.00    -0.550 OA
ATOM      4  O   UNL     1      26.875 -13.478  15.613  1.00  0.00    -0.550 OA
ENDBRANCH   1   2
BRANCH   1   5
ATOM      5  C   UNL     1      27.288 -10.810  14.382  1.00  0.00     0.003 C 
ATOM      6  C   UNL     1      27.638  -9.978  15.615  1.00  0.00     0.004 C 
ENDBRANCH   1   5
TORSDOF 2
ENDMDL
MODEL 6
REMARK VINA RESULT:    -2.890     15.023     15.837
REMARK INTER + INTRA:          -3.273
REMARK INTER:                  -3.241
REMARK INTRA:                  -0.032
REMARK UNBOUND:                -0.045
REMARK SMILES CCCC(=O)[O-]
REMARK SMILES IDX 3 1 4 2 5 3 6 4 2 5 1 6
REMARK H PARENT
REMARK Flexibility Score: inf
ROOT
ATOM      1  C   UNL     1      40.346 -20.430  19.255  1.00  0.00     0.052 C 
ENDROOT
BRANCH   1   2
ATOM      2  C   UNL     1      40.996 -21.777  19.176  1.00  0.00     0.041 C 
ATOM      3  O   UNL     1      41.169 -22.459  20.219  1.00  0.00    -0.550 OA
ATOM      4  O   UNL     1      41.444 -22.263  17.953  1.00  0.00    -0.550 OA
ENDBRANCH   1   2
BRANCH   1   5
ATOM      5  C   UNL     1      38.819 -20.540  19.346  1.00  0.00     0.003 C 
ATOM      6  C   UNL     1      38.134 -20.247  18.011  1.00  0.00     0.004 C 
ENDBRANCH   1   5
TORSDOF 2
ENDMDL
MODEL 7
REMARK VINA RESULT:    -2.855      8.633      9.366
REMARK INTER + INTRA:          -3.233
REMARK INTER:                  -3.222
REMARK INTRA:                  -0.012
REMARK UNBOUND:                -0.045
REMARK SMILES CCCC(=O)[O-]
REMARK SMILES IDX 3 1 4 2 5 3 6 4 2 5 1 6
REMARK H PARENT
REMARK Flexibility Score: inf
ROOT
ATOM      1  C   UNL     1      32.142  -5.477  11.342  1.00  0.00     0.052 C 
ENDROOT
BRANCH   1   2
ATOM      2  C   UNL     1      33.166  -5.696  10.271  1.00  0.00     0.041 C 
ATOM      3  O   UNL     1      34.392  -5.595  10.538  1.00  0.00    -0.550 OA
ATOM      4  O   UNL     1      32.764  -5.975   8.970  1.00  0.00    -0.550 OA
ENDBRANCH   1   2
BRANCH   1   5
ATOM      5  C   UNL     1      30.946  -6.425  11.188  1.00  0.00     0.003 C 
ATOM      6  C   UNL     1      30.702  -7.262  12.444  1.00  0.00     0.004 C 
ENDBRANCH   1   5
TORSDOF 2
ENDMDL
MODEL 8
REMARK VINA RESULT:    -2.780      2.666      3.225
REMARK INTER + INTRA:          -3.149
REMARK INTER:                  -3.116
REMARK INTRA:                  -0.033
REMARK UNBOUND:                -0.045
REMARK SMILES CCCC(=O)[O-]
REMARK SMILES IDX 3 1 4 2 5 3 6 4 2 5 1 6
REMARK H PARENT
REMARK Flexibility Score: inf
ROOT
ATOM      1  C   UNL     1      27.682  -9.879  15.890  1.00  0.00     0.052 C 
ENDROOT
BRANCH   1   2
ATOM      2  C   UNL     1      28.896  -9.017  16.051  1.00  0.00     0.041 C 
ATOM      3  O   UNL     1      29.670  -8.825  15.078  1.00  0.00    -0.550 OA
ATOM      4  O   UNL     1      29.192  -8.456  17.288  1.00  0.00    -0.550 OA
ENDBRANCH   1   2
BRANCH   1   5
ATOM      5  C   UNL     1      27.988 -11.148  15.085  1.00  0.00     0.003 C 
ATOM      6  C   UNL     1      27.047 -11.321  13.892  1.00  0.00     0.004 C 
ENDBRANCH   1   5
TORSDOF 2
ENDMDL
MODEL 9
REMARK VINA RESULT:    -2.774      2.134      4.028
REMARK INTER + INTRA:          -3.143
REMARK INTER:                  -3.105
REMARK INTRA:                  -0.039
REMARK UNBOUND:                -0.045
REMARK SMILES CCCC(=O)[O-]
REMARK SMILES IDX 3 1 4 2 5 3 6 4 2 5 1 6
REMARK H PARENT
REMARK Flexibility Score: inf
ROOT
ATOM      1  C   UNL     1      27.590  -9.995  15.820  1.00  0.00     0.052 C 
ENDROOT
BRANCH   1   2
ATOM      2  C   UNL     1      27.922 -11.436  15.582  1.00  0.00     0.041 C 
ATOM      3  O   UNL     1      27.294 -12.095  14.714  1.00  0.00    -0.550 OA
ATOM      4  O   UNL     1      28.902 -12.059  16.345  1.00  0.00    -0.550 OA
ENDBRANCH   1   2
BRANCH   1   5
ATOM      5  C   UNL     1      28.804  -9.086  15.593  1.00  0.00     0.003 C 
ATOM      6  C   UNL     1      29.372  -8.536  16.902  1.00  0.00     0.004 C 
ENDBRANCH   1   5
TORSDOF 2
ENDMDL
