MODEL 1
REMARK VINA RESULT:    -4.962      0.000      0.000
REMARK INTER + INTRA:          -5.836
REMARK INTER:                  -5.687
REMARK INTRA:                  -0.149
REMARK UNBOUND:                -0.149
REMARK SMILES O=C([O-])C=Cc1ccc(O)cc1
REMARK SMILES IDX 6 1 7 2 12 3 8 4 11 5 9 6 5 7 4 8 2 9 1 10 3 11 10 12
REMARK H PARENT 10 13
REMARK Flexibility Score: inf
ROOT
ATOM      1  C   UNL     1     -24.361  16.528  18.800  1.00  0.00    -0.025 A 
ATOM      2  C   UNL     1     -24.370  15.707  17.653  1.00  0.00     0.012 A 
ATOM      3  C   UNL     1     -25.445  16.460  19.692  1.00  0.00     0.012 A 
ATOM      4  C   UNL     1     -25.430  14.823  17.425  1.00  0.00     0.047 A 
ATOM      5  C   UNL     1     -26.501  15.574  19.461  1.00  0.00     0.047 A 
ATOM      6  C   UNL     1     -26.497  14.753  18.330  1.00  0.00     0.115 A 
ENDROOT
BRANCH   1   7
ATOM      7  C   UNL     1     -23.268  17.491  19.083  1.00  0.00     0.010 C 
ATOM      8  C   UNL     1     -23.428  18.607  19.809  1.00  0.00     0.025 C 
BRANCH   8   9
ATOM      9  C   UNL     1     -22.318  19.541  20.055  1.00  0.00     0.064 C 
ATOM     10  O   UNL     1     -21.943  19.764  21.236  1.00  0.00    -0.545 OA
ATOM     11  O   UNL     1     -21.671  20.180  19.002  1.00  0.00    -0.545 OA
ENDBRANCH   8   9
ENDBRANCH   1   7
BRANCH   6  12
ATOM     12  O   UNL     1     -27.557  13.875  18.112  1.00  0.00    -0.508 OA
ATOM     13  H   UNL     1     -28.519  14.158  18.259  1.00  0.00     0.293 HD
ENDBRANCH   6  12
TORSDOF 3
ENDMDL
MODEL 2
REMARK VINA RESULT:    -4.893      0.212      1.404
REMARK INTER + INTRA:          -5.757
REMARK INTER:                  -5.623
REMARK INTRA:                  -0.134
REMARK UNBOUND:                -0.149
REMARK SMILES O=C([O-])C=Cc1ccc(O)cc1
REMARK SMILES IDX 6 1 7 2 12 3 8 4 11 5 9 6 5 7 4 8 2 9 1 10 3 11 10 12
REMARK H PARENT 10 13
REMARK Flexibility Score: inf
ROOT
ATOM      1  C   UNL     1     -24.443  16.574  19.051  1.00  0.00    -0.025 A 
ATOM      2  C   UNL     1     -25.451  16.292  19.997  1.00  0.00     0.012 A 
ATOM      3  C   UNL     1     -24.479  15.922  17.807  1.00  0.00     0.012 A 
ATOM      4  C   UNL     1     -26.481  15.398  19.687  1.00  0.00     0.047 A 
ATOM      5  C   UNL     1     -25.512  15.030  17.501  1.00  0.00     0.047 A 
ATOM      6  C   UNL     1     -26.515  14.766  18.437  1.00  0.00     0.115 A 
ENDROOT
BRANCH   1   7
ATOM      7  C   UNL     1     -23.322  17.504  19.332  1.00  0.00     0.010 C 
ATOM      8  C   UNL     1     -23.484  18.740  19.824  1.00  0.00     0.025 C 
BRANCH   8   9
ATOM      9  C   UNL     1     -22.342  19.634  20.075  1.00  0.00     0.064 C 
ATOM     10  O   UNL     1     -21.990  19.872  21.260  1.00  0.00    -0.545 OA
ATOM     11  O   UNL     1     -21.643  20.217  19.025  1.00  0.00    -0.545 OA
ENDBRANCH   8   9
ENDBRANCH   1   7
BRANCH   6  12
ATOM     12  O   UNL     1     -27.537  13.875  18.120  1.00  0.00    -0.508 OA
ATOM     13  H   UNL     1     -27.400  13.128  17.450  1.00  0.00     0.293 HD
ENDBRANCH   6  12
TORSDOF 3
ENDMDL
MODEL 3
REMARK VINA RESULT:    -4.767      1.251      5.696
REMARK INTER + INTRA:          -5.612
REMARK INTER:                  -5.474
REMARK INTRA:                  -0.138
REMARK UNBOUND:                -0.149
REMARK SMILES O=C([O-])C=Cc1ccc(O)cc1
REMARK SMILES IDX 6 1 7 2 12 3 8 4 11 5 9 6 5 7 4 8 2 9 1 10 3 11 10 12
REMARK H PARENT 10 13
REMARK Flexibility Score: inf
ROOT
ATOM      1  C   UNL     1     -24.476  17.214  19.911  1.00  0.00    -0.025 A 
ATOM      2  C   UNL     1     -23.869  17.600  18.698  1.00  0.00     0.012 A 
ATOM      3  C   UNL     1     -24.254  17.992  21.060  1.00  0.00     0.012 A 
ATOM      4  C   UNL     1     -23.081  18.753  18.639  1.00  0.00     0.047 A 
ATOM      5  C   UNL     1     -23.466  19.146  20.995  1.00  0.00     0.047 A 
ATOM      6  C   UNL     1     -22.879  19.530  19.787  1.00  0.00     0.115 A 
ENDROOT
BRANCH   1   7
ATOM      7  C   UNL     1     -25.312  15.993  20.033  1.00  0.00     0.010 C 
ATOM      8  C   UNL     1     -26.255  15.644  19.147  1.00  0.00     0.025 C 
BRANCH   8   9
ATOM      9  C   UNL     1     -27.070  14.430  19.315  1.00  0.00     0.064 C 
ATOM     10  O   UNL     1     -27.132  13.875  20.443  1.00  0.00    -0.545 OA
ATOM     11  O   UNL     1     -27.776  13.887  18.247  1.00  0.00    -0.545 OA
ENDBRANCH   8   9
ENDBRANCH   1   7
BRANCH   6  12
ATOM     12  O   UNL     1     -22.096  20.682  19.737  1.00  0.00    -0.508 OA
ATOM     13  H   UNL     1     -21.511  20.959  20.516  1.00  0.00     0.293 HD
ENDBRANCH   6  12
TORSDOF 3
ENDMDL
MODEL 4
REMARK VINA RESULT:    -4.246      1.955      5.940
REMARK INTER + INTRA:          -5.015
REMARK INTER:                  -4.868
REMARK INTRA:                  -0.147
REMARK UNBOUND:                -0.149
REMARK SMILES O=C([O-])C=Cc1ccc(O)cc1
REMARK SMILES IDX 6 1 7 2 12 3 8 4 11 5 9 6 5 7 4 8 2 9 1 10 3 11 10 12
REMARK H PARENT 10 13
REMARK Flexibility Score: inf
ROOT
ATOM      1  C   UNL     1     -25.243  15.876  19.373  1.00  0.00    -0.025 A 
ATOM      2  C   UNL     1     -24.760  17.122  19.823  1.00  0.00     0.012 A 
ATOM      3  C   UNL     1     -24.333  14.951  18.835  1.00  0.00     0.012 A 
ATOM      4  C   UNL     1     -23.395  17.417  19.757  1.00  0.00     0.047 A 
ATOM      5  C   UNL     1     -22.968  15.249  18.772  1.00  0.00     0.047 A 
ATOM      6  C   UNL     1     -22.495  16.480  19.233  1.00  0.00     0.115 A 
ENDROOT
BRANCH   1   7
ATOM      7  C   UNL     1     -26.683  15.517  19.408  1.00  0.00     0.010 C 
ATOM      8  C   UNL     1     -27.277  14.731  18.500  1.00  0.00     0.025 C 
BRANCH   8   9
ATOM      9  C   UNL     1     -28.712  14.411  18.568  1.00  0.00     0.064 C 
ATOM     10  O   UNL     1     -29.443  14.621  17.565  1.00  0.00    -0.545 OA
ATOM     11  O   UNL     1     -29.274  13.875  19.721  1.00  0.00    -0.545 OA
ENDBRANCH   8   9
ENDBRANCH   1   7
BRANCH   6  12
ATOM     12  O   UNL     1     -21.133  16.764  19.165  1.00  0.00    -0.508 OA
ATOM     13  H   UNL     1     -20.539  16.715  19.985  1.00  0.00     0.293 HD
ENDBRANCH   6  12
TORSDOF 3
ENDMDL
MODEL 5
REMARK VINA RESULT:    -4.151     11.768     12.893
REMARK INTER + INTRA:          -4.907
REMARK INTER:                  -4.766
REMARK INTRA:                  -0.141
REMARK UNBOUND:                -0.149
REMARK SMILES O=C([O-])C=Cc1ccc(O)cc1
REMARK SMILES IDX 6 1 7 2 12 3 8 4 11 5 9 6 5 7 4 8 2 9 1 10 3 11 10 12
REMARK H PARENT 10 13
REMARK Flexibility Score: inf
ROOT
ATOM      1  C   UNL     1     -15.784  15.291   9.575  1.00  0.00    -0.025 A 
ATOM      2  C   UNL     1     -15.669  14.131   8.782  1.00  0.00     0.012 A 
ATOM      3  C   UNL     1     -16.292  16.465   8.992  1.00  0.00     0.012 A 
ATOM      4  C   UNL     1     -16.077  14.145   7.445  1.00  0.00     0.047 A 
ATOM      5  C   UNL     1     -16.701  16.474   7.654  1.00  0.00     0.047 A 
ATOM      6  C   UNL     1     -16.597  15.317   6.879  1.00  0.00     0.115 A 
ENDROOT
BRANCH   1   7
ATOM      7  C   UNL     1     -15.354  15.335  10.995  1.00  0.00     0.010 C 
ATOM      8  C   UNL     1     -16.112  15.817  11.989  1.00  0.00     0.025 C 
BRANCH   8   9
ATOM      9  C   UNL     1     -15.640  15.852  13.383  1.00  0.00     0.064 C 
ATOM     10  O   UNL     1     -15.046  16.877  13.811  1.00  0.00    -0.545 OA
ATOM     11  O   UNL     1     -15.841  14.773  14.236  1.00  0.00    -0.545 OA
ENDBRANCH   8   9
ENDBRANCH   1   7
BRANCH   6  12
ATOM     12  O   UNL     1     -17.008  15.340   5.548  1.00  0.00    -0.508 OA
ATOM     13  H   UNL     1     -17.351  16.189   5.113  1.00  0.00     0.293 HD
ENDBRANCH   6  12
TORSDOF 3
ENDMDL
MODEL 6
REMARK VINA RESULT:    -4.134     11.642     13.049
REMARK INTER + INTRA:          -4.887
REMARK INTER:                  -4.749
REMARK INTRA:                  -0.138
REMARK UNBOUND:                -0.149
REMARK SMILES O=C([O-])C=Cc1ccc(O)cc1
REMARK SMILES IDX 6 1 7 2 12 3 8 4 11 5 9 6 5 7 4 8 2 9 1 10 3 11 10 12
REMARK H PARENT 10 13
REMARK Flexibility Score: inf
ROOT
ATOM      1  C   UNL     1     -15.695  15.283  10.659  1.00  0.00    -0.025 A 
ATOM      2  C   UNL     1     -16.535  16.169  11.367  1.00  0.00     0.012 A 
ATOM      3  C   UNL     1     -14.975  14.313  11.377  1.00  0.00     0.012 A 
ATOM      4  C   UNL     1     -16.665  16.063  12.755  1.00  0.00     0.047 A 
ATOM      5  C   UNL     1     -15.110  14.209  12.765  1.00  0.00     0.047 A 
ATOM      6  C   UNL     1     -15.954  15.081  13.457  1.00  0.00     0.115 A 
ENDROOT
BRANCH   1   7
ATOM      7  C   UNL     1     -15.511  15.359   9.189  1.00  0.00     0.010 C 
ATOM      8  C   UNL     1     -16.267  16.117   8.382  1.00  0.00     0.025 C 
BRANCH   8   9
ATOM      9  C   UNL     1     -16.056  16.152   6.925  1.00  0.00     0.064 C 
ATOM     10  O   UNL     1     -15.243  16.979   6.435  1.00  0.00    -0.545 OA
ATOM     11  O   UNL     1     -16.739  15.284   6.081  1.00  0.00    -0.545 OA
ENDBRANCH   8   9
ENDBRANCH   1   7
BRANCH   6  12
ATOM     12  O   UNL     1     -16.078  14.967  14.840  1.00  0.00    -0.508 OA
ATOM     13  H   UNL     1     -16.371  15.750  15.412  1.00  0.00     0.293 HD
ENDBRANCH   6  12
TORSDOF 3
ENDMDL
MODEL 7
REMARK VINA RESULT:    -3.897     12.365     13.763
REMARK INTER + INTRA:          -4.615
REMARK INTER:                  -4.482
REMARK INTRA:                  -0.133
REMARK UNBOUND:                -0.149
REMARK SMILES O=C([O-])C=Cc1ccc(O)cc1
REMARK SMILES IDX 6 1 7 2 12 3 8 4 11 5 9 6 5 7 4 8 2 9 1 10 3 11 10 12
REMARK H PARENT 10 13
REMARK Flexibility Score: inf
ROOT
ATOM      1  C   UNL     1     -15.205  15.442   9.470  1.00  0.00    -0.025 A 
ATOM      2  C   UNL     1     -15.758  16.094   8.348  1.00  0.00     0.012 A 
ATOM      3  C   UNL     1     -13.886  14.961   9.393  1.00  0.00     0.012 A 
ATOM      4  C   UNL     1     -14.996  16.279   7.191  1.00  0.00     0.047 A 
ATOM      5  C   UNL     1     -13.127  15.150   8.234  1.00  0.00     0.047 A 
ATOM      6  C   UNL     1     -13.677  15.809   7.132  1.00  0.00     0.115 A 
ENDROOT
BRANCH   1   7
ATOM      7  C   UNL     1     -15.973  15.208  10.718  1.00  0.00     0.010 C 
ATOM      8  C   UNL     1     -16.227  16.160  11.626  1.00  0.00     0.025 C 
BRANCH   8   9
ATOM      9  C   UNL     1     -16.983  15.880  12.857  1.00  0.00     0.064 C 
ATOM     10  O   UNL     1     -18.152  16.329  12.983  1.00  0.00    -0.545 OA
ATOM     11  O   UNL     1     -16.429  15.122  13.883  1.00  0.00    -0.545 OA
ENDBRANCH   8   9
ENDBRANCH   1   7
BRANCH   6  12
ATOM     12  O   UNL     1     -12.910  15.990   5.983  1.00  0.00    -0.508 OA
ATOM     13  H   UNL     1     -12.860  16.888   5.515  1.00  0.00     0.293 HD
ENDBRANCH   6  12
TORSDOF 3
ENDMDL
MODEL 8
REMARK VINA RESULT:    -3.526     12.668     13.717
REMARK INTER + INTRA:          -4.190
REMARK INTER:                  -4.054
REMARK INTRA:                  -0.136
REMARK UNBOUND:                -0.149
REMARK SMILES O=C([O-])C=Cc1ccc(O)cc1
REMARK SMILES IDX 6 1 7 2 12 3 8 4 11 5 9 6 5 7 4 8 2 9 1 10 3 11 10 12
REMARK H PARENT 10 13
REMARK Flexibility Score: inf
ROOT
ATOM      1  C   UNL     1     -15.675  15.093   9.386  1.00  0.00    -0.025 A 
ATOM      2  C   UNL     1     -16.164  16.305   8.855  1.00  0.00     0.012 A 
ATOM      3  C   UNL     1     -15.701  13.941   8.583  1.00  0.00     0.012 A 
ATOM      4  C   UNL     1     -16.641  16.359   7.542  1.00  0.00     0.047 A 
ATOM      5  C   UNL     1     -16.179  14.000   7.270  1.00  0.00     0.047 A 
ATOM      6  C   UNL     1     -16.648  15.207   6.745  1.00  0.00     0.115 A 
ENDROOT
BRANCH   1   7
ATOM      7  C   UNL     1     -15.169  14.977  10.776  1.00  0.00     0.010 C 
ATOM      8  C   UNL     1     -13.869  15.006  11.101  1.00  0.00     0.025 C 
BRANCH   8   9
ATOM      9  C   UNL     1     -13.411  14.875  12.493  1.00  0.00     0.064 C 
ATOM     10  O   UNL     1     -12.178  14.903  12.746  1.00  0.00    -0.545 OA
ATOM     11  O   UNL     1     -14.318  14.724  13.536  1.00  0.00    -0.545 OA
ENDBRANCH   8   9
ENDBRANCH   1   7
BRANCH   6  12
ATOM     12  O   UNL     1     -17.121  15.252   5.435  1.00  0.00    -0.508 OA
ATOM     13  H   UNL     1     -17.818  15.928   5.147  1.00  0.00     0.293 HD
ENDBRANCH   6  12
TORSDOF 3
ENDMDL
