MODEL 1
REMARK VINA RESULT:    -3.018      0.000      0.000
REMARK INTER + INTRA:          -3.654
REMARK INTER:                  -3.547
REMARK INTRA:                  -0.107
REMARK UNBOUND:                -0.107
REMARK SMILES CCCCC(=O)[O-]
REMARK SMILES IDX 4 1 5 2 6 3 7 4 3 5 2 6 1 7
REMARK H PARENT
REMARK Flexibility Score: inf
ROOT
ATOM      1  C   UNL     1       8.483  33.425  -7.411  1.00  0.00     0.053 C 
ENDROOT
BRANCH   1   2
ATOM      2  C   UNL     1       9.603  32.674  -6.762  1.00  0.00     0.041 C 
ATOM      3  O   UNL     1       9.467  32.216  -5.597  1.00  0.00    -0.550 OA
ATOM      4  O   UNL     1      10.814  32.521  -7.425  1.00  0.00    -0.550 OA
ENDBRANCH   1   2
BRANCH   1   5
ATOM      5  C   UNL     1       8.377  33.052  -8.895  1.00  0.00     0.006 C 
BRANCH   5   6
ATOM      6  C   UNL     1       8.441  34.278  -9.817  1.00  0.00    -0.003 C 
ATOM      7  C   UNL     1       9.867  34.779 -10.040  1.00  0.00     0.004 C 
ENDBRANCH   5   6
ENDBRANCH   1   5
TORSDOF 3
ENDMDL
MODEL 2
REMARK VINA RESULT:    -2.803     22.906     23.592
REMARK INTER + INTRA:          -3.401
REMARK INTER:                  -3.331
REMARK INTRA:                  -0.070
REMARK UNBOUND:                -0.107
REMARK SMILES CCCCC(=O)[O-]
REMARK SMILES IDX 4 1 5 2 6 3 7 4 3 5 2 6 1 7
REMARK H PARENT
REMARK Flexibility Score: inf
ROOT
ATOM      1  C   UNL     1      -6.594  51.207  -9.730  1.00  0.00     0.053 C 
ENDROOT
BRANCH   1   2
ATOM      2  C   UNL     1      -7.566  50.617  -8.758  1.00  0.00     0.041 C 
ATOM      3  O   UNL     1      -7.659  51.085  -7.593  1.00  0.00    -0.550 OA
ATOM      4  O   UNL     1      -8.335  49.519  -9.123  1.00  0.00    -0.550 OA
ENDBRANCH   1   2
BRANCH   1   5
ATOM      5  C   UNL     1      -5.176  50.693  -9.449  1.00  0.00     0.006 C 
BRANCH   5   6
ATOM      6  C   UNL     1      -4.317  51.717  -8.692  1.00  0.00    -0.003 C 
ATOM      7  C   UNL     1      -3.515  51.090  -7.552  1.00  0.00     0.004 C 
ENDBRANCH   5   6
ENDBRANCH   1   5
TORSDOF 3
ENDMDL
MODEL 3
REMARK VINA RESULT:    -2.691     25.007     25.490
REMARK INTER + INTRA:          -3.270
REMARK INTER:                  -3.201
REMARK INTRA:                  -0.069
REMARK UNBOUND:                -0.107
REMARK SMILES CCCCC(=O)[O-]
REMARK SMILES IDX 4 1 5 2 6 3 7 4 3 5 2 6 1 7
REMARK H PARENT
REMARK Flexibility Score: inf
ROOT
ATOM      1  C   UNL     1      -8.827  51.449  -4.328  1.00  0.00     0.053 C 
ENDROOT
BRANCH   1   2
ATOM      2  C   UNL     1      -7.810  51.656  -5.406  1.00  0.00     0.041 C 
ATOM      3  O   UNL     1      -8.086  51.365  -6.599  1.00  0.00    -0.550 OA
ATOM      4  O   UNL     1      -6.543  52.124  -5.086  1.00  0.00    -0.550 OA
ENDBRANCH   1   2
BRANCH   1   5
ATOM      5  C   UNL     1      -8.690  50.045  -3.725  1.00  0.00     0.006 C 
BRANCH   5   6
ATOM      6  C   UNL     1      -8.817  50.045  -2.194  1.00  0.00    -0.003 C 
ATOM      7  C   UNL     1      -8.193  51.281  -1.548  1.00  0.00     0.004 C 
ENDBRANCH   5   6
ENDBRANCH   1   5
TORSDOF 3
ENDMDL
MODEL 4
REMARK VINA RESULT:    -2.504     22.244     22.891
REMARK INTER + INTRA:          -3.050
REMARK INTER:                  -2.951
REMARK INTRA:                  -0.099
REMARK UNBOUND:                -0.107
REMARK SMILES CCCCC(=O)[O-]
REMARK SMILES IDX 4 1 5 2 6 3 7 4 3 5 2 6 1 7
REMARK H PARENT
REMARK Flexibility Score: inf
ROOT
ATOM      1  C   UNL     1      -4.648  51.864  -8.871  1.00  0.00     0.053 C 
ENDROOT
BRANCH   1   2
ATOM      2  C   UNL     1      -3.510  51.296  -8.082  1.00  0.00     0.041 C 
ATOM      3  O   UNL     1      -3.729  50.462  -7.165  1.00  0.00    -0.550 OA
ATOM      4  O   UNL     1      -2.212  51.725  -8.327  1.00  0.00    -0.550 OA
ENDBRANCH   1   2
BRANCH   1   5
ATOM      5  C   UNL     1      -5.341  50.760  -9.680  1.00  0.00     0.006 C 
BRANCH   5   6
ATOM      6  C   UNL     1      -6.833  50.630  -9.341  1.00  0.00    -0.003 C 
ATOM      7  C   UNL     1      -7.284  51.614  -8.261  1.00  0.00     0.004 C 
ENDBRANCH   5   6
ENDBRANCH   1   5
TORSDOF 3
ENDMDL
MODEL 5
REMARK VINA RESULT:    -2.354     21.987     22.617
REMARK INTER + INTRA:          -2.874
REMARK INTER:                  -2.841
REMARK INTRA:                  -0.033
REMARK UNBOUND:                -0.107
REMARK SMILES CCCCC(=O)[O-]
REMARK SMILES IDX 4 1 5 2 6 3 7 4 3 5 2 6 1 7
REMARK H PARENT
REMARK Flexibility Score: inf
ROOT
ATOM      1  C   UNL     1      -3.675  51.062  -7.579  1.00  0.00     0.053 C 
ENDROOT
BRANCH   1   2
ATOM      2  C   UNL     1      -2.364  51.742  -7.817  1.00  0.00     0.041 C 
ATOM      3  O   UNL     1      -2.017  52.056  -8.986  1.00  0.00    -0.550 OA
ATOM      4  O   UNL     1      -1.503  51.985  -6.754  1.00  0.00    -0.550 OA
ENDBRANCH   1   2
BRANCH   1   5
ATOM      5  C   UNL     1      -4.544  51.118  -8.842  1.00  0.00     0.006 C 
BRANCH   5   6
ATOM      6  C   UNL     1      -5.958  51.649  -8.561  1.00  0.00    -0.003 C 
ATOM      7  C   UNL     1      -7.054  50.733  -9.105  1.00  0.00     0.004 C 
ENDBRANCH   5   6
ENDBRANCH   1   5
TORSDOF 3
ENDMDL
MODEL 6
REMARK VINA RESULT:    -2.353      2.120      3.376
REMARK INTER + INTRA:          -2.872
REMARK INTER:                  -2.773
REMARK INTRA:                  -0.100
REMARK UNBOUND:                -0.107
REMARK SMILES CCCCC(=O)[O-]
REMARK SMILES IDX 4 1 5 2 6 3 7 4 3 5 2 6 1 7
REMARK H PARENT
REMARK Flexibility Score: inf
ROOT
ATOM      1  C   UNL     1       7.974  33.763  -9.742  1.00  0.00     0.053 C 
ENDROOT
BRANCH   1   2
ATOM      2  C   UNL     1       9.435  33.949 -10.007  1.00  0.00     0.041 C 
ATOM      3  O   UNL     1      10.190  32.948 -10.121  1.00  0.00    -0.550 OA
ATOM      4  O   UNL     1       9.971  35.228 -10.079  1.00  0.00    -0.550 OA
ENDBRANCH   1   2
BRANCH   1   5
ATOM      5  C   UNL     1       7.762  32.946  -8.461  1.00  0.00     0.006 C 
BRANCH   5   6
ATOM      6  C   UNL     1       8.490  33.548  -7.250  1.00  0.00    -0.003 C 
ATOM      7  C   UNL     1       9.398  32.542  -6.544  1.00  0.00     0.004 C 
ENDBRANCH   5   6
ENDBRANCH   1   5
TORSDOF 3
ENDMDL
MODEL 7
REMARK VINA RESULT:    -2.318     23.074     23.721
REMARK INTER + INTRA:          -2.832
REMARK INTER:                  -2.812
REMARK INTRA:                  -0.020
REMARK UNBOUND:                -0.107
REMARK SMILES CCCCC(=O)[O-]
REMARK SMILES IDX 4 1 5 2 6 3 7 4 3 5 2 6 1 7
REMARK H PARENT
REMARK Flexibility Score: inf
ROOT
ATOM      1  C   UNL     1      -5.560  51.084  -8.901  1.00  0.00     0.053 C 
ENDROOT
BRANCH   1   2
ATOM      2  C   UNL     1      -7.053  51.171  -8.948  1.00  0.00     0.041 C 
ATOM      3  O   UNL     1      -7.754  50.422  -8.219  1.00  0.00    -0.550 OA
ATOM      4  O   UNL     1      -7.671  52.046  -9.832  1.00  0.00    -0.550 OA
ENDBRANCH   1   2
BRANCH   1   5
ATOM      5  C   UNL     1      -4.994  52.125  -7.926  1.00  0.00     0.006 C 
BRANCH   5   6
ATOM      6  C   UNL     1      -3.777  51.603  -7.148  1.00  0.00    -0.003 C 
ATOM      7  C   UNL     1      -2.500  51.582  -7.989  1.00  0.00     0.004 C 
ENDBRANCH   5   6
ENDBRANCH   1   5
TORSDOF 3
ENDMDL
MODEL 8
REMARK VINA RESULT:    -2.300      1.764      2.323
REMARK INTER + INTRA:          -2.810
REMARK INTER:                  -2.761
REMARK INTRA:                  -0.049
REMARK UNBOUND:                -0.107
REMARK SMILES CCCCC(=O)[O-]
REMARK SMILES IDX 4 1 5 2 6 3 7 4 3 5 2 6 1 7
REMARK H PARENT
REMARK Flexibility Score: inf
ROOT
ATOM      1  C   UNL     1       8.116  32.960  -9.668  1.00  0.00     0.053 C 
ENDROOT
BRANCH   1   2
ATOM      2  C   UNL     1       7.786  32.697  -8.232  1.00  0.00     0.041 C 
ATOM      3  O   UNL     1       6.868  31.890  -7.931  1.00  0.00    -0.550 OA
ATOM      4  O   UNL     1       8.461  33.379  -7.228  1.00  0.00    -0.550 OA
ENDBRANCH   1   2
BRANCH   1   5
ATOM      5  C   UNL     1       8.463  34.440  -9.875  1.00  0.00     0.006 C 
BRANCH   5   6
ATOM      6  C   UNL     1       9.971  34.673 -10.052  1.00  0.00    -0.003 C 
ATOM      7  C   UNL     1      10.767  33.370 -10.125  1.00  0.00     0.004 C 
ENDBRANCH   5   6
ENDBRANCH   1   5
TORSDOF 3
ENDMDL
MODEL 9
REMARK VINA RESULT:    -2.109     25.241     25.783
REMARK INTER + INTRA:          -2.586
REMARK INTER:                  -2.537
REMARK INTRA:                  -0.049
REMARK UNBOUND:                -0.107
REMARK SMILES CCCCC(=O)[O-]
REMARK SMILES IDX 4 1 5 2 6 3 7 4 3 5 2 6 1 7
REMARK H PARENT
REMARK Flexibility Score: inf
ROOT
ATOM      1  C   UNL     1      -7.906  52.112  -3.501  1.00  0.00     0.053 C 
ENDROOT
BRANCH   1   2
ATOM      2  C   UNL     1      -8.132  51.031  -4.511  1.00  0.00     0.041 C 
ATOM      3  O   UNL     1      -8.400  49.860  -4.134  1.00  0.00    -0.550 OA
ATOM      4  O   UNL     1      -7.999  51.306  -5.865  1.00  0.00    -0.550 OA
ENDBRANCH   1   2
BRANCH   1   5
ATOM      5  C   UNL     1      -8.912  51.987  -2.349  1.00  0.00     0.006 C 
BRANCH   5   6
ATOM      6  C   UNL     1      -8.274  51.430  -1.068  1.00  0.00    -0.003 C 
ATOM      7  C   UNL     1      -6.961  52.125  -0.709  1.00  0.00     0.004 C 
ENDBRANCH   5   6
ENDBRANCH   1   5
TORSDOF 3
ENDMDL
