MODEL 1
REMARK VINA RESULT:    -6.393      0.000      0.000
REMARK INTER + INTRA:          -6.393
REMARK INTER:                  -6.393
REMARK INTRA:                   0.000
REMARK UNBOUND:                 0.000
REMARK SMILES C=C1CCC[C@@]2(C)CC(=O)C(=C(C)C)C[C@@H]12
REMARK SMILES IDX 13 1 12 2 11 3 15 4 16 5 2 6 1 7 3 8 4 9 5 10 6 11 8 12 9 13
REMARK SMILES IDX 10 14 7 15 14 16
REMARK H PARENT
REMARK Flexibility Score: inf
ROOT
ATOM      1  C   UNL     1       0.487 -12.683  31.645  1.00  0.00     0.039 C 
ATOM      2  C   UNL     1      -0.026 -12.915  30.241  1.00  0.00    -0.070 C 
ATOM      3  C   UNL     1      -1.352 -12.803  29.942  1.00  0.00    -0.006 C 
ATOM      4  C   UNL     1      -1.880 -12.997  28.534  1.00  0.00     0.047 C 
ATOM      5  C   UNL     1      -3.090 -12.088  28.199  1.00  0.00     0.025 C 
ATOM      6  C   UNL     1      -3.681 -12.534  26.871  1.00  0.00    -0.073 C 
ATOM      7  C   UNL     1      -3.364 -11.895  25.734  1.00  0.00     0.008 C 
ATOM      8  C   UNL     1      -4.504 -13.804  26.831  1.00  0.00     0.031 C 
ATOM      9  C   UNL     1      -5.533 -13.847  27.969  1.00  0.00     0.005 C 
ATOM     10  C   UNL     1      -4.931 -13.455  29.332  1.00  0.00     0.008 C 
ATOM     11  C   UNL     1      -4.200 -12.080  29.298  1.00  0.00    -0.018 C 
ATOM     12  C   UNL     1      -3.581 -11.771  30.686  1.00  0.00     0.088 C 
ATOM     13  C   UNL     1      -2.386 -12.617  30.986  1.00  0.00     0.159 C 
ATOM     14  O   UNL     1      -2.279 -13.161  32.118  1.00  0.00    -0.295 OA
ATOM     15  C   UNL     1      -5.221 -10.949  29.000  1.00  0.00     0.012 C 
ATOM     16  C   UNL     1       0.995 -13.239  29.177  1.00  0.00     0.039 C 
ENDROOT
TORSDOF 0
ENDMDL
MODEL 2
REMARK VINA RESULT:    -6.229      2.156      4.799
REMARK INTER + INTRA:          -6.229
REMARK INTER:                  -6.229
REMARK INTRA:                   0.000
REMARK UNBOUND:                 0.000
REMARK SMILES C=C1CCC[C@@]2(C)CC(=O)C(=C(C)C)C[C@@H]12
REMARK SMILES IDX 13 1 12 2 11 3 15 4 16 5 2 6 1 7 3 8 4 9 5 10 6 11 8 12 9 13
REMARK SMILES IDX 10 14 7 15 14 16
REMARK H PARENT
REMARK Flexibility Score: inf
ROOT
ATOM      1  C   UNL     1      -4.115 -11.957  25.446  1.00  0.00     0.039 C 
ATOM      2  C   UNL     1      -3.825 -12.853  26.629  1.00  0.00    -0.070 C 
ATOM      3  C   UNL     1      -3.367 -12.346  27.809  1.00  0.00    -0.006 C 
ATOM      4  C   UNL     1      -3.104 -13.225  29.016  1.00  0.00     0.047 C 
ATOM      5  C   UNL     1      -3.411 -12.527  30.366  1.00  0.00     0.025 C 
ATOM      6  C   UNL     1      -2.887 -13.399  31.495  1.00  0.00    -0.073 C 
ATOM      7  C   UNL     1      -3.713 -14.221  32.162  1.00  0.00     0.008 C 
ATOM      8  C   UNL     1      -1.396 -13.442  31.750  1.00  0.00     0.031 C 
ATOM      9  C   UNL     1      -0.785 -12.035  31.771  1.00  0.00     0.005 C 
ATOM     10  C   UNL     1      -1.261 -11.160  30.596  1.00  0.00     0.008 C 
ATOM     11  C   UNL     1      -2.813 -11.088  30.485  1.00  0.00    -0.018 C 
ATOM     12  C   UNL     1      -3.221 -10.232  29.257  1.00  0.00     0.088 C 
ATOM     13  C   UNL     1      -2.967 -10.929  27.959  1.00  0.00     0.159 C 
ATOM     14  O   UNL     1      -2.414 -10.300  27.016  1.00  0.00    -0.295 OA
ATOM     15  C   UNL     1      -3.398 -10.383  31.738  1.00  0.00     0.012 C 
ATOM     16  C   UNL     1      -4.098 -14.329  26.461  1.00  0.00     0.039 C 
ENDROOT
TORSDOF 0
ENDMDL
MODEL 3
REMARK VINA RESULT:    -6.081      1.802      3.991
REMARK INTER + INTRA:          -6.081
REMARK INTER:                  -6.081
REMARK INTRA:                   0.000
REMARK UNBOUND:                 0.000
REMARK SMILES C=C1CCC[C@@]2(C)CC(=O)C(=C(C)C)C[C@@H]12
REMARK SMILES IDX 13 1 12 2 11 3 15 4 16 5 2 6 1 7 3 8 4 9 5 10 6 11 8 12 9 13
REMARK SMILES IDX 10 14 7 15 14 16
REMARK H PARENT
REMARK Flexibility Score: inf
ROOT
ATOM      1  C   UNL     1      -5.639 -15.555  32.505  1.00  0.00     0.039 C 
ATOM      2  C   UNL     1      -5.632 -14.889  31.147  1.00  0.00    -0.070 C 
ATOM      3  C   UNL     1      -4.713 -13.933  30.829  1.00  0.00    -0.006 C 
ATOM      4  C   UNL     1      -4.669 -13.281  29.461  1.00  0.00     0.047 C 
ATOM      5  C   UNL     1      -3.234 -12.925  28.994  1.00  0.00     0.025 C 
ATOM      6  C   UNL     1      -3.328 -12.069  27.741  1.00  0.00    -0.073 C 
ATOM      7  C   UNL     1      -3.184 -12.621  26.526  1.00  0.00     0.008 C 
ATOM      8  C   UNL     1      -3.743 -10.620  27.879  1.00  0.00     0.031 C 
ATOM      9  C   UNL     1      -2.976  -9.917  29.007  1.00  0.00     0.005 C 
ATOM     10  C   UNL     1      -2.926 -10.749  30.303  1.00  0.00     0.008 C 
ATOM     11  C   UNL     1      -2.380 -12.191  30.076  1.00  0.00    -0.018 C 
ATOM     12  C   UNL     1      -2.400 -12.985  31.409  1.00  0.00     0.088 C 
ATOM     13  C   UNL     1      -3.782 -13.366  31.831  1.00  0.00     0.159 C 
ATOM     14  O   UNL     1      -4.133 -13.197  33.029  1.00  0.00    -0.295 OA
ATOM     15  C   UNL     1      -0.899 -12.125  29.615  1.00  0.00     0.012 C 
ATOM     16  C   UNL     1      -6.661 -15.356  30.144  1.00  0.00     0.039 C 
ENDROOT
TORSDOF 0
ENDMDL
MODEL 4
REMARK VINA RESULT:    -6.000      2.313      3.976
REMARK INTER + INTRA:          -6.000
REMARK INTER:                  -6.000
REMARK INTRA:                   0.000
REMARK UNBOUND:                 0.000
REMARK SMILES C=C1CCC[C@@]2(C)CC(=O)C(=C(C)C)C[C@@H]12
REMARK SMILES IDX 13 1 12 2 11 3 15 4 16 5 2 6 1 7 3 8 4 9 5 10 6 11 8 12 9 13
REMARK SMILES IDX 10 14 7 15 14 16
REMARK H PARENT
REMARK Flexibility Score: inf
ROOT
ATOM      1  C   UNL     1      -5.508 -13.578  34.309  1.00  0.00     0.039 C 
ATOM      2  C   UNL     1      -5.066 -14.042  32.939  1.00  0.00    -0.070 C 
ATOM      3  C   UNL     1      -4.446 -13.196  32.067  1.00  0.00    -0.006 C 
ATOM      4  C   UNL     1      -3.965 -13.654  30.705  1.00  0.00     0.047 C 
ATOM      5  C   UNL     1      -2.664 -12.947  30.241  1.00  0.00     0.025 C 
ATOM      6  C   UNL     1      -2.414 -13.297  28.783  1.00  0.00    -0.073 C 
ATOM      7  C   UNL     1      -1.555 -14.275  28.455  1.00  0.00     0.008 C 
ATOM      8  C   UNL     1      -3.264 -12.635  27.720  1.00  0.00     0.031 C 
ATOM      9  C   UNL     1      -3.373 -11.121  27.944  1.00  0.00     0.005 C 
ATOM     10  C   UNL     1      -3.688 -10.756  29.407  1.00  0.00     0.008 C 
ATOM     11  C   UNL     1      -2.691 -11.395  30.418  1.00  0.00    -0.018 C 
ATOM     12  C   UNL     1      -3.092 -11.025  31.870  1.00  0.00     0.088 C 
ATOM     13  C   UNL     1      -4.319 -11.744  32.329  1.00  0.00     0.159 C 
ATOM     14  O   UNL     1      -5.226 -11.105  32.927  1.00  0.00    -0.295 OA
ATOM     15  C   UNL     1      -1.267 -10.821  30.186  1.00  0.00     0.012 C 
ATOM     16  C   UNL     1      -5.304 -15.493  32.592  1.00  0.00     0.039 C 
ENDROOT
TORSDOF 0
ENDMDL
MODEL 5
REMARK VINA RESULT:    -5.638      2.243      4.659
REMARK INTER + INTRA:          -5.638
REMARK INTER:                  -5.638
REMARK INTRA:                   0.000
REMARK UNBOUND:                 0.000
REMARK SMILES C=C1CCC[C@@]2(C)CC(=O)C(=C(C)C)C[C@@H]12
REMARK SMILES IDX 13 1 12 2 11 3 15 4 16 5 2 6 1 7 3 8 4 9 5 10 6 11 8 12 9 13
REMARK SMILES IDX 10 14 7 15 14 16
REMARK H PARENT
REMARK Flexibility Score: inf
ROOT
ATOM      1  C   UNL     1      -6.044 -15.069  32.508  1.00  0.00     0.039 C 
ATOM      2  C   UNL     1      -4.535 -14.978  32.519  1.00  0.00    -0.070 C 
ATOM      3  C   UNL     1      -3.864 -14.194  31.628  1.00  0.00    -0.006 C 
ATOM      4  C   UNL     1      -2.354 -14.063  31.647  1.00  0.00     0.047 C 
ATOM      5  C   UNL     1      -1.852 -12.654  31.236  1.00  0.00     0.025 C 
ATOM      6  C   UNL     1      -0.344 -12.708  31.056  1.00  0.00    -0.073 C 
ATOM      7  C   UNL     1       0.475 -12.302  32.040  1.00  0.00     0.008 C 
ATOM      8  C   UNL     1       0.218 -13.372  29.818  1.00  0.00     0.031 C 
ATOM      9  C   UNL     1      -0.502 -12.901  28.547  1.00  0.00     0.005 C 
ATOM     10  C   UNL     1      -2.035 -12.901  28.696  1.00  0.00     0.008 C 
ATOM     11  C   UNL     1      -2.522 -12.097  29.939  1.00  0.00    -0.018 C 
ATOM     12  C   UNL     1      -4.067 -12.176  30.054  1.00  0.00     0.088 C 
ATOM     13  C   UNL     1      -4.543 -13.523  30.496  1.00  0.00     0.159 C 
ATOM     14  O   UNL     1      -5.511 -14.065  29.898  1.00  0.00    -0.295 OA
ATOM     15  C   UNL     1      -2.161 -10.597  29.769  1.00  0.00     0.012 C 
ATOM     16  C   UNL     1      -3.803 -15.761  33.584  1.00  0.00     0.039 C 
ENDROOT
TORSDOF 0
ENDMDL
MODEL 6
REMARK VINA RESULT:    -5.395      1.925      4.606
REMARK INTER + INTRA:          -5.395
REMARK INTER:                  -5.395
REMARK INTRA:                   0.000
REMARK UNBOUND:                 0.000
REMARK SMILES C=C1CCC[C@@]2(C)CC(=O)C(=C(C)C)C[C@@H]12
REMARK SMILES IDX 13 1 12 2 11 3 15 4 16 5 2 6 1 7 3 8 4 9 5 10 6 11 8 12 9 13
REMARK SMILES IDX 10 14 7 15 14 16
REMARK H PARENT
REMARK Flexibility Score: inf
ROOT
ATOM      1  C   UNL     1      -6.932 -16.465  30.197  1.00  0.00     0.039 C 
ATOM      2  C   UNL     1      -6.528 -15.257  29.382  1.00  0.00    -0.070 C 
ATOM      3  C   UNL     1      -5.629 -14.348  29.856  1.00  0.00    -0.006 C 
ATOM      4  C   UNL     1      -5.187 -13.151  29.038  1.00  0.00     0.047 C 
ATOM      5  C   UNL     1      -3.708 -12.751  29.281  1.00  0.00     0.025 C 
ATOM      6  C   UNL     1      -3.449 -11.413  28.607  1.00  0.00    -0.073 C 
ATOM      7  C   UNL     1      -2.873 -11.360  27.396  1.00  0.00     0.008 C 
ATOM      8  C   UNL     1      -3.992 -10.156  29.253  1.00  0.00     0.031 C 
ATOM      9  C   UNL     1      -3.691 -10.118  30.757  1.00  0.00     0.005 C 
ATOM     10  C   UNL     1      -4.008 -11.450  31.463  1.00  0.00     0.008 C 
ATOM     11  C   UNL     1      -3.313 -12.672  30.790  1.00  0.00    -0.018 C 
ATOM     12  C   UNL     1      -3.711 -13.981  31.521  1.00  0.00     0.088 C 
ATOM     13  C   UNL     1      -5.123 -14.387  31.247  1.00  0.00     0.159 C 
ATOM     14  O   UNL     1      -5.860 -14.753  32.202  1.00  0.00    -0.295 OA
ATOM     15  C   UNL     1      -1.772 -12.536  30.919  1.00  0.00     0.012 C 
ATOM     16  C   UNL     1      -7.134 -15.120  28.004  1.00  0.00     0.039 C 
ENDROOT
TORSDOF 0
ENDMDL
MODEL 7
REMARK VINA RESULT:    -4.946      2.014      5.125
REMARK INTER + INTRA:          -4.946
REMARK INTER:                  -4.946
REMARK INTRA:                   0.000
REMARK UNBOUND:                 0.000
REMARK SMILES C=C1CCC[C@@]2(C)CC(=O)C(=C(C)C)C[C@@H]12
REMARK SMILES IDX 13 1 12 2 11 3 15 4 16 5 2 6 1 7 3 8 4 9 5 10 6 11 8 12 9 13
REMARK SMILES IDX 10 14 7 15 14 16
REMARK H PARENT
REMARK Flexibility Score: inf
ROOT
ATOM      1  C   UNL     1      -6.522 -15.119  27.244  1.00  0.00     0.039 C 
ATOM      2  C   UNL     1      -6.035 -14.663  28.601  1.00  0.00    -0.070 C 
ATOM      3  C   UNL     1      -5.027 -13.753  28.725  1.00  0.00    -0.006 C 
ATOM      4  C   UNL     1      -4.550 -13.259  30.076  1.00  0.00     0.047 C 
ATOM      5  C   UNL     1      -4.092 -11.777  30.063  1.00  0.00     0.025 C 
ATOM      6  C   UNL     1      -3.415 -11.465  31.389  1.00  0.00    -0.073 C 
ATOM      7  C   UNL     1      -4.094 -10.856  32.374  1.00  0.00     0.008 C 
ATOM      8  C   UNL     1      -2.018 -11.992  31.634  1.00  0.00     0.031 C 
ATOM      9  C   UNL     1      -1.096 -11.731  30.435  1.00  0.00     0.005 C 
ATOM     10  C   UNL     1      -1.748 -12.102  29.090  1.00  0.00     0.008 C 
ATOM     11  C   UNL     1      -3.134 -11.421  28.881  1.00  0.00    -0.018 C 
ATOM     12  C   UNL     1      -3.753 -11.872  27.532  1.00  0.00     0.088 C 
ATOM     13  C   UNL     1      -4.236 -13.286  27.564  1.00  0.00     0.159 C 
ATOM     14  O   UNL     1      -3.959 -14.057  26.606  1.00  0.00    -0.295 OA
ATOM     15  C   UNL     1      -2.956  -9.880  28.801  1.00  0.00     0.012 C 
ATOM     16  C   UNL     1      -6.738 -15.227  29.813  1.00  0.00     0.039 C 
ENDROOT
TORSDOF 0
ENDMDL
MODEL 8
REMARK VINA RESULT:    -4.702      2.564      4.640
REMARK INTER + INTRA:          -4.702
REMARK INTER:                  -4.702
REMARK INTRA:                   0.000
REMARK UNBOUND:                 0.000
REMARK SMILES C=C1CCC[C@@]2(C)CC(=O)C(=C(C)C)C[C@@H]12
REMARK SMILES IDX 13 1 12 2 11 3 15 4 16 5 2 6 1 7 3 8 4 9 5 10 6 11 8 12 9 13
REMARK SMILES IDX 10 14 7 15 14 16
REMARK H PARENT
REMARK Flexibility Score: inf
ROOT
ATOM      1  C   UNL     1      -6.279 -13.243  34.817  1.00  0.00     0.039 C 
ATOM      2  C   UNL     1      -5.532 -12.221  33.991  1.00  0.00    -0.070 C 
ATOM      3  C   UNL     1      -4.845 -12.579  32.869  1.00  0.00    -0.006 C 
ATOM      4  C   UNL     1      -4.120 -11.562  32.009  1.00  0.00     0.047 C 
ATOM      5  C   UNL     1      -4.138 -11.909  30.498  1.00  0.00     0.025 C 
ATOM      6  C   UNL     1      -3.189 -10.969  29.772  1.00  0.00    -0.073 C 
ATOM      7  C   UNL     1      -3.656  -9.878  29.145  1.00  0.00     0.008 C 
ATOM      8  C   UNL     1      -1.698 -11.197  29.901  1.00  0.00     0.031 C 
ATOM      9  C   UNL     1      -1.331 -12.672  29.690  1.00  0.00     0.005 C 
ATOM     10  C   UNL     1      -2.248 -13.633  30.470  1.00  0.00     0.008 C 
ATOM     11  C   UNL     1      -3.761 -13.392  30.184  1.00  0.00    -0.018 C 
ATOM     12  C   UNL     1      -4.625 -14.359  31.033  1.00  0.00     0.088 C 
ATOM     13  C   UNL     1      -4.643 -13.994  32.483  1.00  0.00     0.159 C 
ATOM     14  O   UNL     1      -4.482 -14.894  33.351  1.00  0.00    -0.295 OA
ATOM     15  C   UNL     1      -4.070 -13.704  28.694  1.00  0.00     0.012 C 
ATOM     16  C   UNL     1      -5.610 -10.780  34.439  1.00  0.00     0.039 C 
ENDROOT
TORSDOF 0
ENDMDL
MODEL 9
REMARK VINA RESULT:    -3.885      2.221      4.594
REMARK INTER + INTRA:          -3.885
REMARK INTER:                  -3.885
REMARK INTRA:                   0.000
REMARK UNBOUND:                 0.000
REMARK SMILES C=C1CCC[C@@]2(C)CC(=O)C(=C(C)C)C[C@@H]12
REMARK SMILES IDX 13 1 12 2 11 3 15 4 16 5 2 6 1 7 3 8 4 9 5 10 6 11 8 12 9 13
REMARK SMILES IDX 10 14 7 15 14 16
REMARK H PARENT
REMARK Flexibility Score: inf
ROOT
ATOM      1  C   UNL     1      -4.310 -13.664  25.752  1.00  0.00     0.039 C 
ATOM      2  C   UNL     1      -3.719 -12.531  26.561  1.00  0.00    -0.070 C 
ATOM      3  C   UNL     1      -3.787 -12.518  27.923  1.00  0.00    -0.006 C 
ATOM      4  C   UNL     1      -3.170 -11.408  28.750  1.00  0.00     0.047 C 
ATOM      5  C   UNL     1      -2.605 -11.894  30.110  1.00  0.00     0.025 C 
ATOM      6  C   UNL     1      -2.239 -10.680  30.947  1.00  0.00    -0.073 C 
ATOM      7  C   UNL     1      -0.969 -10.246  31.001  1.00  0.00     0.008 C 
ATOM      8  C   UNL     1      -3.349  -9.876  31.589  1.00  0.00     0.031 C 
ATOM      9  C   UNL     1      -4.368 -10.782  32.294  1.00  0.00     0.005 C 
ATOM     10  C   UNL     1      -4.794 -11.984  31.431  1.00  0.00     0.008 C 
ATOM     11  C   UNL     1      -3.584 -12.814  30.909  1.00  0.00    -0.018 C 
ATOM     12  C   UNL     1      -4.082 -13.978  30.012  1.00  0.00     0.088 C 
ATOM     13  C   UNL     1      -4.581 -13.509  28.684  1.00  0.00     0.159 C 
ATOM     14  O   UNL     1      -5.669 -13.961  28.236  1.00  0.00    -0.295 OA
ATOM     15  C   UNL     1      -2.833 -13.458  32.105  1.00  0.00     0.012 C 
ATOM     16  C   UNL     1      -3.015 -11.432  25.798  1.00  0.00     0.039 C 
ENDROOT
TORSDOF 0
ENDMDL
