MODEL 1
REMARK VINA RESULT:    -4.079      0.000      0.000
REMARK INTER + INTRA:          -4.079
REMARK INTER:                  -4.079
REMARK INTRA:                   0.000
REMARK UNBOUND:                 0.000
REMARK SMILES O=C1CCCCC1
REMARK SMILES IDX 5 1 4 2 3 3 2 4 1 5 7 6 6 7
REMARK H PARENT
REMARK Flexibility Score: inf
ROOT
ATOM      1  C   UNL     1      16.069  42.254 -13.681  1.00  0.00     0.001 C 
ATOM      2  C   UNL     1      15.436  42.948 -12.465  1.00  0.00     0.008 C 
ATOM      3  C   UNL     1      14.280  43.864 -12.883  1.00  0.00     0.075 C 
ATOM      4  C   UNL     1      14.714  44.783 -13.991  1.00  0.00     0.132 C 
ATOM      5  O   UNL     1      14.402  45.963 -13.972  1.00  0.00    -0.300 OA
ATOM      6  C   UNL     1      15.454  44.213 -15.169  1.00  0.00     0.075 C 
ATOM      7  C   UNL     1      16.581  43.288 -14.695  1.00  0.00     0.008 C 
ENDROOT
TORSDOF 0
ENDMDL
MODEL 2
REMARK VINA RESULT:    -3.785      1.671      2.953
REMARK INTER + INTRA:          -3.785
REMARK INTER:                  -3.785
REMARK INTRA:                   0.000
REMARK UNBOUND:                 0.000
REMARK SMILES O=C1CCCCC1
REMARK SMILES IDX 5 1 4 2 3 3 2 4 1 5 7 6 6 7
REMARK H PARENT
REMARK Flexibility Score: inf
ROOT
ATOM      1  C   UNL     1      14.019  44.138 -13.079  1.00  0.00     0.001 C 
ATOM      2  C   UNL     1      14.661  45.035 -14.148  1.00  0.00     0.008 C 
ATOM      3  C   UNL     1      15.415  44.206 -15.194  1.00  0.00     0.075 C 
ATOM      4  C   UNL     1      16.351  43.240 -14.521  1.00  0.00     0.132 C 
ATOM      5  O   UNL     1      17.484  43.080 -14.948  1.00  0.00    -0.300 OA
ATOM      6  C   UNL     1      15.845  42.406 -13.377  1.00  0.00     0.075 C 
ATOM      7  C   UNL     1      15.080  43.279 -12.376  1.00  0.00     0.008 C 
ENDROOT
TORSDOF 0
ENDMDL
MODEL 3
REMARK VINA RESULT:    -3.182     13.942     14.940
REMARK INTER + INTRA:          -3.182
REMARK INTER:                  -3.182
REMARK INTRA:                   0.000
REMARK UNBOUND:                 0.000
REMARK SMILES O=C1CCCCC1
REMARK SMILES IDX 5 1 4 2 3 3 2 4 1 5 7 6 6 7
REMARK H PARENT
REMARK Flexibility Score: inf
ROOT
ATOM      1  C   UNL     1      16.209  45.402  -0.656  1.00  0.00     0.001 C 
ATOM      2  C   UNL     1      17.722  45.662  -0.684  1.00  0.00     0.008 C 
ATOM      3  C   UNL     1      18.502  44.494  -0.068  1.00  0.00     0.075 C 
ATOM      4  C   UNL     1      17.937  44.140   1.279  1.00  0.00     0.132 C 
ATOM      5  O   UNL     1      18.681  43.903   2.218  1.00  0.00    -0.300 OA
ATOM      6  C   UNL     1      16.449  43.987   1.434  1.00  0.00     0.075 C 
ATOM      7  C   UNL     1      15.720  45.168   0.780  1.00  0.00     0.008 C 
ENDROOT
TORSDOF 0
ENDMDL
MODEL 4
REMARK VINA RESULT:    -3.118     20.274     20.995
REMARK INTER + INTRA:          -3.118
REMARK INTER:                  -3.118
REMARK INTRA:                   0.000
REMARK UNBOUND:                 0.000
REMARK SMILES O=C1CCCCC1
REMARK SMILES IDX 5 1 4 2 3 3 2 4 1 5 7 6 6 7
REMARK H PARENT
REMARK Flexibility Score: inf
ROOT
ATOM      1  C   UNL     1      32.072  44.103   0.990  1.00  0.00     0.001 C 
ATOM      2  C   UNL     1      31.844  45.562   1.412  1.00  0.00     0.008 C 
ATOM      3  C   UNL     1      30.350  45.905   1.454  1.00  0.00     0.075 C 
ATOM      4  C   UNL     1      29.682  45.497   0.170  1.00  0.00     0.132 C 
ATOM      5  O   UNL     1      28.877  46.240  -0.370  1.00  0.00    -0.300 OA
ATOM      6  C   UNL     1      29.945  44.126  -0.390  1.00  0.00     0.075 C 
ATOM      7  C   UNL     1      31.449  43.827  -0.386  1.00  0.00     0.008 C 
ENDROOT
TORSDOF 0
ENDMDL
MODEL 5
REMARK VINA RESULT:    -3.079     13.683     14.691
REMARK INTER + INTRA:          -3.079
REMARK INTER:                  -3.079
REMARK INTRA:                   0.000
REMARK UNBOUND:                 0.000
REMARK SMILES O=C1CCCCC1
REMARK SMILES IDX 5 1 4 2 3 3 2 4 1 5 7 6 6 7
REMARK H PARENT
REMARK Flexibility Score: inf
ROOT
ATOM      1  C   UNL     1      15.594  45.301   0.772  1.00  0.00     0.001 C 
ATOM      2  C   UNL     1      15.992  44.024   1.526  1.00  0.00     0.008 C 
ATOM      3  C   UNL     1      17.512  43.934   1.710  1.00  0.00     0.075 C 
ATOM      4  C   UNL     1      18.212  44.148   0.397  1.00  0.00     0.132 C 
ATOM      5  O   UNL     1      19.153  43.439   0.077  1.00  0.00    -0.300 OA
ATOM      6  C   UNL     1      17.803  45.305  -0.472  1.00  0.00     0.075 C 
ATOM      7  C   UNL     1      16.276  45.361  -0.603  1.00  0.00     0.008 C 
ENDROOT
TORSDOF 0
ENDMDL
MODEL 6
REMARK VINA RESULT:    -3.078     21.482     22.089
REMARK INTER + INTRA:          -3.078
REMARK INTER:                  -3.078
REMARK INTRA:                   0.000
REMARK UNBOUND:                 0.000
REMARK SMILES O=C1CCCCC1
REMARK SMILES IDX 5 1 4 2 3 3 2 4 1 5 7 6 6 7
REMARK H PARENT
REMARK Flexibility Score: inf
ROOT
ATOM      1  C   UNL     1      30.507  58.719 -13.050  1.00  0.00     0.001 C 
ATOM      2  C   UNL     1      31.826  59.274 -12.491  1.00  0.00     0.008 C 
ATOM      3  C   UNL     1      33.003  58.967 -13.425  1.00  0.00     0.075 C 
ATOM      4  C   UNL     1      33.022  57.506 -13.781  1.00  0.00     0.132 C 
ATOM      5  O   UNL     1      34.074  56.886 -13.787  1.00  0.00    -0.300 OA
ATOM      6  C   UNL     1      31.746  56.842 -14.220  1.00  0.00     0.075 C 
ATOM      7  C   UNL     1      30.601  57.201 -13.267  1.00  0.00     0.008 C 
ENDROOT
TORSDOF 0
ENDMDL
MODEL 7
REMARK VINA RESULT:    -3.043     20.943     21.468
REMARK INTER + INTRA:          -3.043
REMARK INTER:                  -3.043
REMARK INTRA:                   0.000
REMARK UNBOUND:                 0.000
REMARK SMILES O=C1CCCCC1
REMARK SMILES IDX 5 1 4 2 3 3 2 4 1 5 7 6 6 7
REMARK H PARENT
REMARK Flexibility Score: inf
ROOT
ATOM      1  C   UNL     1      32.575  57.249 -13.293  1.00  0.00     0.001 C 
ATOM      2  C   UNL     1      31.127  56.778 -13.491  1.00  0.00     0.008 C 
ATOM      3  C   UNL     1      30.145  57.956 -13.456  1.00  0.00     0.075 C 
ATOM      4  C   UNL     1      30.383  58.800 -12.234  1.00  0.00     0.132 C 
ATOM      5  O   UNL     1      29.441  59.213 -11.576  1.00  0.00    -0.300 OA
ATOM      6  C   UNL     1      31.789  59.208 -11.887  1.00  0.00     0.075 C 
ATOM      7  C   UNL     1      32.730  57.999 -11.962  1.00  0.00     0.008 C 
ENDROOT
TORSDOF 0
ENDMDL
MODEL 8
REMARK VINA RESULT:    -3.022     21.370     21.942
REMARK INTER + INTRA:          -3.022
REMARK INTER:                  -3.022
REMARK INTRA:                   0.000
REMARK UNBOUND:                 0.000
REMARK SMILES O=C1CCCCC1
REMARK SMILES IDX 5 1 4 2 3 3 2 4 1 5 7 6 6 7
REMARK H PARENT
REMARK Flexibility Score: inf
ROOT
ATOM      1  C   UNL     1      33.194  57.263 -13.869  1.00  0.00     0.001 C 
ATOM      2  C   UNL     1      33.323  58.772 -13.614  1.00  0.00     0.008 C 
ATOM      3  C   UNL     1      32.386  59.232 -12.491  1.00  0.00     0.075 C 
ATOM      4  C   UNL     1      30.987  58.742 -12.743  1.00  0.00     0.132 C 
ATOM      5  O   UNL     1      30.032  59.482 -12.567  1.00  0.00    -0.300 OA
ATOM      6  C   UNL     1      30.771  57.303 -13.124  1.00  0.00     0.075 C 
ATOM      7  C   UNL     1      31.749  56.891 -14.231  1.00  0.00     0.008 C 
ENDROOT
TORSDOF 0
ENDMDL
MODEL 9
REMARK VINA RESULT:    -2.984     21.254     21.833
REMARK INTER + INTRA:          -2.984
REMARK INTER:                  -2.984
REMARK INTRA:                   0.000
REMARK UNBOUND:                 0.000
REMARK SMILES O=C1CCCCC1
REMARK SMILES IDX 5 1 4 2 3 3 2 4 1 5 7 6 6 7
REMARK H PARENT
REMARK Flexibility Score: inf
ROOT
ATOM      1  C   UNL     1      30.184  58.956 -12.096  1.00  0.00     0.001 C 
ATOM      2  C   UNL     1      30.119  58.189 -13.426  1.00  0.00     0.008 C 
ATOM      3  C   UNL     1      31.057  56.976 -13.419  1.00  0.00     0.075 C 
ATOM      4  C   UNL     1      32.437  57.383 -12.980  1.00  0.00     0.132 C 
ATOM      5  O   UNL     1      33.421  56.958 -13.565  1.00  0.00    -0.300 OA
ATOM      6  C   UNL     1      32.593  58.243 -11.756  1.00  0.00     0.075 C 
ATOM      7  C   UNL     1      31.617  59.424 -11.804  1.00  0.00     0.008 C 
ENDROOT
TORSDOF 0
ENDMDL
