MODEL 1
REMARK VINA RESULT:    -7.333      0.000      0.000
REMARK INTER + INTRA:          -8.340
REMARK INTER:                  -8.619
REMARK INTRA:                   0.279
REMARK UNBOUND:                 0.279
REMARK SMILES Oc1ccc(-c2[o+]c3cc(O)cc(O)c3cc2O)cc1
REMARK SMILES IDX 6 1 7 2 8 3 9 4 10 5 12 6 13 7 15 8 16 9 17 10 5 11 4 12
REMARK SMILES IDX 3 13 2 14 19 15 20 16 1 17 18 19 11 21 14 23
REMARK H PARENT 1 18 18 20 11 22 14 24
REMARK Flexibility Score: inf
ROOT
ATOM      1  C   UNL     1       9.743  13.123  23.129  1.00  0.00     0.401 A 
ATOM      2  O   UNL     1       9.870  11.799  23.181  1.00  0.00    -0.202 OA
ATOM      3  C   UNL     1       9.496  11.071  24.226  1.00  0.00     0.368 A 
ATOM      4  C   UNL     1       9.666   9.684  24.186  1.00  0.00     0.162 A 
ATOM      5  C   UNL     1       9.280   8.894  25.269  1.00  0.00     0.128 A 
ATOM      6  C   UNL     1       8.717   9.492  26.402  1.00  0.00     0.093 A 
ATOM      7  C   UNL     1       8.535  10.879  26.467  1.00  0.00     0.136 A 
ATOM      8  C   UNL     1       8.930  11.686  25.370  1.00  0.00     0.125 A 
ATOM      9  C   UNL     1       8.798  13.084  25.353  1.00  0.00     0.078 A 
ATOM     10  C   UNL     1       9.214  13.814  24.235  1.00  0.00     0.223 A 
ENDROOT
BRANCH   1  11
ATOM     11  C   UNL     1      10.188  13.821  21.902  1.00  0.00     0.084 A 
ATOM     12  C   UNL     1      10.657  15.148  21.941  1.00  0.00     0.022 A 
ATOM     13  C   UNL     1      11.051  15.794  20.765  1.00  0.00     0.047 A 
ATOM     14  C   UNL     1      10.968  15.132  19.537  1.00  0.00     0.115 A 
ATOM     15  C   UNL     1      10.090  13.170  20.661  1.00  0.00     0.022 A 
ATOM     16  C   UNL     1      10.484  13.818  19.487  1.00  0.00     0.047 A 
BRANCH  14  17
ATOM     17  O   UNL     1      11.366  15.788  18.375  1.00  0.00    -0.508 OA
ATOM     18  H   UNL     1      10.695  16.253  17.773  1.00  0.00     0.293 HD
ENDBRANCH  14  17
ENDBRANCH   1  11
BRANCH  10  19
ATOM     19  O   UNL     1       9.130  15.207  24.238  1.00  0.00    -0.500 OA
ATOM     20  H   UNL     1       9.486  15.764  23.470  1.00  0.00     0.294 HD
ENDBRANCH  10  19
BRANCH   5  21
ATOM     21  O   UNL     1       9.458   7.514  25.208  1.00  0.00    -0.507 OA
ATOM     22  H   UNL     1      10.122   7.038  25.810  1.00  0.00     0.293 HD
ENDBRANCH   5  21
BRANCH   7  23
ATOM     23  O   UNL     1       7.964  11.398  27.633  1.00  0.00    -0.507 OA
ATOM     24  H   UNL     1       8.125  12.333  27.979  1.00  0.00     0.293 HD
ENDBRANCH   7  23
TORSDOF 5
ENDMDL
MODEL 2
REMARK VINA RESULT:    -6.499      1.193      6.559
REMARK INTER + INTRA:          -7.359
REMARK INTER:                  -7.631
REMARK INTRA:                   0.271
REMARK UNBOUND:                 0.279
REMARK SMILES Oc1ccc(-c2[o+]c3cc(O)cc(O)c3cc2O)cc1
REMARK SMILES IDX 6 1 7 2 8 3 9 4 10 5 12 6 13 7 15 8 16 9 17 10 5 11 4 12
REMARK SMILES IDX 3 13 2 14 19 15 20 16 1 17 18 19 11 21 14 23
REMARK H PARENT 1 18 18 20 11 22 14 24
REMARK Flexibility Score: inf
ROOT
ATOM      1  C   UNL     1       9.243  12.095  24.088  1.00  0.00     0.401 A 
ATOM      2  O   UNL     1       9.617  12.130  22.811  1.00  0.00    -0.202 OA
ATOM      3  C   UNL     1       9.870  13.257  22.155  1.00  0.00     0.368 A 
ATOM      4  C   UNL     1      10.260  13.191  20.815  1.00  0.00     0.162 A 
ATOM      5  C   UNL     1      10.535  14.358  20.102  1.00  0.00     0.128 A 
ATOM      6  C   UNL     1      10.421  15.603  20.731  1.00  0.00     0.093 A 
ATOM      7  C   UNL     1      10.032  15.696  22.074  1.00  0.00     0.136 A 
ATOM      8  C   UNL     1       9.749  14.511  22.801  1.00  0.00     0.125 A 
ATOM      9  C   UNL     1       9.340  14.509  24.145  1.00  0.00     0.078 A 
ATOM     10  C   UNL     1       9.074  13.300  24.795  1.00  0.00     0.223 A 
ENDROOT
BRANCH   1  11
ATOM     11  C   UNL     1       9.000  10.775  24.711  1.00  0.00     0.084 A 
ATOM     12  C   UNL     1       8.070  10.615  25.755  1.00  0.00     0.022 A 
ATOM     13  C   UNL     1       7.875   9.362  26.343  1.00  0.00     0.047 A 
ATOM     14  C   UNL     1       8.613   8.258  25.908  1.00  0.00     0.115 A 
ATOM     15  C   UNL     1       9.752   9.664  24.292  1.00  0.00     0.022 A 
ATOM     16  C   UNL     1       9.554   8.412  24.881  1.00  0.00     0.047 A 
BRANCH  14  17
ATOM     17  O   UNL     1       8.405   7.015  26.501  1.00  0.00    -0.508 OA
ATOM     18  H   UNL     1       8.121   6.932  27.471  1.00  0.00     0.293 HD
ENDBRANCH  14  17
ENDBRANCH   1  11
BRANCH  10  19
ATOM     19  O   UNL     1       8.619  13.301  26.114  1.00  0.00    -0.500 OA
ATOM     20  H   UNL     1       7.679  13.008  26.354  1.00  0.00     0.294 HD
ENDBRANCH  10  19
BRANCH   5  21
ATOM     21  O   UNL     1      10.922  14.271  18.767  1.00  0.00    -0.507 OA
ATOM     22  H   UNL     1      10.441  14.789  18.040  1.00  0.00     0.293 HD
ENDBRANCH   5  21
BRANCH   7  23
ATOM     23  O   UNL     1       9.944  16.975  22.631  1.00  0.00    -0.507 OA
ATOM     24  H   UNL     1       9.314  17.695  22.308  1.00  0.00     0.293 HD
ENDBRANCH   7  23
TORSDOF 5
ENDMDL
MODEL 3
REMARK VINA RESULT:    -6.200      1.712      7.243
REMARK INTER + INTRA:          -7.008
REMARK INTER:                  -7.033
REMARK INTRA:                   0.025
REMARK UNBOUND:                 0.279
REMARK SMILES Oc1ccc(-c2[o+]c3cc(O)cc(O)c3cc2O)cc1
REMARK SMILES IDX 6 1 7 2 8 3 9 4 10 5 12 6 13 7 15 8 16 9 17 10 5 11 4 12
REMARK SMILES IDX 3 13 2 14 19 15 20 16 1 17 18 19 11 21 14 23
REMARK H PARENT 1 18 18 20 11 22 14 24
REMARK Flexibility Score: inf
ROOT
ATOM      1  C   UNL     1       9.607  13.574  24.132  1.00  0.00     0.401 A 
ATOM      2  O   UNL     1      10.025  14.808  24.406  1.00  0.00    -0.202 OA
ATOM      3  C   UNL     1      10.431  15.664  23.475  1.00  0.00     0.368 A 
ATOM      4  C   UNL     1      10.849  16.941  23.861  1.00  0.00     0.162 A 
ATOM      5  C   UNL     1      11.278  17.861  22.905  1.00  0.00     0.128 A 
ATOM      6  C   UNL     1      11.290  17.506  21.551  1.00  0.00     0.093 A 
ATOM      7  C   UNL     1      10.876  16.233  21.139  1.00  0.00     0.136 A 
ATOM      8  C   UNL     1      10.442  15.293  22.109  1.00  0.00     0.125 A 
ATOM      9  C   UNL     1      10.022  13.992  21.789  1.00  0.00     0.078 A 
ATOM     10  C   UNL     1       9.612  13.119  22.801  1.00  0.00     0.223 A 
ENDROOT
BRANCH   1  11
ATOM     11  C   UNL     1       9.169  12.718  25.257  1.00  0.00     0.084 A 
ATOM     12  C   UNL     1       8.258  13.184  26.223  1.00  0.00     0.022 A 
ATOM     13  C   UNL     1       7.877  12.364  27.290  1.00  0.00     0.047 A 
ATOM     14  C   UNL     1       8.410  11.078  27.415  1.00  0.00     0.115 A 
ATOM     15  C   UNL     1       9.716  11.431  25.401  1.00  0.00     0.022 A 
ATOM     16  C   UNL     1       9.333  10.614  26.468  1.00  0.00     0.047 A 
BRANCH  14  17
ATOM     17  O   UNL     1       8.019  10.273  28.482  1.00  0.00    -0.508 OA
ATOM     18  H   UNL     1       8.643   9.578  28.876  1.00  0.00     0.293 HD
ENDBRANCH  14  17
ENDBRANCH   1  11
BRANCH  10  19
ATOM     19  O   UNL     1       9.243  11.809  22.489  1.00  0.00    -0.500 OA
ATOM     20  H   UNL     1       9.683  11.299  21.732  1.00  0.00     0.294 HD
ENDBRANCH  10  19
BRANCH   5  21
ATOM     21  O   UNL     1      11.691  19.129  23.310  1.00  0.00    -0.507 OA
ATOM     22  H   UNL     1      11.091  19.940  23.205  1.00  0.00     0.293 HD
ENDBRANCH   5  21
BRANCH   7  23
ATOM     23  O   UNL     1      10.915  15.957  19.769  1.00  0.00    -0.507 OA
ATOM     24  H   UNL     1      10.112  15.691  19.218  1.00  0.00     0.293 HD
ENDBRANCH   7  23
TORSDOF 5
ENDMDL
MODEL 4
REMARK VINA RESULT:    -6.112      2.391      3.696
REMARK INTER + INTRA:          -6.905
REMARK INTER:                  -6.796
REMARK INTRA:                  -0.108
REMARK UNBOUND:                 0.279
REMARK SMILES Oc1ccc(-c2[o+]c3cc(O)cc(O)c3cc2O)cc1
REMARK SMILES IDX 6 1 7 2 8 3 9 4 10 5 12 6 13 7 15 8 16 9 17 10 5 11 4 12
REMARK SMILES IDX 3 13 2 14 19 15 20 16 1 17 18 19 11 21 14 23
REMARK H PARENT 1 18 18 20 11 22 14 24
REMARK Flexibility Score: inf
ROOT
ATOM      1  C   UNL     1      10.082  14.831  23.489  1.00  0.00     0.401 A 
ATOM      2  O   UNL     1       9.469  14.409  24.592  1.00  0.00    -0.202 OA
ATOM      3  C   UNL     1       9.340  13.126  24.909  1.00  0.00     0.368 A 
ATOM      4  C   UNL     1       8.682  12.780  26.093  1.00  0.00     0.162 A 
ATOM      5  C   UNL     1       8.534  11.440  26.452  1.00  0.00     0.128 A 
ATOM      6  C   UNL     1       9.047  10.436  25.624  1.00  0.00     0.093 A 
ATOM      7  C   UNL     1       9.711  10.756  24.433  1.00  0.00     0.136 A 
ATOM      8  C   UNL     1       9.860  12.117  24.063  1.00  0.00     0.125 A 
ATOM      9  C   UNL     1      10.499  12.530  22.882  1.00  0.00     0.078 A 
ATOM     10  C   UNL     1      10.604  13.892  22.582  1.00  0.00     0.223 A 
ENDROOT
BRANCH   1  11
ATOM     11  C   UNL     1      10.170  16.290  23.252  1.00  0.00     0.084 A 
ATOM     12  C   UNL     1      11.408  16.926  23.043  1.00  0.00     0.022 A 
ATOM     13  C   UNL     1      11.468  18.309  22.845  1.00  0.00     0.047 A 
ATOM     14  C   UNL     1      10.299  19.074  22.867  1.00  0.00     0.115 A 
ATOM     15  C   UNL     1       9.002  17.069  23.292  1.00  0.00     0.022 A 
ATOM     16  C   UNL     1       9.065  18.451  23.093  1.00  0.00     0.047 A 
BRANCH  14  17
ATOM     17  O   UNL     1      10.375  20.450  22.665  1.00  0.00    -0.508 OA
ATOM     18  H   UNL     1       9.757  20.925  22.017  1.00  0.00     0.293 HD
ENDBRANCH  14  17
ENDBRANCH   1  11
BRANCH  10  19
ATOM     19  O   UNL     1      11.194  14.300  21.384  1.00  0.00    -0.500 OA
ATOM     20  H   UNL     1      11.141  15.260  21.065  1.00  0.00     0.294 HD
ENDBRANCH  10  19
BRANCH   5  21
ATOM     21  O   UNL     1       7.875  11.117  27.636  1.00  0.00    -0.507 OA
ATOM     22  H   UNL     1       8.367  10.704  28.422  1.00  0.00     0.293 HD
ENDBRANCH   5  21
BRANCH   7  23
ATOM     23  O   UNL     1      10.197   9.695  23.663  1.00  0.00    -0.507 OA
ATOM     24  H   UNL     1      11.176   9.521  23.486  1.00  0.00     0.293 HD
ENDBRANCH   7  23
TORSDOF 5
ENDMDL
MODEL 5
REMARK VINA RESULT:    -6.071      1.963      6.852
REMARK INTER + INTRA:          -6.857
REMARK INTER:                  -7.289
REMARK INTRA:                   0.433
REMARK UNBOUND:                 0.279
REMARK SMILES Oc1ccc(-c2[o+]c3cc(O)cc(O)c3cc2O)cc1
REMARK SMILES IDX 6 1 7 2 8 3 9 4 10 5 12 6 13 7 15 8 16 9 17 10 5 11 4 12
REMARK SMILES IDX 3 13 2 14 19 15 20 16 1 17 18 19 11 21 14 23
REMARK H PARENT 1 18 18 20 11 22 14 24
REMARK Flexibility Score: inf
ROOT
ATOM      1  C   UNL     1       9.907  12.599  24.261  1.00  0.00     0.401 A 
ATOM      2  O   UNL     1       9.581  13.645  25.017  1.00  0.00    -0.202 OA
ATOM      3  C   UNL     1       9.814  14.903  24.662  1.00  0.00     0.368 A 
ATOM      4  C   UNL     1       9.431  15.935  25.524  1.00  0.00     0.162 A 
ATOM      5  C   UNL     1       9.661  17.267  25.176  1.00  0.00     0.128 A 
ATOM      6  C   UNL     1      10.277  17.572  23.957  1.00  0.00     0.093 A 
ATOM      7  C   UNL     1      10.670  16.556  23.076  1.00  0.00     0.136 A 
ATOM      8  C   UNL     1      10.441  15.201  23.428  1.00  0.00     0.125 A 
ATOM      9  C   UNL     1      10.813  14.119  22.614  1.00  0.00     0.078 A 
ATOM     10  C   UNL     1      10.557  12.808  23.031  1.00  0.00     0.223 A 
ENDROOT
BRANCH   1  11
ATOM     11  C   UNL     1       9.585  11.245  24.763  1.00  0.00     0.084 A 
ATOM     12  C   UNL     1       9.805  10.099  23.976  1.00  0.00     0.022 A 
ATOM     13  C   UNL     1       9.471   8.831  24.464  1.00  0.00     0.047 A 
ATOM     14  C   UNL     1       8.902   8.693  25.733  1.00  0.00     0.115 A 
ATOM     15  C   UNL     1       8.995  11.099  26.030  1.00  0.00     0.022 A 
ATOM     16  C   UNL     1       8.662   9.830  26.515  1.00  0.00     0.047 A 
BRANCH  14  17
ATOM     17  O   UNL     1       8.577   7.424  26.205  1.00  0.00    -0.508 OA
ATOM     18  H   UNL     1       8.757   6.592  25.655  1.00  0.00     0.293 HD
ENDBRANCH  14  17
ENDBRANCH   1  11
BRANCH  10  19
ATOM     19  O   UNL     1      10.972  11.731  22.246  1.00  0.00    -0.500 OA
ATOM     20  H   UNL     1      11.337  11.864  21.310  1.00  0.00     0.294 HD
ENDBRANCH  10  19
BRANCH   5  21
ATOM     21  O   UNL     1       9.272  18.280  26.048  1.00  0.00    -0.507 OA
ATOM     22  H   UNL     1       9.949  18.791  26.604  1.00  0.00     0.293 HD
ENDBRANCH   5  21
BRANCH   7  23
ATOM     23  O   UNL     1      11.277  16.943  21.877  1.00  0.00    -0.507 OA
ATOM     24  H   UNL     1      11.718  17.838  21.725  1.00  0.00     0.293 HD
ENDBRANCH   7  23
TORSDOF 5
ENDMDL
MODEL 6
REMARK VINA RESULT:    -5.934      3.205      6.779
REMARK INTER + INTRA:          -6.695
REMARK INTER:                  -6.619
REMARK INTRA:                  -0.076
REMARK UNBOUND:                 0.279
REMARK SMILES Oc1ccc(-c2[o+]c3cc(O)cc(O)c3cc2O)cc1
REMARK SMILES IDX 6 1 7 2 8 3 9 4 10 5 12 6 13 7 15 8 16 9 17 10 5 11 4 12
REMARK SMILES IDX 3 13 2 14 19 15 20 16 1 17 18 19 11 21 14 23
REMARK H PARENT 1 18 18 20 11 22 14 24
REMARK Flexibility Score: inf
ROOT
ATOM      1  C   UNL     1       9.744  16.121  24.112  1.00  0.00     0.401 A 
ATOM      2  O   UNL     1      10.220  16.515  22.933  1.00  0.00    -0.202 OA
ATOM      3  C   UNL     1      10.333  15.708  21.885  1.00  0.00     0.368 A 
ATOM      4  C   UNL     1      10.841  16.217  20.686  1.00  0.00     0.162 A 
ATOM      5  C   UNL     1      10.969  15.392  19.568  1.00  0.00     0.128 A 
ATOM      6  C   UNL     1      10.585  14.049  19.646  1.00  0.00     0.093 A 
ATOM      7  C   UNL     1      10.073  13.515  20.835  1.00  0.00     0.136 A 
ATOM      8  C   UNL     1       9.945  14.349  21.975  1.00  0.00     0.125 A 
ATOM      9  C   UNL     1       9.454  13.898  23.211  1.00  0.00     0.078 A 
ATOM     10  C   UNL     1       9.361  14.780  24.292  1.00  0.00     0.223 A 
ENDROOT
BRANCH   1  11
ATOM     11  C   UNL     1       9.658  17.119  25.202  1.00  0.00     0.084 A 
ATOM     12  C   UNL     1      10.306  16.919  26.435  1.00  0.00     0.022 A 
ATOM     13  C   UNL     1      10.191  17.866  27.457  1.00  0.00     0.047 A 
ATOM     14  C   UNL     1       9.418  19.014  27.268  1.00  0.00     0.115 A 
ATOM     15  C   UNL     1       8.866  18.267  25.027  1.00  0.00     0.022 A 
ATOM     16  C   UNL     1       8.753  19.212  26.050  1.00  0.00     0.047 A 
BRANCH  14  17
ATOM     17  O   UNL     1       9.314  19.950  28.295  1.00  0.00    -0.508 OA
ATOM     18  H   UNL     1      10.125  20.247  28.824  1.00  0.00     0.293 HD
ENDBRANCH  14  17
ENDBRANCH   1  11
BRANCH  10  19
ATOM     19  O   UNL     1       8.921  14.319  25.534  1.00  0.00    -0.500 OA
ATOM     20  H   UNL     1       8.270  14.851  26.099  1.00  0.00     0.294 HD
ENDBRANCH  10  19
BRANCH   5  21
ATOM     21  O   UNL     1      11.477  15.918  18.383  1.00  0.00    -0.507 OA
ATOM     22  H   UNL     1      11.923  15.328  17.689  1.00  0.00     0.293 HD
ENDBRANCH   5  21
BRANCH   7  23
ATOM     23  O   UNL     1       9.710  12.165  20.830  1.00  0.00    -0.507 OA
ATOM     24  H   UNL     1       9.151  11.722  21.545  1.00  0.00     0.293 HD
ENDBRANCH   7  23
TORSDOF 5
ENDMDL
MODEL 7
REMARK VINA RESULT:    -5.713      1.832      3.186
REMARK INTER + INTRA:          -6.436
REMARK INTER:                  -6.563
REMARK INTRA:                   0.127
REMARK UNBOUND:                 0.279
REMARK SMILES Oc1ccc(-c2[o+]c3cc(O)cc(O)c3cc2O)cc1
REMARK SMILES IDX 6 1 7 2 8 3 9 4 10 5 12 6 13 7 15 8 16 9 17 10 5 11 4 12
REMARK SMILES IDX 3 13 2 14 19 15 20 16 1 17 18 19 11 21 14 23
REMARK H PARENT 1 18 18 20 11 22 14 24
REMARK Flexibility Score: inf
ROOT
ATOM      1  C   UNL     1       9.840  13.065  24.003  1.00  0.00     0.401 A 
ATOM      2  O   UNL     1       9.356  12.892  25.231  1.00  0.00    -0.202 OA
ATOM      3  C   UNL     1       9.132  11.697  25.765  1.00  0.00     0.368 A 
ATOM      4  C   UNL     1       8.625  11.616  27.065  1.00  0.00     0.162 A 
ATOM      5  C   UNL     1       8.381  10.374  27.652  1.00  0.00     0.128 A 
ATOM      6  C   UNL     1       8.648   9.201  26.936  1.00  0.00     0.093 A 
ATOM      7  C   UNL     1       9.157   9.255  25.632  1.00  0.00     0.136 A 
ATOM      8  C   UNL     1       9.402  10.516  25.031  1.00  0.00     0.125 A 
ATOM      9  C   UNL     1       9.898  10.665  23.726  1.00  0.00     0.078 A 
ATOM     10  C   UNL     1      10.111  11.943  23.199  1.00  0.00     0.223 A 
ENDROOT
BRANCH   1  11
ATOM     11  C   UNL     1      10.057  14.449  23.526  1.00  0.00     0.084 A 
ATOM     12  C   UNL     1       9.726  14.833  22.212  1.00  0.00     0.022 A 
ATOM     13  C   UNL     1       9.962  16.141  21.777  1.00  0.00     0.047 A 
ATOM     14  C   UNL     1      10.541  17.076  22.639  1.00  0.00     0.115 A 
ATOM     15  C   UNL     1      10.657  15.390  24.380  1.00  0.00     0.022 A 
ATOM     16  C   UNL     1      10.890  16.697  23.942  1.00  0.00     0.047 A 
BRANCH  14  17
ATOM     17  O   UNL     1      10.767  18.375  22.192  1.00  0.00    -0.508 OA
ATOM     18  H   UNL     1      10.622  19.176  22.796  1.00  0.00     0.293 HD
ENDBRANCH  14  17
ENDBRANCH   1  11
BRANCH  10  19
ATOM     19  O   UNL     1      10.555  12.093  21.885  1.00  0.00    -0.500 OA
ATOM     20  H   UNL     1      11.154  11.405  21.444  1.00  0.00     0.294 HD
ENDBRANCH  10  19
BRANCH   5  21
ATOM     21  O   UNL     1       7.876  10.316  28.948  1.00  0.00    -0.507 OA
ATOM     22  H   UNL     1       7.142   9.663  29.203  1.00  0.00     0.293 HD
ENDBRANCH   5  21
BRANCH   7  23
ATOM     23  O   UNL     1       9.398   8.039  24.986  1.00  0.00    -0.507 OA
ATOM     24  H   UNL     1      10.302   7.742  24.649  1.00  0.00     0.293 HD
ENDBRANCH   7  23
TORSDOF 5
ENDMDL
MODEL 8
REMARK VINA RESULT:    -5.712     15.103     16.289
REMARK INTER + INTRA:          -6.435
REMARK INTER:                  -6.171
REMARK INTRA:                  -0.263
REMARK UNBOUND:                 0.279
REMARK SMILES Oc1ccc(-c2[o+]c3cc(O)cc(O)c3cc2O)cc1
REMARK SMILES IDX 6 1 7 2 8 3 9 4 10 5 12 6 13 7 15 8 16 9 17 10 5 11 4 12
REMARK SMILES IDX 3 13 2 14 19 15 20 16 1 17 18 19 11 21 14 23
REMARK H PARENT 1 18 18 20 11 22 14 24
REMARK Flexibility Score: inf
ROOT
ATOM      1  C   UNL     1      23.714   7.780  28.878  1.00  0.00     0.401 A 
ATOM      2  O   UNL     1      23.007   7.020  29.711  1.00  0.00    -0.202 OA
ATOM      3  C   UNL     1      22.952   5.696  29.623  1.00  0.00     0.368 A 
ATOM      4  C   UNL     1      22.183   4.983  30.548  1.00  0.00     0.162 A 
ATOM      5  C   UNL     1      22.110   3.592  30.480  1.00  0.00     0.128 A 
ATOM      6  C   UNL     1      22.810   2.904  29.483  1.00  0.00     0.093 A 
ATOM      7  C   UNL     1      23.588   3.595  28.545  1.00  0.00     0.136 A 
ATOM      8  C   UNL     1      23.663   5.010  28.608  1.00  0.00     0.125 A 
ATOM      9  C   UNL     1      24.406   5.785  27.703  1.00  0.00     0.078 A 
ATOM     10  C   UNL     1      24.428   7.178  27.826  1.00  0.00     0.223 A 
ENDROOT
BRANCH   1  11
ATOM     11  C   UNL     1      23.703   9.245  29.087  1.00  0.00     0.084 A 
ATOM     12  C   UNL     1      22.942  10.098  28.265  1.00  0.00     0.022 A 
ATOM     13  C   UNL     1      22.965  11.481  28.467  1.00  0.00     0.047 A 
ATOM     14  C   UNL     1      23.756  12.031  29.479  1.00  0.00     0.115 A 
ATOM     15  C   UNL     1      24.511   9.807  30.089  1.00  0.00     0.022 A 
ATOM     16  C   UNL     1      24.532  11.191  30.290  1.00  0.00     0.047 A 
BRANCH  14  17
ATOM     17  O   UNL     1      23.768  13.411  29.670  1.00  0.00    -0.508 OA
ATOM     18  H   UNL     1      24.336  14.020  29.093  1.00  0.00     0.293 HD
ENDBRANCH  14  17
ENDBRANCH   1  11
BRANCH  10  19
ATOM     19  O   UNL     1      25.125   7.951  26.896  1.00  0.00    -0.500 OA
ATOM     20  H   UNL     1      26.077   8.254  27.064  1.00  0.00     0.294 HD
ENDBRANCH  10  19
BRANCH   5  21
ATOM     21  O   UNL     1      21.338   2.900  31.411  1.00  0.00    -0.507 OA
ATOM     22  H   UNL     1      21.658   2.031  31.824  1.00  0.00     0.293 HD
ENDBRANCH   5  21
BRANCH   7  23
ATOM     23  O   UNL     1      24.260   2.835  27.583  1.00  0.00    -0.507 OA
ATOM     24  H   UNL     1      24.864   3.220  26.872  1.00  0.00     0.293 HD
ENDBRANCH   7  23
TORSDOF 5
ENDMDL
MODEL 9
REMARK VINA RESULT:    -5.665      4.370      6.360
REMARK INTER + INTRA:          -6.380
REMARK INTER:                  -6.395
REMARK INTRA:                   0.015
REMARK UNBOUND:                 0.279
REMARK SMILES Oc1ccc(-c2[o+]c3cc(O)cc(O)c3cc2O)cc1
REMARK SMILES IDX 6 1 7 2 8 3 9 4 10 5 12 6 13 7 15 8 16 9 17 10 5 11 4 12
REMARK SMILES IDX 3 13 2 14 19 15 20 16 1 17 18 19 11 21 14 23
REMARK H PARENT 1 18 18 20 11 22 14 24
REMARK Flexibility Score: inf
ROOT
ATOM      1  C   UNL     1       9.824  17.127  22.813  1.00  0.00     0.401 A 
ATOM      2  O   UNL     1      10.064  16.826  24.088  1.00  0.00    -0.202 OA
ATOM      3  C   UNL     1       9.828  17.662  25.092  1.00  0.00     0.368 A 
ATOM      4  C   UNL     1      10.110  17.252  26.399  1.00  0.00     0.162 A 
ATOM      5  C   UNL     1       9.870  18.109  27.473  1.00  0.00     0.128 A 
ATOM      6  C   UNL     1       9.343  19.385  27.243  1.00  0.00     0.093 A 
ATOM      7  C   UNL     1       9.052  19.819  25.944  1.00  0.00     0.136 A 
ATOM      8  C   UNL     1       9.298  18.952  24.848  1.00  0.00     0.125 A 
ATOM      9  C   UNL     1       9.049  19.306  23.513  1.00  0.00     0.078 A 
ATOM     10  C   UNL     1       9.321  18.399  22.484  1.00  0.00     0.223 A 
ENDROOT
BRANCH   1  11
ATOM     11  C   UNL     1      10.119  16.104  21.785  1.00  0.00     0.084 A 
ATOM     12  C   UNL     1       9.647  14.784  21.905  1.00  0.00     0.022 A 
ATOM     13  C   UNL     1       9.958  13.830  20.932  1.00  0.00     0.047 A 
ATOM     14  C   UNL     1      10.755  14.176  19.837  1.00  0.00     0.115 A 
ATOM     15  C   UNL     1      10.936  16.439  20.691  1.00  0.00     0.022 A 
ATOM     16  C   UNL     1      11.245  15.483  19.719  1.00  0.00     0.047 A 
BRANCH  14  17
ATOM     17  O   UNL     1      11.055  13.215  18.874  1.00  0.00    -0.508 OA
ATOM     18  H   UNL     1      11.334  12.276  19.133  1.00  0.00     0.293 HD
ENDBRANCH  14  17
ENDBRANCH   1  11
BRANCH  10  19
ATOM     19  O   UNL     1       9.121  18.769  21.153  1.00  0.00    -0.500 OA
ATOM     20  H   UNL     1       8.264  18.546  20.661  1.00  0.00     0.294 HD
ENDBRANCH  10  19
BRANCH   5  21
ATOM     21  O   UNL     1      10.158  17.682  28.768  1.00  0.00    -0.507 OA
ATOM     22  H   UNL     1      10.217  16.696  29.000  1.00  0.00     0.293 HD
ENDBRANCH   5  21
BRANCH   7  23
ATOM     23  O   UNL     1       8.525  21.105  25.799  1.00  0.00    -0.507 OA
ATOM     24  H   UNL     1       8.915  21.816  25.197  1.00  0.00     0.293 HD
ENDBRANCH   7  23
TORSDOF 5
ENDMDL
