MODEL 1
REMARK VINA RESULT:    -3.896      0.000      0.000
REMARK INTER + INTRA:          -6.994
REMARK INTER:                  -5.946
REMARK INTRA:                  -1.048
REMARK UNBOUND:                -1.048
REMARK SMILES O=C([O-])CCCCCCCCC(=O)[O-]
REMARK SMILES IDX 7 1 6 2 5 3 4 4 2 5 1 6 3 7 8 8 9 9 10 10 11 11 12 12 13 13
REMARK SMILES IDX 14 14
REMARK H PARENT
REMARK Flexibility Score: inf
ROOT
ATOM      1  C   UNL     1      17.123 -37.781  -2.386  1.00  0.00     0.000 C 
ENDROOT
BRANCH   1   2
ATOM      2  C   UNL     1      17.859 -36.437  -2.285  1.00  0.00     0.000 C 
BRANCH   2   3
ATOM      3  C   UNL     1      16.900 -35.248  -2.115  1.00  0.00     0.006 C 
BRANCH   3   4
ATOM      4  C   UNL     1      17.377 -34.249  -1.052  1.00  0.00     0.053 C 
BRANCH   4   5
ATOM      5  C   UNL     1      17.184 -34.816   0.319  1.00  0.00     0.041 C 
ATOM      6  O   UNL     1      18.177 -35.036   1.060  1.00  0.00    -0.550 OA
ATOM      7  O   UNL     1      15.902 -35.054   0.797  1.00  0.00    -0.550 OA
ENDBRANCH   4   5
ENDBRANCH   3   4
ENDBRANCH   2   3
ENDBRANCH   1   2
BRANCH   1   8
ATOM      8  C   UNL     1      15.649 -37.633  -1.986  1.00  0.00     0.000 C 
BRANCH   8   9
ATOM      9  C   UNL     1      15.410 -38.156  -0.563  1.00  0.00     0.000 C 
BRANCH   9  10
ATOM     10  C   UNL     1      16.601 -38.963  -0.020  1.00  0.00     0.006 C 
BRANCH  10  11
ATOM     11  C   UNL     1      17.105 -38.436   1.330  1.00  0.00     0.053 C 
BRANCH  11  12
ATOM     12  C   UNL     1      18.574 -38.675   1.468  1.00  0.00     0.041 C 
ATOM     13  O   UNL     1      19.017 -39.371   2.419  1.00  0.00    -0.550 OA
ATOM     14  O   UNL     1      19.454 -38.171   0.518  1.00  0.00    -0.550 OA
ENDBRANCH  11  12
ENDBRANCH  10  11
ENDBRANCH   9  10
ENDBRANCH   8   9
ENDBRANCH   1   8
TORSDOF 9
ENDMDL
MODEL 2
REMARK VINA RESULT:    -3.880      2.768      6.062
REMARK INTER + INTRA:          -6.969
REMARK INTER:                  -6.585
REMARK INTRA:                  -0.383
REMARK UNBOUND:                -1.048
REMARK SMILES O=C([O-])CCCCCCCCC(=O)[O-]
REMARK SMILES IDX 7 1 6 2 5 3 4 4 2 5 1 6 3 7 8 8 9 9 10 10 11 11 12 12 13 13
REMARK SMILES IDX 14 14
REMARK H PARENT
REMARK Flexibility Score: inf
ROOT
ATOM      1  C   UNL     1      17.087 -35.250  -1.254  1.00  0.00     0.000 C 
ENDROOT
BRANCH   1   2
ATOM      2  C   UNL     1      17.140 -36.399  -2.273  1.00  0.00     0.000 C 
BRANCH   2   3
ATOM      3  C   UNL     1      18.039 -37.557  -1.813  1.00  0.00     0.006 C 
BRANCH   3   4
ATOM      4  C   UNL     1      17.424 -38.361  -0.659  1.00  0.00     0.053 C 
BRANCH   4   5
ATOM      5  C   UNL     1      18.494 -38.840   0.271  1.00  0.00     0.041 C 
ATOM      6  O   UNL     1      18.485 -40.027   0.689  1.00  0.00    -0.550 OA
ATOM      7  O   UNL     1      19.529 -37.989   0.636  1.00  0.00    -0.550 OA
ENDBRANCH   4   5
ENDBRANCH   3   4
ENDBRANCH   2   3
ENDBRANCH   1   2
BRANCH   1   8
ATOM      8  C   UNL     1      17.480 -33.918  -1.906  1.00  0.00     0.000 C 
BRANCH   8   9
ATOM      9  C   UNL     1      16.241 -33.061  -2.198  1.00  0.00     0.000 C 
BRANCH   9  10
ATOM     10  C   UNL     1      15.000 -33.530  -1.421  1.00  0.00     0.006 C 
BRANCH  10  11
ATOM     11  C   UNL     1      13.738 -32.741  -1.794  1.00  0.00     0.053 C 
BRANCH  11  12
ATOM     12  C   UNL     1      13.565 -31.570  -0.879  1.00  0.00     0.041 C 
ATOM     13  O   UNL     1      13.552 -30.400  -1.343  1.00  0.00    -0.550 OA
ATOM     14  O   UNL     1      13.365 -31.773   0.481  1.00  0.00    -0.550 OA
ENDBRANCH  11  12
ENDBRANCH  10  11
ENDBRANCH   9  10
ENDBRANCH   8   9
ENDBRANCH   1   8
TORSDOF 9
ENDMDL
MODEL 3
REMARK VINA RESULT:    -3.809      2.222      3.391
REMARK INTER + INTRA:          -6.861
REMARK INTER:                  -6.063
REMARK INTRA:                  -0.798
REMARK UNBOUND:                -1.048
REMARK SMILES O=C([O-])CCCCCCCCC(=O)[O-]
REMARK SMILES IDX 7 1 6 2 5 3 4 4 2 5 1 6 3 7 8 8 9 9 10 10 11 11 12 12 13 13
REMARK SMILES IDX 14 14
REMARK H PARENT
REMARK Flexibility Score: inf
ROOT
ATOM      1  C   UNL     1      16.794 -36.150  -2.120  1.00  0.00     0.000 C 
ENDROOT
BRANCH   1   2
ATOM      2  C   UNL     1      17.424 -34.750  -2.060  1.00  0.00     0.000 C 
BRANCH   2   3
ATOM      3  C   UNL     1      16.491 -33.708  -1.421  1.00  0.00     0.006 C 
BRANCH   3   4
ATOM      4  C   UNL     1      15.666 -32.937  -2.460  1.00  0.00     0.053 C 
BRANCH   4   5
ATOM      5  C   UNL     1      14.208 -33.218  -2.280  1.00  0.00     0.041 C 
ATOM      6  O   UNL     1      13.744 -34.356  -2.551  1.00  0.00    -0.550 OA
ATOM      7  O   UNL     1      13.370 -32.236  -1.766  1.00  0.00    -0.550 OA
ENDBRANCH   4   5
ENDBRANCH   3   4
ENDBRANCH   2   3
ENDBRANCH   1   2
BRANCH   1   8
ATOM      8  C   UNL     1      17.874 -37.239  -2.117  1.00  0.00     0.000 C 
BRANCH   8   9
ATOM      9  C   UNL     1      17.775 -38.109  -0.856  1.00  0.00     0.000 C 
BRANCH   9  10
ATOM     10  C   UNL     1      18.504 -37.491   0.349  1.00  0.00     0.006 C 
BRANCH  10  11
ATOM     11  C   UNL     1      17.561 -37.202   1.524  1.00  0.00     0.053 C 
BRANCH  11  12
ATOM     12  C   UNL     1      17.177 -35.757   1.541  1.00  0.00     0.041 C 
ATOM     13  O   UNL     1      18.059 -34.865   1.439  1.00  0.00    -0.550 OA
ATOM     14  O   UNL     1      15.837 -35.393   1.617  1.00  0.00    -0.550 OA
ENDBRANCH  11  12
ENDBRANCH  10  11
ENDBRANCH   9  10
ENDBRANCH   8   9
ENDBRANCH   1   8
TORSDOF 9
ENDMDL
MODEL 4
REMARK VINA RESULT:    -3.794      2.065      2.748
REMARK INTER + INTRA:          -6.839
REMARK INTER:                  -6.381
REMARK INTRA:                  -0.458
REMARK UNBOUND:                -1.048
REMARK SMILES O=C([O-])CCCCCCCCC(=O)[O-]
REMARK SMILES IDX 7 1 6 2 5 3 4 4 2 5 1 6 3 7 8 8 9 9 10 10 11 11 12 12 13 13
REMARK SMILES IDX 14 14
REMARK H PARENT
REMARK Flexibility Score: inf
ROOT
ATOM      1  C   UNL     1      16.664 -35.286  -1.925  1.00  0.00     0.000 C 
ENDROOT
BRANCH   1   2
ATOM      2  C   UNL     1      17.020 -33.802  -1.749  1.00  0.00     0.000 C 
BRANCH   2   3
ATOM      3  C   UNL     1      15.864 -32.866  -2.135  1.00  0.00     0.006 C 
BRANCH   3   4
ATOM      4  C   UNL     1      14.486 -33.487  -1.870  1.00  0.00     0.053 C 
BRANCH   4   5
ATOM      5  C   UNL     1      13.979 -33.077  -0.523  1.00  0.00     0.041 C 
ATOM      6  O   UNL     1      13.945 -33.908   0.422  1.00  0.00    -0.550 OA
ATOM      7  O   UNL     1      13.593 -31.762  -0.298  1.00  0.00    -0.550 OA
ENDBRANCH   4   5
ENDBRANCH   3   4
ENDBRANCH   2   3
ENDBRANCH   1   2
BRANCH   1   8
ATOM      8  C   UNL     1      17.865 -36.082  -2.451  1.00  0.00     0.000 C 
BRANCH   8   9
ATOM      9  C   UNL     1      17.853 -37.519  -1.911  1.00  0.00     0.000 C 
BRANCH   9  10
ATOM     10  C   UNL     1      16.758 -37.746  -0.856  1.00  0.00     0.006 C 
BRANCH  10  11
ATOM     11  C   UNL     1      17.299 -37.691   0.579  1.00  0.00     0.053 C 
BRANCH  11  12
ATOM     12  C   UNL     1      18.550 -38.501   0.695  1.00  0.00     0.041 C 
ATOM     13  O   UNL     1      18.506 -39.755   0.590  1.00  0.00    -0.550 OA
ATOM     14  O   UNL     1      19.775 -37.868   0.869  1.00  0.00    -0.550 OA
ENDBRANCH  11  12
ENDBRANCH  10  11
ENDBRANCH   9  10
ENDBRANCH   8   9
ENDBRANCH   1   8
TORSDOF 9
ENDMDL
MODEL 5
REMARK VINA RESULT:    -3.779      1.948      5.104
REMARK INTER + INTRA:          -6.816
REMARK INTER:                  -6.093
REMARK INTRA:                  -0.723
REMARK UNBOUND:                -1.048
REMARK SMILES O=C([O-])CCCCCCCCC(=O)[O-]
REMARK SMILES IDX 7 1 6 2 5 3 4 4 2 5 1 6 3 7 8 8 9 9 10 10 11 11 12 12 13 13
REMARK SMILES IDX 14 14
REMARK H PARENT
REMARK Flexibility Score: inf
ROOT
ATOM      1  C   UNL     1      16.590 -36.496  -2.138  1.00  0.00     0.000 C 
ENDROOT
BRANCH   1   2
ATOM      2  C   UNL     1      17.183 -37.899  -1.936  1.00  0.00     0.000 C 
BRANCH   2   3
ATOM      3  C   UNL     1      16.551 -38.643  -0.749  1.00  0.00     0.006 C 
BRANCH   3   4
ATOM      4  C   UNL     1      17.590 -39.108   0.280  1.00  0.00     0.053 C 
BRANCH   4   5
ATOM      5  C   UNL     1      18.366 -37.940   0.802  1.00  0.00     0.041 C 
ATOM      6  O   UNL     1      19.624 -37.944   0.757  1.00  0.00    -0.550 OA
ATOM      7  O   UNL     1      17.697 -36.825   1.291  1.00  0.00    -0.550 OA
ENDBRANCH   4   5
ENDBRANCH   3   4
ENDBRANCH   2   3
ENDBRANCH   1   2
BRANCH   1   8
ATOM      8  C   UNL     1      17.682 -35.421  -2.061  1.00  0.00     0.000 C 
BRANCH   8   9
ATOM      9  C   UNL     1      17.178 -34.179  -1.314  1.00  0.00     0.000 C 
BRANCH   9  10
ATOM     10  C   UNL     1      16.469 -33.177  -2.240  1.00  0.00     0.006 C 
BRANCH  10  11
ATOM     11  C   UNL     1      15.156 -32.650  -1.646  1.00  0.00     0.053 C 
BRANCH  11  12
ATOM     12  C   UNL     1      14.162 -33.759  -1.512  1.00  0.00     0.041 C 
ATOM     13  O   UNL     1      13.734 -34.354  -2.536  1.00  0.00    -0.550 OA
ATOM     14  O   UNL     1      13.745 -34.171  -0.252  1.00  0.00    -0.550 OA
ENDBRANCH  11  12
ENDBRANCH  10  11
ENDBRANCH   9  10
ENDBRANCH   8   9
ENDBRANCH   1   8
TORSDOF 9
ENDMDL
MODEL 6
REMARK VINA RESULT:    -3.774      2.518      5.301
REMARK INTER + INTRA:          -6.807
REMARK INTER:                  -6.089
REMARK INTRA:                  -0.718
REMARK UNBOUND:                -1.048
REMARK SMILES O=C([O-])CCCCCCCCC(=O)[O-]
REMARK SMILES IDX 7 1 6 2 5 3 4 4 2 5 1 6 3 7 8 8 9 9 10 10 11 11 12 12 13 13
REMARK SMILES IDX 14 14
REMARK H PARENT
REMARK Flexibility Score: inf
ROOT
ATOM      1  C   UNL     1      17.323 -35.078  -1.415  1.00  0.00     0.000 C 
ENDROOT
BRANCH   1   2
ATOM      2  C   UNL     1      17.756 -36.182  -2.392  1.00  0.00     0.000 C 
BRANCH   2   3
ATOM      3  C   UNL     1      17.586 -37.592  -1.805  1.00  0.00     0.006 C 
BRANCH   3   4
ATOM      4  C   UNL     1      17.302 -37.575  -0.297  1.00  0.00     0.053 C 
BRANCH   4   5
ATOM      5  C   UNL     1      18.367 -38.319   0.443  1.00  0.00     0.041 C 
ATOM      6  O   UNL     1      19.444 -38.625  -0.134  1.00  0.00    -0.550 OA
ATOM      7  O   UNL     1      18.192 -38.632   1.785  1.00  0.00    -0.550 OA
ENDBRANCH   4   5
ENDBRANCH   3   4
ENDBRANCH   2   3
ENDBRANCH   1   2
BRANCH   1   8
ATOM      8  C   UNL     1      17.330 -33.704  -2.099  1.00  0.00     0.000 C 
BRANCH   8   9
ATOM      9  C   UNL     1      15.920 -33.098  -2.130  1.00  0.00     0.000 C 
BRANCH   9  10
ATOM     10  C   UNL     1      15.033 -33.601  -0.979  1.00  0.00     0.006 C 
BRANCH  10  11
ATOM     11  C   UNL     1      13.565 -33.768  -1.395  1.00  0.00     0.053 C 
BRANCH  11  12
ATOM     12  C   UNL     1      13.447 -34.757  -2.509  1.00  0.00     0.041 C 
ATOM     13  O   UNL     1      12.878 -34.435  -3.585  1.00  0.00    -0.550 OA
ATOM     14  O   UNL     1      14.011 -36.021  -2.381  1.00  0.00    -0.550 OA
ENDBRANCH  11  12
ENDBRANCH  10  11
ENDBRANCH   9  10
ENDBRANCH   8   9
ENDBRANCH   1   8
TORSDOF 9
ENDMDL
MODEL 7
REMARK VINA RESULT:    -3.766      2.336      5.126
REMARK INTER + INTRA:          -6.795
REMARK INTER:                  -6.139
REMARK INTRA:                  -0.656
REMARK UNBOUND:                -1.048
REMARK SMILES O=C([O-])CCCCCCCCC(=O)[O-]
REMARK SMILES IDX 7 1 6 2 5 3 4 4 2 5 1 6 3 7 8 8 9 9 10 10 11 11 12 12 13 13
REMARK SMILES IDX 14 14
REMARK H PARENT
REMARK Flexibility Score: inf
ROOT
ATOM      1  C   UNL     1      18.061 -37.072  -2.064  1.00  0.00     0.000 C 
ENDROOT
BRANCH   1   2
ATOM      2  C   UNL     1      17.899 -37.941  -0.808  1.00  0.00     0.000 C 
BRANCH   2   3
ATOM      3  C   UNL     1      18.301 -37.203   0.479  1.00  0.00     0.006 C 
BRANCH   3   4
ATOM      4  C   UNL     1      17.089 -36.743   1.300  1.00  0.00     0.053 C 
BRANCH   4   5
ATOM      5  C   UNL     1      17.342 -35.393   1.892  1.00  0.00     0.041 C 
ATOM      6  O   UNL     1      16.712 -35.021   2.917  1.00  0.00    -0.550 OA
ATOM      7  O   UNL     1      18.311 -34.563   1.342  1.00  0.00    -0.550 OA
ENDBRANCH   4   5
ENDBRANCH   3   4
ENDBRANCH   2   3
ENDBRANCH   1   2
BRANCH   1   8
ATOM      8  C   UNL     1      16.908 -36.068  -2.193  1.00  0.00     0.000 C 
BRANCH   8   9
ATOM      9  C   UNL     1      17.417 -34.626  -2.073  1.00  0.00     0.000 C 
BRANCH   9  10
ATOM     10  C   UNL     1      16.430 -33.709  -1.331  1.00  0.00     0.006 C 
BRANCH  10  11
ATOM     11  C   UNL     1      15.636 -32.804  -2.282  1.00  0.00     0.053 C 
BRANCH  11  12
ATOM     12  C   UNL     1      14.175 -33.107  -2.192  1.00  0.00     0.041 C 
ATOM     13  O   UNL     1      13.580 -33.653  -3.159  1.00  0.00    -0.550 OA
ATOM     14  O   UNL     1      13.477 -32.836  -1.021  1.00  0.00    -0.550 OA
ENDBRANCH  11  12
ENDBRANCH  10  11
ENDBRANCH   9  10
ENDBRANCH   8   9
ENDBRANCH   1   8
TORSDOF 9
ENDMDL
MODEL 8
REMARK VINA RESULT:    -3.747      2.107      3.311
REMARK INTER + INTRA:          -6.767
REMARK INTER:                  -5.965
REMARK INTRA:                  -0.802
REMARK UNBOUND:                -1.048
REMARK SMILES O=C([O-])CCCCCCCCC(=O)[O-]
REMARK SMILES IDX 7 1 6 2 5 3 4 4 2 5 1 6 3 7 8 8 9 9 10 10 11 11 12 12 13 13
REMARK SMILES IDX 14 14
REMARK H PARENT
REMARK Flexibility Score: inf
ROOT
ATOM      1  C   UNL     1      17.412 -33.739  -1.905  1.00  0.00     0.000 C 
ENDROOT
BRANCH   1   2
ATOM      2  C   UNL     1      16.010 -33.219  -2.256  1.00  0.00     0.000 C 
BRANCH   2   3
ATOM      3  C   UNL     1      14.935 -33.701  -1.268  1.00  0.00     0.006 C 
BRANCH   3   4
ATOM      4  C   UNL     1      13.796 -34.463  -1.958  1.00  0.00     0.053 C 
BRANCH   4   5
ATOM      5  C   UNL     1      13.843 -35.913  -1.595  1.00  0.00     0.041 C 
ATOM      6  O   UNL     1      13.748 -36.269  -0.391  1.00  0.00    -0.550 OA
ATOM      7  O   UNL     1      13.941 -36.876  -2.592  1.00  0.00    -0.550 OA
ENDBRANCH   4   5
ENDBRANCH   3   4
ENDBRANCH   2   3
ENDBRANCH   1   2
BRANCH   1   8
ATOM      8  C   UNL     1      17.344 -35.156  -1.321  1.00  0.00     0.000 C 
BRANCH   8   9
ATOM      9  C   UNL     1      17.791 -36.199  -2.354  1.00  0.00     0.000 C 
BRANCH   9  10
ATOM     10  C   UNL     1      17.438 -37.636  -1.936  1.00  0.00     0.006 C 
BRANCH  10  11
ATOM     11  C   UNL     1      17.124 -37.755  -0.439  1.00  0.00     0.053 C 
BRANCH  11  12
ATOM     12  C   UNL     1      18.309 -38.287   0.302  1.00  0.00     0.041 C 
ATOM     13  O   UNL     1      19.359 -38.597  -0.320  1.00  0.00    -0.550 OA
ATOM     14  O   UNL     1      18.274 -38.392   1.687  1.00  0.00    -0.550 OA
ENDBRANCH  11  12
ENDBRANCH  10  11
ENDBRANCH   9  10
ENDBRANCH   8   9
ENDBRANCH   1   8
TORSDOF 9
ENDMDL
MODEL 9
REMARK VINA RESULT:    -3.678      2.045      4.594
REMARK INTER + INTRA:          -6.661
REMARK INTER:                  -5.780
REMARK INTRA:                  -0.880
REMARK UNBOUND:                -1.048
REMARK SMILES O=C([O-])CCCCCCCCC(=O)[O-]
REMARK SMILES IDX 7 1 6 2 5 3 4 4 2 5 1 6 3 7 8 8 9 9 10 10 11 11 12 12 13 13
REMARK SMILES IDX 14 14
REMARK H PARENT
REMARK Flexibility Score: inf
ROOT
ATOM      1  C   UNL     1      17.801 -34.878   0.456  1.00  0.00     0.000 C 
ENDROOT
BRANCH   1   2
ATOM      2  C   UNL     1      16.758 -35.571   1.346  1.00  0.00     0.000 C 
BRANCH   2   3
ATOM      3  C   UNL     1      17.296 -36.854   1.999  1.00  0.00     0.006 C 
BRANCH   3   4
ATOM      4  C   UNL     1      17.099 -38.094   1.117  1.00  0.00     0.053 C 
BRANCH   4   5
ATOM      5  C   UNL     1      18.417 -38.734   0.814  1.00  0.00     0.041 C 
ATOM      6  O   UNL     1      18.482 -39.968   0.573  1.00  0.00    -0.550 OA
ATOM      7  O   UNL     1      19.567 -37.958   0.749  1.00  0.00    -0.550 OA
ENDBRANCH   4   5
ENDBRANCH   3   4
ENDBRANCH   2   3
ENDBRANCH   1   2
BRANCH   1   8
ATOM      8  C   UNL     1      17.139 -34.241  -0.773  1.00  0.00     0.000 C 
BRANCH   8   9
ATOM      9  C   UNL     1      17.606 -34.924  -2.065  1.00  0.00     0.000 C 
BRANCH   9  10
ATOM     10  C   UNL     1      17.143 -36.388  -2.163  1.00  0.00     0.006 C 
BRANCH  10  11
ATOM     11  C   UNL     1      15.620 -36.534  -2.046  1.00  0.00     0.053 C 
BRANCH  11  12
ATOM     12  C   UNL     1      15.207 -37.940  -2.340  1.00  0.00     0.041 C 
ATOM     13  O   UNL     1      16.071 -38.853  -2.412  1.00  0.00    -0.550 OA
ATOM     14  O   UNL     1      13.861 -38.255  -2.484  1.00  0.00    -0.550 OA
ENDBRANCH  11  12
ENDBRANCH  10  11
ENDBRANCH   9  10
ENDBRANCH   8   9
ENDBRANCH   1   8
TORSDOF 9
ENDMDL
