MODEL 1
REMARK VINA RESULT:    -9.998      0.000      0.000
REMARK INTER + INTRA:         -12.039
REMARK INTER:                 -11.752
REMARK INTRA:                  -0.287
REMARK UNBOUND:                -0.287
REMARK SMILES O=c1cc(-c2ccc(O)c(O)c2)oc2cc(O)cc(O)c12
REMARK SMILES IDX 4 1 3 2 2 3 1 4 21 5 19 6 18 7 16 8 15 9 14 10 13 11 5 12
REMARK SMILES IDX 6 13 7 14 8 15 12 16 10 17 9 18 11 20 20 22 17 24
REMARK H PARENT 9 19 11 21 20 23 17 25
REMARK Flexibility Score: inf
ROOT
ATOM      1  C   UNL     1     118.995 119.054 123.043  1.00  0.00     0.138 A 
ATOM      2  C   UNL     1     119.257 117.897 122.292  1.00  0.00     0.100 A 
ATOM      3  C   UNL     1     119.569 118.015 120.936  1.00  0.00     0.197 A 
ATOM      4  O   UNL     1     119.802 116.969 120.270  1.00  0.00    -0.289 OA
ATOM      5  C   UNL     1     119.612 119.290 120.340  1.00  0.00     0.107 A 
ATOM      6  C   UNL     1     119.921 119.498 118.975  1.00  0.00     0.134 A 
ATOM      7  C   UNL     1     119.939 120.801 118.457  1.00  0.00     0.093 A 
ATOM      8  C   UNL     1     119.653 121.899 119.278  1.00  0.00     0.123 A 
ATOM      9  C   UNL     1     119.348 121.698 120.625  1.00  0.00     0.094 A 
ATOM     10  C   UNL     1     119.327 120.407 121.161  1.00  0.00     0.146 A 
ATOM     11  O   UNL     1     119.035 120.244 122.448  1.00  0.00    -0.456 OA
ENDROOT
BRANCH   1  12
ATOM     12  C   UNL     1     118.657 118.990 124.487  1.00  0.00     0.021 A 
ATOM     13  C   UNL     1     117.837 119.955 125.099  1.00  0.00     0.016 A 
ATOM     14  C   UNL     1     117.529 119.863 126.457  1.00  0.00     0.051 A 
ATOM     15  C   UNL     1     118.021 118.809 127.233  1.00  0.00     0.157 A 
ATOM     16  C   UNL     1     119.141 117.924 125.265  1.00  0.00     0.062 A 
ATOM     17  C   UNL     1     118.837 117.824 126.628  1.00  0.00     0.158 A 
BRANCH  15  18
ATOM     18  O   UNL     1     117.677 118.778 128.586  1.00  0.00    -0.504 OA
ATOM     19  H   UNL     1     116.748 118.958 128.937  1.00  0.00     0.293 HD
ENDBRANCH  15  18
BRANCH  17  20
ATOM     20  O   UNL     1     119.362 116.741 127.336  1.00  0.00    -0.504 OA
ATOM     21  H   UNL     1     118.842 116.207 128.018  1.00  0.00     0.293 HD
ENDBRANCH  17  20
ENDBRANCH   1  12
BRANCH   6  22
ATOM     22  O   UNL     1     120.209 118.423 118.133  1.00  0.00    -0.507 OA
ATOM     23  H   UNL     1     119.849 118.375 117.187  1.00  0.00     0.293 HD
ENDBRANCH   6  22
BRANCH   8  24
ATOM     24  O   UNL     1     119.670 123.194 118.763  1.00  0.00    -0.508 OA
ATOM     25  H   UNL     1     119.687 123.367 117.765  1.00  0.00     0.293 HD
ENDBRANCH   8  24
TORSDOF 5
ENDMDL
MODEL 2
REMARK VINA RESULT:    -9.996      2.260      3.644
REMARK INTER + INTRA:         -12.036
REMARK INTER:                 -11.749
REMARK INTRA:                  -0.287
REMARK UNBOUND:                -0.287
REMARK SMILES O=c1cc(-c2ccc(O)c(O)c2)oc2cc(O)cc(O)c12
REMARK SMILES IDX 4 1 3 2 2 3 1 4 21 5 19 6 18 7 16 8 15 9 14 10 13 11 5 12
REMARK SMILES IDX 6 13 7 14 8 15 12 16 10 17 9 18 11 20 20 22 17 24
REMARK H PARENT 9 19 11 21 20 23 17 25
REMARK Flexibility Score: inf
ROOT
ATOM      1  C   UNL     1     120.033 119.996 122.994  1.00  0.00     0.138 A 
ATOM      2  C   UNL     1     119.770 121.158 122.250  1.00  0.00     0.100 A 
ATOM      3  C   UNL     1     119.454 121.050 120.895  1.00  0.00     0.197 A 
ATOM      4  O   UNL     1     119.220 122.099 120.236  1.00  0.00    -0.289 OA
ATOM      5  C   UNL     1     119.408 119.778 120.291  1.00  0.00     0.107 A 
ATOM      6  C   UNL     1     119.094 119.578 118.926  1.00  0.00     0.134 A 
ATOM      7  C   UNL     1     119.074 118.278 118.400  1.00  0.00     0.093 A 
ATOM      8  C   UNL     1     119.362 117.176 119.213  1.00  0.00     0.123 A 
ATOM      9  C   UNL     1     119.671 117.368 120.561  1.00  0.00     0.094 A 
ATOM     10  C   UNL     1     119.695 118.656 121.105  1.00  0.00     0.146 A 
ATOM     11  O   UNL     1     119.991 118.810 122.392  1.00  0.00    -0.456 OA
ENDROOT
BRANCH   1  12
ATOM     12  C   UNL     1     120.376 120.052 124.438  1.00  0.00     0.021 A 
ATOM     13  C   UNL     1     121.195 119.081 125.041  1.00  0.00     0.016 A 
ATOM     14  C   UNL     1     121.508 119.165 126.399  1.00  0.00     0.051 A 
ATOM     15  C   UNL     1     121.020 120.215 127.182  1.00  0.00     0.157 A 
ATOM     16  C   UNL     1     119.896 121.114 125.223  1.00  0.00     0.062 A 
ATOM     17  C   UNL     1     120.205 121.205 126.586  1.00  0.00     0.158 A 
BRANCH  15  18
ATOM     18  O   UNL     1     121.368 120.237 128.535  1.00  0.00    -0.504 OA
ATOM     19  H   UNL     1     120.703 120.338 129.288  1.00  0.00     0.293 HD
ENDBRANCH  15  18
BRANCH  17  20
ATOM     20  O   UNL     1     119.684 122.286 127.302  1.00  0.00    -0.504 OA
ATOM     21  H   UNL     1     120.245 123.040 127.671  1.00  0.00     0.293 HD
ENDBRANCH  17  20
ENDBRANCH   1  12
BRANCH   6  22
ATOM     22  O   UNL     1     118.805 120.659 118.092  1.00  0.00    -0.507 OA
ATOM     23  H   UNL     1     119.114 120.685 117.127  1.00  0.00     0.293 HD
ENDBRANCH   6  22
BRANCH   8  24
ATOM     24  O   UNL     1     119.342 115.884 118.691  1.00  0.00    -0.508 OA
ATOM     25  H   UNL     1     118.990 115.695 117.759  1.00  0.00     0.293 HD
ENDBRANCH   8  24
TORSDOF 5
ENDMDL
MODEL 3
REMARK VINA RESULT:    -9.979      2.145      2.571
REMARK INTER + INTRA:         -12.016
REMARK INTER:                 -11.730
REMARK INTRA:                  -0.286
REMARK UNBOUND:                -0.287
REMARK SMILES O=c1cc(-c2ccc(O)c(O)c2)oc2cc(O)cc(O)c12
REMARK SMILES IDX 4 1 3 2 2 3 1 4 21 5 19 6 18 7 16 8 15 9 14 10 13 11 5 12
REMARK SMILES IDX 6 13 7 14 8 15 12 16 10 17 9 18 11 20 20 22 17 24
REMARK H PARENT 9 19 11 21 20 23 17 25
REMARK Flexibility Score: inf
ROOT
ATOM      1  C   UNL     1     119.065 120.026 123.002  1.00  0.00     0.138 A 
ATOM      2  C   UNL     1     117.902 119.763 122.260  1.00  0.00     0.100 A 
ATOM      3  C   UNL     1     118.008 119.449 120.904  1.00  0.00     0.197 A 
ATOM      4  O   UNL     1     116.957 119.215 120.248  1.00  0.00    -0.289 OA
ATOM      5  C   UNL     1     119.278 119.405 120.297  1.00  0.00     0.107 A 
ATOM      6  C   UNL     1     119.475 119.094 118.931  1.00  0.00     0.134 A 
ATOM      7  C   UNL     1     120.773 119.076 118.402  1.00  0.00     0.093 A 
ATOM      8  C   UNL     1     121.878 119.364 119.213  1.00  0.00     0.123 A 
ATOM      9  C   UNL     1     121.688 119.671 120.562  1.00  0.00     0.094 A 
ATOM     10  C   UNL     1     120.402 119.693 121.109  1.00  0.00     0.146 A 
ATOM     11  O   UNL     1     120.250 119.986 122.396  1.00  0.00    -0.456 OA
ENDROOT
BRANCH   1  12
ATOM     12  C   UNL     1     119.013 120.366 124.446  1.00  0.00     0.021 A 
ATOM     13  C   UNL     1     119.966 121.211 125.042  1.00  0.00     0.016 A 
ATOM     14  C   UNL     1     119.886 121.521 126.401  1.00  0.00     0.051 A 
ATOM     15  C   UNL     1     118.856 121.005 127.192  1.00  0.00     0.157 A 
ATOM     16  C   UNL     1     117.971 119.858 125.240  1.00  0.00     0.062 A 
ATOM     17  C   UNL     1     117.883 120.163 126.604  1.00  0.00     0.158 A 
BRANCH  15  18
ATOM     18  O   UNL     1     118.835 121.351 128.545  1.00  0.00    -0.504 OA
ATOM     19  H   UNL     1     119.351 120.861 129.262  1.00  0.00     0.293 HD
ENDBRANCH  15  18
BRANCH  17  20
ATOM     20  O   UNL     1     116.823 119.613 127.328  1.00  0.00    -0.504 OA
ATOM     21  H   UNL     1     116.772 118.643 127.605  1.00  0.00     0.293 HD
ENDBRANCH  17  20
ENDBRANCH   1  12
BRANCH   6  22
ATOM     22  O   UNL     1     118.392 118.805 118.099  1.00  0.00    -0.507 OA
ATOM     23  H   UNL     1     117.450 118.715 118.462  1.00  0.00     0.293 HD
ENDBRANCH   6  22
BRANCH   8  24
ATOM     24  O   UNL     1     123.168 119.347 118.688  1.00  0.00    -0.508 OA
ATOM     25  H   UNL     1     123.979 119.206 119.279  1.00  0.00     0.293 HD
ENDBRANCH   8  24
TORSDOF 5
ENDMDL
MODEL 4
REMARK VINA RESULT:    -9.969      2.135      2.551
REMARK INTER + INTRA:         -12.005
REMARK INTER:                 -11.716
REMARK INTRA:                  -0.289
REMARK UNBOUND:                -0.287
REMARK SMILES O=c1cc(-c2ccc(O)c(O)c2)oc2cc(O)cc(O)c12
REMARK SMILES IDX 4 1 3 2 2 3 1 4 21 5 19 6 18 7 16 8 15 9 14 10 13 11 5 12
REMARK SMILES IDX 6 13 7 14 8 15 12 16 10 17 9 18 11 20 20 22 17 24
REMARK H PARENT 9 19 11 21 20 23 17 25
REMARK Flexibility Score: inf
ROOT
ATOM      1  C   UNL     1     119.933 119.025 123.026  1.00  0.00     0.138 A 
ATOM      2  C   UNL     1     121.099 119.317 122.300  1.00  0.00     0.100 A 
ATOM      3  C   UNL     1     121.001 119.642 120.946  1.00  0.00     0.197 A 
ATOM      4  O   UNL     1     122.054 119.902 120.302  1.00  0.00    -0.289 OA
ATOM      5  C   UNL     1     119.737 119.667 120.326  1.00  0.00     0.107 A 
ATOM      6  C   UNL     1     119.549 119.988 118.961  1.00  0.00     0.134 A 
ATOM      7  C   UNL     1     118.255 119.986 118.418  1.00  0.00     0.093 A 
ATOM      8  C   UNL     1     117.148 119.670 119.214  1.00  0.00     0.123 A 
ATOM      9  C   UNL     1     117.330 119.354 120.562  1.00  0.00     0.094 A 
ATOM     10  C   UNL     1     118.610 119.352 121.122  1.00  0.00     0.146 A 
ATOM     11  O   UNL     1     118.754 119.049 122.409  1.00  0.00    -0.456 OA
ENDROOT
BRANCH   1  12
ATOM     12  C   UNL     1     119.976 118.673 124.468  1.00  0.00     0.021 A 
ATOM     13  C   UNL     1     118.980 117.881 125.066  1.00  0.00     0.016 A 
ATOM     14  C   UNL     1     119.053 117.557 126.422  1.00  0.00     0.051 A 
ATOM     15  C   UNL     1     120.118 118.007 127.209  1.00  0.00     0.157 A 
ATOM     16  C   UNL     1     121.053 119.113 125.256  1.00  0.00     0.062 A 
ATOM     17  C   UNL     1     121.134 118.794 126.617  1.00  0.00     0.158 A 
BRANCH  15  18
ATOM     18  O   UNL     1     120.128 117.650 128.559  1.00  0.00    -0.504 OA
ATOM     19  H   UNL     1     119.527 116.947 128.962  1.00  0.00     0.293 HD
ENDBRANCH  15  18
BRANCH  17  20
ATOM     20  O   UNL     1     122.230 119.276 127.337  1.00  0.00    -0.504 OA
ATOM     21  H   UNL     1     122.274 119.305 128.345  1.00  0.00     0.293 HD
ENDBRANCH  17  20
ENDBRANCH   1  12
BRANCH   6  22
ATOM     22  O   UNL     1     120.634 120.305 118.143  1.00  0.00    -0.507 OA
ATOM     23  H   UNL     1     121.389 120.899 118.466  1.00  0.00     0.293 HD
ENDBRANCH   6  22
BRANCH   8  24
ATOM     24  O   UNL     1     115.863 119.668 118.675  1.00  0.00    -0.508 OA
ATOM     25  H   UNL     1     115.640 119.136 117.841  1.00  0.00     0.293 HD
ENDBRANCH   8  24
TORSDOF 5
ENDMDL
MODEL 5
REMARK VINA RESULT:    -9.759      2.245      2.408
REMARK INTER + INTRA:         -11.757
REMARK INTER:                 -11.481
REMARK INTRA:                  -0.276
REMARK UNBOUND:                -0.287
REMARK SMILES O=c1cc(-c2ccc(O)c(O)c2)oc2cc(O)cc(O)c12
REMARK SMILES IDX 4 1 3 2 2 3 1 4 21 5 19 6 18 7 16 8 15 9 14 10 13 11 5 12
REMARK SMILES IDX 6 13 7 14 8 15 12 16 10 17 9 18 11 20 20 22 17 24
REMARK H PARENT 9 19 11 21 20 23 17 25
REMARK Flexibility Score: inf
ROOT
ATOM      1  C   UNL     1     120.000 119.056 122.402  1.00  0.00     0.138 A 
ATOM      2  C   UNL     1     119.726 117.685 122.264  1.00  0.00     0.100 A 
ATOM      3  C   UNL     1     119.598 117.135 120.987  1.00  0.00     0.197 A 
ATOM      4  O   UNL     1     119.351 115.904 120.874  1.00  0.00    -0.289 OA
ATOM      5  C   UNL     1     119.742 117.962 119.856  1.00  0.00     0.107 A 
ATOM      6  C   UNL     1     119.630 117.487 118.528  1.00  0.00     0.134 A 
ATOM      7  C   UNL     1     119.782 118.377 117.456  1.00  0.00     0.093 A 
ATOM      8  C   UNL     1     120.043 119.733 117.686  1.00  0.00     0.123 A 
ATOM      9  C   UNL     1     120.155 120.206 118.995  1.00  0.00     0.094 A 
ATOM     10  C   UNL     1     120.008 119.335 120.078  1.00  0.00     0.146 A 
ATOM     11  O   UNL     1     120.121 119.811 121.313  1.00  0.00    -0.456 OA
ENDROOT
BRANCH   1  12
ATOM     12  C   UNL     1     120.145 119.695 123.734  1.00  0.00     0.021 A 
ATOM     13  C   UNL     1     119.510 120.910 124.044  1.00  0.00     0.016 A 
ATOM     14  C   UNL     1     119.656 121.483 125.309  1.00  0.00     0.051 A 
ATOM     15  C   UNL     1     120.429 120.857 126.292  1.00  0.00     0.157 A 
ATOM     16  C   UNL     1     120.911 119.061 124.727  1.00  0.00     0.062 A 
ATOM     17  C   UNL     1     121.064 119.628 125.998  1.00  0.00     0.158 A 
BRANCH  15  18
ATOM     18  O   UNL     1     120.538 121.485 127.535  1.00  0.00    -0.504 OA
ATOM     19  H   UNL     1     121.006 122.367 127.684  1.00  0.00     0.293 HD
ENDBRANCH  15  18
BRANCH  17  20
ATOM     20  O   UNL     1     121.848 118.942 126.929  1.00  0.00    -0.504 OA
ATOM     21  H   UNL     1     121.479 118.492 127.755  1.00  0.00     0.293 HD
ENDBRANCH  17  20
ENDBRANCH   1  12
BRANCH   6  22
ATOM     22  O   UNL     1     119.369 116.140 118.269  1.00  0.00    -0.507 OA
ATOM     23  H   UNL     1     118.783 115.851 117.495  1.00  0.00     0.293 HD
ENDBRANCH   6  22
BRANCH   8  24
ATOM     24  O   UNL     1     120.193 120.618 116.621  1.00  0.00    -0.508 OA
ATOM     25  H   UNL     1     119.430 121.209 116.311  1.00  0.00     0.293 HD
ENDBRANCH   8  24
TORSDOF 5
ENDMDL
MODEL 6
REMARK VINA RESULT:    -9.744      2.153      2.574
REMARK INTER + INTRA:         -11.740
REMARK INTER:                 -11.465
REMARK INTRA:                  -0.275
REMARK UNBOUND:                -0.287
REMARK SMILES O=c1cc(-c2ccc(O)c(O)c2)oc2cc(O)cc(O)c12
REMARK SMILES IDX 4 1 3 2 2 3 1 4 21 5 19 6 18 7 16 8 15 9 14 10 13 11 5 12
REMARK SMILES IDX 6 13 7 14 8 15 12 16 10 17 9 18 11 20 20 22 17 24
REMARK H PARENT 9 19 11 21 20 23 17 25
REMARK Flexibility Score: inf
ROOT
ATOM      1  C   UNL     1     120.002 119.972 122.378  1.00  0.00     0.138 A 
ATOM      2  C   UNL     1     121.365 119.660 122.248  1.00  0.00     0.100 A 
ATOM      3  C   UNL     1     121.925 119.540 120.975  1.00  0.00     0.197 A 
ATOM      4  O   UNL     1     123.149 119.258 120.870  1.00  0.00    -0.289 OA
ATOM      5  C   UNL     1     121.114 119.728 119.838  1.00  0.00     0.107 A 
ATOM      6  C   UNL     1     121.601 119.626 118.514  1.00  0.00     0.134 A 
ATOM      7  C   UNL     1     120.727 119.824 117.435  1.00  0.00     0.093 A 
ATOM      8  C   UNL     1     119.376 120.120 117.656  1.00  0.00     0.123 A 
ATOM      9  C   UNL     1     118.893 120.222 118.962  1.00  0.00     0.094 A 
ATOM     10  C   UNL     1     119.748 120.030 120.051  1.00  0.00     0.146 A 
ATOM     11  O   UNL     1     119.261 120.135 121.283  1.00  0.00    -0.456 OA
ENDROOT
BRANCH   1  12
ATOM     12  C   UNL     1     119.353 120.112 123.705  1.00  0.00     0.021 A 
ATOM     13  C   UNL     1     118.126 119.490 123.999  1.00  0.00     0.016 A 
ATOM     14  C   UNL     1     117.545 119.631 125.260  1.00  0.00     0.051 A 
ATOM     15  C   UNL     1     118.172 120.386 126.256  1.00  0.00     0.157 A 
ATOM     16  C   UNL     1     119.988 120.860 124.711  1.00  0.00     0.062 A 
ATOM     17  C   UNL     1     119.412 121.007 125.979  1.00  0.00     0.158 A 
BRANCH  15  18
ATOM     18  O   UNL     1     117.535 120.489 127.495  1.00  0.00    -0.504 OA
ATOM     19  H   UNL     1     116.783 121.134 127.691  1.00  0.00     0.293 HD
ENDBRANCH  15  18
BRANCH  17  20
ATOM     20  O   UNL     1     120.100 121.772 126.924  1.00  0.00    -0.504 OA
ATOM     21  H   UNL     1     120.049 121.618 127.920  1.00  0.00     0.293 HD
ENDBRANCH  17  20
ENDBRANCH   1  12
BRANCH   6  22
ATOM     22  O   UNL     1     122.941 119.331 118.263  1.00  0.00    -0.507 OA
ATOM     23  H   UNL     1     123.605 119.188 119.016  1.00  0.00     0.293 HD
ENDBRANCH   6  22
BRANCH   8  24
ATOM     24  O   UNL     1     118.507 120.316 116.585  1.00  0.00    -0.508 OA
ATOM     25  H   UNL     1     117.818 121.059 116.591  1.00  0.00     0.293 HD
ENDBRANCH   8  24
TORSDOF 5
ENDMDL
MODEL 7
REMARK VINA RESULT:    -9.742      2.041      2.865
REMARK INTER + INTRA:         -11.738
REMARK INTER:                 -11.460
REMARK INTRA:                  -0.278
REMARK UNBOUND:                -0.287
REMARK SMILES O=c1cc(-c2ccc(O)c(O)c2)oc2cc(O)cc(O)c12
REMARK SMILES IDX 4 1 3 2 2 3 1 4 21 5 19 6 18 7 16 8 15 9 14 10 13 11 5 12
REMARK SMILES IDX 6 13 7 14 8 15 12 16 10 17 9 18 11 20 20 22 17 24
REMARK H PARENT 9 19 11 21 20 23 17 25
REMARK Flexibility Score: inf
ROOT
ATOM      1  C   UNL     1     119.080 119.049 122.445  1.00  0.00     0.138 A 
ATOM      2  C   UNL     1     117.709 119.308 122.285  1.00  0.00     0.100 A 
ATOM      3  C   UNL     1     117.181 119.441 121.000  1.00  0.00     0.197 A 
ATOM      4  O   UNL     1     115.948 119.675 120.867  1.00  0.00    -0.289 OA
ATOM      5  C   UNL     1     118.030 119.319 119.882  1.00  0.00     0.107 A 
ATOM      6  C   UNL     1     117.576 119.438 118.548  1.00  0.00     0.134 A 
ATOM      7  C   UNL     1     118.487 119.308 117.489  1.00  0.00     0.093 A 
ATOM      8  C   UNL     1     119.842 119.062 117.742  1.00  0.00     0.123 A 
ATOM      9  C   UNL     1     120.293 118.943 119.058  1.00  0.00     0.094 A 
ATOM     10  C   UNL     1     119.401 119.068 120.126  1.00  0.00     0.146 A 
ATOM     11  O   UNL     1     119.857 118.949 121.369  1.00  0.00    -0.456 OA
ENDROOT
BRANCH   1  12
ATOM     12  C   UNL     1     119.697 118.899 123.787  1.00  0.00     0.021 A 
ATOM     13  C   UNL     1     120.924 119.505 124.109  1.00  0.00     0.016 A 
ATOM     14  C   UNL     1     121.475 119.354 125.383  1.00  0.00     0.051 A 
ATOM     15  C   UNL     1     120.817 118.606 126.363  1.00  0.00     0.157 A 
ATOM     16  C   UNL     1     119.030 118.157 124.777  1.00  0.00     0.062 A 
ATOM     17  C   UNL     1     119.575 118.001 126.057  1.00  0.00     0.158 A 
BRANCH  15  18
ATOM     18  O   UNL     1     121.424 118.492 127.615  1.00  0.00    -0.504 OA
ATOM     19  H   UNL     1     121.995 117.708 127.897  1.00  0.00     0.293 HD
ENDBRANCH  15  18
BRANCH  17  20
ATOM     20  O   UNL     1     118.857 117.242 126.984  1.00  0.00    -0.504 OA
ATOM     21  H   UNL     1     118.419 117.627 127.809  1.00  0.00     0.293 HD
ENDBRANCH  17  20
ENDBRANCH   1  12
BRANCH   6  22
ATOM     22  O   UNL     1     116.232 119.685 118.266  1.00  0.00    -0.507 OA
ATOM     23  H   UNL     1     115.739 119.183 117.537  1.00  0.00     0.293 HD
ENDBRANCH   6  22
BRANCH   8  24
ATOM     24  O   UNL     1     120.748 118.933 116.691  1.00  0.00    -0.508 OA
ATOM     25  H   UNL     1     121.245 119.734 116.318  1.00  0.00     0.293 HD
ENDBRANCH   8  24
TORSDOF 5
ENDMDL
MODEL 8
REMARK VINA RESULT:    -9.697      1.292      3.072
REMARK INTER + INTRA:         -11.684
REMARK INTER:                 -11.407
REMARK INTRA:                  -0.277
REMARK UNBOUND:                -0.287
REMARK SMILES O=c1cc(-c2ccc(O)c(O)c2)oc2cc(O)cc(O)c12
REMARK SMILES IDX 4 1 3 2 2 3 1 4 21 5 19 6 18 7 16 8 15 9 14 10 13 11 5 12
REMARK SMILES IDX 6 13 7 14 8 15 12 16 10 17 9 18 11 20 20 22 17 24
REMARK H PARENT 9 19 11 21 20 23 17 25
REMARK Flexibility Score: inf
ROOT
ATOM      1  C   UNL     1     119.023 119.916 122.365  1.00  0.00     0.138 A 
ATOM      2  C   UNL     1     119.271 121.287 122.186  1.00  0.00     0.100 A 
ATOM      3  C   UNL     1     119.393 121.801 120.894  1.00  0.00     0.197 A 
ATOM      4  O   UNL     1     119.617 123.033 120.745  1.00  0.00    -0.289 OA
ATOM      5  C   UNL     1     119.271 120.937 119.788  1.00  0.00     0.107 A 
ATOM      6  C   UNL     1     119.379 121.375 118.447  1.00  0.00     0.134 A 
ATOM      7  C   UNL     1     119.249 120.450 117.400  1.00  0.00     0.093 A 
ATOM      8  C   UNL     1     119.014 119.097 117.671  1.00  0.00     0.123 A 
ATOM      9  C   UNL     1     118.905 118.661 118.993  1.00  0.00     0.094 A 
ATOM     10  C   UNL     1     119.030 119.567 120.049  1.00  0.00     0.146 A 
ATOM     11  O   UNL     1     118.921 119.126 121.298  1.00  0.00    -0.456 OA
ENDROOT
BRANCH   1  12
ATOM     12  C   UNL     1     118.885 119.315 123.715  1.00  0.00     0.021 A 
ATOM     13  C   UNL     1     119.514 118.104 124.053  1.00  0.00     0.016 A 
ATOM     14  C   UNL     1     119.374 117.567 125.334  1.00  0.00     0.051 A 
ATOM     15  C   UNL     1     118.613 118.224 126.305  1.00  0.00     0.157 A 
ATOM     16  C   UNL     1     118.130 119.980 124.696  1.00  0.00     0.062 A 
ATOM     17  C   UNL     1     117.984 119.449 125.983  1.00  0.00     0.158 A 
BRANCH  15  18
ATOM     18  O   UNL     1     118.511 117.631 127.566  1.00  0.00    -0.504 OA
ATOM     19  H   UNL     1     118.843 116.703 127.782  1.00  0.00     0.293 HD
ENDBRANCH  15  18
BRANCH  17  20
ATOM     20  O   UNL     1     117.212 120.165 126.901  1.00  0.00    -0.504 OA
ATOM     21  H   UNL     1     117.596 120.793 127.593  1.00  0.00     0.293 HD
ENDBRANCH  17  20
ENDBRANCH   1  12
BRANCH   6  22
ATOM     22  O   UNL     1     119.614 122.718 118.148  1.00  0.00    -0.507 OA
ATOM     23  H   UNL     1     120.136 122.997 117.325  1.00  0.00     0.293 HD
ENDBRANCH   6  22
BRANCH   8  24
ATOM     24  O   UNL     1     118.885 118.177 116.632  1.00  0.00    -0.508 OA
ATOM     25  H   UNL     1     118.863 118.473 115.662  1.00  0.00     0.293 HD
ENDBRANCH   8  24
TORSDOF 5
ENDMDL
MODEL 9
REMARK VINA RESULT:    -9.688      1.465      1.805
REMARK INTER + INTRA:         -11.675
REMARK INTER:                 -11.395
REMARK INTRA:                  -0.279
REMARK UNBOUND:                -0.287
REMARK SMILES O=c1cc(-c2ccc(O)c(O)c2)oc2cc(O)cc(O)c12
REMARK SMILES IDX 4 1 3 2 2 3 1 4 21 5 19 6 18 7 16 8 15 9 14 10 13 11 5 12
REMARK SMILES IDX 6 13 7 14 8 15 12 16 10 17 9 18 11 20 20 22 17 24
REMARK H PARENT 9 19 11 21 20 23 17 25
REMARK Flexibility Score: inf
ROOT
ATOM      1  C   UNL     1     119.100 119.941 123.411  1.00  0.00     0.138 A 
ATOM      2  C   UNL     1     119.363 118.650 122.925  1.00  0.00     0.100 A 
ATOM      3  C   UNL     1     119.650 118.470 121.571  1.00  0.00     0.197 A 
ATOM      4  O   UNL     1     119.883 117.307 121.145  1.00  0.00    -0.289 OA
ATOM      5  C   UNL     1     119.666 119.585 120.710  1.00  0.00     0.107 A 
ATOM      6  C   UNL     1     119.949 119.492 119.327  1.00  0.00     0.134 A 
ATOM      7  C   UNL     1     119.941 120.650 118.536  1.00  0.00     0.093 A 
ATOM      8  C   UNL     1     119.656 121.898 119.103  1.00  0.00     0.123 A 
ATOM      9  C   UNL     1     119.378 121.995 120.468  1.00  0.00     0.094 A 
ATOM     10  C   UNL     1     119.382 120.852 121.273  1.00  0.00     0.146 A 
ATOM     11  O   UNL     1     119.115 120.972 122.570  1.00  0.00    -0.456 OA
ENDROOT
BRANCH   1  12
ATOM     12  C   UNL     1     118.789 120.191 124.841  1.00  0.00     0.021 A 
ATOM     13  C   UNL     1     117.700 119.573 125.480  1.00  0.00     0.016 A 
ATOM     14  C   UNL     1     117.438 119.820 126.829  1.00  0.00     0.051 A 
ATOM     15  C   UNL     1     118.254 120.679 127.571  1.00  0.00     0.157 A 
ATOM     16  C   UNL     1     119.616 121.045 125.591  1.00  0.00     0.062 A 
ATOM     17  C   UNL     1     119.360 121.299 126.944  1.00  0.00     0.158 A 
BRANCH  15  18
ATOM     18  O   UNL     1     117.934 120.886 128.914  1.00  0.00    -0.504 OA
ATOM     19  H   UNL     1     118.617 121.061 129.637  1.00  0.00     0.293 HD
ENDBRANCH  15  18
BRANCH  17  20
ATOM     20  O   UNL     1     120.223 122.165 127.620  1.00  0.00    -0.504 OA
ATOM     21  H   UNL     1     120.585 121.992 128.546  1.00  0.00     0.293 HD
ENDBRANCH  17  20
ENDBRANCH   1  12
BRANCH   6  22
ATOM     22  O   UNL     1     120.235 118.261 118.735  1.00  0.00    -0.507 OA
ATOM     23  H   UNL     1     119.830 117.990 117.846  1.00  0.00     0.293 HD
ENDBRANCH   6  22
BRANCH   8  24
ATOM     24  O   UNL     1     119.648 123.050 118.318  1.00  0.00    -0.508 OA
ATOM     25  H   UNL     1     120.482 123.371 117.840  1.00  0.00     0.293 HD
ENDBRANCH   8  24
TORSDOF 5
ENDMDL
