MODEL 1
REMARK VINA RESULT:    -3.976      0.000      0.000
REMARK INTER + INTRA:          -4.841
REMARK INTER:                  -4.557
REMARK INTRA:                  -0.284
REMARK UNBOUND:                -0.284
REMARK SMILES COC(=O)c1ccccc1O
REMARK SMILES IDX 5 1 6 2 7 3 8 4 9 5 10 6 3 7 4 8 2 9 1 10 11 11
REMARK H PARENT 11 12
REMARK Flexibility Score: inf
ROOT
ATOM      1  C   UNL     1      26.943  40.815  19.406  1.00  0.00     0.101 A 
ATOM      2  C   UNL     1      27.235  42.002  18.709  1.00  0.00     0.019 A 
ATOM      3  C   UNL     1      26.926  43.248  19.260  1.00  0.00     0.001 A 
ATOM      4  C   UNL     1      26.322  43.327  20.515  1.00  0.00     0.004 A 
ATOM      5  C   UNL     1      26.044  42.161  21.230  1.00  0.00     0.047 A 
ATOM      6  C   UNL     1      26.367  40.904  20.701  1.00  0.00     0.130 A 
ENDROOT
BRANCH   1   7
ATOM      7  C   UNL     1      27.222  39.524  18.741  1.00  0.00     0.341 C 
ATOM      8  O   UNL     1      26.320  38.648  18.642  1.00  0.00    -0.246 OA
BRANCH   7   9
ATOM      9  O   UNL     1      28.479  39.305  18.166  1.00  0.00    -0.465 OA
ATOM     10  C   UNL     1      28.641  38.791  16.849  1.00  0.00     0.282 C 
ENDBRANCH   7   9
ENDBRANCH   1   7
BRANCH   6  11
ATOM     11  O   UNL     1      26.134  39.784  21.501  1.00  0.00    -0.507 OA
ATOM     12  H   UNL     1      26.025  39.828  22.505  1.00  0.00     0.293 HD
ENDBRANCH   6  11
TORSDOF 3
ENDMDL
MODEL 2
REMARK VINA RESULT:    -3.973      1.917      3.325
REMARK INTER + INTRA:          -4.837
REMARK INTER:                  -4.560
REMARK INTRA:                  -0.277
REMARK UNBOUND:                -0.284
REMARK SMILES COC(=O)c1ccccc1O
REMARK SMILES IDX 5 1 6 2 7 3 8 4 9 5 10 6 3 7 4 8 2 9 1 10 11 11
REMARK H PARENT 11 12
REMARK Flexibility Score: inf
ROOT
ATOM      1  C   UNL     1      26.128  39.974  20.268  1.00  0.00     0.101 A 
ATOM      2  C   UNL     1      25.878  40.975  21.225  1.00  0.00     0.019 A 
ATOM      3  C   UNL     1      26.338  42.279  21.031  1.00  0.00     0.001 A 
ATOM      4  C   UNL     1      27.053  42.604  19.879  1.00  0.00     0.004 A 
ATOM      5  C   UNL     1      27.293  41.629  18.909  1.00  0.00     0.047 A 
ATOM      6  C   UNL     1      26.819  40.321  19.078  1.00  0.00     0.130 A 
ENDROOT
BRANCH   1   7
ATOM      7  C   UNL     1      25.683  38.595  20.563  1.00  0.00     0.341 C 
ATOM      8  O   UNL     1      26.443  37.615  20.333  1.00  0.00    -0.246 OA
BRANCH   7   9
ATOM      9  O   UNL     1      24.433  38.388  21.158  1.00  0.00    -0.465 OA
ATOM     10  C   UNL     1      23.720  37.163  21.038  1.00  0.00     0.282 C 
ENDBRANCH   7   9
ENDBRANCH   1   7
BRANCH   6  11
ATOM     11  O   UNL     1      27.026  39.416  18.035  1.00  0.00    -0.507 OA
ATOM     12  H   UNL     1      27.937  39.206  17.651  1.00  0.00     0.293 HD
ENDBRANCH   6  11
TORSDOF 3
ENDMDL
MODEL 3
REMARK VINA RESULT:    -3.973      1.616      2.148
REMARK INTER + INTRA:          -4.837
REMARK INTER:                  -4.484
REMARK INTRA:                  -0.353
REMARK UNBOUND:                -0.284
REMARK SMILES COC(=O)c1ccccc1O
REMARK SMILES IDX 5 1 6 2 7 3 8 4 9 5 10 6 3 7 4 8 2 9 1 10 11 11
REMARK H PARENT 11 12
REMARK Flexibility Score: inf
ROOT
ATOM      1  C   UNL     1      26.819  39.966  19.908  1.00  0.00     0.101 A 
ATOM      2  C   UNL     1      28.015  40.633  19.586  1.00  0.00     0.019 A 
ATOM      3  C   UNL     1      28.315  41.874  20.152  1.00  0.00     0.001 A 
ATOM      4  C   UNL     1      27.425  42.466  21.049  1.00  0.00     0.004 A 
ATOM      5  C   UNL     1      26.244  41.810  21.395  1.00  0.00     0.047 A 
ATOM      6  C   UNL     1      25.938  40.554  20.853  1.00  0.00     0.130 A 
ENDROOT
BRANCH   1   7
ATOM      7  C   UNL     1      26.519  38.692  19.218  1.00  0.00     0.341 C 
ATOM      8  O   UNL     1      26.726  38.571  17.980  1.00  0.00    -0.246 OA
BRANCH   7   9
ATOM      9  O   UNL     1      26.061  37.599  19.963  1.00  0.00    -0.465 OA
ATOM     10  C   UNL     1      26.866  36.942  20.935  1.00  0.00     0.282 C 
ENDBRANCH   7   9
ENDBRANCH   1   7
BRANCH   6  11
ATOM     11  O   UNL     1      24.779  39.917  21.301  1.00  0.00    -0.507 OA
ATOM     12  H   UNL     1      23.945  40.412  21.585  1.00  0.00     0.293 HD
ENDBRANCH   6  11
TORSDOF 3
ENDMDL
MODEL 4
REMARK VINA RESULT:    -3.967      2.072      3.897
REMARK INTER + INTRA:          -4.831
REMARK INTER:                  -4.515
REMARK INTRA:                  -0.316
REMARK UNBOUND:                -0.284
REMARK SMILES COC(=O)c1ccccc1O
REMARK SMILES IDX 5 1 6 2 7 3 8 4 9 5 10 6 3 7 4 8 2 9 1 10 11 11
REMARK H PARENT 11 12
REMARK Flexibility Score: inf
ROOT
ATOM      1  C   UNL     1      26.857  40.919  19.584  1.00  0.00     0.101 A 
ATOM      2  C   UNL     1      27.413  40.140  18.553  1.00  0.00     0.019 A 
ATOM      3  C   UNL     1      27.231  38.756  18.526  1.00  0.00     0.001 A 
ATOM      4  C   UNL     1      26.491  38.129  19.529  1.00  0.00     0.004 A 
ATOM      5  C   UNL     1      25.915  38.887  20.548  1.00  0.00     0.047 A 
ATOM      6  C   UNL     1      26.069  40.280  20.577  1.00  0.00     0.130 A 
ENDROOT
BRANCH   1   7
ATOM      7  C   UNL     1      27.146  42.369  19.602  1.00  0.00     0.341 C 
ATOM      8  O   UNL     1      26.917  43.080  18.586  1.00  0.00    -0.246 OA
BRANCH   7   9
ATOM      9  O   UNL     1      27.622  42.960  20.778  1.00  0.00    -0.465 OA
ATOM     10  C   UNL     1      27.033  44.125  21.344  1.00  0.00     0.282 C 
ENDBRANCH   7   9
ENDBRANCH   1   7
BRANCH   6  11
ATOM     11  O   UNL     1      25.402  40.986  21.580  1.00  0.00    -0.507 OA
ATOM     12  H   UNL     1      25.786  41.144  22.502  1.00  0.00     0.293 HD
ENDBRANCH   6  11
TORSDOF 3
ENDMDL
MODEL 5
REMARK VINA RESULT:    -3.965      2.225      3.992
REMARK INTER + INTRA:          -4.828
REMARK INTER:                  -4.553
REMARK INTRA:                  -0.275
REMARK UNBOUND:                -0.284
REMARK SMILES COC(=O)c1ccccc1O
REMARK SMILES IDX 5 1 6 2 7 3 8 4 9 5 10 6 3 7 4 8 2 9 1 10 11 11
REMARK H PARENT 11 12
REMARK Flexibility Score: inf
ROOT
ATOM      1  C   UNL     1      26.650  39.664  20.315  1.00  0.00     0.101 A 
ATOM      2  C   UNL     1      27.891  39.061  20.039  1.00  0.00     0.019 A 
ATOM      3  C   UNL     1      28.068  37.686  20.204  1.00  0.00     0.001 A 
ATOM      4  C   UNL     1      27.009  36.893  20.645  1.00  0.00     0.004 A 
ATOM      5  C   UNL     1      25.766  37.470  20.904  1.00  0.00     0.047 A 
ATOM      6  C   UNL     1      25.565  38.846  20.723  1.00  0.00     0.130 A 
ENDROOT
BRANCH   1   7
ATOM      7  C   UNL     1      26.544  41.135  20.196  1.00  0.00     0.341 C 
ATOM      8  O   UNL     1      25.989  41.811  21.104  1.00  0.00    -0.246 OA
BRANCH   7   9
ATOM      9  O   UNL     1      27.119  41.778  19.094  1.00  0.00    -0.465 OA
ATOM     10  C   UNL     1      26.960  43.171  18.850  1.00  0.00     0.282 C 
ENDBRANCH   7   9
ENDBRANCH   1   7
BRANCH   6  11
ATOM     11  O   UNL     1      24.277  39.346  20.924  1.00  0.00    -0.507 OA
ATOM     12  H   UNL     1      23.472  38.760  21.095  1.00  0.00     0.293 HD
ENDBRANCH   6  11
TORSDOF 3
ENDMDL
MODEL 6
REMARK VINA RESULT:    -3.822      9.219     10.478
REMARK INTER + INTRA:          -4.665
REMARK INTER:                  -4.415
REMARK INTRA:                  -0.250
REMARK UNBOUND:                -0.284
REMARK SMILES COC(=O)c1ccccc1O
REMARK SMILES IDX 5 1 6 2 7 3 8 4 9 5 10 6 3 7 4 8 2 9 1 10 11 11
REMARK H PARENT 11 12
REMARK Flexibility Score: inf
ROOT
ATOM      1  C   UNL     1      28.376  32.031  23.703  1.00  0.00     0.101 A 
ATOM      2  C   UNL     1      28.069  33.373  23.996  1.00  0.00     0.019 A 
ATOM      3  C   UNL     1      28.296  34.378  23.054  1.00  0.00     0.001 A 
ATOM      4  C   UNL     1      28.833  34.059  21.807  1.00  0.00     0.004 A 
ATOM      5  C   UNL     1      29.125  32.732  21.492  1.00  0.00     0.047 A 
ATOM      6  C   UNL     1      28.882  31.708  22.417  1.00  0.00     0.130 A 
ENDROOT
BRANCH   1   7
ATOM      7  C   UNL     1      28.185  31.020  24.766  1.00  0.00     0.341 C 
ATOM      8  O   UNL     1      28.762  31.147  25.880  1.00  0.00    -0.246 OA
BRANCH   7   9
ATOM      9  O   UNL     1      27.309  29.950  24.548  1.00  0.00    -0.465 OA
ATOM     10  C   UNL     1      27.243  28.824  25.414  1.00  0.00     0.282 C 
ENDBRANCH   7   9
ENDBRANCH   1   7
BRANCH   6  11
ATOM     11  O   UNL     1      29.122  30.394  22.010  1.00  0.00    -0.507 OA
ATOM     12  H   UNL     1      29.810  29.793  22.442  1.00  0.00     0.293 HD
ENDBRANCH   6  11
TORSDOF 3
ENDMDL
MODEL 7
REMARK VINA RESULT:    -3.788      2.413      3.638
REMARK INTER + INTRA:          -4.625
REMARK INTER:                  -4.391
REMARK INTRA:                  -0.235
REMARK UNBOUND:                -0.284
REMARK SMILES COC(=O)c1ccccc1O
REMARK SMILES IDX 5 1 6 2 7 3 8 4 9 5 10 6 3 7 4 8 2 9 1 10 11 11
REMARK H PARENT 11 12
REMARK Flexibility Score: inf
ROOT
ATOM      1  C   UNL     1      26.750  38.685  20.511  1.00  0.00     0.101 A 
ATOM      2  C   UNL     1      28.025  38.554  19.930  1.00  0.00     0.019 A 
ATOM      3  C   UNL     1      28.705  39.672  19.442  1.00  0.00     0.001 A 
ATOM      4  C   UNL     1      28.123  40.936  19.529  1.00  0.00     0.004 A 
ATOM      5  C   UNL     1      26.869  41.088  20.120  1.00  0.00     0.047 A 
ATOM      6  C   UNL     1      26.182  39.980  20.634  1.00  0.00     0.130 A 
ENDROOT
BRANCH   1   7
ATOM      7  C   UNL     1      26.045  37.457  20.940  1.00  0.00     0.341 C 
ATOM      8  O   UNL     1      26.538  36.716  21.833  1.00  0.00    -0.246 OA
BRANCH   7   9
ATOM      9  O   UNL     1      24.794  37.155  20.389  1.00  0.00    -0.465 OA
ATOM     10  C   UNL     1      23.599  37.146  21.160  1.00  0.00     0.282 C 
ENDBRANCH   7   9
ENDBRANCH   1   7
BRANCH   6  11
ATOM     11  O   UNL     1      24.968  40.212  21.283  1.00  0.00    -0.507 OA
ATOM     12  H   UNL     1      24.083  39.845  20.960  1.00  0.00     0.293 HD
ENDBRANCH   6  11
TORSDOF 3
ENDMDL
MODEL 8
REMARK VINA RESULT:    -3.761     10.750     12.120
REMARK INTER + INTRA:          -4.594
REMARK INTER:                  -4.325
REMARK INTRA:                  -0.269
REMARK UNBOUND:                -0.284
REMARK SMILES COC(=O)c1ccccc1O
REMARK SMILES IDX 5 1 6 2 7 3 8 4 9 5 10 6 3 7 4 8 2 9 1 10 11 11
REMARK H PARENT 11 12
REMARK Flexibility Score: inf
ROOT
ATOM      1  C   UNL     1      28.548  30.432  24.336  1.00  0.00     0.101 A 
ATOM      2  C   UNL     1      28.723  30.420  25.732  1.00  0.00     0.019 A 
ATOM      3  C   UNL     1      28.498  29.255  26.469  1.00  0.00     0.001 A 
ATOM      4  C   UNL     1      28.097  28.086  25.823  1.00  0.00     0.004 A 
ATOM      5  C   UNL     1      27.939  28.073  24.437  1.00  0.00     0.047 A 
ATOM      6  C   UNL     1      28.182  29.228  23.680  1.00  0.00     0.130 A 
ENDROOT
BRANCH   1   7
ATOM      7  C   UNL     1      28.726  31.713  23.618  1.00  0.00     0.341 C 
ATOM      8  O   UNL     1      29.125  31.726  22.422  1.00  0.00    -0.246 OA
BRANCH   7   9
ATOM      9  O   UNL     1      28.389  32.911  24.258  1.00  0.00    -0.465 OA
ATOM     10  C   UNL     1      27.955  34.064  23.547  1.00  0.00     0.282 C 
ENDBRANCH   7   9
ENDBRANCH   1   7
BRANCH   6  11
ATOM     11  O   UNL     1      28.081  29.126  22.291  1.00  0.00    -0.507 OA
ATOM     12  H   UNL     1      27.794  28.283  21.813  1.00  0.00     0.293 HD
ENDBRANCH   6  11
TORSDOF 3
ENDMDL
