MODEL 1
REMARK VINA RESULT:    -3.805      0.000      0.000
REMARK INTER + INTRA:          -6.013
REMARK INTER:                  -5.362
REMARK INTRA:                  -0.651
REMARK UNBOUND:                -0.651
REMARK SMILES CCCCCCCCC(=O)[O-]
REMARK SMILES IDX 6 1 7 2 8 3 9 4 10 5 11 6 5 7 4 8 3 9 2 10 1 11
REMARK H PARENT
REMARK Flexibility Score: inf
ROOT
ATOM      1  C   UNL     1      25.360   4.578   9.901  1.00  0.00     0.000 C 
ENDROOT
BRANCH   1   2
ATOM      2  C   UNL     1      26.384   5.440  10.661  1.00  0.00     0.006 C 
BRANCH   2   3
ATOM      3  C   UNL     1      27.848   5.157  10.290  1.00  0.00     0.053 C 
BRANCH   3   4
ATOM      4  C   UNL     1      28.641   4.668  11.463  1.00  0.00     0.041 C 
ATOM      5  O   UNL     1      28.899   3.442  11.586  1.00  0.00    -0.550 OA
ATOM      6  O   UNL     1      29.125   5.571  12.401  1.00  0.00    -0.550 OA
ENDBRANCH   3   4
ENDBRANCH   2   3
ENDBRANCH   1   2
BRANCH   1   7
ATOM      7  C   UNL     1      25.730   4.378   8.423  1.00  0.00     0.000 C 
BRANCH   7   8
ATOM      8  C   UNL     1      25.146   5.499   7.555  1.00  0.00    -0.000 C 
BRANCH   8   9
ATOM      9  C   UNL     1      26.195   6.037   6.571  1.00  0.00    -0.000 C 
BRANCH   9  10
ATOM     10  C   UNL     1      26.461   7.538   6.753  1.00  0.00    -0.003 C 
ATOM     11  C   UNL     1      25.873   8.089   8.051  1.00  0.00     0.004 C 
ENDBRANCH   9  10
ENDBRANCH   8   9
ENDBRANCH   7   8
ENDBRANCH   1   7
TORSDOF 7
ENDMDL
MODEL 2
REMARK VINA RESULT:    -3.763      2.658      4.632
REMARK INTER + INTRA:          -5.954
REMARK INTER:                  -5.328
REMARK INTRA:                  -0.627
REMARK UNBOUND:                -0.651
REMARK SMILES CCCCCCCCC(=O)[O-]
REMARK SMILES IDX 6 1 7 2 8 3 9 4 10 5 11 6 5 7 4 8 3 9 2 10 1 11
REMARK H PARENT
REMARK Flexibility Score: inf
ROOT
ATOM      1  C   UNL     1      26.867   4.463   7.899  1.00  0.00     0.000 C 
ENDROOT
BRANCH   1   2
ATOM      2  C   UNL     1      26.666   2.983   8.273  1.00  0.00     0.006 C 
BRANCH   2   3
ATOM      3  C   UNL     1      27.821   2.061   7.852  1.00  0.00     0.053 C 
BRANCH   3   4
ATOM      4  C   UNL     1      27.779   0.745   8.566  1.00  0.00     0.041 C 
ATOM      5  O   UNL     1      28.587   0.506   9.502  1.00  0.00    -0.550 OA
ATOM      6  O   UNL     1      26.825  -0.204   8.220  1.00  0.00    -0.550 OA
ENDBRANCH   3   4
ENDBRANCH   2   3
ENDBRANCH   1   2
BRANCH   1   7
ATOM      7  C   UNL     1      26.174   5.423   8.877  1.00  0.00     0.000 C 
BRANCH   7   8
ATOM      8  C   UNL     1      26.628   5.161  10.318  1.00  0.00    -0.000 C 
BRANCH   8   9
ATOM      9  C   UNL     1      28.038   5.719  10.562  1.00  0.00    -0.000 C 
BRANCH   9  10
ATOM     10  C   UNL     1      28.790   4.961  11.666  1.00  0.00    -0.003 C 
ATOM     11  C   UNL     1      28.805   3.450  11.442  1.00  0.00     0.004 C 
ENDBRANCH   9  10
ENDBRANCH   8   9
ENDBRANCH   7   8
ENDBRANCH   1   7
TORSDOF 7
ENDMDL
MODEL 3
REMARK VINA RESULT:    -3.758      3.990      5.647
REMARK INTER + INTRA:          -5.947
REMARK INTER:                  -5.563
REMARK INTRA:                  -0.384
REMARK UNBOUND:                -0.651
REMARK SMILES CCCCCCCCC(=O)[O-]
REMARK SMILES IDX 6 1 7 2 8 3 9 4 10 5 11 6 5 7 4 8 3 9 2 10 1 11
REMARK H PARENT
REMARK Flexibility Score: inf
ROOT
ATOM      1  C   UNL     1      27.424   2.587   7.722  1.00  0.00     0.000 C 
ENDROOT
BRANCH   1   2
ATOM      2  C   UNL     1      27.113   3.520   8.907  1.00  0.00     0.006 C 
BRANCH   2   3
ATOM      3  C   UNL     1      28.356   4.081   9.614  1.00  0.00     0.053 C 
BRANCH   3   4
ATOM      4  C   UNL     1      28.072   5.378  10.307  1.00  0.00     0.041 C 
ATOM      5  O   UNL     1      28.483   5.572  11.481  1.00  0.00    -0.550 OA
ATOM      6  O   UNL     1      27.383   6.385   9.643  1.00  0.00    -0.550 OA
ENDBRANCH   3   4
ENDBRANCH   2   3
ENDBRANCH   1   2
BRANCH   1   7
ATOM      7  C   UNL     1      27.081   1.119   8.015  1.00  0.00     0.000 C 
BRANCH   7   8
ATOM      8  C   UNL     1      28.346   0.310   8.327  1.00  0.00    -0.000 C 
BRANCH   8   9
ATOM      9  C   UNL     1      28.415  -0.051   9.819  1.00  0.00    -0.000 C 
BRANCH   9  10
ATOM     10  C   UNL     1      27.713  -1.379  10.137  1.00  0.00    -0.003 C 
ATOM     11  C   UNL     1      27.854  -2.407   9.016  1.00  0.00     0.004 C 
ENDBRANCH   9  10
ENDBRANCH   8   9
ENDBRANCH   7   8
ENDBRANCH   1   7
TORSDOF 7
ENDMDL
MODEL 4
REMARK VINA RESULT:    -3.753      3.302      4.912
REMARK INTER + INTRA:          -5.940
REMARK INTER:                  -5.442
REMARK INTRA:                  -0.498
REMARK UNBOUND:                -0.651
REMARK SMILES CCCCCCCCC(=O)[O-]
REMARK SMILES IDX 6 1 7 2 8 3 9 4 10 5 11 6 5 7 4 8 3 9 2 10 1 11
REMARK H PARENT
REMARK Flexibility Score: inf
ROOT
ATOM      1  C   UNL     1      26.893   2.262   7.511  1.00  0.00     0.000 C 
ENDROOT
BRANCH   1   2
ATOM      2  C   UNL     1      26.891   0.814   8.036  1.00  0.00     0.006 C 
BRANCH   2   3
ATOM      3  C   UNL     1      28.280   0.273   8.406  1.00  0.00     0.053 C 
BRANCH   3   4
ATOM      4  C   UNL     1      28.334  -0.220   9.819  1.00  0.00     0.041 C 
ATOM      5  O   UNL     1      28.799   0.515  10.730  1.00  0.00    -0.550 OA
ATOM      6  O   UNL     1      27.838  -1.479  10.136  1.00  0.00    -0.550 OA
ENDBRANCH   3   4
ENDBRANCH   2   3
ENDBRANCH   1   2
BRANCH   1   7
ATOM      7  C   UNL     1      27.971   3.133   8.175  1.00  0.00     0.000 C 
BRANCH   7   8
ATOM      8  C   UNL     1      27.339   4.322   8.910  1.00  0.00    -0.000 C 
BRANCH   8   9
ATOM      9  C   UNL     1      27.237   4.045  10.418  1.00  0.00    -0.000 C 
BRANCH   9  10
ATOM     10  C   UNL     1      28.612   3.977  11.100  1.00  0.00    -0.003 C 
ATOM     11  C   UNL     1      28.916   5.216  11.941  1.00  0.00     0.004 C 
ENDBRANCH   9  10
ENDBRANCH   8   9
ENDBRANCH   7   8
ENDBRANCH   1   7
TORSDOF 7
ENDMDL
MODEL 5
REMARK VINA RESULT:    -3.731      3.438      4.985
REMARK INTER + INTRA:          -5.908
REMARK INTER:                  -5.406
REMARK INTRA:                  -0.502
REMARK UNBOUND:                -0.651
REMARK SMILES CCCCCCCCC(=O)[O-]
REMARK SMILES IDX 6 1 7 2 8 3 9 4 10 5 11 6 5 7 4 8 3 9 2 10 1 11
REMARK H PARENT
REMARK Flexibility Score: inf
ROOT
ATOM      1  C   UNL     1      26.847   3.343   8.048  1.00  0.00     0.000 C 
ENDROOT
BRANCH   1   2
ATOM      2  C   UNL     1      28.106   3.758   8.832  1.00  0.00     0.006 C 
BRANCH   2   3
ATOM      3  C   UNL     1      27.900   3.862  10.351  1.00  0.00     0.053 C 
BRANCH   3   4
ATOM      4  C   UNL     1      28.044   5.269  10.843  1.00  0.00     0.041 C 
ATOM      5  O   UNL     1      28.633   5.502  11.932  1.00  0.00    -0.550 OA
ATOM      6  O   UNL     1      27.559   6.325  10.083  1.00  0.00    -0.550 OA
ENDBRANCH   3   4
ENDBRANCH   2   3
ENDBRANCH   1   2
BRANCH   1   7
ATOM      7  C   UNL     1      27.107   2.186   7.073  1.00  0.00     0.000 C 
BRANCH   7   8
ATOM      8  C   UNL     1      26.799   0.834   7.730  1.00  0.00    -0.000 C 
BRANCH   8   9
ATOM      9  C   UNL     1      28.093   0.078   8.067  1.00  0.00    -0.000 C 
BRANCH   9  10
ATOM     10  C   UNL     1      28.304  -0.086   9.579  1.00  0.00    -0.003 C 
ATOM     11  C   UNL     1      27.718  -1.389  10.120  1.00  0.00     0.004 C 
ENDBRANCH   9  10
ENDBRANCH   8   9
ENDBRANCH   7   8
ENDBRANCH   1   7
TORSDOF 7
ENDMDL
MODEL 6
REMARK VINA RESULT:    -3.699      1.302      2.097
REMARK INTER + INTRA:          -5.864
REMARK INTER:                  -5.483
REMARK INTRA:                  -0.381
REMARK UNBOUND:                -0.651
REMARK SMILES CCCCCCCCC(=O)[O-]
REMARK SMILES IDX 6 1 7 2 8 3 9 4 10 5 11 6 5 7 4 8 3 9 2 10 1 11
REMARK H PARENT
REMARK Flexibility Score: inf
ROOT
ATOM      1  C   UNL     1      26.933   6.443   9.555  1.00  0.00     0.000 C 
ENDROOT
BRANCH   1   2
ATOM      2  C   UNL     1      26.878   4.906   9.634  1.00  0.00     0.006 C 
BRANCH   2   3
ATOM      3  C   UNL     1      28.253   4.226   9.716  1.00  0.00     0.053 C 
BRANCH   3   4
ATOM      4  C   UNL     1      28.683   3.995  11.132  1.00  0.00     0.041 C 
ATOM      5  O   UNL     1      28.861   4.971  11.907  1.00  0.00    -0.550 OA
ATOM      6  O   UNL     1      28.853   2.700  11.605  1.00  0.00    -0.550 OA
ENDBRANCH   3   4
ENDBRANCH   2   3
ENDBRANCH   1   2
BRANCH   1   7
ATOM      7  C   UNL     1      25.540   7.088   9.524  1.00  0.00     0.000 C 
BRANCH   7   8
ATOM      8  C   UNL     1      25.294   7.801   8.189  1.00  0.00    -0.000 C 
BRANCH   8   9
ATOM      9  C   UNL     1      26.585   7.879   7.361  1.00  0.00    -0.000 C 
BRANCH   9  10
ATOM     10  C   UNL     1      26.455   7.183   5.998  1.00  0.00    -0.003 C 
ATOM     11  C   UNL     1      25.020   7.175   5.473  1.00  0.00     0.004 C 
ENDBRANCH   9  10
ENDBRANCH   8   9
ENDBRANCH   7   8
ENDBRANCH   1   7
TORSDOF 7
ENDMDL
MODEL 7
REMARK VINA RESULT:    -3.672      3.413      5.036
REMARK INTER + INTRA:          -5.825
REMARK INTER:                  -5.355
REMARK INTRA:                  -0.471
REMARK UNBOUND:                -0.651
REMARK SMILES CCCCCCCCC(=O)[O-]
REMARK SMILES IDX 6 1 7 2 8 3 9 4 10 5 11 6 5 7 4 8 3 9 2 10 1 11
REMARK H PARENT
REMARK Flexibility Score: inf
ROOT
ATOM      1  C   UNL     1      25.786   6.523   9.624  1.00  0.00     0.000 C 
ENDROOT
BRANCH   1   2
ATOM      2  C   UNL     1      25.518   7.678   8.642  1.00  0.00     0.006 C 
BRANCH   2   3
ATOM      3  C   UNL     1      26.540   7.787   7.499  1.00  0.00     0.053 C 
BRANCH   3   4
ATOM      4  C   UNL     1      26.135   6.982   6.304  1.00  0.00     0.041 C 
ATOM      5  O   UNL     1      26.501   5.781   6.195  1.00  0.00    -0.550 OA
ATOM      6  O   UNL     1      25.325   7.546   5.326  1.00  0.00    -0.550 OA
ENDBRANCH   3   4
ENDBRANCH   2   3
ENDBRANCH   1   2
BRANCH   1   7
ATOM      7  C   UNL     1      27.281   6.197   9.766  1.00  0.00     0.000 C 
BRANCH   7   8
ATOM      8  C   UNL     1      27.516   5.181  10.890  1.00  0.00    -0.000 C 
BRANCH   8   9
ATOM      9  C   UNL     1      28.043   3.852  10.329  1.00  0.00    -0.000 C 
BRANCH   9  10
ATOM     10  C   UNL     1      27.999   3.799   8.795  1.00  0.00    -0.003 C 
ATOM     11  C   UNL     1      27.519   2.450   8.263  1.00  0.00     0.004 C 
ENDBRANCH   9  10
ENDBRANCH   8   9
ENDBRANCH   7   8
ENDBRANCH   1   7
TORSDOF 7
ENDMDL
MODEL 8
REMARK VINA RESULT:    -3.588      3.213      5.086
REMARK INTER + INTRA:          -5.707
REMARK INTER:                  -5.179
REMARK INTRA:                  -0.527
REMARK UNBOUND:                -0.651
REMARK SMILES CCCCCCCCC(=O)[O-]
REMARK SMILES IDX 6 1 7 2 8 3 9 4 10 5 11 6 5 7 4 8 3 9 2 10 1 11
REMARK H PARENT
REMARK Flexibility Score: inf
ROOT
ATOM      1  C   UNL     1      26.841   4.009   8.250  1.00  0.00     0.000 C 
ENDROOT
BRANCH   1   2
ATOM      2  C   UNL     1      26.031   4.451   7.017  1.00  0.00     0.006 C 
BRANCH   2   3
ATOM      3  C   UNL     1      26.500   5.774   6.392  1.00  0.00     0.053 C 
BRANCH   3   4
ATOM      4  C   UNL     1      25.476   6.857   6.533  1.00  0.00     0.041 C 
ATOM      5  O   UNL     1      24.355   6.746   5.968  1.00  0.00    -0.550 OA
ATOM      6  O   UNL     1      25.746   7.973   7.315  1.00  0.00    -0.550 OA
ENDBRANCH   3   4
ENDBRANCH   2   3
ENDBRANCH   1   2
BRANCH   1   7
ATOM      7  C   UNL     1      26.051   4.146   9.560  1.00  0.00     0.000 C 
BRANCH   7   8
ATOM      8  C   UNL     1      26.481   5.400  10.332  1.00  0.00    -0.000 C 
BRANCH   8   9
ATOM      9  C   UNL     1      27.996   5.625  10.216  1.00  0.00    -0.000 C 
BRANCH   9  10
ATOM     10  C   UNL     1      28.751   5.233  11.494  1.00  0.00    -0.003 C 
ATOM     11  C   UNL     1      29.124   3.752  11.531  1.00  0.00     0.004 C 
ENDBRANCH   9  10
ENDBRANCH   8   9
ENDBRANCH   7   8
ENDBRANCH   1   7
TORSDOF 7
ENDMDL
