MODEL 1
REMARK VINA RESULT:    -3.801      0.000      0.000
REMARK INTER + INTRA:          -6.755
REMARK INTER:                  -5.801
REMARK INTRA:                  -0.954
REMARK UNBOUND:                -0.954
REMARK SMILES O=C([O-])CCCCCCCCC(=O)[O-]
REMARK SMILES IDX 7 1 6 2 5 3 4 4 2 5 1 6 3 7 8 8 9 9 10 10 11 11 12 12 13 13
REMARK SMILES IDX 14 14
REMARK H PARENT
REMARK Flexibility Score: inf
ROOT
ATOM      1  C   UNL     1      26.188  -2.834  52.065  1.00  0.00     0.000 C 
ENDROOT
BRANCH   1   2
ATOM      2  C   UNL     1      25.803  -4.262  51.660  1.00  0.00     0.000 C 
BRANCH   2   3
ATOM      3  C   UNL     1      27.005  -5.211  51.781  1.00  0.00     0.006 C 
BRANCH   3   4
ATOM      4  C   UNL     1      28.311  -4.461  52.077  1.00  0.00     0.053 C 
BRANCH   4   5
ATOM      5  C   UNL     1      29.514  -5.313  51.806  1.00  0.00     0.041 C 
ATOM      6  O   UNL     1      29.570  -6.017  50.765  1.00  0.00    -0.550 OA
ATOM      7  O   UNL     1      30.558  -5.353  52.721  1.00  0.00    -0.550 OA
ENDBRANCH   4   5
ENDBRANCH   3   4
ENDBRANCH   2   3
ENDBRANCH   1   2
BRANCH   1   8
ATOM      8  C   UNL     1      25.509  -2.435  53.380  1.00  0.00     0.000 C 
BRANCH   8   9
ATOM      9  C   UNL     1      24.445  -3.462  53.785  1.00  0.00     0.000 C 
BRANCH   9  10
ATOM     10  C   UNL     1      24.745  -4.047  55.174  1.00  0.00     0.006 C 
BRANCH  10  11
ATOM     11  C   UNL     1      26.235  -3.954  55.533  1.00  0.00     0.053 C 
BRANCH  11  12
ATOM     12  C   UNL     1      26.869  -5.308  55.626  1.00  0.00     0.041 C 
ATOM     13  O   UNL     1      26.169  -6.317  55.904  1.00  0.00    -0.550 OA
ATOM     14  O   UNL     1      28.238  -5.450  55.438  1.00  0.00    -0.550 OA
ENDBRANCH  11  12
ENDBRANCH  10  11
ENDBRANCH   9  10
ENDBRANCH   8   9
ENDBRANCH   1   8
TORSDOF 9
ENDMDL
MODEL 2
REMARK VINA RESULT:    -3.787      1.471      5.021
REMARK INTER + INTRA:          -6.733
REMARK INTER:                  -5.912
REMARK INTRA:                  -0.822
REMARK UNBOUND:                -0.954
REMARK SMILES O=C([O-])CCCCCCCCC(=O)[O-]
REMARK SMILES IDX 7 1 6 2 5 3 4 4 2 5 1 6 3 7 8 8 9 9 10 10 11 11 12 12 13 13
REMARK SMILES IDX 14 14
REMARK H PARENT
REMARK Flexibility Score: inf
ROOT
ATOM      1  C   UNL     1      24.699  -3.286  53.501  1.00  0.00     0.000 C 
ENDROOT
BRANCH   1   2
ATOM      2  C   UNL     1      24.562  -4.158  54.755  1.00  0.00     0.000 C 
BRANCH   2   3
ATOM      3  C   UNL     1      25.902  -4.271  55.495  1.00  0.00     0.006 C 
BRANCH   3   4
ATOM      4  C   UNL     1      26.024  -5.584  56.281  1.00  0.00     0.053 C 
BRANCH   4   5
ATOM      5  C   UNL     1      25.734  -5.389  57.738  1.00  0.00     0.041 C 
ATOM      6  O   UNL     1      26.512  -5.861  58.608  1.00  0.00    -0.550 OA
ATOM      7  O   UNL     1      24.587  -4.713  58.135  1.00  0.00    -0.550 OA
ENDBRANCH   4   5
ENDBRANCH   3   4
ENDBRANCH   2   3
ENDBRANCH   1   2
BRANCH   1   8
ATOM      8  C   UNL     1      26.164  -3.179  53.063  1.00  0.00     0.000 C 
BRANCH   8   9
ATOM      9  C   UNL     1      26.363  -3.764  51.660  1.00  0.00     0.000 C 
BRANCH   9  10
ATOM     10  C   UNL     1      26.657  -5.270  51.729  1.00  0.00     0.006 C 
BRANCH  10  11
ATOM     11  C   UNL     1      27.898  -5.581  52.577  1.00  0.00     0.053 C 
BRANCH  11  12
ATOM     12  C   UNL     1      29.166  -5.274  51.842  1.00  0.00     0.041 C 
ATOM     13  O   UNL     1      29.467  -5.918  50.802  1.00  0.00    -0.550 OA
ATOM     14  O   UNL     1      30.032  -4.300  52.322  1.00  0.00    -0.550 OA
ENDBRANCH  11  12
ENDBRANCH  10  11
ENDBRANCH   9  10
ENDBRANCH   8   9
ENDBRANCH   1   8
TORSDOF 9
ENDMDL
MODEL 3
REMARK VINA RESULT:    -3.771      1.222      4.795
REMARK INTER + INTRA:          -6.709
REMARK INTER:                  -5.878
REMARK INTRA:                  -0.830
REMARK UNBOUND:                -0.954
REMARK SMILES O=C([O-])CCCCCCCCC(=O)[O-]
REMARK SMILES IDX 7 1 6 2 5 3 4 4 2 5 1 6 3 7 8 8 9 9 10 10 11 11 12 12 13 13
REMARK SMILES IDX 14 14
REMARK H PARENT
REMARK Flexibility Score: inf
ROOT
ATOM      1  C   UNL     1      25.765  -2.071  52.741  1.00  0.00     0.000 C 
ENDROOT
BRANCH   1   2
ATOM      2  C   UNL     1      24.762  -2.976  53.467  1.00  0.00     0.000 C 
BRANCH   2   3
ATOM      3  C   UNL     1      25.135  -3.131  54.949  1.00  0.00     0.006 C 
BRANCH   3   4
ATOM      4  C   UNL     1      25.313  -4.601  55.353  1.00  0.00     0.053 C 
BRANCH   4   5
ATOM      5  C   UNL     1      25.215  -4.785  56.837  1.00  0.00     0.041 C 
ATOM      6  O   UNL     1      24.396  -4.103  57.507  1.00  0.00    -0.550 OA
ATOM      7  O   UNL     1      26.051  -5.686  57.483  1.00  0.00    -0.550 OA
ENDBRANCH   4   5
ENDBRANCH   3   4
ENDBRANCH   2   3
ENDBRANCH   1   2
BRANCH   1   8
ATOM      8  C   UNL     1      26.594  -2.871  51.729  1.00  0.00     0.000 C 
BRANCH   8   9
ATOM      9  C   UNL     1      25.962  -4.242  51.461  1.00  0.00     0.000 C 
BRANCH   9  10
ATOM     10  C   UNL     1      26.941  -5.375  51.803  1.00  0.00     0.006 C 
BRANCH  10  11
ATOM     11  C   UNL     1      28.142  -4.878  52.619  1.00  0.00     0.053 C 
BRANCH  11  12
ATOM     12  C   UNL     1      29.443  -5.229  51.964  1.00  0.00     0.041 C 
ATOM     13  O   UNL     1      29.453  -5.851  50.869  1.00  0.00    -0.550 OA
ATOM     14  O   UNL     1      30.644  -4.899  52.579  1.00  0.00    -0.550 OA
ENDBRANCH  11  12
ENDBRANCH  10  11
ENDBRANCH   9  10
ENDBRANCH   8   9
ENDBRANCH   1   8
TORSDOF 9
ENDMDL
MODEL 4
REMARK VINA RESULT:    -3.747      1.379      1.932
REMARK INTER + INTRA:          -6.672
REMARK INTER:                  -5.809
REMARK INTRA:                  -0.863
REMARK UNBOUND:                -0.954
REMARK SMILES O=C([O-])CCCCCCCCC(=O)[O-]
REMARK SMILES IDX 7 1 6 2 5 3 4 4 2 5 1 6 3 7 8 8 9 9 10 10 11 11 12 12 13 13
REMARK SMILES IDX 14 14
REMARK H PARENT
REMARK Flexibility Score: inf
ROOT
ATOM      1  C   UNL     1      26.306  -3.124  52.771  1.00  0.00     0.000 C 
ENDROOT
BRANCH   1   2
ATOM      2  C   UNL     1      26.244  -4.132  51.616  1.00  0.00     0.000 C 
BRANCH   2   3
ATOM      3  C   UNL     1      26.952  -5.442  51.991  1.00  0.00     0.006 C 
BRANCH   3   4
ATOM      4  C   UNL     1      28.183  -5.206  52.877  1.00  0.00     0.053 C 
BRANCH   4   5
ATOM      5  C   UNL     1      29.457  -5.514  52.152  1.00  0.00     0.041 C 
ATOM      6  O   UNL     1      30.561  -5.437  52.752  1.00  0.00    -0.550 OA
ATOM      7  O   UNL     1      29.427  -5.854  50.806  1.00  0.00    -0.550 OA
ENDBRANCH   4   5
ENDBRANCH   3   4
ENDBRANCH   2   3
ENDBRANCH   1   2
BRANCH   1   8
ATOM      8  C   UNL     1      24.907  -2.845  53.333  1.00  0.00     0.000 C 
BRANCH   8   9
ATOM      9  C   UNL     1      24.567  -3.815  54.470  1.00  0.00     0.000 C 
BRANCH   9  10
ATOM     10  C   UNL     1      25.757  -3.980  55.427  1.00  0.00     0.006 C 
BRANCH  10  11
ATOM     11  C   UNL     1      25.812  -5.382  56.049  1.00  0.00     0.053 C 
BRANCH  11  12
ATOM     12  C   UNL     1      25.479  -5.356  57.509  1.00  0.00     0.041 C 
ATOM     13  O   UNL     1      26.363  -5.624  58.365  1.00  0.00    -0.550 OA
ATOM     14  O   UNL     1      24.185  -5.068  57.923  1.00  0.00    -0.550 OA
ENDBRANCH  11  12
ENDBRANCH  10  11
ENDBRANCH   9  10
ENDBRANCH   8   9
ENDBRANCH   1   8
TORSDOF 9
ENDMDL
MODEL 5
REMARK VINA RESULT:    -3.730      1.209      1.632
REMARK INTER + INTRA:          -6.647
REMARK INTER:                  -5.547
REMARK INTRA:                  -1.100
REMARK UNBOUND:                -0.954
REMARK SMILES O=C([O-])CCCCCCCCC(=O)[O-]
REMARK SMILES IDX 7 1 6 2 5 3 4 4 2 5 1 6 3 7 8 8 9 9 10 10 11 11 12 12 13 13
REMARK SMILES IDX 14 14
REMARK H PARENT
REMARK Flexibility Score: inf
ROOT
ATOM      1  C   UNL     1      25.706  -2.489  53.556  1.00  0.00     0.000 C 
ENDROOT
BRANCH   1   2
ATOM      2  C   UNL     1      25.091  -3.648  52.762  1.00  0.00     0.000 C 
BRANCH   2   3
ATOM      3  C   UNL     1      26.041  -4.120  51.652  1.00  0.00     0.006 C 
BRANCH   3   4
ATOM      4  C   UNL     1      26.860  -5.349  52.069  1.00  0.00     0.053 C 
BRANCH   4   5
ATOM      5  C   UNL     1      28.333  -5.093  51.977  1.00  0.00     0.041 C 
ATOM      6  O   UNL     1      29.043  -5.760  51.180  1.00  0.00    -0.550 OA
ATOM      7  O   UNL     1      28.926  -4.140  52.795  1.00  0.00    -0.550 OA
ENDBRANCH   4   5
ENDBRANCH   3   4
ENDBRANCH   2   3
ENDBRANCH   1   2
BRANCH   1   8
ATOM      8  C   UNL     1      25.374  -2.608  55.048  1.00  0.00     0.000 C 
BRANCH   8   9
ATOM      9  C   UNL     1      24.668  -3.935  55.351  1.00  0.00     0.000 C 
BRANCH   9  10
ATOM     10  C   UNL     1      25.469  -4.766  56.365  1.00  0.00     0.006 C 
BRANCH  10  11
ATOM     11  C   UNL     1      26.225  -5.924  55.698  1.00  0.00     0.053 C 
BRANCH  11  12
ATOM     12  C   UNL     1      27.707  -5.708  55.724  1.00  0.00     0.041 C 
ATOM     13  O   UNL     1      28.182  -4.626  56.159  1.00  0.00    -0.550 OA
ATOM     14  O   UNL     1      28.562  -6.689  55.236  1.00  0.00    -0.550 OA
ENDBRANCH  11  12
ENDBRANCH  10  11
ENDBRANCH   9  10
ENDBRANCH   8   9
ENDBRANCH   1   8
TORSDOF 9
ENDMDL
MODEL 6
REMARK VINA RESULT:    -3.720      1.262      1.869
REMARK INTER + INTRA:          -6.631
REMARK INTER:                  -5.648
REMARK INTRA:                  -0.983
REMARK UNBOUND:                -0.954
REMARK SMILES O=C([O-])CCCCCCCCC(=O)[O-]
REMARK SMILES IDX 7 1 6 2 5 3 4 4 2 5 1 6 3 7 8 8 9 9 10 10 11 11 12 12 13 13
REMARK SMILES IDX 14 14
REMARK H PARENT
REMARK Flexibility Score: inf
ROOT
ATOM      1  C   UNL     1      25.909  -2.032  53.571  1.00  0.00     0.000 C 
ENDROOT
BRANCH   1   2
ATOM      2  C   UNL     1      26.486  -1.628  52.209  1.00  0.00     0.000 C 
BRANCH   2   3
ATOM      3  C   UNL     1      26.739  -2.863  51.332  1.00  0.00     0.006 C 
BRANCH   3   4
ATOM      4  C   UNL     1      28.030  -3.598  51.719  1.00  0.00     0.053 C 
BRANCH   4   5
ATOM      5  C   UNL     1      27.829  -5.082  51.773  1.00  0.00     0.041 C 
ATOM      6  O   UNL     1      26.668  -5.561  51.864  1.00  0.00    -0.550 OA
ATOM      7  O   UNL     1      28.926  -5.934  51.758  1.00  0.00    -0.550 OA
ENDBRANCH   4   5
ENDBRANCH   3   4
ENDBRANCH   2   3
ENDBRANCH   1   2
BRANCH   1   8
ATOM      8  C   UNL     1      24.787  -3.064  53.409  1.00  0.00     0.000 C 
BRANCH   8   9
ATOM      9  C   UNL     1      24.606  -3.886  54.691  1.00  0.00     0.000 C 
BRANCH   9  10
ATOM     10  C   UNL     1      25.956  -4.132  55.381  1.00  0.00     0.006 C 
BRANCH  10  11
ATOM     11  C   UNL     1      26.415  -5.592  55.256  1.00  0.00     0.053 C 
BRANCH  11  12
ATOM     12  C   UNL     1      27.896  -5.726  55.428  1.00  0.00     0.041 C 
ATOM     13  O   UNL     1      28.480  -6.789  55.088  1.00  0.00    -0.550 OA
ATOM     14  O   UNL     1      28.628  -4.690  55.994  1.00  0.00    -0.550 OA
ENDBRANCH  11  12
ENDBRANCH  10  11
ENDBRANCH   9  10
ENDBRANCH   8   9
ENDBRANCH   1   8
TORSDOF 9
ENDMDL
MODEL 7
REMARK VINA RESULT:    -3.714      1.565      2.229
REMARK INTER + INTRA:          -6.621
REMARK INTER:                  -5.853
REMARK INTRA:                  -0.768
REMARK UNBOUND:                -0.954
REMARK SMILES O=C([O-])CCCCCCCCC(=O)[O-]
REMARK SMILES IDX 7 1 6 2 5 3 4 4 2 5 1 6 3 7 8 8 9 9 10 10 11 11 12 12 13 13
REMARK SMILES IDX 14 14
REMARK H PARENT
REMARK Flexibility Score: inf
ROOT
ATOM      1  C   UNL     1      25.755  -1.917  53.493  1.00  0.00     0.000 C 
ENDROOT
BRANCH   1   2
ATOM      2  C   UNL     1      26.529  -1.586  52.211  1.00  0.00     0.000 C 
BRANCH   2   3
ATOM      3  C   UNL     1      26.761  -2.849  51.368  1.00  0.00     0.006 C 
BRANCH   3   4
ATOM      4  C   UNL     1      28.083  -3.546  51.717  1.00  0.00     0.053 C 
BRANCH   4   5
ATOM      5  C   UNL     1      27.940  -5.038  51.722  1.00  0.00     0.041 C 
ATOM      6  O   UNL     1      26.818  -5.565  51.941  1.00  0.00    -0.550 OA
ATOM      7  O   UNL     1      29.051  -5.845  51.518  1.00  0.00    -0.550 OA
ENDBRANCH   4   5
ENDBRANCH   3   4
ENDBRANCH   2   3
ENDBRANCH   1   2
BRANCH   1   8
ATOM      8  C   UNL     1      24.789  -3.085  53.266  1.00  0.00     0.000 C 
BRANCH   8   9
ATOM      9  C   UNL     1      24.662  -3.947  54.528  1.00  0.00     0.000 C 
BRANCH   9  10
ATOM     10  C   UNL     1      26.046  -4.287  55.103  1.00  0.00     0.006 C 
BRANCH  10  11
ATOM     11  C   UNL     1      26.048  -5.623  55.859  1.00  0.00     0.053 C 
BRANCH  11  12
ATOM     12  C   UNL     1      25.757  -5.437  57.317  1.00  0.00     0.041 C 
ATOM     13  O   UNL     1      26.661  -5.630  58.172  1.00  0.00    -0.550 OA
ATOM     14  O   UNL     1      24.480  -5.082  57.732  1.00  0.00    -0.550 OA
ENDBRANCH  11  12
ENDBRANCH  10  11
ENDBRANCH   9  10
ENDBRANCH   8   9
ENDBRANCH   1   8
TORSDOF 9
ENDMDL
MODEL 8
REMARK VINA RESULT:    -3.612      2.071      3.423
REMARK INTER + INTRA:          -6.466
REMARK INTER:                  -5.618
REMARK INTRA:                  -0.848
REMARK UNBOUND:                -0.954
REMARK SMILES O=C([O-])CCCCCCCCC(=O)[O-]
REMARK SMILES IDX 7 1 6 2 5 3 4 4 2 5 1 6 3 7 8 8 9 9 10 10 11 11 12 12 13 13
REMARK SMILES IDX 14 14
REMARK H PARENT
REMARK Flexibility Score: inf
ROOT
ATOM      1  C   UNL     1      26.316  -5.487  54.857  1.00  0.00     0.000 C 
ENDROOT
BRANCH   1   2
ATOM      2  C   UNL     1      27.679  -5.760  55.504  1.00  0.00     0.000 C 
BRANCH   2   3
ATOM      3  C   UNL     1      28.812  -5.630  54.476  1.00  0.00     0.006 C 
BRANCH   3   4
ATOM      4  C   UNL     1      28.303  -5.740  53.032  1.00  0.00     0.053 C 
BRANCH   4   5
ATOM      5  C   UNL     1      29.315  -5.240  52.047  1.00  0.00     0.041 C 
ATOM      6  O   UNL     1      30.028  -4.240  52.324  1.00  0.00    -0.550 OA
ATOM      7  O   UNL     1      29.448  -5.858  50.810  1.00  0.00    -0.550 OA
ENDBRANCH   4   5
ENDBRANCH   3   4
ENDBRANCH   2   3
ENDBRANCH   1   2
BRANCH   1   8
ATOM      8  C   UNL     1      25.639  -4.268  55.495  1.00  0.00     0.000 C 
BRANCH   8   9
ATOM      9  C   UNL     1      24.434  -3.811  54.664  1.00  0.00     0.000 C 
BRANCH   9  10
ATOM     10  C   UNL     1      24.838  -3.549  53.206  1.00  0.00     0.006 C 
BRANCH  10  11
ATOM     11  C   UNL     1      25.663  -2.264  53.053  1.00  0.00     0.053 C 
BRANCH  11  12
ATOM     12  C   UNL     1      26.686  -2.385  51.966  1.00  0.00     0.041 C 
ATOM     13  O   UNL     1      26.511  -3.200  51.021  1.00  0.00    -0.550 OA
ATOM     14  O   UNL     1      27.846  -1.624  52.013  1.00  0.00    -0.550 OA
ENDBRANCH  11  12
ENDBRANCH  10  11
ENDBRANCH   9  10
ENDBRANCH   8   9
ENDBRANCH   1   8
TORSDOF 9
ENDMDL
MODEL 9
REMARK VINA RESULT:    -3.608      2.608      2.868
REMARK INTER + INTRA:          -6.461
REMARK INTER:                  -5.646
REMARK INTRA:                  -0.814
REMARK UNBOUND:                -0.954
REMARK SMILES O=C([O-])CCCCCCCCC(=O)[O-]
REMARK SMILES IDX 7 1 6 2 5 3 4 4 2 5 1 6 3 7 8 8 9 9 10 10 11 11 12 12 13 13
REMARK SMILES IDX 14 14
REMARK H PARENT
REMARK Flexibility Score: inf
ROOT
ATOM      1  C   UNL     1      25.925  -2.841  52.833  1.00  0.00     0.000 C 
ENDROOT
BRANCH   1   2
ATOM      2  C   UNL     1      26.469  -3.498  51.560  1.00  0.00     0.000 C 
BRANCH   2   3
ATOM      3  C   UNL     1      26.530  -5.025  51.711  1.00  0.00     0.006 C 
BRANCH   3   4
ATOM      4  C   UNL     1      27.742  -5.480  52.536  1.00  0.00     0.053 C 
BRANCH   4   5
ATOM      5  C   UNL     1      29.034  -5.178  51.838  1.00  0.00     0.041 C 
ATOM      6  O   UNL     1      29.400  -5.872  50.854  1.00  0.00    -0.550 OA
ATOM      7  O   UNL     1      29.848  -4.150  52.296  1.00  0.00    -0.550 OA
ENDBRANCH   4   5
ENDBRANCH   3   4
ENDBRANCH   2   3
ENDBRANCH   1   2
BRANCH   1   8
ATOM      8  C   UNL     1      24.597  -3.479  53.257  1.00  0.00     0.000 C 
BRANCH   8   9
ATOM      9  C   UNL     1      24.674  -4.006  54.695  1.00  0.00     0.000 C 
BRANCH   9  10
ATOM     10  C   UNL     1      25.656  -3.174  55.533  1.00  0.00     0.006 C 
BRANCH  10  11
ATOM     11  C   UNL     1      24.974  -2.511  56.739  1.00  0.00     0.053 C 
BRANCH  11  12
ATOM     12  C   UNL     1      24.133  -1.342  56.328  1.00  0.00     0.041 C 
ATOM     13  O   UNL     1      22.966  -1.211  56.783  1.00  0.00    -0.550 OA
ATOM     14  O   UNL     1      24.625  -0.416  55.417  1.00  0.00    -0.550 OA
ENDBRANCH  11  12
ENDBRANCH  10  11
ENDBRANCH   9  10
ENDBRANCH   8   9
ENDBRANCH   1   8
TORSDOF 9
ENDMDL
