MODEL 1
REMARK VINA RESULT:     5.137      0.000      0.000
REMARK INTER + INTRA:           5.287
REMARK INTER:                   5.287
REMARK INTRA:                   0.000
REMARK UNBOUND:                 0.000
REMARK SMILES Cc1cccc(O)c1C
REMARK SMILES IDX 1 1 2 2 8 3 6 4 5 5 4 6 3 7 9 8 7 9
REMARK H PARENT 7 10
REMARK Flexibility Score: inf
ROOT
ATOM      1  C   UNL     1      14.818  50.756  61.846  1.00  0.00     0.045 C 
ATOM      2  C   UNL     1      14.851  52.262  61.778  1.00  0.00    -0.045 A 
ATOM      3  C   UNL     1      15.117  52.957  60.566  1.00  0.00    -0.006 A 
ATOM      4  C   UNL     1      15.132  54.376  60.575  1.00  0.00     0.118 A 
ATOM      5  C   UNL     1      14.889  55.071  61.763  1.00  0.00     0.046 A 
ATOM      6  C   UNL     1      14.630  54.384  62.945  1.00  0.00     0.004 A 
ATOM      7  C   UNL     1      14.611  52.991  62.954  1.00  0.00     0.004 A 
ATOM      8  C   UNL     1      15.383  52.225  59.270  1.00  0.00     0.048 C 
ENDROOT
BRANCH   4   9
ATOM      9  O   UNL     1      15.386  55.125  59.423  1.00  0.00    -0.508 OA
ATOM     10  H   UNL     1      16.280  55.131  58.948  1.00  0.00     0.293 HD
ENDBRANCH   4   9
TORSDOF 1
ENDMDL
MODEL 2
REMARK VINA RESULT:     5.185      2.269      2.701
REMARK INTER + INTRA:           5.336
REMARK INTER:                   5.336
REMARK INTRA:                   0.000
REMARK UNBOUND:                 0.000
REMARK SMILES Cc1cccc(O)c1C
REMARK SMILES IDX 1 1 2 2 8 3 6 4 5 5 4 6 3 7 9 8 7 9
REMARK H PARENT 7 10
REMARK Flexibility Score: inf
ROOT
ATOM      1  C   UNL     1      15.017  52.433  59.357  1.00  0.00     0.045 C 
ATOM      2  C   UNL     1      15.520  53.225  60.537  1.00  0.00    -0.045 A 
ATOM      3  C   UNL     1      16.697  52.857  61.247  1.00  0.00    -0.006 A 
ATOM      4  C   UNL     1      17.112  53.650  62.348  1.00  0.00     0.118 A 
ATOM      5  C   UNL     1      16.368  54.772  62.723  1.00  0.00     0.046 A 
ATOM      6  C   UNL     1      15.218  55.125  62.024  1.00  0.00     0.004 A 
ATOM      7  C   UNL     1      14.796  54.359  60.940  1.00  0.00     0.004 A 
ATOM      8  C   UNL     1      17.517  51.648  60.858  1.00  0.00     0.048 C 
ENDROOT
BRANCH   4   9
ATOM      9  O   UNL     1      18.257  53.350  63.092  1.00  0.00    -0.508 OA
ATOM     10  H   UNL     1      18.243  52.796  63.938  1.00  0.00     0.293 HD
ENDBRANCH   4   9
TORSDOF 1
ENDMDL
MODEL 3
REMARK VINA RESULT:     5.661      1.708      3.061
REMARK INTER + INTRA:           5.827
REMARK INTER:                   5.827
REMARK INTRA:                   0.000
REMARK UNBOUND:                 0.000
REMARK SMILES Cc1cccc(O)c1C
REMARK SMILES IDX 1 1 2 2 8 3 6 4 5 5 4 6 3 7 9 8 7 9
REMARK H PARENT 7 10
REMARK Flexibility Score: inf
ROOT
ATOM      1  C   UNL     1      16.064  54.898  62.174  1.00  0.00     0.045 C 
ATOM      2  C   UNL     1      15.920  53.596  61.428  1.00  0.00    -0.045 A 
ATOM      3  C   UNL     1      15.336  53.529  60.132  1.00  0.00    -0.006 A 
ATOM      4  C   UNL     1      15.233  52.269  59.489  1.00  0.00     0.118 A 
ATOM      5  C   UNL     1      15.699  51.117  60.127  1.00  0.00     0.046 A 
ATOM      6  C   UNL     1      16.268  51.190  61.394  1.00  0.00     0.004 A 
ATOM      7  C   UNL     1      16.379  52.419  62.041  1.00  0.00     0.004 A 
ATOM      8  C   UNL     1      14.826  54.764  59.424  1.00  0.00     0.048 C 
ENDROOT
BRANCH   4   9
ATOM      9  O   UNL     1      14.672  52.127  58.217  1.00  0.00    -0.508 OA
ATOM     10  H   UNL     1      14.741  51.280  57.668  1.00  0.00     0.293 HD
ENDBRANCH   4   9
TORSDOF 1
ENDMDL
MODEL 4
REMARK VINA RESULT:     5.683      2.039      2.801
REMARK INTER + INTRA:           5.849
REMARK INTER:                   5.849
REMARK INTRA:                   0.000
REMARK UNBOUND:                 0.000
REMARK SMILES Cc1cccc(O)c1C
REMARK SMILES IDX 1 1 2 2 8 3 6 4 5 5 4 6 3 7 9 8 7 9
REMARK H PARENT 7 10
REMARK Flexibility Score: inf
ROOT
ATOM      1  C   UNL     1      16.959  51.985  60.101  1.00  0.00     0.045 C 
ATOM      2  C   UNL     1      16.051  52.684  61.079  1.00  0.00    -0.045 A 
ATOM      3  C   UNL     1      15.023  51.994  61.782  1.00  0.00    -0.006 A 
ATOM      4  C   UNL     1      14.206  52.717  62.689  1.00  0.00     0.118 A 
ATOM      5  C   UNL     1      14.413  54.085  62.882  1.00  0.00     0.046 A 
ATOM      6  C   UNL     1      15.419  54.753  62.191  1.00  0.00     0.004 A 
ATOM      7  C   UNL     1      16.232  54.060  61.296  1.00  0.00     0.004 A 
ATOM      8  C   UNL     1      14.782  50.514  61.589  1.00  0.00     0.048 C 
ENDROOT
BRANCH   4   9
ATOM      9  O   UNL     1      13.179  52.106  63.413  1.00  0.00    -0.508 OA
ATOM     10  H   UNL     1      12.289  52.550  63.603  1.00  0.00     0.293 HD
ENDBRANCH   4   9
TORSDOF 1
ENDMDL
MODEL 5
REMARK VINA RESULT:     5.684      2.257      3.847
REMARK INTER + INTRA:           5.851
REMARK INTER:                   5.851
REMARK INTRA:                   0.000
REMARK UNBOUND:                 0.000
REMARK SMILES Cc1cccc(O)c1C
REMARK SMILES IDX 1 1 2 2 8 3 6 4 5 5 4 6 3 7 9 8 7 9
REMARK H PARENT 7 10
REMARK Flexibility Score: inf
ROOT
ATOM      1  C   UNL     1      14.654  54.720  62.027  1.00  0.00     0.045 C 
ATOM      2  C   UNL     1      15.120  53.390  61.493  1.00  0.00    -0.045 A 
ATOM      3  C   UNL     1      14.639  52.156  62.014  1.00  0.00    -0.006 A 
ATOM      4  C   UNL     1      15.122  50.941  61.462  1.00  0.00     0.118 A 
ATOM      5  C   UNL     1      16.055  50.966  60.423  1.00  0.00     0.046 A 
ATOM      6  C   UNL     1      16.520  52.176  59.918  1.00  0.00     0.004 A 
ATOM      7  C   UNL     1      16.058  53.379  60.447  1.00  0.00     0.004 A 
ATOM      8  C   UNL     1      13.629  52.106  63.138  1.00  0.00     0.048 C 
ENDROOT
BRANCH   4   9
ATOM      9  O   UNL     1      14.695  49.693  61.924  1.00  0.00    -0.508 OA
ATOM     10  H   UNL     1      15.328  48.969  62.240  1.00  0.00     0.293 HD
ENDBRANCH   4   9
TORSDOF 1
ENDMDL
MODEL 6
REMARK VINA RESULT:     5.960      2.471      3.540
REMARK INTER + INTRA:           6.134
REMARK INTER:                   6.134
REMARK INTRA:                   0.000
REMARK UNBOUND:                 0.000
REMARK SMILES Cc1cccc(O)c1C
REMARK SMILES IDX 1 1 2 2 8 3 6 4 5 5 4 6 3 7 9 8 7 9
REMARK H PARENT 7 10
REMARK Flexibility Score: inf
ROOT
ATOM      1  C   UNL     1      15.155  54.228  62.998  1.00  0.00     0.045 C 
ATOM      2  C   UNL     1      15.563  53.148  62.029  1.00  0.00    -0.045 A 
ATOM      3  C   UNL     1      16.928  52.828  61.786  1.00  0.00    -0.006 A 
ATOM      4  C   UNL     1      17.239  51.799  60.860  1.00  0.00     0.118 A 
ATOM      5  C   UNL     1      16.213  51.117  60.200  1.00  0.00     0.046 A 
ATOM      6  C   UNL     1      14.881  51.436  60.442  1.00  0.00     0.004 A 
ATOM      7  C   UNL     1      14.556  52.443  61.349  1.00  0.00     0.004 A 
ATOM      8  C   UNL     1      18.053  53.553  62.489  1.00  0.00     0.048 C 
ENDROOT
BRANCH   4   9
ATOM      9  O   UNL     1      18.556  51.431  60.572  1.00  0.00    -0.508 OA
ATOM     10  H   UNL     1      19.232  52.057  60.154  1.00  0.00     0.293 HD
ENDBRANCH   4   9
TORSDOF 1
ENDMDL
MODEL 7
REMARK VINA RESULT:     6.332      2.189      3.789
REMARK INTER + INTRA:           6.517
REMARK INTER:                   6.517
REMARK INTRA:                   0.000
REMARK UNBOUND:                 0.000
REMARK SMILES Cc1cccc(O)c1C
REMARK SMILES IDX 1 1 2 2 8 3 6 4 5 5 4 6 3 7 9 8 7 9
REMARK H PARENT 7 10
REMARK Flexibility Score: inf
ROOT
ATOM      1  C   UNL     1      16.973  55.125  62.124  1.00  0.00     0.045 C 
ATOM      2  C   UNL     1      16.171  53.857  61.974  1.00  0.00    -0.045 A 
ATOM      3  C   UNL     1      14.952  53.646  62.677  1.00  0.00    -0.006 A 
ATOM      4  C   UNL     1      14.250  52.429  62.486  1.00  0.00     0.118 A 
ATOM      5  C   UNL     1      14.756  51.456  61.619  1.00  0.00     0.046 A 
ATOM      6  C   UNL     1      15.949  51.670  60.936  1.00  0.00     0.004 A 
ATOM      7  C   UNL     1      16.652  52.859  61.110  1.00  0.00     0.004 A 
ATOM      8  C   UNL     1      14.386  54.685  63.618  1.00  0.00     0.048 C 
ENDROOT
BRANCH   4   9
ATOM      9  O   UNL     1      13.047  52.153  63.142  1.00  0.00    -0.508 OA
ATOM     10  H   UNL     1      12.992  51.642  64.014  1.00  0.00     0.293 HD
ENDBRANCH   4   9
TORSDOF 1
ENDMDL
MODEL 8
REMARK VINA RESULT:     6.453      2.355      3.160
REMARK INTER + INTRA:           6.641
REMARK INTER:                   6.641
REMARK INTRA:                   0.000
REMARK UNBOUND:                 0.000
REMARK SMILES Cc1cccc(O)c1C
REMARK SMILES IDX 1 1 2 2 8 3 6 4 5 5 4 6 3 7 9 8 7 9
REMARK H PARENT 7 10
REMARK Flexibility Score: inf
ROOT
ATOM      1  C   UNL     1      14.767  52.060  59.528  1.00  0.00     0.045 C 
ATOM      2  C   UNL     1      15.855  52.421  60.506  1.00  0.00    -0.045 A 
ATOM      3  C   UNL     1      15.760  53.558  61.356  1.00  0.00    -0.006 A 
ATOM      4  C   UNL     1      16.823  53.837  62.253  1.00  0.00     0.118 A 
ATOM      5  C   UNL     1      17.943  53.003  62.293  1.00  0.00     0.046 A 
ATOM      6  C   UNL     1      18.029  51.893  61.458  1.00  0.00     0.004 A 
ATOM      7  C   UNL     1      16.995  51.603  60.571  1.00  0.00     0.004 A 
ATOM      8  C   UNL     1      14.557  54.474  61.329  1.00  0.00     0.048 C 
ENDROOT
BRANCH   4   9
ATOM      9  O   UNL     1      16.798  54.935  63.117  1.00  0.00    -0.508 OA
ATOM     10  H   UNL     1      17.469  55.073  63.863  1.00  0.00     0.293 HD
ENDBRANCH   4   9
TORSDOF 1
ENDMDL
MODEL 9
REMARK VINA RESULT:     6.499      2.009      3.066
REMARK INTER + INTRA:           6.689
REMARK INTER:                   6.689
REMARK INTRA:                   0.000
REMARK UNBOUND:                 0.000
REMARK SMILES Cc1cccc(O)c1C
REMARK SMILES IDX 1 1 2 2 8 3 6 4 5 5 4 6 3 7 9 8 7 9
REMARK H PARENT 7 10
REMARK Flexibility Score: inf
ROOT
ATOM      1  C   UNL     1      17.486  51.845  60.401  1.00  0.00     0.045 C 
ATOM      2  C   UNL     1      16.212  51.959  61.198  1.00  0.00    -0.045 A 
ATOM      3  C   UNL     1      15.875  53.138  61.921  1.00  0.00    -0.006 A 
ATOM      4  C   UNL     1      14.658  53.174  62.648  1.00  0.00     0.118 A 
ATOM      5  C   UNL     1      13.810  52.064  62.650  1.00  0.00     0.046 A 
ATOM      6  C   UNL     1      14.145  50.915  61.941  1.00  0.00     0.004 A 
ATOM      7  C   UNL     1      15.336  50.861  61.220  1.00  0.00     0.004 A 
ATOM      8  C   UNL     1      16.779  54.350  61.932  1.00  0.00     0.048 C 
ENDROOT
BRANCH   4   9
ATOM      9  O   UNL     1      14.263  54.297  63.381  1.00  0.00    -0.508 OA
ATOM     10  H   UNL     1      13.705  55.047  62.993  1.00  0.00     0.293 HD
ENDBRANCH   4   9
TORSDOF 1
ENDMDL
