MODEL 1
REMARK VINA RESULT:    -7.387      0.000      0.000
REMARK INTER + INTRA:          -8.950
REMARK INTER:                  -8.683
REMARK INTRA:                  -0.267
REMARK UNBOUND:                -0.267
REMARK SMILES O=c1cc(-c2ccc(O)c(O)c2)oc2cc(O)cc(O)c12
REMARK SMILES IDX 4 1 3 2 2 3 1 4 21 5 19 6 18 7 16 8 15 9 14 10 13 11 5 12
REMARK SMILES IDX 6 13 7 14 8 15 12 16 10 17 9 18 11 20 20 22 17 24
REMARK H PARENT 9 19 11 21 20 23 17 25
REMARK Flexibility Score: inf
ROOT
ATOM      1  C   UNL     1      31.083 -92.266  37.475  1.00  0.00     0.138 A 
ATOM      2  C   UNL     1      29.862 -92.874  37.139  1.00  0.00     0.100 A 
ATOM      3  C   UNL     1      29.715 -94.252  37.299  1.00  0.00     0.197 A 
ATOM      4  O   UNL     1      28.616 -94.790  36.993  1.00  0.00    -0.289 OA
ATOM      5  C   UNL     1      30.794 -95.015  37.790  1.00  0.00     0.107 A 
ATOM      6  C   UNL     1      30.728 -96.414  37.983  1.00  0.00     0.134 A 
ATOM      7  C   UNL     1      31.849 -97.102  38.473  1.00  0.00     0.093 A 
ATOM      8  C   UNL     1      33.030 -96.418  38.771  1.00  0.00     0.123 A 
ATOM      9  C   UNL     1      33.101 -95.034  38.583  1.00  0.00     0.094 A 
ATOM     10  C   UNL     1      31.995 -94.331  38.097  1.00  0.00     0.146 A 
ATOM     11  O   UNL     1      32.086 -93.015  37.928  1.00  0.00    -0.456 OA
ENDROOT
BRANCH   1  12
ATOM     12  C   UNL     1      31.298 -90.804  37.325  1.00  0.00     0.021 A 
ATOM     13  C   UNL     1      32.287 -90.336  36.446  1.00  0.00     0.016 A 
ATOM     14  C   UNL     1      32.510 -88.968  36.292  1.00  0.00     0.051 A 
ATOM     15  C   UNL     1      31.763 -88.036  37.018  1.00  0.00     0.157 A 
ATOM     16  C   UNL     1      30.554 -89.867  38.068  1.00  0.00     0.062 A 
ATOM     17  C   UNL     1      30.775 -88.491  37.922  1.00  0.00     0.158 A 
BRANCH  15  18
ATOM     18  O   UNL     1      32.034 -86.681  36.813  1.00  0.00    -0.504 OA
ATOM     19  H   UNL     1      32.008 -85.984  37.543  1.00  0.00     0.293 HD
ENDBRANCH  15  18
BRANCH  17  20
ATOM     20  O   UNL     1      30.000 -87.621  38.692  1.00  0.00    -0.504 OA
ATOM     21  H   UNL     1      29.006 -87.723  38.832  1.00  0.00     0.293 HD
ENDBRANCH  17  20
ENDBRANCH   1  12
BRANCH   6  22
ATOM     22  O   UNL     1      29.563 -97.125  37.693  1.00  0.00    -0.507 OA
ATOM     23  H   UNL     1      29.575 -97.956  37.113  1.00  0.00     0.293 HD
ENDBRANCH   6  22
BRANCH   8  24
ATOM     24  O   UNL     1      34.129 -97.125  39.255  1.00  0.00    -0.508 OA
ATOM     25  H   UNL     1      34.085 -97.640  40.127  1.00  0.00     0.293 HD
ENDBRANCH   8  24
TORSDOF 5
ENDMDL
MODEL 2
REMARK VINA RESULT:    -5.742      8.791     10.977
REMARK INTER + INTRA:          -7.016
REMARK INTER:                  -6.699
REMARK INTRA:                  -0.317
REMARK UNBOUND:                -0.267
REMARK SMILES O=c1cc(-c2ccc(O)c(O)c2)oc2cc(O)cc(O)c12
REMARK SMILES IDX 4 1 3 2 2 3 1 4 21 5 19 6 18 7 16 8 15 9 14 10 13 11 5 12
REMARK SMILES IDX 6 13 7 14 8 15 12 16 10 17 9 18 11 20 20 22 17 24
REMARK H PARENT 9 19 11 21 20 23 17 25
REMARK Flexibility Score: inf
ROOT
ATOM      1  C   UNL     1      40.646 -95.090  35.705  1.00  0.00     0.138 A 
ATOM      2  C   UNL     1      41.772 -95.310  34.896  1.00  0.00     0.100 A 
ATOM      3  C   UNL     1      41.624 -95.351  33.509  1.00  0.00     0.197 A 
ATOM      4  O   UNL     1      42.641 -95.551  32.791  1.00  0.00    -0.289 OA
ATOM      5  C   UNL     1      40.347 -95.175  32.940  1.00  0.00     0.107 A 
ATOM      6  C   UNL     1      40.110 -95.200  31.546  1.00  0.00     0.134 A 
ATOM      7  C   UNL     1      38.807 -95.020  31.059  1.00  0.00     0.093 A 
ATOM      8  C   UNL     1      37.740 -94.818  31.937  1.00  0.00     0.123 A 
ATOM      9  C   UNL     1      37.968 -94.792  33.317  1.00  0.00     0.094 A 
ATOM     10  C   UNL     1      39.259 -94.967  33.822  1.00  0.00     0.146 A 
ATOM     11  O   UNL     1      39.451 -94.936  35.137  1.00  0.00    -0.456 OA
ENDROOT
BRANCH   1  12
ATOM     12  C   UNL     1      40.742 -95.038  37.186  1.00  0.00     0.021 A 
ATOM     13  C   UNL     1      41.936 -95.424  37.815  1.00  0.00     0.016 A 
ATOM     14  C   UNL     1      42.050 -95.388  39.205  1.00  0.00     0.051 A 
ATOM     15  C   UNL     1      40.974 -94.979  39.999  1.00  0.00     0.157 A 
ATOM     16  C   UNL     1      39.654 -94.639  37.985  1.00  0.00     0.062 A 
ATOM     17  C   UNL     1      39.758 -94.604  39.382  1.00  0.00     0.158 A 
BRANCH  15  18
ATOM     18  O   UNL     1      41.156 -94.961  41.384  1.00  0.00    -0.504 OA
ATOM     19  H   UNL     1      41.682 -94.253  41.875  1.00  0.00     0.293 HD
ENDBRANCH  15  18
BRANCH  17  20
ATOM     20  O   UNL     1      38.637 -94.199  40.109  1.00  0.00    -0.504 OA
ATOM     21  H   UNL     1      38.288 -94.682  40.923  1.00  0.00     0.293 HD
ENDBRANCH  17  20
ENDBRANCH   1  12
BRANCH   6  22
ATOM     22  O   UNL     1      41.156 -95.401  30.644  1.00  0.00    -0.507 OA
ATOM     23  H   UNL     1      41.820 -94.668  30.425  1.00  0.00     0.293 HD
ENDBRANCH   6  22
BRANCH   8  24
ATOM     24  O   UNL     1      36.455 -94.643  31.428  1.00  0.00    -0.508 OA
ATOM     25  H   UNL     1      35.950 -93.772  31.549  1.00  0.00     0.293 HD
ENDBRANCH   8  24
TORSDOF 5
ENDMDL
MODEL 3
REMARK VINA RESULT:    -5.645      9.222     10.809
REMARK INTER + INTRA:          -6.902
REMARK INTER:                  -6.624
REMARK INTRA:                  -0.278
REMARK UNBOUND:                -0.267
REMARK SMILES O=c1cc(-c2ccc(O)c(O)c2)oc2cc(O)cc(O)c12
REMARK SMILES IDX 4 1 3 2 2 3 1 4 21 5 19 6 18 7 16 8 15 9 14 10 13 11 5 12
REMARK SMILES IDX 6 13 7 14 8 15 12 16 10 17 9 18 11 20 20 22 17 24
REMARK H PARENT 9 19 11 21 20 23 17 25
REMARK Flexibility Score: inf
ROOT
ATOM      1  C   UNL     1      37.550 -95.360  30.980  1.00  0.00     0.138 A 
ATOM      2  C   UNL     1      38.177 -96.041  29.924  1.00  0.00     0.100 A 
ATOM      3  C   UNL     1      37.505 -96.194  28.711  1.00  0.00     0.197 A 
ATOM      4  O   UNL     1      38.076 -96.809  27.769  1.00  0.00    -0.289 OA
ATOM      5  C   UNL     1      36.206 -95.668  28.563  1.00  0.00     0.107 A 
ATOM      6  C   UNL     1      35.457 -95.778  27.369  1.00  0.00     0.134 A 
ATOM      7  C   UNL     1      34.167 -95.230  27.305  1.00  0.00     0.093 A 
ATOM      8  C   UNL     1      33.614 -94.577  28.409  1.00  0.00     0.123 A 
ATOM      9  C   UNL     1      34.351 -94.465  29.593  1.00  0.00     0.094 A 
ATOM     10  C   UNL     1      35.638 -95.003  29.677  1.00  0.00     0.146 A 
ATOM     11  O   UNL     1      36.319 -94.882  30.812  1.00  0.00    -0.456 OA
ENDROOT
BRANCH   1  12
ATOM     12  C   UNL     1      38.216 -95.167  32.293  1.00  0.00     0.021 A 
ATOM     13  C   UNL     1      39.430 -94.465  32.357  1.00  0.00     0.016 A 
ATOM     14  C   UNL     1      40.077 -94.275  33.578  1.00  0.00     0.051 A 
ATOM     15  C   UNL     1      39.537 -94.789  34.761  1.00  0.00     0.157 A 
ATOM     16  C   UNL     1      37.678 -95.697  33.481  1.00  0.00     0.062 A 
ATOM     17  C   UNL     1      38.323 -95.514  34.711  1.00  0.00     0.158 A 
BRANCH  15  18
ATOM     18  O   UNL     1      40.232 -94.559  35.950  1.00  0.00    -0.504 OA
ATOM     19  H   UNL     1      40.979 -93.888  36.046  1.00  0.00     0.293 HD
ENDBRANCH  15  18
BRANCH  17  20
ATOM     20  O   UNL     1      37.730 -96.070  35.847  1.00  0.00    -0.504 OA
ATOM     21  H   UNL     1      37.902 -97.010  36.171  1.00  0.00     0.293 HD
ENDBRANCH  17  20
ENDBRANCH   1  12
BRANCH   6  22
ATOM     22  O   UNL     1      35.982 -96.425  26.249  1.00  0.00    -0.507 OA
ATOM     23  H   UNL     1      35.859 -96.056  25.314  1.00  0.00     0.293 HD
ENDBRANCH   6  22
BRANCH   8  24
ATOM     24  O   UNL     1      32.331 -94.043  28.319  1.00  0.00    -0.508 OA
ATOM     25  H   UNL     1      31.919 -93.801  27.425  1.00  0.00     0.293 HD
ENDBRANCH   8  24
TORSDOF 5
ENDMDL
MODEL 4
REMARK VINA RESULT:    -5.588     15.322     17.426
REMARK INTER + INTRA:          -6.835
REMARK INTER:                  -6.540
REMARK INTRA:                  -0.295
REMARK UNBOUND:                -0.267
REMARK SMILES O=c1cc(-c2ccc(O)c(O)c2)oc2cc(O)cc(O)c12
REMARK SMILES IDX 4 1 3 2 2 3 1 4 21 5 19 6 18 7 16 8 15 9 14 10 13 11 5 12
REMARK SMILES IDX 6 13 7 14 8 15 12 16 10 17 9 18 11 20 20 22 17 24
REMARK H PARENT 9 19 11 21 20 23 17 25
REMARK Flexibility Score: inf
ROOT
ATOM      1  C   UNL     1      37.702 -77.385  34.437  1.00  0.00     0.138 A 
ATOM      2  C   UNL     1      37.942 -77.211  35.809  1.00  0.00     0.100 A 
ATOM      3  C   UNL     1      36.879 -77.298  36.709  1.00  0.00     0.197 A 
ATOM      4  O   UNL     1      37.104 -77.138  37.939  1.00  0.00    -0.289 OA
ATOM      5  C   UNL     1      35.580 -77.555  36.227  1.00  0.00     0.107 A 
ATOM      6  C   UNL     1      34.448 -77.660  37.069  1.00  0.00     0.134 A 
ATOM      7  C   UNL     1      33.186 -77.913  36.511  1.00  0.00     0.093 A 
ATOM      8  C   UNL     1      33.036 -78.062  35.130  1.00  0.00     0.123 A 
ATOM      9  C   UNL     1      34.151 -77.960  34.291  1.00  0.00     0.094 A 
ATOM     10  C   UNL     1      35.417 -77.709  34.829  1.00  0.00     0.146 A 
ATOM     11  O   UNL     1      36.461 -77.618  34.013  1.00  0.00    -0.456 OA
ENDROOT
BRANCH   1  12
ATOM     12  C   UNL     1      38.794 -77.303  33.434  1.00  0.00     0.021 A 
ATOM     13  C   UNL     1      38.475 -77.156  32.074  1.00  0.00     0.016 A 
ATOM     14  C   UNL     1      39.483 -77.082  31.113  1.00  0.00     0.051 A 
ATOM     15  C   UNL     1      40.829 -77.163  31.481  1.00  0.00     0.157 A 
ATOM     16  C   UNL     1      40.149 -77.399  33.804  1.00  0.00     0.062 A 
ATOM     17  C   UNL     1      41.167 -77.328  32.845  1.00  0.00     0.158 A 
BRANCH  15  18
ATOM     18  O   UNL     1      41.789 -77.076  30.470  1.00  0.00    -0.504 OA
ATOM     19  H   UNL     1      41.703 -77.526  29.571  1.00  0.00     0.293 HD
ENDBRANCH  15  18
BRANCH  17  20
ATOM     20  O   UNL     1      42.488 -77.432  33.286  1.00  0.00    -0.504 OA
ATOM     21  H   UNL     1      43.291 -77.398  32.677  1.00  0.00     0.293 HD
ENDBRANCH  17  20
ENDBRANCH   1  12
BRANCH   6  22
ATOM     22  O   UNL     1      34.567 -77.515  38.453  1.00  0.00    -0.507 OA
ATOM     23  H   UNL     1      33.756 -77.508  39.060  1.00  0.00     0.293 HD
ENDBRANCH   6  22
BRANCH   8  24
ATOM     24  O   UNL     1      31.771 -78.312  34.600  1.00  0.00    -0.508 OA
ATOM     25  H   UNL     1      31.616 -79.055  33.928  1.00  0.00     0.293 HD
ENDBRANCH   8  24
TORSDOF 5
ENDMDL
MODEL 5
REMARK VINA RESULT:    -5.477     14.965     16.291
REMARK INTER + INTRA:          -6.705
REMARK INTER:                  -6.388
REMARK INTRA:                  -0.317
REMARK UNBOUND:                -0.267
REMARK SMILES O=c1cc(-c2ccc(O)c(O)c2)oc2cc(O)cc(O)c12
REMARK SMILES IDX 4 1 3 2 2 3 1 4 21 5 19 6 18 7 16 8 15 9 14 10 13 11 5 12
REMARK SMILES IDX 6 13 7 14 8 15 12 16 10 17 9 18 11 20 20 22 17 24
REMARK H PARENT 9 19 11 21 20 23 17 25
REMARK Flexibility Score: inf
ROOT
ATOM      1  C   UNL     1      37.076 -78.088  37.345  1.00  0.00     0.138 A 
ATOM      2  C   UNL     1      38.243 -77.610  36.726  1.00  0.00     0.100 A 
ATOM      3  C   UNL     1      39.465 -77.715  37.391  1.00  0.00     0.197 A 
ATOM      4  O   UNL     1      40.507 -77.281  36.829  1.00  0.00    -0.289 OA
ATOM      5  C   UNL     1      39.511 -78.295  38.675  1.00  0.00     0.107 A 
ATOM      6  C   UNL     1      40.707 -78.441  39.416  1.00  0.00     0.134 A 
ATOM      7  C   UNL     1      40.668 -79.025  40.691  1.00  0.00     0.093 A 
ATOM      8  C   UNL     1      39.459 -79.464  41.236  1.00  0.00     0.123 A 
ATOM      9  C   UNL     1      38.273 -79.323  40.508  1.00  0.00     0.094 A 
ATOM     10  C   UNL     1      38.291 -78.744  39.236  1.00  0.00     0.146 A 
ATOM     11  O   UNL     1      37.152 -78.623  38.562  1.00  0.00    -0.456 OA
ENDROOT
BRANCH   1  12
ATOM     12  C   UNL     1      35.748 -78.003  36.686  1.00  0.00     0.021 A 
ATOM     13  C   UNL     1      35.670 -77.643  35.331  1.00  0.00     0.016 A 
ATOM     14  C   UNL     1      34.434 -77.551  34.692  1.00  0.00     0.051 A 
ATOM     15  C   UNL     1      33.248 -77.805  35.388  1.00  0.00     0.157 A 
ATOM     16  C   UNL     1      34.554 -78.244  37.392  1.00  0.00     0.062 A 
ATOM     17  C   UNL     1      33.309 -78.151  36.758  1.00  0.00     0.158 A 
BRANCH  15  18
ATOM     18  O   UNL     1      32.045 -77.701  34.687  1.00  0.00    -0.504 OA
ATOM     19  H   UNL     1      31.424 -76.906  34.746  1.00  0.00     0.293 HD
ENDBRANCH  15  18
BRANCH  17  20
ATOM     20  O   UNL     1      32.167 -78.403  37.523  1.00  0.00    -0.504 OA
ATOM     21  H   UNL     1      31.796 -77.764  38.210  1.00  0.00     0.293 HD
ENDBRANCH  17  20
ENDBRANCH   1  12
BRANCH   6  22
ATOM     22  O   UNL     1      41.929 -78.011  38.898  1.00  0.00    -0.507 OA
ATOM     23  H   UNL     1      42.433 -77.229  39.301  1.00  0.00     0.293 HD
ENDBRANCH   6  22
BRANCH   8  24
ATOM     24  O   UNL     1      39.447 -80.041  42.505  1.00  0.00    -0.508 OA
ATOM     25  H   UNL     1      40.307 -80.258  42.996  1.00  0.00     0.293 HD
ENDBRANCH   8  24
TORSDOF 5
ENDMDL
MODEL 6
REMARK VINA RESULT:    -5.464      9.249     10.673
REMARK INTER + INTRA:          -6.689
REMARK INTER:                  -6.412
REMARK INTRA:                  -0.277
REMARK UNBOUND:                -0.267
REMARK SMILES O=c1cc(-c2ccc(O)c(O)c2)oc2cc(O)cc(O)c12
REMARK SMILES IDX 4 1 3 2 2 3 1 4 21 5 19 6 18 7 16 8 15 9 14 10 13 11 5 12
REMARK SMILES IDX 6 13 7 14 8 15 12 16 10 17 9 18 11 20 20 22 17 24
REMARK H PARENT 9 19 11 21 20 23 17 25
REMARK Flexibility Score: inf
ROOT
ATOM      1  C   UNL     1      36.265 -95.352  29.892  1.00  0.00     0.138 A 
ATOM      2  C   UNL     1      37.325 -95.700  29.039  1.00  0.00     0.100 A 
ATOM      3  C   UNL     1      38.632 -95.682  29.526  1.00  0.00     0.197 A 
ATOM      4  O   UNL     1      39.578 -95.994  28.752  1.00  0.00    -0.289 OA
ATOM      5  C   UNL     1      38.871 -95.311  30.864  1.00  0.00     0.107 A 
ATOM      6  C   UNL     1      40.163 -95.268  31.437  1.00  0.00     0.134 A 
ATOM      7  C   UNL     1      40.317 -94.884  32.778  1.00  0.00     0.093 A 
ATOM      8  C   UNL     1      39.206 -94.542  33.553  1.00  0.00     0.123 A 
ATOM      9  C   UNL     1      37.925 -94.583  32.992  1.00  0.00     0.094 A 
ATOM     10  C   UNL     1      37.751 -94.964  31.659  1.00  0.00     0.146 A 
ATOM     11  O   UNL     1      36.525 -94.998  31.149  1.00  0.00    -0.456 OA
ENDROOT
BRANCH   1  12
ATOM     12  C   UNL     1      34.854 -95.353  29.429  1.00  0.00     0.021 A 
ATOM     13  C   UNL     1      34.467 -94.494  28.388  1.00  0.00     0.016 A 
ATOM     14  C   UNL     1      33.147 -94.472  27.940  1.00  0.00     0.051 A 
ATOM     15  C   UNL     1      32.180 -95.297  28.523  1.00  0.00     0.157 A 
ATOM     16  C   UNL     1      33.879 -96.173  30.027  1.00  0.00     0.062 A 
ATOM     17  C   UNL     1      32.549 -96.156  29.585  1.00  0.00     0.158 A 
BRANCH  15  18
ATOM     18  O   UNL     1      30.877 -95.231  28.023  1.00  0.00    -0.504 OA
ATOM     19  H   UNL     1      30.653 -95.057  27.055  1.00  0.00     0.293 HD
ENDBRANCH  15  18
BRANCH  17  20
ATOM     20  O   UNL     1      31.637 -96.996  30.227  1.00  0.00    -0.504 OA
ATOM     21  H   UNL     1      31.820 -97.464  31.102  1.00  0.00     0.293 HD
ENDBRANCH  17  20
ENDBRANCH   1  12
BRANCH   6  22
ATOM     22  O   UNL     1      41.292 -95.603  30.688  1.00  0.00    -0.507 OA
ATOM     23  H   UNL     1      42.217 -95.635  31.102  1.00  0.00     0.293 HD
ENDBRANCH   6  22
BRANCH   8  24
ATOM     24  O   UNL     1      39.387 -94.163  34.881  1.00  0.00    -0.508 OA
ATOM     25  H   UNL     1      38.974 -94.689  35.643  1.00  0.00     0.293 HD
ENDBRANCH   8  24
TORSDOF 5
ENDMDL
MODEL 7
REMARK VINA RESULT:    -5.350     15.737     18.058
REMARK INTER + INTRA:          -6.555
REMARK INTER:                  -6.241
REMARK INTRA:                  -0.314
REMARK UNBOUND:                -0.267
REMARK SMILES O=c1cc(-c2ccc(O)c(O)c2)oc2cc(O)cc(O)c12
REMARK SMILES IDX 4 1 3 2 2 3 1 4 21 5 19 6 18 7 16 8 15 9 14 10 13 11 5 12
REMARK SMILES IDX 6 13 7 14 8 15 12 16 10 17 9 18 11 20 20 22 17 24
REMARK H PARENT 9 19 11 21 20 23 17 25
REMARK Flexibility Score: inf
ROOT
ATOM      1  C   UNL     1      38.120 -77.251  35.213  1.00  0.00     0.138 A 
ATOM      2  C   UNL     1      39.413 -77.245  35.760  1.00  0.00     0.100 A 
ATOM      3  C   UNL     1      40.519 -77.249  34.909  1.00  0.00     0.197 A 
ATOM      4  O   UNL     1      41.676 -77.246  35.410  1.00  0.00    -0.289 OA
ATOM      5  C   UNL     1      40.323 -77.262  33.514  1.00  0.00     0.107 A 
ATOM      6  C   UNL     1      41.387 -77.265  32.582  1.00  0.00     0.134 A 
ATOM      7  C   UNL     1      41.108 -77.283  31.207  1.00  0.00     0.093 A 
ATOM      8  C   UNL     1      39.789 -77.299  30.749  1.00  0.00     0.123 A 
ATOM      9  C   UNL     1      38.731 -77.296  31.665  1.00  0.00     0.094 A 
ATOM     10  C   UNL     1      38.989 -77.277  33.039  1.00  0.00     0.146 A 
ATOM     11  O   UNL     1      37.968 -77.272  33.890  1.00  0.00    -0.456 OA
ENDROOT
BRANCH   1  12
ATOM     12  C   UNL     1      36.906 -77.248  36.068  1.00  0.00     0.021 A 
ATOM     13  C   UNL     1      37.013 -76.881  37.419  1.00  0.00     0.016 A 
ATOM     14  C   UNL     1      35.889 -76.875  38.244  1.00  0.00     0.051 A 
ATOM     15  C   UNL     1      34.635 -77.246  37.747  1.00  0.00     0.157 A 
ATOM     16  C   UNL     1      35.648 -77.635  35.570  1.00  0.00     0.062 A 
ATOM     17  C   UNL     1      34.514 -77.635  36.393  1.00  0.00     0.158 A 
BRANCH  15  18
ATOM     18  O   UNL     1      33.549 -77.213  38.624  1.00  0.00    -0.504 OA
ATOM     19  H   UNL     1      32.918 -76.430  38.713  1.00  0.00     0.293 HD
ENDBRANCH  15  18
BRANCH  17  20
ATOM     20  O   UNL     1      33.299 -78.033  35.829  1.00  0.00    -0.504 OA
ATOM     21  H   UNL     1      32.934 -78.972  35.879  1.00  0.00     0.293 HD
ENDBRANCH  17  20
ENDBRANCH   1  12
BRANCH   6  22
ATOM     22  O   UNL     1      42.716 -77.251  33.010  1.00  0.00    -0.507 OA
ATOM     23  H   UNL     1      43.100 -76.469  33.527  1.00  0.00     0.293 HD
ENDBRANCH   6  22
BRANCH   8  24
ATOM     24  O   UNL     1      39.538 -77.318  29.378  1.00  0.00    -0.508 OA
ATOM     25  H   UNL     1      40.074 -77.906  28.749  1.00  0.00     0.293 HD
ENDBRANCH   8  24
TORSDOF 5
ENDMDL
MODEL 8
REMARK VINA RESULT:    -5.304     17.105     18.345
REMARK INTER + INTRA:          -6.501
REMARK INTER:                  -6.187
REMARK INTRA:                  -0.314
REMARK UNBOUND:                -0.267
REMARK SMILES O=c1cc(-c2ccc(O)c(O)c2)oc2cc(O)cc(O)c12
REMARK SMILES IDX 4 1 3 2 2 3 1 4 21 5 19 6 18 7 16 8 15 9 14 10 13 11 5 12
REMARK SMILES IDX 6 13 7 14 8 15 12 16 10 17 9 18 11 20 20 22 17 24
REMARK H PARENT 9 19 11 21 20 23 17 25
REMARK Flexibility Score: inf
ROOT
ATOM      1  C   UNL     1      39.279 -77.302  36.531  1.00  0.00     0.138 A 
ATOM      2  C   UNL     1      37.935 -77.335  36.124  1.00  0.00     0.100 A 
ATOM      3  C   UNL     1      37.631 -77.357  34.762  1.00  0.00     0.197 A 
ATOM      4  O   UNL     1      36.422 -77.384  34.405  1.00  0.00    -0.289 OA
ATOM      5  C   UNL     1      38.675 -77.341  33.815  1.00  0.00     0.107 A 
ATOM      6  C   UNL     1      38.455 -77.363  32.419  1.00  0.00     0.134 A 
ATOM      7  C   UNL     1      39.550 -77.342  31.541  1.00  0.00     0.093 A 
ATOM      8  C   UNL     1      40.856 -77.297  32.034  1.00  0.00     0.123 A 
ATOM      9  C   UNL     1      41.081 -77.276  33.415  1.00  0.00     0.094 A 
ATOM     10  C   UNL     1      40.003 -77.298  34.305  1.00  0.00     0.146 A 
ATOM     11  O   UNL     1      40.242 -77.279  35.612  1.00  0.00    -0.456 OA
ENDROOT
BRANCH   1  12
ATOM     12  C   UNL     1      39.662 -77.276  37.965  1.00  0.00     0.021 A 
ATOM     13  C   UNL     1      38.710 -76.911  38.930  1.00  0.00     0.016 A 
ATOM     14  C   UNL     1      39.047 -76.875  40.283  1.00  0.00     0.051 A 
ATOM     15  C   UNL     1      40.342 -77.190  40.705  1.00  0.00     0.157 A 
ATOM     16  C   UNL     1      40.971 -77.580  38.388  1.00  0.00     0.062 A 
ATOM     17  C   UNL     1      41.319 -77.543  39.744  1.00  0.00     0.158 A 
BRANCH  15  18
ATOM     18  O   UNL     1      40.613 -77.140  42.074  1.00  0.00    -0.504 OA
ATOM     19  H   UNL     1      40.035 -77.572  42.780  1.00  0.00     0.293 HD
ENDBRANCH  15  18
BRANCH  17  20
ATOM     20  O   UNL     1      42.636 -77.855  40.088  1.00  0.00    -0.504 OA
ATOM     21  H   UNL     1      43.446 -77.486  39.613  1.00  0.00     0.293 HD
ENDBRANCH  17  20
ENDBRANCH   1  12
BRANCH   6  22
ATOM     22  O   UNL     1      37.161 -77.407  31.897  1.00  0.00    -0.507 OA
ATOM     23  H   UNL     1      36.345 -77.436  32.497  1.00  0.00     0.293 HD
ENDBRANCH   6  22
BRANCH   8  24
ATOM     24  O   UNL     1      41.926 -77.275  31.141  1.00  0.00    -0.508 OA
ATOM     25  H   UNL     1      42.376 -76.407  30.875  1.00  0.00     0.293 HD
ENDBRANCH   8  24
TORSDOF 5
ENDMDL
