MODEL 1
REMARK VINA RESULT:    -8.737      0.000      0.000
REMARK INTER + INTRA:         -14.037
REMARK INTER:                 -12.822
REMARK INTRA:                  -1.215
REMARK UNBOUND:                -1.215
REMARK SMILES Cc1cc2c(C(C)C)c(O)c(O)c(C=O)c2c(O)c1-c1c(C)cc2c(C(C)C)c(O)c(O)c(C=O)c2c1O
REMARK SMILES IDX 1 1 2 2 3 3 4 4 16 5 13 6 11 7 9 8 5 9 17 10 19 11 20 12
REMARK SMILES IDX 37 13 21 14 36 15 23 16 22 17 24 18 33 19 25 20 31 21 29 22
REMARK SMILES IDX 38 23 34 25 35 26 26 27 27 28 28 29 32 30 30 32 18 34 6 36
REMARK SMILES IDX 7 37 8 38 14 39 15 40 10 41 12 43
REMARK H PARENT 38 24 32 31 30 33 18 35 10 42 12 44
REMARK Flexibility Score: inf
ROOT
ATOM      1  C   UNL     1      24.943  15.452  19.991  1.00  0.00     0.045 C 
ATOM      2  C   UNL     1      23.677  16.042  20.564  1.00  0.00    -0.039 A 
ATOM      3  C   UNL     1      23.606  17.416  20.794  1.00  0.00     0.013 A 
ATOM      4  C   UNL     1      22.460  18.022  21.357  1.00  0.00    -0.006 A 
ATOM      5  C   UNL     1      21.321  17.207  21.635  1.00  0.00     0.039 A 
ATOM      6  C   UNL     1      20.156  17.819  22.188  1.00  0.00     0.072 A 
ATOM      7  C   UNL     1      20.073  19.219  22.274  1.00  0.00     0.169 A 
ATOM      8  C   UNL     1      21.166  20.020  21.901  1.00  0.00     0.162 A 
ATOM      9  C   UNL     1      22.413  19.429  21.604  1.00  0.00     0.008 A 
ATOM     10  C   UNL     1      21.368  15.818  21.312  1.00  0.00     0.132 A 
ATOM     11  C   UNL     1      22.552  15.240  20.810  1.00  0.00     0.031 A 
ENDROOT
BRANCH  11  12
ATOM     12  C   UNL     1      22.604  13.787  20.498  1.00  0.00     0.031 A 
ATOM     13  C   UNL     1      22.359  13.338  19.183  1.00  0.00     0.132 A 
ATOM     14  C   UNL     1      22.934  12.865  21.505  1.00  0.00    -0.039 A 
ATOM     15  C   UNL     1      22.343  11.944  18.889  1.00  0.00     0.039 A 
ATOM     16  C   UNL     1      23.037  11.509  21.189  1.00  0.00     0.013 A 
ATOM     17  C   UNL     1      23.272  13.326  22.903  1.00  0.00     0.045 C 
ATOM     18  C   UNL     1      22.719  11.015  19.905  1.00  0.00    -0.006 A 
ATOM     19  C   UNL     1      22.019  11.450  17.593  1.00  0.00     0.072 A 
ATOM     20  C   UNL     1      22.813   9.621  19.599  1.00  0.00     0.008 A 
ATOM     21  C   UNL     1      22.294  10.115  17.263  1.00  0.00     0.169 A 
ATOM     22  C   UNL     1      22.763   9.224  18.244  1.00  0.00     0.162 A 
BRANCH  13  23
ATOM     23  O   UNL     1      22.189  14.275  18.158  1.00  0.00    -0.507 OA
ATOM     24  H   UNL     1      21.388  14.889  18.082  1.00  0.00     0.293 HD
ENDBRANCH  13  23
BRANCH  19  25
ATOM     25  C   UNL     1      21.318  12.261  16.572  1.00  0.00     0.264 C 
ATOM     26  O   UNL     1      20.100  12.552  16.706  1.00  0.00    -0.298 OA
ENDBRANCH  19  25
BRANCH  20  27
ATOM     27  C   UNL     1      23.025   8.563  20.697  1.00  0.00     0.017 C 
ATOM     28  C   UNL     1      24.353   7.827  20.501  1.00  0.00     0.012 C 
ATOM     29  C   UNL     1      21.852   7.574  20.843  1.00  0.00     0.012 C 
ENDBRANCH  20  27
BRANCH  21  30
ATOM     30  O   UNL     1      22.043   9.686  15.953  1.00  0.00    -0.504 OA
ATOM     31  H   UNL     1      22.028  10.298  15.150  1.00  0.00     0.293 HD
ENDBRANCH  21  30
BRANCH  22  32
ATOM     32  O   UNL     1      23.192   7.941  17.895  1.00  0.00    -0.504 OA
ATOM     33  H   UNL     1      24.162   7.676  17.791  1.00  0.00     0.293 HD
ENDBRANCH  22  32
ENDBRANCH  11  12
BRANCH  10  34
ATOM     34  O   UNL     1      20.224  15.023  21.449  1.00  0.00    -0.507 OA
ATOM     35  H   UNL     1      20.237  14.063  21.772  1.00  0.00     0.293 HD
ENDBRANCH  10  34
BRANCH   9  36
ATOM     36  C   UNL     1      23.671  20.313  21.502  1.00  0.00     0.017 C 
ATOM     37  C   UNL     1      23.690  21.085  20.179  1.00  0.00     0.012 C 
ATOM     38  C   UNL     1      23.868  21.258  22.703  1.00  0.00     0.012 C 
ENDBRANCH   9  36
BRANCH   6  39
ATOM     39  C   UNL     1      19.046  17.022  22.764  1.00  0.00     0.264 C 
ATOM     40  O   UNL     1      17.927  16.954  22.191  1.00  0.00    -0.298 OA
ENDBRANCH   6  39
BRANCH   8  41
ATOM     41  O   UNL     1      21.031  21.408  21.808  1.00  0.00    -0.504 OA
ATOM     42  H   UNL     1      21.241  22.051  22.560  1.00  0.00     0.293 HD
ENDBRANCH   8  41
BRANCH   7  43
ATOM     43  O   UNL     1      18.903  19.794  22.784  1.00  0.00    -0.504 OA
ATOM     44  H   UNL     1      18.634  19.762  23.757  1.00  0.00     0.293 HD
ENDBRANCH   7  43
TORSDOF 11
ENDMDL
MODEL 2
REMARK VINA RESULT:    -8.321      1.303      9.113
REMARK INTER + INTRA:         -13.427
REMARK INTER:                 -11.921
REMARK INTRA:                  -1.506
REMARK UNBOUND:                -1.215
REMARK SMILES Cc1cc2c(C(C)C)c(O)c(O)c(C=O)c2c(O)c1-c1c(C)cc2c(C(C)C)c(O)c(O)c(C=O)c2c1O
REMARK SMILES IDX 1 1 2 2 3 3 4 4 16 5 13 6 11 7 9 8 5 9 17 10 19 11 20 12
REMARK SMILES IDX 37 13 21 14 36 15 23 16 22 17 24 18 33 19 25 20 31 21 29 22
REMARK SMILES IDX 38 23 34 25 35 26 26 27 27 28 28 29 32 30 30 32 18 34 6 36
REMARK SMILES IDX 7 37 8 38 14 39 15 40 10 41 12 43
REMARK H PARENT 38 24 32 31 30 33 18 35 10 42 12 44
REMARK Flexibility Score: inf
ROOT
ATOM      1  C   UNL     1      24.252  13.713  22.288  1.00  0.00     0.045 C 
ATOM      2  C   UNL     1      23.389  12.982  21.287  1.00  0.00    -0.039 A 
ATOM      3  C   UNL     1      23.385  11.587  21.277  1.00  0.00     0.013 A 
ATOM      4  C   UNL     1      22.623  10.848  20.344  1.00  0.00    -0.006 A 
ATOM      5  C   UNL     1      21.784  11.556  19.431  1.00  0.00     0.039 A 
ATOM      6  C   UNL     1      21.000  10.813  18.499  1.00  0.00     0.072 A 
ATOM      7  C   UNL     1      20.916   9.414  18.612  1.00  0.00     0.169 A 
ATOM      8  C   UNL     1      21.670   8.733  19.583  1.00  0.00     0.162 A 
ATOM      9  C   UNL     1      22.647   9.419  20.336  1.00  0.00     0.008 A 
ATOM     10  C   UNL     1      21.723  12.980  19.507  1.00  0.00     0.132 A 
ATOM     11  C   UNL     1      22.547  13.684  20.411  1.00  0.00     0.031 A 
ENDROOT
BRANCH  11  12
ATOM     12  C   UNL     1      22.498  15.169  20.469  1.00  0.00     0.031 A 
ATOM     13  C   UNL     1      21.640  15.811  21.388  1.00  0.00     0.132 A 
ATOM     14  C   UNL     1      23.333  15.932  19.637  1.00  0.00    -0.039 A 
ATOM     15  C   UNL     1      21.539  17.232  21.406  1.00  0.00     0.039 A 
ATOM     16  C   UNL     1      23.323  17.323  19.741  1.00  0.00     0.013 A 
ATOM     17  C   UNL     1      24.313  15.268  18.699  1.00  0.00     0.045 C 
ATOM     18  C   UNL     1      22.419  18.002  20.588  1.00  0.00    -0.006 A 
ATOM     19  C   UNL     1      20.625  17.912  22.261  1.00  0.00     0.072 A 
ATOM     20  C   UNL     1      22.408  19.430  20.673  1.00  0.00     0.008 A 
ATOM     21  C   UNL     1      20.754  19.294  22.467  1.00  0.00     0.169 A 
ATOM     22  C   UNL     1      21.694  20.036  21.732  1.00  0.00     0.162 A 
BRANCH  13  23
ATOM     23  O   UNL     1      20.932  15.043  22.318  1.00  0.00    -0.507 OA
ATOM     24  H   UNL     1      20.391  15.436  23.079  1.00  0.00     0.293 HD
ENDBRANCH  13  23
BRANCH  19  25
ATOM     25  C   UNL     1      19.468  17.245  22.898  1.00  0.00     0.264 C 
ATOM     26  O   UNL     1      19.484  16.960  24.125  1.00  0.00    -0.298 OA
ENDBRANCH  19  25
BRANCH  20  27
ATOM     27  C   UNL     1      23.194  20.307  19.682  1.00  0.00     0.017 C 
ATOM     28  C   UNL     1      24.375  20.993  20.375  1.00  0.00     0.012 C 
ATOM     29  C   UNL     1      22.321  21.325  18.924  1.00  0.00     0.012 C 
ENDBRANCH  20  27
BRANCH  21  30
ATOM     30  O   UNL     1      19.892  19.914  23.380  1.00  0.00    -0.504 OA
ATOM     31  H   UNL     1      20.175  20.642  24.021  1.00  0.00     0.293 HD
ENDBRANCH  21  30
BRANCH  22  32
ATOM     32  O   UNL     1      21.944  21.375  22.041  1.00  0.00    -0.504 OA
ATOM     33  H   UNL     1      22.837  21.728  22.360  1.00  0.00     0.293 HD
ENDBRANCH  22  32
ENDBRANCH  11  12
BRANCH  10  34
ATOM     34  O   UNL     1      20.812  13.691  18.718  1.00  0.00    -0.507 OA
ATOM     35  H   UNL     1      20.276  14.484  19.047  1.00  0.00     0.293 HD
ENDBRANCH  10  34
BRANCH   9  36
ATOM     36  C   UNL     1      23.671   8.621  21.164  1.00  0.00     0.017 C 
ATOM     37  C   UNL     1      23.033   8.079  22.447  1.00  0.00     0.012 C 
ATOM     38  C   UNL     1      24.375   7.500  20.374  1.00  0.00     0.012 C 
ENDBRANCH   9  36
BRANCH   6  39
ATOM     39  C   UNL     1      20.327  11.456  17.345  1.00  0.00     0.264 C 
ATOM     40  O   UNL     1      19.077  11.602  17.317  1.00  0.00    -0.298 OA
ENDBRANCH   6  39
BRANCH   8  41
ATOM     41  O   UNL     1      21.455   7.373  19.824  1.00  0.00    -0.504 OA
ATOM     42  H   UNL     1      20.549   6.927  19.790  1.00  0.00     0.293 HD
ENDBRANCH   8  41
BRANCH   7  43
ATOM     43  O   UNL     1      20.109   8.713  17.709  1.00  0.00    -0.504 OA
ATOM     44  H   UNL     1      20.427   7.932  17.152  1.00  0.00     0.293 HD
ENDBRANCH   7  43
TORSDOF 11
ENDMDL
MODEL 3
REMARK VINA RESULT:    -8.077      3.873      6.656
REMARK INTER + INTRA:         -13.069
REMARK INTER:                 -13.430
REMARK INTRA:                   0.361
REMARK UNBOUND:                -1.215
REMARK SMILES Cc1cc2c(C(C)C)c(O)c(O)c(C=O)c2c(O)c1-c1c(C)cc2c(C(C)C)c(O)c(O)c(C=O)c2c1O
REMARK SMILES IDX 1 1 2 2 3 3 4 4 16 5 13 6 11 7 9 8 5 9 17 10 19 11 20 12
REMARK SMILES IDX 37 13 21 14 36 15 23 16 22 17 24 18 33 19 25 20 31 21 29 22
REMARK SMILES IDX 38 23 34 25 35 26 26 27 27 28 28 29 32 30 30 32 18 34 6 36
REMARK SMILES IDX 7 37 8 38 14 39 15 40 10 41 12 43
REMARK H PARENT 38 24 32 31 30 33 18 35 10 42 12 44
REMARK Flexibility Score: inf
ROOT
ATOM      1  C   UNL     1      22.503  13.510  19.518  1.00  0.00     0.045 C 
ATOM      2  C   UNL     1      21.906  14.513  20.476  1.00  0.00    -0.039 A 
ATOM      3  C   UNL     1      20.521  14.574  20.627  1.00  0.00     0.013 A 
ATOM      4  C   UNL     1      19.903  15.513  21.485  1.00  0.00    -0.006 A 
ATOM      5  C   UNL     1      20.730  16.376  22.264  1.00  0.00     0.039 A 
ATOM      6  C   UNL     1      20.110  17.313  23.144  1.00  0.00     0.072 A 
ATOM      7  C   UNL     1      18.725  17.249  23.373  1.00  0.00     0.169 A 
ATOM      8  C   UNL     1      17.931  16.324  22.673  1.00  0.00     0.162 A 
ATOM      9  C   UNL     1      18.481  15.573  21.612  1.00  0.00     0.008 A 
ATOM     10  C   UNL     1      22.149  16.246  22.173  1.00  0.00     0.132 A 
ATOM     11  C   UNL     1      22.727  15.340  21.259  1.00  0.00     0.031 A 
ENDROOT
BRANCH  11  12
ATOM     12  C   UNL     1      24.205  15.226  21.149  1.00  0.00     0.031 A 
ATOM     13  C   UNL     1      24.945  14.618  22.185  1.00  0.00     0.132 A 
ATOM     14  C   UNL     1      24.861  15.689  19.996  1.00  0.00    -0.039 A 
ATOM     15  C   UNL     1      26.367  14.562  22.118  1.00  0.00     0.039 A 
ATOM     16  C   UNL     1      26.241  15.524  19.877  1.00  0.00     0.013 A 
ATOM     17  C   UNL     1      24.084  16.276  18.842  1.00  0.00     0.045 C 
ATOM     18  C   UNL     1      27.024  14.996  20.928  1.00  0.00    -0.006 A 
ATOM     19  C   UNL     1      27.152  14.030  23.181  1.00  0.00     0.072 A 
ATOM     20  C   UNL     1      28.440  14.848  20.799  1.00  0.00     0.008 A 
ATOM     21  C   UNL     1      28.504  13.723  22.967  1.00  0.00     0.169 A 
ATOM     22  C   UNL     1      29.125  14.060  21.752  1.00  0.00     0.162 A 
BRANCH  13  23
ATOM     23  O   UNL     1      24.267  14.019  23.253  1.00  0.00    -0.507 OA
ATOM     24  H   UNL     1      24.501  14.170  24.226  1.00  0.00     0.293 HD
ENDBRANCH  13  23
BRANCH  19  25
ATOM     25  C   UNL     1      26.634  13.853  24.556  1.00  0.00     0.264 C 
ATOM     26  O   UNL     1      27.012  14.610  25.489  1.00  0.00    -0.298 OA
ENDBRANCH  19  25
BRANCH  20  27
ATOM     27  C   UNL     1      29.217  15.471  19.625  1.00  0.00     0.017 C 
ATOM     28  C   UNL     1      29.450  14.442  18.514  1.00  0.00     0.012 C 
ATOM     29  C   UNL     1      30.534  16.152  20.042  1.00  0.00     0.012 C 
ENDBRANCH  20  27
BRANCH  21  30
ATOM     30  O   UNL     1      29.223  13.122  24.008  1.00  0.00    -0.504 OA
ATOM     31  H   UNL     1      29.843  13.620  24.630  1.00  0.00     0.293 HD
ENDBRANCH  21  30
BRANCH  22  32
ATOM     32  O   UNL     1      30.419  13.617  21.466  1.00  0.00    -0.504 OA
ATOM     33  H   UNL     1      31.256  14.003  21.882  1.00  0.00     0.293 HD
ENDBRANCH  22  32
ENDBRANCH  11  12
BRANCH  10  34
ATOM     34  O   UNL     1      22.982  16.984  23.021  1.00  0.00    -0.507 OA
ATOM     35  H   UNL     1      23.194  16.721  23.976  1.00  0.00     0.293 HD
ENDBRANCH  10  34
BRANCH   9  36
ATOM     36  C   UNL     1      17.548  14.803  20.659  1.00  0.00     0.017 C 
ATOM     37  C   UNL     1      16.545  15.750  19.992  1.00  0.00     0.012 C 
ATOM     38  C   UNL     1      18.290  13.949  19.613  1.00  0.00     0.012 C 
ENDBRANCH   9  36
BRANCH   6  39
ATOM     39  C   UNL     1      20.866  18.425  23.771  1.00  0.00     0.264 C 
ATOM     40  O   UNL     1      21.107  18.433  25.007  1.00  0.00    -0.298 OA
ENDBRANCH   6  39
BRANCH   8  41
ATOM     41  O   UNL     1      16.593  16.127  23.025  1.00  0.00    -0.504 OA
ATOM     42  H   UNL     1      16.121  16.628  23.766  1.00  0.00     0.293 HD
ENDBRANCH   8  41
BRANCH   7  43
ATOM     43  O   UNL     1      18.148  18.156  24.270  1.00  0.00    -0.504 OA
ATOM     44  H   UNL     1      17.170  18.159  24.521  1.00  0.00     0.293 HD
ENDBRANCH   7  43
TORSDOF 11
ENDMDL
MODEL 4
REMARK VINA RESULT:    -7.674      3.262      6.387
REMARK INTER + INTRA:         -12.478
REMARK INTER:                 -11.925
REMARK INTRA:                  -0.553
REMARK UNBOUND:                -1.215
REMARK SMILES Cc1cc2c(C(C)C)c(O)c(O)c(C=O)c2c(O)c1-c1c(C)cc2c(C(C)C)c(O)c(O)c(C=O)c2c1O
REMARK SMILES IDX 1 1 2 2 3 3 4 4 16 5 13 6 11 7 9 8 5 9 17 10 19 11 20 12
REMARK SMILES IDX 37 13 21 14 36 15 23 16 22 17 24 18 33 19 25 20 31 21 29 22
REMARK SMILES IDX 38 23 34 25 35 26 26 27 27 28 28 29 32 30 30 32 18 34 6 36
REMARK SMILES IDX 7 37 8 38 14 39 15 40 10 41 12 43
REMARK H PARENT 38 24 32 31 30 33 18 35 10 42 12 44
REMARK Flexibility Score: inf
ROOT
ATOM      1  C   UNL     1      19.696  17.565  25.153  1.00  0.00     0.045 C 
ATOM      2  C   UNL     1      19.083  18.691  24.355  1.00  0.00    -0.039 A 
ATOM      3  C   UNL     1      18.355  19.681  25.017  1.00  0.00     0.013 A 
ATOM      4  C   UNL     1      17.732  20.742  24.322  1.00  0.00    -0.006 A 
ATOM      5  C   UNL     1      17.911  20.833  22.908  1.00  0.00     0.039 A 
ATOM      6  C   UNL     1      17.297  21.913  22.205  1.00  0.00     0.072 A 
ATOM      7  C   UNL     1      16.694  22.961  22.921  1.00  0.00     0.169 A 
ATOM      8  C   UNL     1      16.611  22.911  24.322  1.00  0.00     0.162 A 
ATOM      9  C   UNL     1      16.974  21.735  25.015  1.00  0.00     0.008 A 
ATOM     10  C   UNL     1      18.732  19.869  22.250  1.00  0.00     0.132 A 
ATOM     11  C   UNL     1      19.285  18.790  22.970  1.00  0.00     0.031 A 
ENDROOT
BRANCH  11  12
ATOM     12  C   UNL     1      20.120  17.774  22.275  1.00  0.00     0.031 A 
ATOM     13  C   UNL     1      21.419  18.108  21.836  1.00  0.00     0.132 A 
ATOM     14  C   UNL     1      19.629  16.471  22.090  1.00  0.00    -0.039 A 
ATOM     15  C   UNL     1      22.200  17.161  21.113  1.00  0.00     0.039 A 
ATOM     16  C   UNL     1      20.442  15.508  21.490  1.00  0.00     0.013 A 
ATOM     17  C   UNL     1      18.272  16.068  22.616  1.00  0.00     0.045 C 
ATOM     18  C   UNL     1      21.714  15.828  20.964  1.00  0.00    -0.006 A 
ATOM     19  C   UNL     1      23.481  17.488  20.583  1.00  0.00     0.072 A 
ATOM     20  C   UNL     1      22.530  14.836  20.336  1.00  0.00     0.008 A 
ATOM     21  C   UNL     1      24.337  16.469  20.141  1.00  0.00     0.169 A 
ATOM     22  C   UNL     1      23.889  15.138  20.091  1.00  0.00     0.162 A 
BRANCH  13  23
ATOM     23  O   UNL     1      21.955  19.357  22.167  1.00  0.00    -0.507 OA
ATOM     24  H   UNL     1      21.399  20.151  22.459  1.00  0.00     0.293 HD
ENDBRANCH  13  23
BRANCH  19  25
ATOM     25  C   UNL     1      23.943  18.881  20.392  1.00  0.00     0.264 C 
ATOM     26  O   UNL     1      23.348  19.654  19.595  1.00  0.00    -0.298 OA
ENDBRANCH  19  25
BRANCH  20  27
ATOM     27  C   UNL     1      21.982  13.442  19.981  1.00  0.00     0.017 C 
ATOM     28  C   UNL     1      22.686  12.352  20.794  1.00  0.00     0.012 C 
ATOM     29  C   UNL     1      22.017  13.126  18.473  1.00  0.00     0.012 C 
ENDBRANCH  20  27
BRANCH  21  30
ATOM     30  O   UNL     1      25.622  16.820  19.706  1.00  0.00    -0.504 OA
ATOM     31  H   UNL     1      25.867  16.992  18.742  1.00  0.00     0.293 HD
ENDBRANCH  21  30
BRANCH  22  32
ATOM     32  O   UNL     1      24.777  14.097  19.808  1.00  0.00    -0.504 OA
ATOM     33  H   UNL     1      25.735  14.232  19.512  1.00  0.00     0.293 HD
ENDBRANCH  22  32
ENDBRANCH  11  12
BRANCH  10  34
ATOM     34  O   UNL     1      19.034  20.010  20.891  1.00  0.00    -0.507 OA
ATOM     35  H   UNL     1      18.642  19.429  20.160  1.00  0.00     0.293 HD
ENDBRANCH  10  34
BRANCH   9  36
ATOM     36  C   UNL     1      16.594  21.577  26.499  1.00  0.00     0.017 C 
ATOM     37  C   UNL     1      15.870  20.248  26.739  1.00  0.00     0.012 C 
ATOM     38  C   UNL     1      17.779  21.751  27.469  1.00  0.00     0.012 C 
ENDBRANCH   9  36
BRANCH   6  39
ATOM     39  C   UNL     1      17.193  21.932  20.726  1.00  0.00     0.264 C 
ATOM     40  O   UNL     1      17.889  22.721  20.034  1.00  0.00    -0.298 OA
ENDBRANCH   6  39
BRANCH   8  41
ATOM     41  O   UNL     1      16.182  24.025  25.050  1.00  0.00    -0.504 OA
ATOM     42  H   UNL     1      15.331  24.535  24.857  1.00  0.00     0.293 HD
ENDBRANCH   8  41
BRANCH   7  43
ATOM     43  O   UNL     1      16.133  24.028  22.207  1.00  0.00    -0.504 OA
ATOM     44  H   UNL     1      16.272  25.001  22.440  1.00  0.00     0.293 HD
ENDBRANCH   7  43
TORSDOF 11
ENDMDL
MODEL 5
REMARK VINA RESULT:    -7.585      3.992      8.347
REMARK INTER + INTRA:         -12.348
REMARK INTER:                 -12.034
REMARK INTRA:                  -0.314
REMARK UNBOUND:                -1.215
REMARK SMILES Cc1cc2c(C(C)C)c(O)c(O)c(C=O)c2c(O)c1-c1c(C)cc2c(C(C)C)c(O)c(O)c(C=O)c2c1O
REMARK SMILES IDX 1 1 2 2 3 3 4 4 16 5 13 6 11 7 9 8 5 9 17 10 19 11 20 12
REMARK SMILES IDX 37 13 21 14 36 15 23 16 22 17 24 18 33 19 25 20 31 21 29 22
REMARK SMILES IDX 38 23 34 25 35 26 26 27 27 28 28 29 32 30 30 32 18 34 6 36
REMARK SMILES IDX 7 37 8 38 14 39 15 40 10 41 12 43
REMARK H PARENT 38 24 32 31 30 33 18 35 10 42 12 44
REMARK Flexibility Score: inf
ROOT
ATOM      1  C   UNL     1      23.639  16.832  18.602  1.00  0.00     0.045 C 
ATOM      2  C   UNL     1      24.532  16.181  19.631  1.00  0.00    -0.039 A 
ATOM      3  C   UNL     1      25.859  15.900  19.305  1.00  0.00     0.013 A 
ATOM      4  C   UNL     1      26.734  15.264  20.214  1.00  0.00    -0.006 A 
ATOM      5  C   UNL     1      26.257  14.961  21.526  1.00  0.00     0.039 A 
ATOM      6  C   UNL     1      27.143  14.334  22.452  1.00  0.00     0.072 A 
ATOM      7  C   UNL     1      28.506  14.196  22.135  1.00  0.00     0.169 A 
ATOM      8  C   UNL     1      28.986  14.591  20.875  1.00  0.00     0.162 A 
ATOM      9  C   UNL     1      28.085  14.966  19.855  1.00  0.00     0.008 A 
ATOM     10  C   UNL     1      24.927  15.334  21.882  1.00  0.00     0.132 A 
ATOM     11  C   UNL     1      24.065  15.911  20.926  1.00  0.00     0.031 A 
ENDROOT
BRANCH  11  12
ATOM     12  C   UNL     1      22.671  16.275  21.296  1.00  0.00     0.031 A 
ATOM     13  C   UNL     1      22.386  17.565  21.791  1.00  0.00     0.132 A 
ATOM     14  C   UNL     1      21.633  15.347  21.114  1.00  0.00    -0.039 A 
ATOM     15  C   UNL     1      21.066  17.901  22.208  1.00  0.00     0.039 A 
ATOM     16  C   UNL     1      20.320  15.717  21.409  1.00  0.00     0.013 A 
ATOM     17  C   UNL     1      21.900  13.986  20.517  1.00  0.00     0.045 C 
ATOM     18  C   UNL     1      20.008  16.969  21.984  1.00  0.00    -0.006 A 
ATOM     19  C   UNL     1      20.757  19.163  22.790  1.00  0.00     0.072 A 
ATOM     20  C   UNL     1      18.660  17.330  22.296  1.00  0.00     0.008 A 
ATOM     21  C   UNL     1      19.420  19.569  22.916  1.00  0.00     0.169 A 
ATOM     22  C   UNL     1      18.377  18.682  22.597  1.00  0.00     0.162 A 
BRANCH  13  23
ATOM     23  O   UNL     1      23.399  18.530  21.817  1.00  0.00    -0.507 OA
ATOM     24  H   UNL     1      23.646  19.110  21.025  1.00  0.00     0.293 HD
ENDBRANCH  13  23
BRANCH  19  25
ATOM     25  C   UNL     1      21.786  20.064  23.357  1.00  0.00     0.264 C 
ATOM     26  O   UNL     1      22.130  21.112  22.750  1.00  0.00    -0.298 OA
ENDBRANCH  19  25
BRANCH  20  27
ATOM     27  C   UNL     1      17.516  16.302  22.254  1.00  0.00     0.017 C 
ATOM     28  C   UNL     1      16.849  16.279  20.876  1.00  0.00     0.012 C 
ATOM     29  C   UNL     1      16.475  16.483  23.376  1.00  0.00     0.012 C 
ENDBRANCH  20  27
BRANCH  21  30
ATOM     30  O   UNL     1      19.156  20.852  23.412  1.00  0.00    -0.504 OA
ATOM     31  H   UNL     1      19.324  21.136  24.367  1.00  0.00     0.293 HD
ENDBRANCH  21  30
BRANCH  22  32
ATOM     32  O   UNL     1      17.052  19.123  22.563  1.00  0.00    -0.504 OA
ATOM     33  H   UNL     1      16.376  18.837  21.868  1.00  0.00     0.293 HD
ENDBRANCH  22  32
ENDBRANCH  11  12
BRANCH  10  34
ATOM     34  O   UNL     1      24.477  15.172  23.198  1.00  0.00    -0.507 OA
ATOM     35  H   UNL     1      23.726  15.712  23.610  1.00  0.00     0.293 HD
ENDBRANCH  10  34
BRANCH   9  36
ATOM     36  C   UNL     1      28.587  15.096  18.405  1.00  0.00     0.017 C 
ATOM     37  C   UNL     1      29.409  13.868  17.999  1.00  0.00     0.012 C 
ATOM     38  C   UNL     1      27.470  15.384  17.382  1.00  0.00     0.012 C 
ENDBRANCH   9  36
BRANCH   6  39
ATOM     39  C   UNL     1      26.662  13.735  23.721  1.00  0.00     0.264 C 
ATOM     40  O   UNL     1      26.915  14.271  24.832  1.00  0.00    -0.298 OA
ENDBRANCH   6  39
BRANCH   8  41
ATOM     41  O   UNL     1      30.360  14.630  20.619  1.00  0.00    -0.504 OA
ATOM     42  H   UNL     1      30.794  15.247  19.947  1.00  0.00     0.293 HD
ENDBRANCH   8  41
BRANCH   7  43
ATOM     43  O   UNL     1      29.360  13.612  23.078  1.00  0.00    -0.504 OA
ATOM     44  H   UNL     1      29.097  13.406  24.031  1.00  0.00     0.293 HD
ENDBRANCH   7  43
TORSDOF 11
ENDMDL
MODEL 6
REMARK VINA RESULT:    -7.429      3.187      9.658
REMARK INTER + INTRA:         -12.118
REMARK INTER:                 -11.013
REMARK INTRA:                  -1.106
REMARK UNBOUND:                -1.215
REMARK SMILES Cc1cc2c(C(C)C)c(O)c(O)c(C=O)c2c(O)c1-c1c(C)cc2c(C(C)C)c(O)c(O)c(C=O)c2c1O
REMARK SMILES IDX 1 1 2 2 3 3 4 4 16 5 13 6 11 7 9 8 5 9 17 10 19 11 20 12
REMARK SMILES IDX 37 13 21 14 36 15 23 16 22 17 24 18 33 19 25 20 31 21 29 22
REMARK SMILES IDX 38 23 34 25 35 26 26 27 27 28 28 29 32 30 30 32 18 34 6 36
REMARK SMILES IDX 7 37 8 38 14 39 15 40 10 41 12 43
REMARK H PARENT 38 24 32 31 30 33 18 35 10 42 12 44
REMARK Flexibility Score: inf
ROOT
ATOM      1  C   UNL     1      22.631  19.696  22.647  1.00  0.00     0.045 C 
ATOM      2  C   UNL     1      22.106  18.395  22.088  1.00  0.00    -0.039 A 
ATOM      3  C   UNL     1      22.955  17.581  21.338  1.00  0.00     0.013 A 
ATOM      4  C   UNL     1      22.513  16.368  20.763  1.00  0.00    -0.006 A 
ATOM      5  C   UNL     1      21.176  15.937  21.017  1.00  0.00     0.039 A 
ATOM      6  C   UNL     1      20.731  14.704  20.453  1.00  0.00     0.072 A 
ATOM      7  C   UNL     1      21.652  13.849  19.824  1.00  0.00     0.169 A 
ATOM      8  C   UNL     1      22.993  14.239  19.668  1.00  0.00     0.162 A 
ATOM      9  C   UNL     1      23.392  15.557  19.980  1.00  0.00     0.008 A 
ATOM     10  C   UNL     1      20.341  16.729  21.862  1.00  0.00     0.132 A 
ATOM     11  C   UNL     1      20.799  17.965  22.365  1.00  0.00     0.031 A 
ENDROOT
BRANCH  11  12
ATOM     12  C   UNL     1      19.917  18.799  23.224  1.00  0.00     0.031 A 
ATOM     13  C   UNL     1      19.232  19.901  22.672  1.00  0.00     0.132 A 
ATOM     14  C   UNL     1      19.736  18.464  24.576  1.00  0.00    -0.039 A 
ATOM     15  C   UNL     1      18.436  20.743  23.501  1.00  0.00     0.039 A 
ATOM     16  C   UNL     1      18.861  19.217  25.360  1.00  0.00     0.013 A 
ATOM     17  C   UNL     1      20.400  17.246  25.173  1.00  0.00     0.045 C 
ATOM     18  C   UNL     1      18.223  20.376  24.863  1.00  0.00    -0.006 A 
ATOM     19  C   UNL     1      17.797  21.912  22.997  1.00  0.00     0.072 A 
ATOM     20  C   UNL     1      17.341  21.149  25.682  1.00  0.00     0.008 A 
ATOM     21  C   UNL     1      16.799  22.546  23.752  1.00  0.00     0.169 A 
ATOM     22  C   UNL     1      16.519  22.116  25.060  1.00  0.00     0.162 A 
BRANCH  13  23
ATOM     23  O   UNL     1      19.295  20.129  21.293  1.00  0.00    -0.507 OA
ATOM     24  H   UNL     1      19.975  19.697  20.680  1.00  0.00     0.293 HD
ENDBRANCH  13  23
BRANCH  19  25
ATOM     25  C   UNL     1      18.189  22.561  21.725  1.00  0.00     0.264 C 
ATOM     26  O   UNL     1      17.458  22.470  20.704  1.00  0.00    -0.298 OA
ENDBRANCH  19  25
BRANCH  20  27
ATOM     27  C   UNL     1      17.226  20.911  27.198  1.00  0.00     0.017 C 
ATOM     28  C   UNL     1      15.968  20.105  27.534  1.00  0.00     0.012 C 
ATOM     29  C   UNL     1      17.306  22.200  28.038  1.00  0.00     0.012 C 
ENDBRANCH  20  27
BRANCH  21  30
ATOM     30  O   UNL     1      16.131  23.640  23.189  1.00  0.00    -0.504 OA
ATOM     31  H   UNL     1      15.259  24.012  23.536  1.00  0.00     0.293 HD
ENDBRANCH  21  30
BRANCH  22  32
ATOM     32  O   UNL     1      15.424  22.629  25.760  1.00  0.00    -0.504 OA
ATOM     33  H   UNL     1      15.189  22.377  26.711  1.00  0.00     0.293 HD
ENDBRANCH  22  32
ENDBRANCH  11  12
BRANCH  10  34
ATOM     34  O   UNL     1      19.074  16.267  22.237  1.00  0.00    -0.507 OA
ATOM     35  H   UNL     1      18.208  16.737  22.005  1.00  0.00     0.293 HD
ENDBRANCH  10  34
BRANCH   9  36
ATOM     36  C   UNL     1      24.771  16.065  19.521  1.00  0.00     0.017 C 
ATOM     37  C   UNL     1      25.897  15.306  20.230  1.00  0.00     0.012 C 
ATOM     38  C   UNL     1      24.964  16.051  17.992  1.00  0.00     0.012 C 
ENDBRANCH   9  36
BRANCH   6  39
ATOM     39  C   UNL     1      19.299  14.320  20.427  1.00  0.00     0.264 C 
ATOM     40  O   UNL     1      18.565  14.607  19.445  1.00  0.00    -0.298 OA
ENDBRANCH   6  39
BRANCH   8  41
ATOM     41  O   UNL     1      23.950  13.328  19.213  1.00  0.00    -0.504 OA
ATOM     42  H   UNL     1      24.042  12.382  19.558  1.00  0.00     0.293 HD
ENDBRANCH   8  41
BRANCH   7  43
ATOM     43  O   UNL     1      21.196  12.627  19.313  1.00  0.00    -0.504 OA
ATOM     44  H   UNL     1      21.763  11.794  19.248  1.00  0.00     0.293 HD
ENDBRANCH   7  43
TORSDOF 11
ENDMDL
MODEL 7
REMARK VINA RESULT:    -7.429      3.188      6.216
REMARK INTER + INTRA:         -12.118
REMARK INTER:                 -10.712
REMARK INTRA:                  -1.406
REMARK UNBOUND:                -1.215
REMARK SMILES Cc1cc2c(C(C)C)c(O)c(O)c(C=O)c2c(O)c1-c1c(C)cc2c(C(C)C)c(O)c(O)c(C=O)c2c1O
REMARK SMILES IDX 1 1 2 2 3 3 4 4 16 5 13 6 11 7 9 8 5 9 17 10 19 11 20 12
REMARK SMILES IDX 37 13 21 14 36 15 23 16 22 17 24 18 33 19 25 20 31 21 29 22
REMARK SMILES IDX 38 23 34 25 35 26 26 27 27 28 28 29 32 30 30 32 18 34 6 36
REMARK SMILES IDX 7 37 8 38 14 39 15 40 10 41 12 43
REMARK H PARENT 38 24 32 31 30 33 18 35 10 42 12 44
REMARK Flexibility Score: inf
ROOT
ATOM      1  C   UNL     1      20.055  17.862  25.222  1.00  0.00     0.045 C 
ATOM      2  C   UNL     1      19.399  18.950  24.405  1.00  0.00    -0.039 A 
ATOM      3  C   UNL     1      18.537  19.850  25.031  1.00  0.00     0.013 A 
ATOM      4  C   UNL     1      17.870  20.869  24.314  1.00  0.00    -0.006 A 
ATOM      5  C   UNL     1      18.143  21.017  22.920  1.00  0.00     0.039 A 
ATOM      6  C   UNL     1      17.484  22.055  22.197  1.00  0.00     0.072 A 
ATOM      7  C   UNL     1      16.735  23.024  22.887  1.00  0.00     0.169 A 
ATOM      8  C   UNL     1      16.555  22.926  24.277  1.00  0.00     0.162 A 
ATOM      9  C   UNL     1      16.974  21.769  24.969  1.00  0.00     0.008 A 
ATOM     10  C   UNL     1      19.096  20.151  22.305  1.00  0.00     0.132 A 
ATOM     11  C   UNL     1      19.693  19.106  23.041  1.00  0.00     0.031 A 
ENDROOT
BRANCH  11  12
ATOM     12  C   UNL     1      20.667  18.191  22.390  1.00  0.00     0.031 A 
ATOM     13  C   UNL     1      20.212  17.035  21.721  1.00  0.00     0.132 A 
ATOM     14  C   UNL     1      22.038  18.498  22.407  1.00  0.00    -0.039 A 
ATOM     15  C   UNL     1      21.142  16.120  21.150  1.00  0.00     0.039 A 
ATOM     16  C   UNL     1      22.938  17.664  21.743  1.00  0.00     0.013 A 
ATOM     17  C   UNL     1      22.544  19.767  23.053  1.00  0.00     0.045 C 
ATOM     18  C   UNL     1      22.529  16.457  21.135  1.00  0.00    -0.006 A 
ATOM     19  C   UNL     1      20.725  14.903  20.539  1.00  0.00     0.072 A 
ATOM     20  C   UNL     1      23.465  15.603  20.471  1.00  0.00     0.008 A 
ATOM     21  C   UNL     1      21.620  14.177  19.739  1.00  0.00     0.169 A 
ATOM     22  C   UNL     1      22.966  14.571  19.644  1.00  0.00     0.162 A 
BRANCH  13  23
ATOM     23  O   UNL     1      18.837  16.824  21.573  1.00  0.00    -0.507 OA
ATOM     24  H   UNL     1      18.156  17.011  22.299  1.00  0.00     0.293 HD
ENDBRANCH  13  23
BRANCH  19  25
ATOM     25  C   UNL     1      19.392  14.300  20.769  1.00  0.00     0.264 C 
ATOM     26  O   UNL     1      18.504  14.342  19.878  1.00  0.00    -0.298 OA
ENDBRANCH  19  25
BRANCH  20  27
ATOM     27  C   UNL     1      24.984  15.819  20.589  1.00  0.00     0.017 C 
ATOM     28  C   UNL     1      25.608  16.091  19.217  1.00  0.00     0.012 C 
ATOM     29  C   UNL     1      25.718  14.681  21.323  1.00  0.00     0.012 C 
ENDBRANCH  20  27
BRANCH  21  30
ATOM     30  O   UNL     1      21.150  13.031  19.085  1.00  0.00    -0.504 OA
ATOM     31  H   UNL     1      20.690  13.041  18.186  1.00  0.00     0.293 HD
ENDBRANCH  21  30
BRANCH  22  32
ATOM     32  O   UNL     1      23.825  13.957  18.729  1.00  0.00    -0.504 OA
ATOM     33  H   UNL     1      24.768  14.268  18.540  1.00  0.00     0.293 HD
ENDBRANCH  22  32
ENDBRANCH  11  12
BRANCH  10  34
ATOM     34  O   UNL     1      19.483  20.357  20.976  1.00  0.00    -0.507 OA
ATOM     35  H   UNL     1      19.839  19.629  20.370  1.00  0.00     0.293 HD
ENDBRANCH  10  34
BRANCH   9  36
ATOM     36  C   UNL     1      16.502  21.534  26.417  1.00  0.00     0.017 C 
ATOM     37  C   UNL     1      15.804  20.177  26.551  1.00  0.00     0.012 C 
ATOM     38  C   UNL     1      17.616  21.696  27.470  1.00  0.00     0.012 C 
ENDBRANCH   9  36
BRANCH   6  39
ATOM     39  C   UNL     1      17.488  22.108  20.715  1.00  0.00     0.264 C 
ATOM     40  O   UNL     1      18.169  22.966  20.094  1.00  0.00    -0.298 OA
ENDBRANCH   6  39
BRANCH   8  41
ATOM     41  O   UNL     1      15.972  23.975  24.994  1.00  0.00    -0.504 OA
ATOM     42  H   UNL     1      16.320  24.320  25.878  1.00  0.00     0.293 HD
ENDBRANCH   8  41
BRANCH   7  43
ATOM     43  O   UNL     1      16.131  24.054  22.156  1.00  0.00    -0.504 OA
ATOM     44  H   UNL     1      15.675  23.925  21.265  1.00  0.00     0.293 HD
ENDBRANCH   7  43
TORSDOF 11
ENDMDL
MODEL 8
REMARK VINA RESULT:    -7.396      4.043      9.933
REMARK INTER + INTRA:         -12.070
REMARK INTER:                 -11.575
REMARK INTRA:                  -0.495
REMARK UNBOUND:                -1.215
REMARK SMILES Cc1cc2c(C(C)C)c(O)c(O)c(C=O)c2c(O)c1-c1c(C)cc2c(C(C)C)c(O)c(O)c(C=O)c2c1O
REMARK SMILES IDX 1 1 2 2 3 3 4 4 16 5 13 6 11 7 9 8 5 9 17 10 19 11 20 12
REMARK SMILES IDX 37 13 21 14 36 15 23 16 22 17 24 18 33 19 25 20 31 21 29 22
REMARK SMILES IDX 38 23 34 25 35 26 26 27 27 28 28 29 32 30 30 32 18 34 6 36
REMARK SMILES IDX 7 37 8 38 14 39 15 40 10 41 12 43
REMARK H PARENT 38 24 32 31 30 33 18 35 10 42 12 44
REMARK Flexibility Score: inf
ROOT
ATOM      1  C   UNL     1      20.925  11.279  15.499  1.00  0.00     0.045 C 
ATOM      2  C   UNL     1      20.101  10.163  16.096  1.00  0.00    -0.039 A 
ATOM      3  C   UNL     1      19.566   9.184  15.258  1.00  0.00     0.013 A 
ATOM      4  C   UNL     1      18.761   8.134  15.754  1.00  0.00    -0.006 A 
ATOM      5  C   UNL     1      18.548   8.041  17.163  1.00  0.00     0.039 A 
ATOM      6  C   UNL     1      17.750   6.971  17.669  1.00  0.00     0.072 A 
ATOM      7  C   UNL     1      17.347   5.932  16.812  1.00  0.00     0.169 A 
ATOM      8  C   UNL     1      17.649   5.982  15.441  1.00  0.00     0.162 A 
ATOM      9  C   UNL     1      18.204   7.152  14.877  1.00  0.00     0.008 A 
ATOM     10  C   UNL     1      19.174   8.992  18.023  1.00  0.00     0.132 A 
ATOM     11  C   UNL     1      19.918  10.063  17.484  1.00  0.00     0.031 A 
ENDROOT
BRANCH  11  12
ATOM     12  C   UNL     1      20.548  11.065  18.383  1.00  0.00     0.031 A 
ATOM     13  C   UNL     1      21.653  10.702  19.182  1.00  0.00     0.132 A 
ATOM     14  C   UNL     1      20.067  12.385  18.408  1.00  0.00    -0.039 A 
ATOM     15  C   UNL     1      22.221  11.638  20.093  1.00  0.00     0.039 A 
ATOM     16  C   UNL     1      20.702  13.334  19.211  1.00  0.00     0.013 A 
ATOM     17  C   UNL     1      18.934  12.818  17.508  1.00  0.00     0.045 C 
ATOM     18  C   UNL     1      21.756  12.987  20.085  1.00  0.00    -0.006 A 
ATOM     19  C   UNL     1      23.283  11.283  20.974  1.00  0.00     0.072 A 
ATOM     20  C   UNL     1      22.387  13.966  20.915  1.00  0.00     0.008 A 
ATOM     21  C   UNL     1      24.007  12.285  21.638  1.00  0.00     0.169 A 
ATOM     22  C   UNL     1      23.606  13.629  21.546  1.00  0.00     0.162 A 
BRANCH  13  23
ATOM     23  O   UNL     1      22.222   9.433  19.031  1.00  0.00    -0.507 OA
ATOM     24  H   UNL     1      21.824   8.701  18.455  1.00  0.00     0.293 HD
ENDBRANCH  13  23
BRANCH  19  25
ATOM     25  C   UNL     1      23.625   9.881  21.301  1.00  0.00     0.264 C 
ATOM     26  O   UNL     1      23.393   9.412  22.447  1.00  0.00    -0.298 OA
ENDBRANCH  19  25
BRANCH  20  27
ATOM     27  C   UNL     1      21.805  15.380  21.086  1.00  0.00     0.017 C 
ATOM     28  C   UNL     1      22.713  16.430  20.438  1.00  0.00     0.012 C 
ATOM     29  C   UNL     1      21.479  15.746  22.547  1.00  0.00     0.012 C 
ENDBRANCH  20  27
BRANCH  21  30
ATOM     30  O   UNL     1      25.099  11.905  22.429  1.00  0.00    -0.504 OA
ATOM     31  H   UNL     1      25.732  11.154  22.197  1.00  0.00     0.293 HD
ENDBRANCH  21  30
BRANCH  22  32
ATOM     32  O   UNL     1      24.407  14.649  22.066  1.00  0.00    -0.504 OA
ATOM     33  H   UNL     1      24.261  15.633  21.886  1.00  0.00     0.293 HD
ENDBRANCH  22  32
ENDBRANCH  11  12
BRANCH  10  34
ATOM     34  O   UNL     1      19.093   8.848  19.413  1.00  0.00    -0.507 OA
ATOM     35  H   UNL     1      18.224   8.848  19.933  1.00  0.00     0.293 HD
ENDBRANCH  10  34
BRANCH   9  36
ATOM     36  C   UNL     1      18.244   7.315  13.347  1.00  0.00     0.017 C 
ATOM     37  C   UNL     1      17.325   8.454  12.894  1.00  0.00     0.012 C 
ATOM     38  C   UNL     1      19.665   7.483  12.774  1.00  0.00     0.012 C 
ENDBRANCH   9  36
BRANCH   6  39
ATOM     39  C   UNL     1      17.247   6.955  19.064  1.00  0.00     0.264 C 
ATOM     40  O   UNL     1      17.716   6.155  19.916  1.00  0.00    -0.298 OA
ENDBRANCH   6  39
BRANCH   8  41
ATOM     41  O   UNL     1      17.417   4.875  14.621  1.00  0.00    -0.504 OA
ATOM     42  H   UNL     1      16.981   4.925  13.710  1.00  0.00     0.293 HD
ENDBRANCH   8  41
BRANCH   7  43
ATOM     43  O   UNL     1      16.597   4.875  17.343  1.00  0.00    -0.504 OA
ATOM     44  H   UNL     1      15.630   4.696  17.114  1.00  0.00     0.293 HD
ENDBRANCH   7  43
TORSDOF 11
ENDMDL
MODEL 9
REMARK VINA RESULT:    -7.353      3.733      7.022
REMARK INTER + INTRA:         -12.006
REMARK INTER:                 -11.867
REMARK INTRA:                  -0.139
REMARK UNBOUND:                -1.215
REMARK SMILES Cc1cc2c(C(C)C)c(O)c(O)c(C=O)c2c(O)c1-c1c(C)cc2c(C(C)C)c(O)c(O)c(C=O)c2c1O
REMARK SMILES IDX 1 1 2 2 3 3 4 4 16 5 13 6 11 7 9 8 5 9 17 10 19 11 20 12
REMARK SMILES IDX 37 13 21 14 36 15 23 16 22 17 24 18 33 19 25 20 31 21 29 22
REMARK SMILES IDX 38 23 34 25 35 26 26 27 27 28 28 29 32 30 30 32 18 34 6 36
REMARK SMILES IDX 7 37 8 38 14 39 15 40 10 41 12 43
REMARK H PARENT 38 24 32 31 30 33 18 35 10 42 12 44
REMARK Flexibility Score: inf
ROOT
ATOM      1  C   UNL     1      22.854  16.866  22.771  1.00  0.00     0.045 C 
ATOM      2  C   UNL     1      22.085  15.958  21.840  1.00  0.00    -0.039 A 
ATOM      3  C   UNL     1      20.692  16.031  21.811  1.00  0.00     0.013 A 
ATOM      4  C   UNL     1      19.916  15.186  20.985  1.00  0.00    -0.006 A 
ATOM      5  C   UNL     1      20.587  14.280  20.109  1.00  0.00     0.039 A 
ATOM      6  C   UNL     1      19.808  13.439  19.261  1.00  0.00     0.072 A 
ATOM      7  C   UNL     1      18.420  13.638  19.159  1.00  0.00     0.169 A 
ATOM      8  C   UNL     1      17.781  14.604  19.954  1.00  0.00     0.162 A 
ATOM      9  C   UNL     1      18.489  15.261  20.984  1.00  0.00     0.008 A 
ATOM     10  C   UNL     1      22.014  14.276  20.077  1.00  0.00     0.132 A 
ATOM     11  C   UNL     1      22.752  15.090  20.963  1.00  0.00     0.031 A 
ENDROOT
BRANCH  11  12
ATOM     12  C   UNL     1      24.239  15.064  20.943  1.00  0.00     0.031 A 
ATOM     13  C   UNL     1      24.948  14.463  22.004  1.00  0.00     0.132 A 
ATOM     14  C   UNL     1      24.935  15.603  19.849  1.00  0.00    -0.039 A 
ATOM     15  C   UNL     1      26.372  14.491  22.025  1.00  0.00     0.039 A 
ATOM     16  C   UNL     1      26.328  15.522  19.812  1.00  0.00     0.013 A 
ATOM     17  C   UNL     1      24.197  16.185  18.666  1.00  0.00     0.045 C 
ATOM     18  C   UNL     1      27.074  15.003  20.893  1.00  0.00    -0.006 A 
ATOM     19  C   UNL     1      27.121  13.969  23.118  1.00  0.00     0.072 A 
ATOM     20  C   UNL     1      28.502  14.940  20.849  1.00  0.00     0.008 A 
ATOM     21  C   UNL     1      28.499  13.746  22.981  1.00  0.00     0.169 A 
ATOM     22  C   UNL     1      29.172  14.160  21.819  1.00  0.00     0.162 A 
BRANCH  13  23
ATOM     23  O   UNL     1      24.243  13.790  23.008  1.00  0.00    -0.507 OA
ATOM     24  H   UNL     1      24.118  14.148  23.947  1.00  0.00     0.293 HD
ENDBRANCH  13  23
BRANCH  19  25
ATOM     25  C   UNL     1      26.531  13.715  24.452  1.00  0.00     0.264 C 
ATOM     26  O   UNL     1      26.858  14.417  25.445  1.00  0.00    -0.298 OA
ENDBRANCH  19  25
BRANCH  20  27
ATOM     27  C   UNL     1      29.311  15.647  19.746  1.00  0.00     0.017 C 
ATOM     28  C   UNL     1      29.633  14.684  18.600  1.00  0.00     0.012 C 
ATOM     29  C   UNL     1      30.582  16.350  20.260  1.00  0.00     0.012 C 
ENDBRANCH  20  27
BRANCH  21  30
ATOM     30  O   UNL     1      29.188  13.151  24.046  1.00  0.00    -0.504 OA
ATOM     31  H   UNL     1      29.851  12.397  23.941  1.00  0.00     0.293 HD
ENDBRANCH  21  30
BRANCH  22  32
ATOM     32  O   UNL     1      30.505  13.802  21.601  1.00  0.00    -0.504 OA
ATOM     33  H   UNL     1      30.898  12.902  21.842  1.00  0.00     0.293 HD
ENDBRANCH  22  32
ENDBRANCH  11  12
BRANCH  10  34
ATOM     34  O   UNL     1      22.697  13.498  19.136  1.00  0.00    -0.507 OA
ATOM     35  H   UNL     1      23.322  12.738  19.376  1.00  0.00     0.293 HD
ENDBRANCH  10  34
BRANCH   9  36
ATOM     36  C   UNL     1      17.718  16.077  22.039  1.00  0.00     0.017 C 
ATOM     37  C   UNL     1      18.415  16.005  23.402  1.00  0.00     0.012 C 
ATOM     38  C   UNL     1      17.450  17.537  21.625  1.00  0.00     0.012 C 
ENDBRANCH   9  36
BRANCH   6  39
ATOM     39  C   UNL     1      20.398  12.287  18.536  1.00  0.00     0.264 C 
ATOM     40  O   UNL     1      20.597  12.332  17.293  1.00  0.00    -0.298 OA
ENDBRANCH   6  39
BRANCH   8  41
ATOM     41  O   UNL     1      16.442  14.936  19.729  1.00  0.00    -0.504 OA
ATOM     42  H   UNL     1      15.659  14.365  20.018  1.00  0.00     0.293 HD
ENDBRANCH   8  41
BRANCH   7  43
ATOM     43  O   UNL     1      17.685  12.823  18.290  1.00  0.00    -0.504 OA
ATOM     44  H   UNL     1      17.469  13.064  17.334  1.00  0.00     0.293 HD
ENDBRANCH   7  43
TORSDOF 11
ENDMDL
