MODEL 1
REMARK VINA RESULT:    -6.029      0.000      0.000
REMARK INTER + INTRA:          -7.062
REMARK INTER:                  -6.910
REMARK INTRA:                  -0.152
REMARK UNBOUND:                -0.152
REMARK SMILES O=C([O-])C=Cc1ccc(O)cc1
REMARK SMILES IDX 6 1 7 2 12 3 8 4 11 5 9 6 5 7 4 8 2 9 1 10 3 11 10 12
REMARK H PARENT 10 13
REMARK Flexibility Score: inf
ROOT
ATOM      1  C   UNL     1      27.813  24.076  48.813  1.00  0.00    -0.025 A 
ATOM      2  C   UNL     1      28.549  24.651  49.870  1.00  0.00     0.012 A 
ATOM      3  C   UNL     1      26.894  23.053  49.107  1.00  0.00     0.012 A 
ATOM      4  C   UNL     1      28.381  24.193  51.181  1.00  0.00     0.047 A 
ATOM      5  C   UNL     1      26.730  22.598  50.418  1.00  0.00     0.047 A 
ATOM      6  C   UNL     1      27.475  23.166  51.459  1.00  0.00     0.115 A 
ENDROOT
BRANCH   1   7
ATOM      7  C   UNL     1      27.943  24.531  47.408  1.00  0.00     0.010 C 
ATOM      8  C   UNL     1      26.971  24.409  46.492  1.00  0.00     0.025 C 
BRANCH   8   9
ATOM      9  C   UNL     1      27.141  24.886  45.110  1.00  0.00     0.064 C 
ATOM     10  O   UNL     1      28.297  24.976  44.621  1.00  0.00    -0.545 OA
ATOM     11  O   UNL     1      26.042  25.242  44.335  1.00  0.00    -0.545 OA
ENDBRANCH   8   9
ENDBRANCH   1   7
BRANCH   6  12
ATOM     12  O   UNL     1      27.320  22.719  52.769  1.00  0.00    -0.508 OA
ATOM     13  H   UNL     1      26.585  22.072  53.025  1.00  0.00     0.293 HD
ENDBRANCH   6  12
TORSDOF 3
ENDMDL
MODEL 2
REMARK VINA RESULT:    -5.582      1.166      5.743
REMARK INTER + INTRA:          -6.550
REMARK INTER:                  -6.402
REMARK INTRA:                  -0.148
REMARK UNBOUND:                -0.152
REMARK SMILES O=C([O-])C=Cc1ccc(O)cc1
REMARK SMILES IDX 6 1 7 2 12 3 8 4 11 5 9 6 5 7 4 8 2 9 1 10 3 11 10 12
REMARK H PARENT 10 13
REMARK Flexibility Score: inf
ROOT
ATOM      1  C   UNL     1      28.455  24.521  48.378  1.00  0.00    -0.025 A 
ATOM      2  C   UNL     1      29.546  24.752  47.515  1.00  0.00     0.012 A 
ATOM      3  C   UNL     1      27.169  24.390  47.823  1.00  0.00     0.012 A 
ATOM      4  C   UNL     1      29.344  24.874  46.136  1.00  0.00     0.047 A 
ATOM      5  C   UNL     1      26.973  24.514  46.445  1.00  0.00     0.047 A 
ATOM      6  C   UNL     1      28.060  24.757  45.597  1.00  0.00     0.115 A 
ENDROOT
BRANCH   1   7
ATOM      7  C   UNL     1      28.613  24.372  49.845  1.00  0.00     0.010 C 
ATOM      8  C   UNL     1      28.006  23.420  50.567  1.00  0.00     0.025 C 
BRANCH   8   9
ATOM      9  C   UNL     1      28.201  23.303  52.021  1.00  0.00     0.064 C 
ATOM     10  O   UNL     1      28.969  24.107  52.611  1.00  0.00    -0.545 OA
ATOM     11  O   UNL     1      27.552  22.316  52.755  1.00  0.00    -0.545 OA
ENDBRANCH   8   9
ENDBRANCH   1   7
BRANCH   6  12
ATOM     12  O   UNL     1      27.875  24.882  44.222  1.00  0.00    -0.508 OA
ATOM     13  H   UNL     1      27.390  25.676  43.823  1.00  0.00     0.293 HD
ENDBRANCH   6  12
TORSDOF 3
ENDMDL
MODEL 3
REMARK VINA RESULT:    -5.516      1.618      5.995
REMARK INTER + INTRA:          -6.474
REMARK INTER:                  -6.336
REMARK INTRA:                  -0.138
REMARK UNBOUND:                -0.152
REMARK SMILES O=C([O-])C=Cc1ccc(O)cc1
REMARK SMILES IDX 6 1 7 2 12 3 8 4 11 5 9 6 5 7 4 8 2 9 1 10 3 11 10 12
REMARK H PARENT 10 13
REMARK Flexibility Score: inf
ROOT
ATOM      1  C   UNL     1      28.470  24.643  48.371  1.00  0.00    -0.025 A 
ATOM      2  C   UNL     1      27.168  24.512  47.844  1.00  0.00     0.012 A 
ATOM      3  C   UNL     1      29.540  24.860  47.485  1.00  0.00     0.012 A 
ATOM      4  C   UNL     1      26.954  24.574  46.463  1.00  0.00     0.047 A 
ATOM      5  C   UNL     1      29.321  24.920  46.106  1.00  0.00     0.047 A 
ATOM      6  C   UNL     1      28.027  24.776  45.591  1.00  0.00     0.115 A 
ENDROOT
BRANCH   1   7
ATOM      7  C   UNL     1      28.752  24.596  49.826  1.00  0.00     0.010 C 
ATOM      8  C   UNL     1      29.426  23.603  50.423  1.00  0.00     0.025 C 
BRANCH   8   9
ATOM      9  C   UNL     1      29.692  23.604  51.870  1.00  0.00     0.064 C 
ATOM     10  O   UNL     1      28.778  23.932  52.670  1.00  0.00    -0.545 OA
ATOM     11  O   UNL     1      30.942  23.250  52.370  1.00  0.00    -0.545 OA
ENDBRANCH   8   9
ENDBRANCH   1   7
BRANCH   6  12
ATOM     12  O   UNL     1      27.798  24.834  44.218  1.00  0.00    -0.508 OA
ATOM     13  H   UNL     1      27.157  25.507  43.816  1.00  0.00     0.293 HD
ENDBRANCH   6  12
TORSDOF 3
ENDMDL
MODEL 4
REMARK VINA RESULT:    -5.308      1.315      2.281
REMARK INTER + INTRA:          -6.236
REMARK INTER:                  -6.082
REMARK INTRA:                  -0.154
REMARK UNBOUND:                -0.152
REMARK SMILES O=C([O-])C=Cc1ccc(O)cc1
REMARK SMILES IDX 6 1 7 2 12 3 8 4 11 5 9 6 5 7 4 8 2 9 1 10 3 11 10 12
REMARK H PARENT 10 13
REMARK Flexibility Score: inf
ROOT
ATOM      1  C   UNL     1      27.985  23.507  49.270  1.00  0.00    -0.025 A 
ATOM      2  C   UNL     1      27.081  22.496  49.658  1.00  0.00     0.012 A 
ATOM      3  C   UNL     1      28.679  24.215  50.267  1.00  0.00     0.012 A 
ATOM      4  C   UNL     1      26.865  22.223  51.013  1.00  0.00     0.047 A 
ATOM      5  C   UNL     1      28.458  23.939  51.619  1.00  0.00     0.047 A 
ATOM      6  C   UNL     1      27.549  22.943  51.996  1.00  0.00     0.115 A 
ENDROOT
BRANCH   1   7
ATOM      7  C   UNL     1      28.260  23.829  47.848  1.00  0.00     0.010 C 
ATOM      8  C   UNL     1      29.162  24.739  47.452  1.00  0.00     0.025 C 
BRANCH   8   9
ATOM      9  C   UNL     1      29.411  25.018  46.029  1.00  0.00     0.064 C 
ATOM     10  O   UNL     1      28.466  24.927  45.203  1.00  0.00    -0.545 OA
ATOM     11  O   UNL     1      30.676  25.381  45.580  1.00  0.00    -0.545 OA
ENDBRANCH   8   9
ENDBRANCH   1   7
BRANCH   6  12
ATOM     12  O   UNL     1      27.322  22.661  53.341  1.00  0.00    -0.508 OA
ATOM     13  H   UNL     1      28.043  22.794  54.040  1.00  0.00     0.293 HD
ENDBRANCH   6  12
TORSDOF 3
ENDMDL
MODEL 5
REMARK VINA RESULT:    -5.256      1.470      1.993
REMARK INTER + INTRA:          -6.176
REMARK INTER:                  -6.039
REMARK INTRA:                  -0.138
REMARK UNBOUND:                -0.152
REMARK SMILES O=C([O-])C=Cc1ccc(O)cc1
REMARK SMILES IDX 6 1 7 2 12 3 8 4 11 5 9 6 5 7 4 8 2 9 1 10 3 11 10 12
REMARK H PARENT 10 13
REMARK Flexibility Score: inf
ROOT
ATOM      1  C   UNL     1      28.967  24.027  48.644  1.00  0.00    -0.025 A 
ATOM      2  C   UNL     1      28.304  24.569  49.765  1.00  0.00     0.012 A 
ATOM      3  C   UNL     1      29.977  23.071  48.851  1.00  0.00     0.012 A 
ATOM      4  C   UNL     1      28.665  24.176  51.057  1.00  0.00     0.047 A 
ATOM      5  C   UNL     1      30.335  22.683  50.144  1.00  0.00     0.047 A 
ATOM      6  C   UNL     1      29.680  23.235  51.252  1.00  0.00     0.115 A 
ENDROOT
BRANCH   1   7
ATOM      7  C   UNL     1      28.617  24.400  47.251  1.00  0.00     0.010 C 
ATOM      8  C   UNL     1      27.391  24.258  46.728  1.00  0.00     0.025 C 
BRANCH   8   9
ATOM      9  C   UNL     1      27.086  24.652  45.344  1.00  0.00     0.064 C 
ATOM     10  O   UNL     1      25.891  24.653  44.947  1.00  0.00    -0.545 OA
ATOM     11  O   UNL     1      28.097  25.022  44.464  1.00  0.00    -0.545 OA
ENDBRANCH   8   9
ENDBRANCH   1   7
BRANCH   6  12
ATOM     12  O   UNL     1      30.029  22.855  52.546  1.00  0.00    -0.508 OA
ATOM     13  H   UNL     1      30.356  21.919  52.753  1.00  0.00     0.293 HD
ENDBRANCH   6  12
TORSDOF 3
ENDMDL
MODEL 6
REMARK VINA RESULT:    -5.181     11.089     12.622
REMARK INTER + INTRA:          -6.091
REMARK INTER:                  -5.953
REMARK INTRA:                  -0.138
REMARK UNBOUND:                -0.152
REMARK SMILES O=C([O-])C=Cc1ccc(O)cc1
REMARK SMILES IDX 6 1 7 2 12 3 8 4 11 5 9 6 5 7 4 8 2 9 1 10 3 11 10 12
REMARK H PARENT 10 13
REMARK Flexibility Score: inf
ROOT
ATOM      1  C   UNL     1      19.928  24.086  39.010  1.00  0.00    -0.025 A 
ATOM      2  C   UNL     1      19.571  23.908  37.657  1.00  0.00     0.012 A 
ATOM      3  C   UNL     1      20.504  23.008  39.705  1.00  0.00     0.012 A 
ATOM      4  C   UNL     1      19.767  22.672  37.031  1.00  0.00     0.047 A 
ATOM      5  C   UNL     1      20.697  21.776  39.076  1.00  0.00     0.047 A 
ATOM      6  C   UNL     1      20.327  21.604  37.736  1.00  0.00     0.115 A 
ENDROOT
BRANCH   1   7
ATOM      7  C   UNL     1      19.753  25.376  39.719  1.00  0.00     0.010 C 
ATOM      8  C   UNL     1      20.772  26.151  40.118  1.00  0.00     0.025 C 
BRANCH   8   9
ATOM      9  C   UNL     1      20.551  27.431  40.809  1.00  0.00     0.064 C 
ATOM     10  O   UNL     1      20.476  28.495  40.140  1.00  0.00    -0.545 OA
ATOM     11  O   UNL     1      20.427  27.487  42.193  1.00  0.00    -0.545 OA
ENDBRANCH   8   9
ENDBRANCH   1   7
BRANCH   6  12
ATOM     12  O   UNL     1      20.514  20.379  37.098  1.00  0.00    -0.508 OA
ATOM     13  H   UNL     1      21.173  19.695  37.449  1.00  0.00     0.293 HD
ENDBRANCH   6  12
TORSDOF 3
ENDMDL
MODEL 7
REMARK VINA RESULT:    -5.175     11.299     12.703
REMARK INTER + INTRA:          -6.083
REMARK INTER:                  -5.947
REMARK INTRA:                  -0.137
REMARK UNBOUND:                -0.152
REMARK SMILES O=C([O-])C=Cc1ccc(O)cc1
REMARK SMILES IDX 6 1 7 2 12 3 8 4 11 5 9 6 5 7 4 8 2 9 1 10 3 11 10 12
REMARK H PARENT 10 13
REMARK Flexibility Score: inf
ROOT
ATOM      1  C   UNL     1      19.874  23.852  39.097  1.00  0.00    -0.025 A 
ATOM      2  C   UNL     1      20.499  22.750  39.717  1.00  0.00     0.012 A 
ATOM      3  C   UNL     1      19.466  23.733  37.757  1.00  0.00     0.012 A 
ATOM      4  C   UNL     1      20.729  21.571  38.999  1.00  0.00     0.047 A 
ATOM      5  C   UNL     1      19.699  22.554  37.043  1.00  0.00     0.047 A 
ATOM      6  C   UNL     1      20.332  21.469  37.663  1.00  0.00     0.115 A 
ENDROOT
BRANCH   1   7
ATOM      7  C   UNL     1      19.596  25.120  39.814  1.00  0.00     0.010 C 
ATOM      8  C   UNL     1      20.522  26.061  40.049  1.00  0.00     0.025 C 
BRANCH   8   9
ATOM      9  C   UNL     1      20.198  27.311  40.755  1.00  0.00     0.064 C 
ATOM     10  O   UNL     1      18.997  27.586  41.013  1.00  0.00    -0.545 OA
ATOM     11  O   UNL     1      21.199  28.197  41.141  1.00  0.00    -0.545 OA
ENDBRANCH   8   9
ENDBRANCH   1   7
BRANCH   6  12
ATOM     12  O   UNL     1      20.569  20.290  36.961  1.00  0.00    -0.508 OA
ATOM     13  H   UNL     1      20.450  19.382  37.395  1.00  0.00     0.293 HD
ENDBRANCH   6  12
TORSDOF 3
ENDMDL
MODEL 8
REMARK VINA RESULT:    -5.002     11.407     12.857
REMARK INTER + INTRA:          -5.886
REMARK INTER:                  -5.750
REMARK INTRA:                  -0.136
REMARK UNBOUND:                -0.152
REMARK SMILES O=C([O-])C=Cc1ccc(O)cc1
REMARK SMILES IDX 6 1 7 2 12 3 8 4 11 5 9 6 5 7 4 8 2 9 1 10 3 11 10 12
REMARK H PARENT 10 13
REMARK Flexibility Score: inf
ROOT
ATOM      1  C   UNL     1      19.743  24.120  39.318  1.00  0.00    -0.025 A 
ATOM      2  C   UNL     1      19.394  24.052  37.953  1.00  0.00     0.012 A 
ATOM      3  C   UNL     1      20.399  23.024  39.905  1.00  0.00     0.012 A 
ATOM      4  C   UNL     1      19.677  22.903  37.208  1.00  0.00     0.047 A 
ATOM      5  C   UNL     1      20.678  21.878  39.157  1.00  0.00     0.047 A 
ATOM      6  C   UNL     1      20.316  21.813  37.805  1.00  0.00     0.115 A 
ENDROOT
BRANCH   1   7
ATOM      7  C   UNL     1      19.477  25.318  40.152  1.00  0.00     0.010 C 
ATOM      8  C   UNL     1      18.547  25.363  41.116  1.00  0.00     0.025 C 
BRANCH   8   9
ATOM      9  C   UNL     1      18.325  26.571  41.927  1.00  0.00     0.064 C 
ATOM     10  O   UNL     1      17.189  27.111  41.939  1.00  0.00    -0.545 OA
ATOM     11  O   UNL     1      19.354  27.128  42.680  1.00  0.00    -0.545 OA
ENDBRANCH   8   9
ENDBRANCH   1   7
BRANCH   6  12
ATOM     12  O   UNL     1      20.590  20.675  37.050  1.00  0.00    -0.508 OA
ATOM     13  H   UNL     1      21.113  20.726  36.185  1.00  0.00     0.293 HD
ENDBRANCH   6  12
TORSDOF 3
ENDMDL
MODEL 9
REMARK VINA RESULT:    -4.790     10.447     11.907
REMARK INTER + INTRA:          -5.642
REMARK INTER:                  -5.506
REMARK INTRA:                  -0.136
REMARK UNBOUND:                -0.152
REMARK SMILES O=C([O-])C=Cc1ccc(O)cc1
REMARK SMILES IDX 6 1 7 2 12 3 8 4 11 5 9 6 5 7 4 8 2 9 1 10 3 11 10 12
REMARK H PARENT 10 13
REMARK Flexibility Score: inf
ROOT
ATOM      1  C   UNL     1      19.691  25.875  40.061  1.00  0.00    -0.025 A 
ATOM      2  C   UNL     1      20.863  26.648  40.198  1.00  0.00     0.012 A 
ATOM      3  C   UNL     1      18.724  25.927  41.080  1.00  0.00     0.012 A 
ATOM      4  C   UNL     1      21.066  27.431  41.339  1.00  0.00     0.047 A 
ATOM      5  C   UNL     1      18.931  26.710  42.219  1.00  0.00     0.047 A 
ATOM      6  C   UNL     1      20.104  27.464  42.352  1.00  0.00     0.115 A 
ENDROOT
BRANCH   1   7
ATOM      7  C   UNL     1      19.421  25.037  38.868  1.00  0.00     0.010 C 
ATOM      8  C   UNL     1      19.774  23.747  38.769  1.00  0.00     0.025 C 
BRANCH   8   9
ATOM      9  C   UNL     1      19.475  22.950  37.569  1.00  0.00     0.064 C 
ATOM     10  O   UNL     1      18.492  23.259  36.846  1.00  0.00    -0.545 OA
ATOM     11  O   UNL     1      20.260  21.856  37.220  1.00  0.00    -0.545 OA
ENDBRANCH   8   9
ENDBRANCH   1   7
BRANCH   6  12
ATOM     12  O   UNL     1      20.320  28.248  43.483  1.00  0.00    -0.508 OA
ATOM     13  H   UNL     1      20.212  29.254  43.459  1.00  0.00     0.293 HD
ENDBRANCH   6  12
TORSDOF 3
ENDMDL
