MODEL 1
REMARK VINA RESULT:    -4.282      0.000      0.000
REMARK INTER + INTRA:          -7.187
REMARK INTER:                  -6.536
REMARK INTRA:                  -0.651
REMARK UNBOUND:                -0.651
REMARK SMILES CCCCCCCCCCC(=O)[O-]
REMARK SMILES IDX 7 1 8 2 9 3 10 4 11 5 12 6 13 7 6 8 5 9 4 10 3 11 2 12 1 13
REMARK H PARENT
REMARK Flexibility Score: inf
ROOT
ATOM      1  C   UNL     1    -119.287 -36.729 -56.341  1.00  0.00     0.000 C 
ENDROOT
BRANCH   1   2
ATOM      2  C   UNL     1    -117.777 -37.024 -56.387  1.00  0.00     0.000 C 
BRANCH   2   3
ATOM      3  C   UNL     1    -116.928 -35.744 -56.448  1.00  0.00     0.006 C 
BRANCH   3   4
ATOM      4  C   UNL     1    -115.422 -36.036 -56.466  1.00  0.00     0.053 C 
BRANCH   4   5
ATOM      5  C   UNL     1    -114.771 -35.353 -57.627  1.00  0.00     0.041 C 
ATOM      6  O   UNL     1    -115.403 -35.194 -58.704  1.00  0.00    -0.550 OA
ATOM      7  O   UNL     1    -113.449 -34.936 -57.536  1.00  0.00    -0.550 OA
ENDBRANCH   4   5
ENDBRANCH   3   4
ENDBRANCH   2   3
ENDBRANCH   1   2
BRANCH   1   8
ATOM      8  C   UNL     1    -119.617 -35.276 -56.718  1.00  0.00     0.000 C 
BRANCH   8   9
ATOM      9  C   UNL     1    -120.834 -34.731 -55.958  1.00  0.00    -0.000 C 
BRANCH   9  10
ATOM     10  C   UNL     1    -121.875 -34.159 -56.928  1.00  0.00    -0.000 C 
BRANCH  10  11
ATOM     11  C   UNL     1    -122.672 -35.280 -57.606  1.00  0.00    -0.000 C 
BRANCH  11  12
ATOM     12  C   UNL     1    -123.124 -36.329 -56.583  1.00  0.00    -0.003 C 
ATOM     13  C   UNL     1    -122.740 -37.737 -57.032  1.00  0.00     0.004 C 
ENDBRANCH  11  12
ENDBRANCH  10  11
ENDBRANCH   9  10
ENDBRANCH   8   9
ENDBRANCH   1   8
TORSDOF 9
ENDMDL
MODEL 2
REMARK VINA RESULT:    -4.273      3.515      6.478
REMARK INTER + INTRA:          -7.172
REMARK INTER:                  -6.630
REMARK INTRA:                  -0.543
REMARK UNBOUND:                -0.651
REMARK SMILES CCCCCCCCCCC(=O)[O-]
REMARK SMILES IDX 7 1 8 2 9 3 10 4 11 5 12 6 13 7 6 8 5 9 4 10 3 11 2 12 1 13
REMARK H PARENT
REMARK Flexibility Score: inf
ROOT
ATOM      1  C   UNL     1    -120.509 -34.804 -57.152  1.00  0.00     0.000 C 
ENDROOT
BRANCH   1   2
ATOM      2  C   UNL     1    -121.756 -34.147 -56.534  1.00  0.00     0.000 C 
BRANCH   2   3
ATOM      3  C   UNL     1    -122.996 -35.051 -56.604  1.00  0.00     0.006 C 
BRANCH   3   4
ATOM      4  C   UNL     1    -122.993 -36.141 -55.524  1.00  0.00     0.053 C 
BRANCH   4   5
ATOM      5  C   UNL     1    -122.609 -37.460 -56.115  1.00  0.00     0.041 C 
ATOM      6  O   UNL     1    -122.876 -37.719 -57.317  1.00  0.00    -0.550 OA
ATOM      7  O   UNL     1    -121.998 -38.425 -55.322  1.00  0.00    -0.550 OA
ENDBRANCH   4   5
ENDBRANCH   3   4
ENDBRANCH   2   3
ENDBRANCH   1   2
BRANCH   1   8
ATOM      8  C   UNL     1    -119.506 -35.282 -56.090  1.00  0.00     0.000 C 
BRANCH   8   9
ATOM      9  C   UNL     1    -119.110 -36.754 -56.271  1.00  0.00    -0.000 C 
BRANCH   9  10
ATOM     10  C   UNL     1    -117.585 -36.917 -56.265  1.00  0.00    -0.000 C 
BRANCH  10  11
ATOM     11  C   UNL     1    -116.888 -35.590 -56.589  1.00  0.00    -0.000 C 
BRANCH  11  12
ATOM     12  C   UNL     1    -115.417 -35.818 -56.957  1.00  0.00    -0.003 C 
ATOM     13  C   UNL     1    -114.991 -34.913 -58.110  1.00  0.00     0.004 C 
ENDBRANCH  11  12
ENDBRANCH  10  11
ENDBRANCH   9  10
ENDBRANCH   8   9
ENDBRANCH   1   8
TORSDOF 9
ENDMDL
MODEL 3
REMARK VINA RESULT:    -4.247      1.609      2.715
REMARK INTER + INTRA:          -7.133
REMARK INTER:                  -6.711
REMARK INTRA:                  -0.422
REMARK UNBOUND:                -0.651
REMARK SMILES CCCCCCCCCCC(=O)[O-]
REMARK SMILES IDX 7 1 8 2 9 3 10 4 11 5 12 6 13 7 6 8 5 9 4 10 3 11 2 12 1 13
REMARK H PARENT
REMARK Flexibility Score: inf
ROOT
ATOM      1  C   UNL     1    -119.674 -35.757 -56.605  1.00  0.00     0.000 C 
ENDROOT
BRANCH   1   2
ATOM      2  C   UNL     1    -118.848 -36.848 -55.900  1.00  0.00     0.000 C 
BRANCH   2   3
ATOM      3  C   UNL     1    -117.377 -36.853 -56.345  1.00  0.00     0.006 C 
BRANCH   3   4
ATOM      4  C   UNL     1    -116.866 -35.454 -56.711  1.00  0.00     0.053 C 
BRANCH   4   5
ATOM      5  C   UNL     1    -115.467 -35.529 -57.235  1.00  0.00     0.041 C 
ATOM      6  O   UNL     1    -114.520 -35.853 -56.471  1.00  0.00    -0.550 OA
ATOM      7  O   UNL     1    -115.201 -35.192 -58.557  1.00  0.00    -0.550 OA
ENDBRANCH   4   5
ENDBRANCH   3   4
ENDBRANCH   2   3
ENDBRANCH   1   2
BRANCH   1   8
ATOM      8  C   UNL     1    -120.698 -35.095 -55.670  1.00  0.00     0.000 C 
BRANCH   8   9
ATOM      9  C   UNL     1    -121.520 -34.004 -56.371  1.00  0.00    -0.000 C 
BRANCH   9  10
ATOM     10  C   UNL     1    -122.216 -34.558 -57.620  1.00  0.00    -0.000 C 
BRANCH  10  11
ATOM     11  C   UNL     1    -122.917 -33.441 -58.402  1.00  0.00    -0.000 C 
BRANCH  11  12
ATOM     12  C   UNL     1    -121.959 -32.784 -59.402  1.00  0.00    -0.003 C 
ATOM     13  C   UNL     1    -122.326 -31.321 -59.637  1.00  0.00     0.004 C 
ENDBRANCH  11  12
ENDBRANCH  10  11
ENDBRANCH   9  10
ENDBRANCH   8   9
ENDBRANCH   1   8
TORSDOF 9
ENDMDL
MODEL 4
REMARK VINA RESULT:    -4.179      3.325      6.500
REMARK INTER + INTRA:          -7.029
REMARK INTER:                  -6.573
REMARK INTRA:                  -0.457
REMARK UNBOUND:                -0.651
REMARK SMILES CCCCCCCCCCC(=O)[O-]
REMARK SMILES IDX 7 1 8 2 9 3 10 4 11 5 12 6 13 7 6 8 5 9 4 10 3 11 2 12 1 13
REMARK H PARENT
REMARK Flexibility Score: inf
ROOT
ATOM      1  C   UNL     1    -120.537 -35.130 -56.857  1.00  0.00     0.000 C 
ENDROOT
BRANCH   1   2
ATOM      2  C   UNL     1    -122.020 -34.825 -56.577  1.00  0.00     0.000 C 
BRANCH   2   3
ATOM      3  C   UNL     1    -122.791 -34.434 -57.846  1.00  0.00     0.006 C 
BRANCH   3   4
ATOM      4  C   UNL     1    -123.125 -32.937 -57.896  1.00  0.00     0.053 C 
BRANCH   4   5
ATOM      5  C   UNL     1    -122.475 -32.296 -59.081  1.00  0.00     0.041 C 
ATOM      6  O   UNL     1    -121.736 -32.973 -59.843  1.00  0.00    -0.550 OA
ATOM      7  O   UNL     1    -122.646 -30.937 -59.317  1.00  0.00    -0.550 OA
ENDBRANCH   4   5
ENDBRANCH   3   4
ENDBRANCH   2   3
ENDBRANCH   1   2
BRANCH   1   8
ATOM      8  C   UNL     1    -120.074 -36.448 -56.215  1.00  0.00     0.000 C 
BRANCH   8   9
ATOM      9  C   UNL     1    -118.664 -36.349 -55.615  1.00  0.00    -0.000 C 
BRANCH   9  10
ATOM     10  C   UNL     1    -117.683 -37.258 -56.366  1.00  0.00    -0.000 C 
BRANCH  10  11
ATOM     11  C   UNL     1    -116.314 -36.584 -56.520  1.00  0.00    -0.000 C 
BRANCH  11  12
ATOM     12  C   UNL     1    -116.449 -35.212 -57.190  1.00  0.00    -0.003 C 
ATOM     13  C   UNL     1    -115.207 -34.877 -58.013  1.00  0.00     0.004 C 
ENDBRANCH  11  12
ENDBRANCH  10  11
ENDBRANCH   9  10
ENDBRANCH   8   9
ENDBRANCH   1   8
TORSDOF 9
ENDMDL
MODEL 5
REMARK VINA RESULT:    -4.174      3.232      6.270
REMARK INTER + INTRA:          -7.021
REMARK INTER:                  -6.541
REMARK INTRA:                  -0.480
REMARK UNBOUND:                -0.651
REMARK SMILES CCCCCCCCCCC(=O)[O-]
REMARK SMILES IDX 7 1 8 2 9 3 10 4 11 5 12 6 13 7 6 8 5 9 4 10 3 11 2 12 1 13
REMARK H PARENT
REMARK Flexibility Score: inf
ROOT
ATOM      1  C   UNL     1    -119.987 -36.961 -56.758  1.00  0.00     0.000 C 
ENDROOT
BRANCH   1   2
ATOM      2  C   UNL     1    -121.095 -37.115 -55.701  1.00  0.00     0.000 C 
BRANCH   2   3
ATOM      3  C   UNL     1    -122.358 -36.312 -56.049  1.00  0.00     0.006 C 
BRANCH   3   4
ATOM      4  C   UNL     1    -122.284 -35.671 -57.441  1.00  0.00     0.053 C 
BRANCH   4   5
ATOM      5  C   UNL     1    -122.089 -34.192 -57.326  1.00  0.00     0.041 C 
ATOM      6  O   UNL     1    -122.115 -33.467 -58.355  1.00  0.00    -0.550 OA
ATOM      7  O   UNL     1    -121.829 -33.620 -56.086  1.00  0.00    -0.550 OA
ENDBRANCH   4   5
ENDBRANCH   3   4
ENDBRANCH   2   3
ENDBRANCH   1   2
BRANCH   1   8
ATOM      8  C   UNL     1    -118.735 -36.262 -56.203  1.00  0.00     0.000 C 
BRANCH   8   9
ATOM      9  C   UNL     1    -117.532 -37.209 -56.088  1.00  0.00    -0.000 C 
BRANCH   9  10
ATOM     10  C   UNL     1    -116.227 -36.482 -56.438  1.00  0.00    -0.000 C 
BRANCH  10  11
ATOM     11  C   UNL     1    -116.507 -35.195 -57.224  1.00  0.00    -0.000 C 
BRANCH  11  12
ATOM     12  C   UNL     1    -115.307 -34.815 -58.100  1.00  0.00    -0.003 C 
ATOM     13  C   UNL     1    -113.993 -35.229 -57.444  1.00  0.00     0.004 C 
ENDBRANCH  11  12
ENDBRANCH  10  11
ENDBRANCH   9  10
ENDBRANCH   8   9
ENDBRANCH   1   8
TORSDOF 9
ENDMDL
MODEL 6
REMARK VINA RESULT:    -3.965     14.775     16.685
REMARK INTER + INTRA:          -6.702
REMARK INTER:                  -5.444
REMARK INTRA:                  -1.259
REMARK UNBOUND:                -0.651
REMARK SMILES CCCCCCCCCCC(=O)[O-]
REMARK SMILES IDX 7 1 8 2 9 3 10 4 11 5 12 6 13 7 6 8 5 9 4 10 3 11 2 12 1 13
REMARK H PARENT
REMARK Flexibility Score: inf
ROOT
ATOM      1  C   UNL     1    -105.520 -28.859 -58.990  1.00  0.00     0.000 C 
ENDROOT
BRANCH   1   2
ATOM      2  C   UNL     1    -104.206 -28.325 -59.589  1.00  0.00     0.000 C 
BRANCH   2   3
ATOM      3  C   UNL     1    -103.506 -27.314 -58.668  1.00  0.00     0.006 C 
BRANCH   3   4
ATOM      4  C   UNL     1    -104.016 -25.881 -58.869  1.00  0.00     0.053 C 
BRANCH   4   5
ATOM      5  C   UNL     1    -104.636 -25.365 -57.609  1.00  0.00     0.041 C 
ATOM      6  O   UNL     1    -103.962 -24.662 -56.812  1.00  0.00    -0.550 OA
ATOM      7  O   UNL     1    -105.946 -25.702 -57.291  1.00  0.00    -0.550 OA
ENDBRANCH   4   5
ENDBRANCH   3   4
ENDBRANCH   2   3
ENDBRANCH   1   2
BRANCH   1   8
ATOM      8  C   UNL     1    -106.713 -28.694 -59.944  1.00  0.00     0.000 C 
BRANCH   8   9
ATOM      9  C   UNL     1    -107.629 -27.526 -59.549  1.00  0.00    -0.000 C 
BRANCH   9  10
ATOM     10  C   UNL     1    -107.406 -26.319 -60.469  1.00  0.00    -0.000 C 
BRANCH  10  11
ATOM     11  C   UNL     1    -106.898 -26.762 -61.846  1.00  0.00    -0.000 C 
BRANCH  11  12
ATOM     12  C   UNL     1    -105.862 -25.773 -62.394  1.00  0.00    -0.003 C 
ATOM     13  C   UNL     1    -105.959 -24.425 -61.684  1.00  0.00     0.004 C 
ENDBRANCH  11  12
ENDBRANCH  10  11
ENDBRANCH   9  10
ENDBRANCH   8   9
ENDBRANCH   1   8
TORSDOF 9
ENDMDL
MODEL 7
REMARK VINA RESULT:    -3.938     12.241     14.385
REMARK INTER + INTRA:          -6.661
REMARK INTER:                  -5.706
REMARK INTRA:                  -0.955
REMARK UNBOUND:                -0.651
REMARK SMILES CCCCCCCCCCC(=O)[O-]
REMARK SMILES IDX 7 1 8 2 9 3 10 4 11 5 12 6 13 7 6 8 5 9 4 10 3 11 2 12 1 13
REMARK H PARENT
REMARK Flexibility Score: inf
ROOT
ATOM      1  C   UNL     1    -113.345 -41.820 -64.545  1.00  0.00     0.000 C 
ENDROOT
BRANCH   1   2
ATOM      2  C   UNL     1    -112.855 -40.990 -65.745  1.00  0.00     0.000 C 
BRANCH   2   3
ATOM      3  C   UNL     1    -113.762 -41.140 -66.976  1.00  0.00     0.006 C 
BRANCH   3   4
ATOM      4  C   UNL     1    -113.999 -42.607 -67.358  1.00  0.00     0.053 C 
BRANCH   4   5
ATOM      5  C   UNL     1    -113.171 -42.977 -68.547  1.00  0.00     0.041 C 
ATOM      6  O   UNL     1    -111.932 -43.165 -68.424  1.00  0.00    -0.550 OA
ATOM      7  O   UNL     1    -113.759 -43.067 -69.804  1.00  0.00    -0.550 OA
ENDBRANCH   4   5
ENDBRANCH   3   4
ENDBRANCH   2   3
ENDBRANCH   1   2
BRANCH   1   8
ATOM      8  C   UNL     1    -112.277 -42.797 -64.028  1.00  0.00     0.000 C 
BRANCH   8   9
ATOM      9  C   UNL     1    -111.120 -42.986 -65.019  1.00  0.00    -0.000 C 
BRANCH   9  10
ATOM     10  C   UNL     1    -109.802 -43.247 -64.280  1.00  0.00    -0.000 C 
BRANCH  10  11
ATOM     11  C   UNL     1    -108.763 -42.167 -64.606  1.00  0.00    -0.000 C 
BRANCH  11  12
ATOM     12  C   UNL     1    -109.144 -41.404 -65.880  1.00  0.00    -0.003 C 
ATOM     13  C   UNL     1    -109.096 -39.895 -65.653  1.00  0.00     0.004 C 
ENDBRANCH  11  12
ENDBRANCH  10  11
ENDBRANCH   9  10
ENDBRANCH   8   9
ENDBRANCH   1   8
TORSDOF 9
ENDMDL
MODEL 8
REMARK VINA RESULT:    -3.910     11.827     13.670
REMARK INTER + INTRA:          -6.619
REMARK INTER:                  -5.366
REMARK INTRA:                  -1.253
REMARK UNBOUND:                -0.651
REMARK SMILES CCCCCCCCCCC(=O)[O-]
REMARK SMILES IDX 7 1 8 2 9 3 10 4 11 5 12 6 13 7 6 8 5 9 4 10 3 11 2 12 1 13
REMARK H PARENT
REMARK Flexibility Score: inf
ROOT
ATOM      1  C   UNL     1    -112.253 -40.898 -65.623  1.00  0.00     0.000 C 
ENDROOT
BRANCH   1   2
ATOM      2  C   UNL     1    -111.428 -42.115 -65.167  1.00  0.00     0.000 C 
BRANCH   2   3
ATOM      3  C   UNL     1    -110.030 -42.152 -65.804  1.00  0.00     0.006 C 
BRANCH   3   4
ATOM      4  C   UNL     1    -109.554 -40.767 -66.262  1.00  0.00     0.053 C 
BRANCH   4   5
ATOM      5  C   UNL     1    -108.620 -40.176 -65.253  1.00  0.00     0.041 C 
ATOM      6  O   UNL     1    -108.132 -40.896 -64.343  1.00  0.00    -0.550 OA
ATOM      7  O   UNL     1    -108.327 -38.818 -65.288  1.00  0.00    -0.550 OA
ENDBRANCH   4   5
ENDBRANCH   3   4
ENDBRANCH   2   3
ENDBRANCH   1   2
BRANCH   1   8
ATOM      8  C   UNL     1    -113.765 -41.111 -65.447  1.00  0.00     0.000 C 
BRANCH   8   9
ATOM      9  C   UNL     1    -114.301 -42.272 -66.298  1.00  0.00    -0.000 C 
BRANCH   9  10
ATOM     10  C   UNL     1    -114.013 -42.039 -67.786  1.00  0.00    -0.000 C 
BRANCH  10  11
ATOM     11  C   UNL     1    -113.409 -43.291 -68.433  1.00  0.00    -0.000 C 
BRANCH  11  12
ATOM     12  C   UNL     1    -111.942 -43.060 -68.813  1.00  0.00    -0.003 C 
ATOM     13  C   UNL     1    -111.708 -41.617 -69.254  1.00  0.00     0.004 C 
ENDBRANCH  11  12
ENDBRANCH  10  11
ENDBRANCH   9  10
ENDBRANCH   8   9
ENDBRANCH   1   8
TORSDOF 9
ENDMDL
MODEL 9
REMARK VINA RESULT:    -3.874     15.144     17.155
REMARK INTER + INTRA:          -6.563
REMARK INTER:                  -5.206
REMARK INTRA:                  -1.356
REMARK UNBOUND:                -0.651
REMARK SMILES CCCCCCCCCCC(=O)[O-]
REMARK SMILES IDX 7 1 8 2 9 3 10 4 11 5 12 6 13 7 6 8 5 9 4 10 3 11 2 12 1 13
REMARK H PARENT
REMARK Flexibility Score: inf
ROOT
ATOM      1  C   UNL     1    -106.968 -27.497 -59.036  1.00  0.00     0.000 C 
ENDROOT
BRANCH   1   2
ATOM      2  C   UNL     1    -107.489 -26.784 -60.297  1.00  0.00     0.000 C 
BRANCH   2   3
ATOM      3  C   UNL     1    -106.864 -25.394 -60.489  1.00  0.00     0.006 C 
BRANCH   3   4
ATOM      4  C   UNL     1    -105.718 -25.398 -61.510  1.00  0.00     0.053 C 
BRANCH   4   5
ATOM      5  C   UNL     1    -106.085 -26.223 -62.702  1.00  0.00     0.041 C 
ATOM      6  O   UNL     1    -105.490 -27.310 -62.928  1.00  0.00    -0.550 OA
ATOM      7  O   UNL     1    -107.049 -25.768 -63.593  1.00  0.00    -0.550 OA
ENDBRANCH   4   5
ENDBRANCH   3   4
ENDBRANCH   2   3
ENDBRANCH   1   2
BRANCH   1   8
ATOM      8  C   UNL     1    -106.214 -28.796 -59.362  1.00  0.00     0.000 C 
BRANCH   8   9
ATOM      9  C   UNL     1    -104.739 -28.551 -59.712  1.00  0.00    -0.000 C 
BRANCH   9  10
ATOM     10  C   UNL     1    -104.031 -27.776 -58.593  1.00  0.00    -0.000 C 
BRANCH  10  11
ATOM     11  C   UNL     1    -103.041 -26.757 -59.169  1.00  0.00    -0.000 C 
BRANCH  11  12
ATOM     12  C   UNL     1    -103.208 -25.389 -58.498  1.00  0.00    -0.003 C 
ATOM     13  C   UNL     1    -104.329 -25.416 -57.463  1.00  0.00     0.004 C 
ENDBRANCH  11  12
ENDBRANCH  10  11
ENDBRANCH   9  10
ENDBRANCH   8   9
ENDBRANCH   1   8
TORSDOF 9
ENDMDL
