MODEL 1
REMARK VINA RESULT:    -4.845      0.000      0.000
REMARK INTER + INTRA:          -7.237
REMARK INTER:                  -6.544
REMARK INTRA:                  -0.694
REMARK UNBOUND:                -0.694
REMARK SMILES COc1ccc(-c2cc(=O)c3c(OC)c(OC)c(OC)c(OC)c3o2)cc1
REMARK SMILES IDX 7 1 8 2 9 3 10 4 11 5 24 6 25 7 21 8 18 9 15 10 12 11 6 12
REMARK SMILES IDX 3 13 4 14 27 15 5 16 26 17 2 18 1 19 22 20 23 21 13 22 14 23
REMARK SMILES IDX 19 24 20 25 16 26 17 27
REMARK H PARENT
REMARK Flexibility Score: inf
ROOT
ATOM      1  C   UNL     1     -32.500  27.547  -0.886  1.00  0.00     0.138 A 
ATOM      2  C   UNL     1     -33.246  28.106   0.159  1.00  0.00     0.100 A 
ATOM      3  C   UNL     1     -33.620  29.447   0.091  1.00  0.00     0.197 A 
ATOM      4  O   UNL     1     -34.325  29.927   1.018  1.00  0.00    -0.289 OA
ATOM      5  C   UNL     1     -33.223  30.229  -1.018  1.00  0.00     0.115 A 
ATOM      6  C   UNL     1     -32.508  29.582  -2.049  1.00  0.00     0.188 A 
ATOM      7  O   UNL     1     -32.184  28.295  -1.937  1.00  0.00    -0.452 OA
ATOM      8  C   UNL     1     -32.110  30.278  -3.195  1.00  0.00     0.209 A 
ATOM      9  C   UNL     1     -32.443  31.647  -3.337  1.00  0.00     0.211 A 
ATOM     10  C   UNL     1     -33.190  32.299  -2.327  1.00  0.00     0.208 A 
ATOM     11  C   UNL     1     -33.516  31.606  -1.136  1.00  0.00     0.179 A 
ENDROOT
BRANCH   1  12
ATOM     12  C   UNL     1     -32.059  26.131  -0.859  1.00  0.00     0.018 A 
ATOM     13  C   UNL     1     -31.270  23.420  -0.863  1.00  0.00     0.118 A 
ATOM     14  C   UNL     1     -32.607  23.773  -0.603  1.00  0.00     0.047 A 
ATOM     15  C   UNL     1     -30.337  24.429  -1.116  1.00  0.00     0.047 A 
ATOM     16  C   UNL     1     -32.997  25.115  -0.609  1.00  0.00     0.016 A 
ATOM     17  C   UNL     1     -30.723  25.773  -1.119  1.00  0.00     0.016 A 
BRANCH  13  18
ATOM     18  O   UNL     1     -30.833  22.087  -0.879  1.00  0.00    -0.497 OA
ATOM     19  C   UNL     1     -30.875  21.214   0.246  1.00  0.00     0.278 C 
ENDBRANCH  13  18
ENDBRANCH   1  12
BRANCH   8  20
ATOM     20  O   UNL     1     -31.379  29.547  -4.155  1.00  0.00    -0.490 OA
ATOM     21  C   UNL     1     -29.967  29.551  -4.331  1.00  0.00     0.278 C 
ENDBRANCH   8  20
BRANCH  11  22
ATOM     22  O   UNL     1     -34.103  32.289  -0.068  1.00  0.00    -0.492 OA
ATOM     23  C   UNL     1     -33.313  33.052   0.841  1.00  0.00     0.278 C 
ENDBRANCH  11  22
BRANCH   9  24
ATOM     24  O   UNL     1     -32.056  32.325  -4.504  1.00  0.00    -0.490 OA
ATOM     25  C   UNL     1     -30.851  33.081  -4.641  1.00  0.00     0.279 C 
ENDBRANCH   9  24
BRANCH  10  26
ATOM     26  O   UNL     1     -33.606  33.621  -2.572  1.00  0.00    -0.490 OA
ATOM     27  C   UNL     1     -34.789  34.029  -3.252  1.00  0.00     0.278 C 
ENDBRANCH  10  26
TORSDOF 6
ENDMDL
