MODEL 1
REMARK VINA RESULT:    -4.890      0.000      0.000
REMARK INTER + INTRA:          -6.832
REMARK INTER:                  -6.605
REMARK INTRA:                  -0.227
REMARK UNBOUND:                -0.227
REMARK SMILES CCCCCCCC(=O)[O-]
REMARK SMILES IDX 5 1 6 2 7 3 8 4 9 5 10 6 4 7 3 8 2 9 1 10
REMARK H PARENT
REMARK Flexibility Score: inf
ROOT
ATOM      1  C   UNL     1       9.777   1.462 -34.405  1.00  0.00     0.000 C 
ENDROOT
BRANCH   1   2
ATOM      2  C   UNL     1       9.466   1.451 -35.909  1.00  0.00     0.006 C 
BRANCH   2   3
ATOM      3  C   UNL     1       8.366   0.444 -36.269  1.00  0.00     0.053 C 
BRANCH   3   4
ATOM      4  C   UNL     1       8.651  -0.252 -37.564  1.00  0.00     0.041 C 
ATOM      5  O   UNL     1       8.347  -1.464 -37.712  1.00  0.00    -0.550 OA
ATOM      6  O   UNL     1       9.283   0.430 -38.596  1.00  0.00    -0.550 OA
ENDBRANCH   3   4
ENDBRANCH   2   3
ENDBRANCH   1   2
BRANCH   1   7
ATOM      7  C   UNL     1      11.277   1.671 -34.155  1.00  0.00     0.000 C 
BRANCH   7   8
ATOM      8  C   UNL     1      11.971   2.419 -35.306  1.00  0.00    -0.000 C 
BRANCH   8   9
ATOM      9  C   UNL     1      13.496   2.238 -35.295  1.00  0.00    -0.003 C 
ATOM     10  C   UNL     1      14.044   2.277 -33.871  1.00  0.00     0.004 C 
ENDBRANCH   8   9
ENDBRANCH   7   8
ENDBRANCH   1   7
TORSDOF 6
ENDMDL
MODEL 2
REMARK VINA RESULT:    -4.765      2.008      2.329
REMARK INTER + INTRA:          -6.663
REMARK INTER:                  -6.436
REMARK INTRA:                  -0.227
REMARK UNBOUND:                -0.227
REMARK SMILES CCCCCCCC(=O)[O-]
REMARK SMILES IDX 5 1 6 2 7 3 8 4 9 5 10 6 4 7 3 8 2 9 1 10
REMARK H PARENT
REMARK Flexibility Score: inf
ROOT
ATOM      1  C   UNL     1       9.971   1.418 -34.336  1.00  0.00     0.000 C 
ENDROOT
BRANCH   1   2
ATOM      2  C   UNL     1       9.616   1.624 -35.816  1.00  0.00     0.006 C 
BRANCH   2   3
ATOM      3  C   UNL     1       8.164   2.082 -36.008  1.00  0.00     0.053 C 
BRANCH   3   4
ATOM      4  C   UNL     1       7.212   1.276 -35.179  1.00  0.00     0.041 C 
ATOM      5  O   UNL     1       6.709   1.767 -34.136  1.00  0.00    -0.550 OA
ATOM      6  O   UNL     1       6.907  -0.030 -35.542  1.00  0.00    -0.550 OA
ENDBRANCH   3   4
ENDBRANCH   2   3
ENDBRANCH   1   2
BRANCH   1   7
ATOM      7  C   UNL     1      11.428   1.815 -34.061  1.00  0.00     0.000 C 
BRANCH   7   8
ATOM      8  C   UNL     1      12.119   2.426 -35.291  1.00  0.00    -0.000 C 
BRANCH   8   9
ATOM      9  C   UNL     1      13.651   2.404 -35.182  1.00  0.00    -0.003 C 
ATOM     10  C   UNL     1      14.095   2.231 -33.732  1.00  0.00     0.004 C 
ENDBRANCH   8   9
ENDBRANCH   7   8
ENDBRANCH   1   7
TORSDOF 6
ENDMDL
MODEL 3
REMARK VINA RESULT:    -4.697      3.115      5.305
REMARK INTER + INTRA:          -6.571
REMARK INTER:                  -6.321
REMARK INTRA:                  -0.250
REMARK UNBOUND:                -0.227
REMARK SMILES CCCCCCCC(=O)[O-]
REMARK SMILES IDX 5 1 6 2 7 3 8 4 9 5 10 6 4 7 3 8 2 9 1 10
REMARK H PARENT
REMARK Flexibility Score: inf
ROOT
ATOM      1  C   UNL     1       9.287   1.430 -35.381  1.00  0.00     0.000 C 
ENDROOT
BRANCH   1   2
ATOM      2  C   UNL     1      10.755   1.866 -35.269  1.00  0.00     0.006 C 
BRANCH   2   3
ATOM      3  C   UNL     1      11.382   1.463 -33.928  1.00  0.00     0.053 C 
BRANCH   3   4
ATOM      4  C   UNL     1      12.827   1.847 -33.851  1.00  0.00     0.041 C 
ATOM      5  O   UNL     1      13.253   2.521 -32.878  1.00  0.00    -0.550 OA
ATOM      6  O   UNL     1      13.698   1.489 -34.873  1.00  0.00    -0.550 OA
ENDBRANCH   3   4
ENDBRANCH   2   3
ENDBRANCH   1   2
BRANCH   1   7
ATOM      7  C   UNL     1       8.564   2.214 -36.485  1.00  0.00     0.000 C 
BRANCH   7   8
ATOM      8  C   UNL     1       7.872   1.298 -37.508  1.00  0.00    -0.000 C 
BRANCH   8   9
ATOM      9  C   UNL     1       8.861   0.384 -38.248  1.00  0.00    -0.003 C 
ATOM     10  C   UNL     1       8.512  -1.086 -38.038  1.00  0.00     0.004 C 
ENDBRANCH   8   9
ENDBRANCH   7   8
ENDBRANCH   1   7
TORSDOF 6
ENDMDL
MODEL 4
REMARK VINA RESULT:    -4.573      3.823      5.524
REMARK INTER + INTRA:          -6.404
REMARK INTER:                  -6.161
REMARK INTRA:                  -0.243
REMARK UNBOUND:                -0.227
REMARK SMILES CCCCCCCC(=O)[O-]
REMARK SMILES IDX 5 1 6 2 7 3 8 4 9 5 10 6 4 7 3 8 2 9 1 10
REMARK H PARENT
REMARK Flexibility Score: inf
ROOT
ATOM      1  C   UNL     1      10.981   2.065 -35.357  1.00  0.00     0.000 C 
ENDROOT
BRANCH   1   2
ATOM      2  C   UNL     1      11.649   1.804 -33.999  1.00  0.00     0.006 C 
BRANCH   2   3
ATOM      3  C   UNL     1      10.628   1.484 -32.899  1.00  0.00     0.053 C 
BRANCH   3   4
ATOM      4  C   UNL     1      10.951   2.190 -31.619  1.00  0.00     0.041 C 
ATOM      5  O   UNL     1      10.719   1.636 -30.513  1.00  0.00    -0.550 OA
ATOM      6  O   UNL     1      11.480   3.475 -31.646  1.00  0.00    -0.550 OA
ENDBRANCH   3   4
ENDBRANCH   2   3
ENDBRANCH   1   2
BRANCH   1   7
ATOM      7  C   UNL     1       9.581   1.437 -35.410  1.00  0.00     0.000 C 
BRANCH   7   8
ATOM      8  C   UNL     1       8.705   2.033 -36.524  1.00  0.00    -0.000 C 
BRANCH   8   9
ATOM      9  C   UNL     1       8.076   0.958 -37.423  1.00  0.00    -0.003 C 
ATOM     10  C   UNL     1       9.124   0.318 -38.328  1.00  0.00     0.004 C 
ENDBRANCH   8   9
ENDBRANCH   7   8
ENDBRANCH   1   7
TORSDOF 6
ENDMDL
MODEL 5
REMARK VINA RESULT:    -4.327      4.317      5.263
REMARK INTER + INTRA:          -6.071
REMARK INTER:                  -5.654
REMARK INTRA:                  -0.417
REMARK UNBOUND:                -0.227
REMARK SMILES CCCCCCCC(=O)[O-]
REMARK SMILES IDX 5 1 6 2 7 3 8 4 9 5 10 6 4 7 3 8 2 9 1 10
REMARK H PARENT
REMARK Flexibility Score: inf
ROOT
ATOM      1  C   UNL     1       8.200   2.159 -36.074  1.00  0.00     0.000 C 
ENDROOT
BRANCH   1   2
ATOM      2  C   UNL     1       8.063   1.432 -34.728  1.00  0.00     0.006 C 
BRANCH   2   3
ATOM      3  C   UNL     1       6.732   0.679 -34.605  1.00  0.00     0.053 C 
BRANCH   3   4
ATOM      4  C   UNL     1       6.044   0.974 -33.309  1.00  0.00     0.041 C 
ATOM      5  O   UNL     1       4.791   0.897 -33.225  1.00  0.00    -0.550 OA
ATOM      6  O   UNL     1       6.784   1.368 -32.201  1.00  0.00    -0.550 OA
ENDBRANCH   3   4
ENDBRANCH   2   3
ENDBRANCH   1   2
BRANCH   1   7
ATOM      7  C   UNL     1       7.654   1.298 -37.222  1.00  0.00     0.000 C 
BRANCH   7   8
ATOM      8  C   UNL     1       8.765   0.761 -38.140  1.00  0.00    -0.000 C 
BRANCH   8   9
ATOM      9  C   UNL     1       8.537  -0.701 -38.552  1.00  0.00    -0.003 C 
ATOM     10  C   UNL     1       8.110  -1.548 -37.356  1.00  0.00     0.004 C 
ENDBRANCH   8   9
ENDBRANCH   7   8
ENDBRANCH   1   7
TORSDOF 6
ENDMDL
MODEL 6
REMARK VINA RESULT:    -4.300      1.860      2.588
REMARK INTER + INTRA:          -6.035
REMARK INTER:                  -5.862
REMARK INTRA:                  -0.172
REMARK UNBOUND:                -0.227
REMARK SMILES CCCCCCCC(=O)[O-]
REMARK SMILES IDX 5 1 6 2 7 3 8 4 9 5 10 6 4 7 3 8 2 9 1 10
REMARK H PARENT
REMARK Flexibility Score: inf
ROOT
ATOM      1  C   UNL     1      12.018   2.242 -35.035  1.00  0.00     0.000 C 
ENDROOT
BRANCH   1   2
ATOM      2  C   UNL     1      10.647   1.596 -34.791  1.00  0.00     0.006 C 
BRANCH   2   3
ATOM      3  C   UNL     1       9.710   1.743 -35.996  1.00  0.00     0.053 C 
BRANCH   3   4
ATOM      4  C   UNL     1       8.599   0.739 -35.964  1.00  0.00     0.041 C 
ATOM      5  O   UNL     1       8.557  -0.187 -36.815  1.00  0.00    -0.550 OA
ATOM      6  O   UNL     1       7.592   0.845 -35.012  1.00  0.00    -0.550 OA
ENDBRANCH   3   4
ENDBRANCH   2   3
ENDBRANCH   1   2
BRANCH   1   7
ATOM      7  C   UNL     1      13.119   1.506 -34.258  1.00  0.00     0.000 C 
BRANCH   7   8
ATOM      8  C   UNL     1      13.779   2.388 -33.186  1.00  0.00    -0.000 C 
BRANCH   8   9
ATOM      9  C   UNL     1      12.802   2.799 -32.074  1.00  0.00    -0.003 C 
ATOM     10  C   UNL     1      13.548   3.377 -30.874  1.00  0.00     0.004 C 
ENDBRANCH   8   9
ENDBRANCH   7   8
ENDBRANCH   1   7
TORSDOF 6
ENDMDL
MODEL 7
REMARK VINA RESULT:    -4.154      2.782      3.465
REMARK INTER + INTRA:          -5.837
REMARK INTER:                  -5.599
REMARK INTRA:                  -0.238
REMARK UNBOUND:                -0.227
REMARK SMILES CCCCCCCC(=O)[O-]
REMARK SMILES IDX 5 1 6 2 7 3 8 4 9 5 10 6 4 7 3 8 2 9 1 10
REMARK H PARENT
REMARK Flexibility Score: inf
ROOT
ATOM      1  C   UNL     1       8.173   2.211 -36.154  1.00  0.00     0.000 C 
ENDROOT
BRANCH   1   2
ATOM      2  C   UNL     1       7.291   1.662 -35.022  1.00  0.00     0.006 C 
BRANCH   2   3
ATOM      3  C   UNL     1       6.852   0.215 -35.276  1.00  0.00     0.053 C 
BRANCH   3   4
ATOM      4  C   UNL     1       5.708  -0.182 -34.394  1.00  0.00     0.041 C 
ATOM      5  O   UNL     1       4.716  -0.788 -34.876  1.00  0.00    -0.550 OA
ATOM      6  O   UNL     1       5.723   0.148 -33.044  1.00  0.00    -0.550 OA
ENDBRANCH   3   4
ENDBRANCH   2   3
ENDBRANCH   1   2
BRANCH   1   7
ATOM      7  C   UNL     1       9.446   1.368 -36.315  1.00  0.00     0.000 C 
BRANCH   7   8
ATOM      8  C   UNL     1      10.688   2.049 -35.717  1.00  0.00    -0.000 C 
BRANCH   8   9
ATOM      9  C   UNL     1      10.961   1.616 -34.269  1.00  0.00    -0.003 C 
ATOM     10  C   UNL     1      12.460   1.523 -33.997  1.00  0.00     0.004 C 
ENDBRANCH   8   9
ENDBRANCH   7   8
ENDBRANCH   1   7
TORSDOF 6
ENDMDL
MODEL 8
REMARK VINA RESULT:    -4.122      4.493      5.621
REMARK INTER + INTRA:          -5.795
REMARK INTER:                  -5.510
REMARK INTRA:                  -0.284
REMARK UNBOUND:                -0.227
REMARK SMILES CCCCCCCC(=O)[O-]
REMARK SMILES IDX 5 1 6 2 7 3 8 4 9 5 10 6 4 7 3 8 2 9 1 10
REMARK H PARENT
REMARK Flexibility Score: inf
ROOT
ATOM      1  C   UNL     1       6.511   0.813 -35.262  1.00  0.00     0.000 C 
ENDROOT
BRANCH   1   2
ATOM      2  C   UNL     1       6.163   0.107 -33.943  1.00  0.00     0.006 C 
BRANCH   2   3
ATOM      3  C   UNL     1       5.549   1.064 -32.914  1.00  0.00     0.053 C 
BRANCH   3   4
ATOM      4  C   UNL     1       6.385   1.159 -31.675  1.00  0.00     0.041 C 
ATOM      5  O   UNL     1       6.261   0.304 -30.760  1.00  0.00    -0.550 OA
ATOM      6  O   UNL     1       7.278   2.212 -31.516  1.00  0.00    -0.550 OA
ENDBRANCH   3   4
ENDBRANCH   2   3
ENDBRANCH   1   2
BRANCH   1   7
ATOM      7  C   UNL     1       7.772   1.675 -35.109  1.00  0.00     0.000 C 
BRANCH   7   8
ATOM      8  C   UNL     1       8.691   1.605 -36.339  1.00  0.00    -0.000 C 
BRANCH   8   9
ATOM      9  C   UNL     1       8.000   0.977 -37.559  1.00  0.00    -0.003 C 
ATOM     10  C   UNL     1       8.984   0.148 -38.380  1.00  0.00     0.004 C 
ENDBRANCH   8   9
ENDBRANCH   7   8
ENDBRANCH   1   7
TORSDOF 6
ENDMDL
MODEL 9
REMARK VINA RESULT:    -4.111      3.420      5.649
REMARK INTER + INTRA:          -5.780
REMARK INTER:                  -5.551
REMARK INTRA:                  -0.228
REMARK UNBOUND:                -0.227
REMARK SMILES CCCCCCCC(=O)[O-]
REMARK SMILES IDX 5 1 6 2 7 3 8 4 9 5 10 6 4 7 3 8 2 9 1 10
REMARK H PARENT
REMARK Flexibility Score: inf
ROOT
ATOM      1  C   UNL     1       8.136   1.906 -35.486  1.00  0.00     0.000 C 
ENDROOT
BRANCH   1   2
ATOM      2  C   UNL     1       9.586   1.406 -35.551  1.00  0.00     0.006 C 
BRANCH   2   3
ATOM      3  C   UNL     1      10.276   1.440 -34.181  1.00  0.00     0.053 C 
BRANCH   3   4
ATOM      4  C   UNL     1      11.659   2.008 -34.269  1.00  0.00     0.041 C 
ATOM      5  O   UNL     1      12.346   2.166 -33.227  1.00  0.00    -0.550 OA
ATOM      6  O   UNL     1      12.177   2.393 -35.500  1.00  0.00    -0.550 OA
ENDBRANCH   3   4
ENDBRANCH   2   3
ENDBRANCH   1   2
BRANCH   1   7
ATOM      7  C   UNL     1       7.237   0.894 -34.763  1.00  0.00     0.000 C 
BRANCH   7   8
ATOM      8  C   UNL     1       6.622   1.462 -33.473  1.00  0.00    -0.000 C 
BRANCH   8   9
ATOM      9  C   UNL     1       5.468   0.601 -32.938  1.00  0.00    -0.003 C 
ATOM     10  C   UNL     1       5.157  -0.552 -33.888  1.00  0.00     0.004 C 
ENDBRANCH   8   9
ENDBRANCH   7   8
ENDBRANCH   1   7
TORSDOF 6
ENDMDL
