MODEL 1
REMARK VINA RESULT:    -5.360      0.000      0.000
REMARK INTER + INTRA:          -5.360
REMARK INTER:                  -5.360
REMARK INTRA:                   0.000
REMARK UNBOUND:                 0.000
REMARK SMILES CC1=CC(=O)[C@H]2C[C@@H]1C2(C)C
REMARK SMILES IDX 1 1 2 2 3 3 4 4 5 5 6 6 7 7 8 8 9 9 10 10 11 11
REMARK H PARENT
REMARK Flexibility Score: inf
ROOT
ATOM      1  C   UNL     1      -6.740  -3.250   6.423  1.00  0.00     0.040 C 
ATOM      2  C   UNL     1      -6.055  -2.971   7.724  1.00  0.00    -0.066 C 
ATOM      3  C   UNL     1      -5.459  -3.965   8.439  1.00  0.00     0.047 C 
ATOM      4  C   UNL     1      -4.833  -3.563   9.740  1.00  0.00     0.159 C 
ATOM      5  O   UNL     1      -4.286  -4.396  10.509  1.00  0.00    -0.295 OA
ATOM      6  C   UNL     1      -4.906  -2.071  10.067  1.00  0.00     0.067 C 
ATOM      7  C   UNL     1      -4.500  -1.375   8.750  1.00  0.00     0.021 C 
ATOM      8  C   UNL     1      -5.972  -1.545   8.309  1.00  0.00     0.022 C 
ATOM      9  C   UNL     1      -6.360  -1.580   9.816  1.00  0.00    -0.019 C 
ATOM     10  C   UNL     1      -6.613  -0.165  10.394  1.00  0.00     0.012 C 
ATOM     11  C   UNL     1      -7.536  -2.500  10.250  1.00  0.00     0.012 C 
ENDROOT
TORSDOF 0
ENDMDL
MODEL 2
REMARK VINA RESULT:    -5.124      1.752      3.029
REMARK INTER + INTRA:          -5.124
REMARK INTER:                  -5.124
REMARK INTRA:                   0.000
REMARK UNBOUND:                 0.000
REMARK SMILES CC1=CC(=O)[C@H]2C[C@@H]1C2(C)C
REMARK SMILES IDX 1 1 2 2 3 3 4 4 5 5 6 6 7 7 8 8 9 9 10 10 11 11
REMARK H PARENT
REMARK Flexibility Score: inf
ROOT
ATOM      1  C   UNL     1      -4.669  -4.366  10.540  1.00  0.00     0.040 C 
ATOM      2  C   UNL     1      -5.593  -3.556   9.685  1.00  0.00    -0.066 C 
ATOM      3  C   UNL     1      -5.734  -3.812   8.355  1.00  0.00     0.047 C 
ATOM      4  C   UNL     1      -6.666  -2.911   7.602  1.00  0.00     0.159 C 
ATOM      5  O   UNL     1      -6.851  -3.020   6.362  1.00  0.00    -0.295 OA
ATOM      6  C   UNL     1      -7.375  -1.851   8.446  1.00  0.00     0.067 C 
ATOM      7  C   UNL     1      -7.861  -2.623   9.692  1.00  0.00     0.021 C 
ATOM      8  C   UNL     1      -6.444  -2.408  10.269  1.00  0.00     0.022 C 
ATOM      9  C   UNL     1      -6.321  -1.155   9.354  1.00  0.00    -0.019 C 
ATOM     10  C   UNL     1      -6.877   0.124  10.028  1.00  0.00     0.012 C 
ATOM     11  C   UNL     1      -4.929  -0.821   8.748  1.00  0.00     0.012 C 
ENDROOT
TORSDOF 0
ENDMDL
MODEL 3
REMARK VINA RESULT:    -5.008      2.140      3.130
REMARK INTER + INTRA:          -5.008
REMARK INTER:                  -5.008
REMARK INTRA:                   0.000
REMARK UNBOUND:                 0.000
REMARK SMILES CC1=CC(=O)[C@H]2C[C@@H]1C2(C)C
REMARK SMILES IDX 1 1 2 2 3 3 4 4 5 5 6 6 7 7 8 8 9 9 10 10 11 11
REMARK H PARENT
REMARK Flexibility Score: inf
ROOT
ATOM      1  C   UNL     1      -4.422  -3.965   8.746  1.00  0.00     0.040 C 
ATOM      2  C   UNL     1      -5.626  -3.082   8.644  1.00  0.00    -0.066 C 
ATOM      3  C   UNL     1      -6.308  -2.948   7.472  1.00  0.00     0.047 C 
ATOM      4  C   UNL     1      -7.479  -2.012   7.490  1.00  0.00     0.159 C 
ATOM      5  O   UNL     1      -8.165  -1.773   6.463  1.00  0.00    -0.295 OA
ATOM      6  C   UNL     1      -7.780  -1.368   8.844  1.00  0.00     0.067 C 
ATOM      7  C   UNL     1      -7.692  -2.538   9.848  1.00  0.00     0.021 C 
ATOM      8  C   UNL     1      -6.165  -2.299   9.859  1.00  0.00     0.022 C 
ATOM      9  C   UNL     1      -6.449  -0.826   9.442  1.00  0.00    -0.019 C 
ATOM     10  C   UNL     1      -6.684   0.098  10.662  1.00  0.00     0.012 C 
ATOM     11  C   UNL     1      -5.441  -0.126   8.487  1.00  0.00     0.012 C 
ENDROOT
TORSDOF 0
ENDMDL
MODEL 4
REMARK VINA RESULT:    -4.819      2.418      3.414
REMARK INTER + INTRA:          -4.819
REMARK INTER:                  -4.819
REMARK INTRA:                   0.000
REMARK UNBOUND:                 0.000
REMARK SMILES CC1=CC(=O)[C@H]2C[C@@H]1C2(C)C
REMARK SMILES IDX 1 1 2 2 3 3 4 4 5 5 6 6 7 7 8 8 9 9 10 10 11 11
REMARK H PARENT
REMARK Flexibility Score: inf
ROOT
ATOM      1  C   UNL     1      -8.113  -1.685   6.157  1.00  0.00     0.040 C 
ATOM      2  C   UNL     1      -7.823  -1.554   7.619  1.00  0.00    -0.066 C 
ATOM      3  C   UNL     1      -8.541  -0.710   8.412  1.00  0.00     0.047 C 
ATOM      4  C   UNL     1      -8.133  -0.645   9.853  1.00  0.00     0.159 C 
ATOM      5  O   UNL     1      -8.693   0.124  10.676  1.00  0.00    -0.295 OA
ATOM      6  C   UNL     1      -6.990  -1.580  10.251  1.00  0.00     0.067 C 
ATOM      7  C   UNL     1      -7.359  -2.928   9.597  1.00  0.00     0.021 C 
ATOM      8  C   UNL     1      -6.713  -2.379   8.305  1.00  0.00     0.022 C 
ATOM      9  C   UNL     1      -5.851  -1.443   9.201  1.00  0.00    -0.019 C 
ATOM     10  C   UNL     1      -4.536  -2.119   9.666  1.00  0.00     0.012 C 
ATOM     11  C   UNL     1      -5.506  -0.025   8.665  1.00  0.00     0.012 C 
ENDROOT
TORSDOF 0
ENDMDL
MODEL 5
REMARK VINA RESULT:    -4.685      2.094      3.381
REMARK INTER + INTRA:          -4.685
REMARK INTER:                  -4.685
REMARK INTRA:                   0.000
REMARK UNBOUND:                 0.000
REMARK SMILES CC1=CC(=O)[C@H]2C[C@@H]1C2(C)C
REMARK SMILES IDX 1 1 2 2 3 3 4 4 5 5 6 6 7 7 8 8 9 9 10 10 11 11
REMARK H PARENT
REMARK Flexibility Score: inf
ROOT
ATOM      1  C   UNL     1      -8.624   0.125  10.616  1.00  0.00     0.040 C 
ATOM      2  C   UNL     1      -7.708  -0.573   9.661  1.00  0.00    -0.066 C 
ATOM      3  C   UNL     1      -8.171  -1.103   8.494  1.00  0.00     0.047 C 
ATOM      4  C   UNL     1      -7.160  -1.804   7.637  1.00  0.00     0.159 C 
ATOM      5  O   UNL     1      -7.470  -2.367   6.556  1.00  0.00    -0.295 OA
ATOM      6  C   UNL     1      -5.726  -1.786   8.170  1.00  0.00     0.067 C 
ATOM      7  C   UNL     1      -5.505  -0.323   8.612  1.00  0.00     0.021 C 
ATOM      8  C   UNL     1      -6.196  -0.712   9.939  1.00  0.00     0.022 C 
ATOM      9  C   UNL     1      -5.753  -2.180   9.675  1.00  0.00    -0.019 C 
ATOM     10  C   UNL     1      -4.338  -2.479  10.231  1.00  0.00     0.012 C 
ATOM     11  C   UNL     1      -6.704  -3.326  10.122  1.00  0.00     0.012 C 
ENDROOT
TORSDOF 0
ENDMDL
MODEL 6
REMARK VINA RESULT:    -4.450      2.018      3.630
REMARK INTER + INTRA:          -4.450
REMARK INTER:                  -4.450
REMARK INTRA:                   0.000
REMARK UNBOUND:                 0.000
REMARK SMILES CC1=CC(=O)[C@H]2C[C@@H]1C2(C)C
REMARK SMILES IDX 1 1 2 2 3 3 4 4 5 5 6 6 7 7 8 8 9 9 10 10 11 11
REMARK H PARENT
REMARK Flexibility Score: inf
ROOT
ATOM      1  C   UNL     1      -9.320  -0.515   9.956  1.00  0.00     0.040 C 
ATOM      2  C   UNL     1      -7.955  -0.949   9.523  1.00  0.00    -0.066 C 
ATOM      3  C   UNL     1      -6.937  -0.054   9.384  1.00  0.00     0.047 C 
ATOM      4  C   UNL     1      -5.626  -0.608   8.915  1.00  0.00     0.159 C 
ATOM      5  O   UNL     1      -4.622   0.122   8.711  1.00  0.00    -0.295 OA
ATOM      6  C   UNL     1      -5.595  -2.122   8.702  1.00  0.00     0.067 C 
ATOM      7  C   UNL     1      -6.288  -2.695   9.957  1.00  0.00     0.021 C 
ATOM      8  C   UNL     1      -7.627  -2.429   9.232  1.00  0.00     0.022 C 
ATOM      9  C   UNL     1      -6.854  -2.533   7.885  1.00  0.00    -0.019 C 
ATOM     10  C   UNL     1      -6.769  -3.990   7.364  1.00  0.00     0.012 C 
ATOM     11  C   UNL     1      -7.301  -1.621   6.709  1.00  0.00     0.012 C 
ENDROOT
TORSDOF 0
ENDMDL
MODEL 7
REMARK VINA RESULT:    -4.196      2.177      3.173
REMARK INTER + INTRA:          -4.196
REMARK INTER:                  -4.196
REMARK INTRA:                   0.000
REMARK UNBOUND:                 0.000
REMARK SMILES CC1=CC(=O)[C@H]2C[C@@H]1C2(C)C
REMARK SMILES IDX 1 1 2 2 3 3 4 4 5 5 6 6 7 7 8 8 9 9 10 10 11 11
REMARK H PARENT
REMARK Flexibility Score: inf
ROOT
ATOM      1  C   UNL     1      -6.476  -3.857  10.753  1.00  0.00     0.040 C 
ATOM      2  C   UNL     1      -6.552  -2.646   9.877  1.00  0.00    -0.066 C 
ATOM      3  C   UNL     1      -5.452  -1.883   9.626  1.00  0.00     0.047 C 
ATOM      4  C   UNL     1      -5.665  -0.679   8.759  1.00  0.00     0.159 C 
ATOM      5  O   UNL     1      -4.736   0.125   8.486  1.00  0.00    -0.295 OA
ATOM      6  C   UNL     1      -7.088  -0.498   8.229  1.00  0.00     0.067 C 
ATOM      7  C   UNL     1      -7.490  -1.905   7.736  1.00  0.00     0.021 C 
ATOM      8  C   UNL     1      -7.871  -2.214   9.202  1.00  0.00     0.022 C 
ATOM      9  C   UNL     1      -8.083  -0.686   9.410  1.00  0.00    -0.019 C 
ATOM     10  C   UNL     1      -9.520  -0.235   9.047  1.00  0.00     0.012 C 
ATOM     11  C   UNL     1      -7.715  -0.075  10.791  1.00  0.00     0.012 C 
ENDROOT
TORSDOF 0
ENDMDL
MODEL 8
REMARK VINA RESULT:    -4.182      1.979      2.415
REMARK INTER + INTRA:          -4.182
REMARK INTER:                  -4.182
REMARK INTRA:                   0.000
REMARK UNBOUND:                 0.000
REMARK SMILES CC1=CC(=O)[C@H]2C[C@@H]1C2(C)C
REMARK SMILES IDX 1 1 2 2 3 3 4 4 5 5 6 6 7 7 8 8 9 9 10 10 11 11
REMARK H PARENT
REMARK Flexibility Score: inf
ROOT
ATOM      1  C   UNL     1      -8.854  -0.199   6.039  1.00  0.00     0.040 C 
ATOM      2  C   UNL     1      -7.875  -0.793   7.002  1.00  0.00    -0.066 C 
ATOM      3  C   UNL     1      -7.487  -2.095   6.905  1.00  0.00     0.047 C 
ATOM      4  C   UNL     1      -6.526  -2.579   7.948  1.00  0.00     0.159 C 
ATOM      5  O   UNL     1      -6.123  -3.771   7.990  1.00  0.00    -0.295 OA
ATOM      6  C   UNL     1      -6.070  -1.525   8.958  1.00  0.00     0.067 C 
ATOM      7  C   UNL     1      -5.736  -0.291   8.091  1.00  0.00     0.021 C 
ATOM      8  C   UNL     1      -7.244   0.041   8.138  1.00  0.00     0.022 C 
ATOM      9  C   UNL     1      -7.322  -0.758   9.471  1.00  0.00    -0.019 C 
ATOM     10  C   UNL     1      -7.007   0.124  10.706  1.00  0.00     0.012 C 
ATOM     11  C   UNL     1      -8.615  -1.568   9.768  1.00  0.00     0.012 C 
ENDROOT
TORSDOF 0
ENDMDL
