MODEL 1
REMARK VINA RESULT:    -3.923      0.000      0.000
REMARK INTER + INTRA:          -4.311
REMARK INTER:                  -4.152
REMARK INTRA:                  -0.158
REMARK UNBOUND:                -0.158
REMARK SMILES CC(C)[C@@H]1CC[C@H](C)CC1=O
REMARK SMILES IDX 8 1 7 2 6 3 5 4 4 5 10 6 11 7 9 8 2 9 1 10 3 11
REMARK H PARENT
REMARK Flexibility Score: inf
ROOT
ATOM      1  C   UNL     1     116.786 116.601 115.165  1.00  0.00     0.008 C 
ATOM      2  C   UNL     1     116.260 116.810 116.595  1.00  0.00    -0.007 C 
ATOM      3  C   UNL     1     116.078 115.475 117.350  1.00  0.00     0.004 C 
ATOM      4  C   UNL     1     117.419 114.801 117.686  1.00  0.00     0.012 C 
ATOM      5  C   UNL     1     118.340 115.736 118.506  1.00  0.00     0.058 C 
ATOM      6  C   UNL     1     118.430 117.093 117.831  1.00  0.00     0.136 C 
ATOM      7  O   UNL     1     119.495 117.688 117.736  1.00  0.00    -0.299 OA
ATOM      8  C   UNL     1     117.162 117.772 117.390  1.00  0.00     0.079 C 
ENDROOT
BRANCH   5   9
ATOM      9  C   UNL     1     119.737 115.110 118.817  1.00  0.00    -0.007 C 
ATOM     10  C   UNL     1     119.865 113.638 118.384  1.00  0.00     0.008 C 
ATOM     11  C   UNL     1     120.110 115.257 120.301  1.00  0.00     0.008 C 
ENDBRANCH   5   9
TORSDOF 1
ENDMDL
MODEL 2
REMARK VINA RESULT:    -3.921      2.332      3.583
REMARK INTER + INTRA:          -4.309
REMARK INTER:                  -4.151
REMARK INTRA:                  -0.157
REMARK UNBOUND:                -0.158
REMARK SMILES CC(C)[C@@H]1CC[C@H](C)CC1=O
REMARK SMILES IDX 8 1 7 2 6 3 5 4 4 5 10 6 11 7 9 8 2 9 1 10 3 11
REMARK H PARENT
REMARK Flexibility Score: inf
ROOT
ATOM      1  C   UNL     1     116.620 116.782 115.143  1.00  0.00     0.008 C 
ATOM      2  C   UNL     1     116.411 116.243 116.567  1.00  0.00    -0.007 C 
ATOM      3  C   UNL     1     117.744 116.081 117.331  1.00  0.00     0.004 C 
ATOM      4  C   UNL     1     118.390 117.433 117.679  1.00  0.00     0.012 C 
ATOM      5  C   UNL     1     117.432 118.330 118.499  1.00  0.00     0.058 C 
ATOM      6  C   UNL     1     116.078 118.398 117.815  1.00  0.00     0.136 C 
ATOM      7  O   UNL     1     115.463 119.452 117.723  1.00  0.00    -0.299 OA
ATOM      8  C   UNL     1     115.426 117.121 117.361  1.00  0.00     0.079 C 
ENDROOT
BRANCH   5   9
ATOM      9  C   UNL     1     118.029 119.737 118.823  1.00  0.00    -0.007 C 
ATOM     10  C   UNL     1     119.506 119.890 118.418  1.00  0.00     0.008 C 
ATOM     11  C   UNL     1     117.847 120.106 120.304  1.00  0.00     0.008 C 
ENDBRANCH   5   9
TORSDOF 1
ENDMDL
MODEL 3
REMARK VINA RESULT:    -3.915      2.321      3.577
REMARK INTER + INTRA:          -4.302
REMARK INTER:                  -4.148
REMARK INTRA:                  -0.154
REMARK UNBOUND:                -0.158
REMARK SMILES CC(C)[C@@H]1CC[C@H](C)CC1=O
REMARK SMILES IDX 8 1 7 2 6 3 5 4 4 5 10 6 11 7 9 8 2 9 1 10 3 11
REMARK H PARENT
REMARK Flexibility Score: inf
ROOT
ATOM      1  C   UNL     1     116.610 116.456 115.174  1.00  0.00     0.008 C 
ATOM      2  C   UNL     1     116.783 116.965 116.614  1.00  0.00    -0.007 C 
ATOM      3  C   UNL     1     115.431 117.119 117.345  1.00  0.00     0.004 C 
ATOM      4  C   UNL     1     114.769 115.764 117.649  1.00  0.00     0.012 C 
ATOM      5  C   UNL     1     115.700 114.845 118.476  1.00  0.00     0.058 C 
ATOM      6  C   UNL     1     117.072 114.783 117.827  1.00  0.00     0.136 C 
ATOM      7  O   UNL     1     117.684 113.728 117.730  1.00  0.00    -0.299 OA
ATOM      8  C   UNL     1     117.742 116.067 117.417  1.00  0.00     0.079 C 
ENDROOT
BRANCH   5   9
ATOM      9  C   UNL     1     115.088 113.435 118.755  1.00  0.00    -0.007 C 
ATOM     10  C   UNL     1     113.610 113.311 118.344  1.00  0.00     0.008 C 
ATOM     11  C   UNL     1     115.263 113.019 120.224  1.00  0.00     0.008 C 
ENDBRANCH   5   9
TORSDOF 1
ENDMDL
MODEL 4
REMARK VINA RESULT:    -3.912      3.105      5.022
REMARK INTER + INTRA:          -4.299
REMARK INTER:                  -4.142
REMARK INTRA:                  -0.157
REMARK UNBOUND:                -0.158
REMARK SMILES CC(C)[C@@H]1CC[C@H](C)CC1=O
REMARK SMILES IDX 8 1 7 2 6 3 5 4 4 5 10 6 11 7 9 8 2 9 1 10 3 11
REMARK H PARENT
REMARK Flexibility Score: inf
ROOT
ATOM      1  C   UNL     1     116.429 116.593 115.152  1.00  0.00     0.008 C 
ATOM      2  C   UNL     1     116.966 116.397 116.579  1.00  0.00    -0.007 C 
ATOM      3  C   UNL     1     117.114 117.735 117.336  1.00  0.00     0.004 C 
ATOM      4  C   UNL     1     115.756 118.371 117.677  1.00  0.00     0.012 C 
ATOM      5  C   UNL     1     114.864 117.410 118.500  1.00  0.00     0.058 C 
ATOM      6  C   UNL     1     114.809 116.052 117.824  1.00  0.00     0.136 C 
ATOM      7  O   UNL     1     113.761 115.428 117.732  1.00  0.00    -0.299 OA
ATOM      8  C   UNL     1     116.094 115.409 117.377  1.00  0.00     0.079 C 
ENDROOT
BRANCH   5   9
ATOM      9  C   UNL     1     113.451 117.997 118.816  1.00  0.00    -0.007 C 
ATOM     10  C   UNL     1     113.288 119.472 118.408  1.00  0.00     0.008 C 
ATOM     11  C   UNL     1     113.077 117.816 120.296  1.00  0.00     0.008 C 
ENDBRANCH   5   9
TORSDOF 1
ENDMDL
MODEL 5
REMARK VINA RESULT:    -3.865      1.068      3.979
REMARK INTER + INTRA:          -4.249
REMARK INTER:                  -4.069
REMARK INTRA:                  -0.180
REMARK UNBOUND:                -0.158
REMARK SMILES CC(C)[C@@H]1CC[C@H](C)CC1=O
REMARK SMILES IDX 8 1 7 2 6 3 5 4 4 5 10 6 11 7 9 8 2 9 1 10 3 11
REMARK H PARENT
REMARK Flexibility Score: inf
ROOT
ATOM      1  C   UNL     1     118.700 115.369 120.621  1.00  0.00     0.008 C 
ATOM      2  C   UNL     1     119.516 115.288 119.320  1.00  0.00    -0.007 C 
ATOM      3  C   UNL     1     118.925 114.266 118.324  1.00  0.00     0.004 C 
ATOM      4  C   UNL     1     117.582 114.730 117.734  1.00  0.00     0.012 C 
ATOM      5  C   UNL     1     117.706 116.110 117.045  1.00  0.00     0.058 C 
ATOM      6  C   UNL     1     118.395 117.091 117.976  1.00  0.00     0.136 C 
ATOM      7  O   UNL     1     117.999 118.243 118.095  1.00  0.00    -0.299 OA
ATOM      8  C   UNL     1     119.666 116.672 118.663  1.00  0.00     0.079 C 
ENDROOT
BRANCH   5   9
ATOM      9  C   UNL     1     116.349 116.644 116.484  1.00  0.00    -0.007 C 
ATOM     10  C   UNL     1     115.113 115.985 117.124  1.00  0.00     0.008 C 
ATOM     11  C   UNL     1     116.278 116.523 114.954  1.00  0.00     0.008 C 
ENDBRANCH   5   9
TORSDOF 1
ENDMDL
MODEL 6
REMARK VINA RESULT:    -3.843      2.404      4.227
REMARK INTER + INTRA:          -4.226
REMARK INTER:                  -4.048
REMARK INTRA:                  -0.178
REMARK UNBOUND:                -0.158
REMARK SMILES CC(C)[C@@H]1CC[C@H](C)CC1=O
REMARK SMILES IDX 8 1 7 2 6 3 5 4 4 5 10 6 11 7 9 8 2 9 1 10 3 11
REMARK H PARENT
REMARK Flexibility Score: inf
ROOT
ATOM      1  C   UNL     1     117.546 118.798 120.641  1.00  0.00     0.008 C 
ATOM      2  C   UNL     1     117.665 119.605 119.338  1.00  0.00    -0.007 C 
ATOM      3  C   UNL     1     118.749 119.036 118.397  1.00  0.00     0.004 C 
ATOM      4  C   UNL     1     118.354 117.675 117.799  1.00  0.00     0.012 C 
ATOM      5  C   UNL     1     117.004 117.752 117.045  1.00  0.00     0.058 C 
ATOM      6  C   UNL     1     115.960 118.420 117.922  1.00  0.00     0.136 C 
ATOM      7  O   UNL     1     114.817 117.991 117.990  1.00  0.00    -0.299 OA
ATOM      8  C   UNL     1     116.309 119.709 118.615  1.00  0.00     0.079 C 
ENDROOT
BRANCH   5   9
ATOM      9  C   UNL     1     116.537 116.375 116.473  1.00  0.00    -0.007 C 
ATOM     10  C   UNL     1     117.257 115.168 117.101  1.00  0.00     0.008 C 
ATOM     11  C   UNL     1     116.659 116.323 114.942  1.00  0.00     0.008 C 
ENDBRANCH   5   9
TORSDOF 1
ENDMDL
MODEL 7
REMARK VINA RESULT:    -3.831      2.833      4.529
REMARK INTER + INTRA:          -4.213
REMARK INTER:                  -4.036
REMARK INTRA:                  -0.177
REMARK UNBOUND:                -0.158
REMARK SMILES CC(C)[C@@H]1CC[C@H](C)CC1=O
REMARK SMILES IDX 8 1 7 2 6 3 5 4 4 5 10 6 11 7 9 8 2 9 1 10 3 11
REMARK H PARENT
REMARK Flexibility Score: inf
ROOT
ATOM      1  C   UNL     1     114.586 117.889 120.622  1.00  0.00     0.008 C 
ATOM      2  C   UNL     1     113.758 117.955 119.329  1.00  0.00    -0.007 C 
ATOM      3  C   UNL     1     114.329 118.978 118.322  1.00  0.00     0.004 C 
ATOM      4  C   UNL     1     115.672 118.528 117.723  1.00  0.00     0.012 C 
ATOM      5  C   UNL     1     115.559 117.143 117.042  1.00  0.00     0.058 C 
ATOM      6  C   UNL     1     114.889 116.158 117.983  1.00  0.00     0.136 C 
ATOM      7  O   UNL     1     115.300 115.012 118.104  1.00  0.00    -0.299 OA
ATOM      8  C   UNL     1     113.619 116.565 118.680  1.00  0.00     0.079 C 
ENDROOT
BRANCH   5   9
ATOM      9  C   UNL     1     116.918 116.622 116.472  1.00  0.00    -0.007 C 
ATOM     10  C   UNL     1     118.146 117.366 117.026  1.00  0.00     0.008 C 
ATOM     11  C   UNL     1     116.937 116.645 114.935  1.00  0.00     0.008 C 
ENDBRANCH   5   9
TORSDOF 1
ENDMDL
MODEL 8
REMARK VINA RESULT:    -3.826      2.124      4.359
REMARK INTER + INTRA:          -4.208
REMARK INTER:                  -4.030
REMARK INTRA:                  -0.178
REMARK UNBOUND:                -0.158
REMARK SMILES CC(C)[C@@H]1CC[C@H](C)CC1=O
REMARK SMILES IDX 8 1 7 2 6 3 5 4 4 5 10 6 11 7 9 8 2 9 1 10 3 11
REMARK H PARENT
REMARK Flexibility Score: inf
ROOT
ATOM      1  C   UNL     1     115.348 114.548 120.645  1.00  0.00     0.008 C 
ATOM      2  C   UNL     1     115.287 113.709 119.358  1.00  0.00    -0.007 C 
ATOM      3  C   UNL     1     114.265 114.268 118.345  1.00  0.00     0.004 C 
ATOM      4  C   UNL     1     114.714 115.607 117.735  1.00  0.00     0.012 C 
ATOM      5  C   UNL     1     116.101 115.492 117.058  1.00  0.00     0.058 C 
ATOM      6  C   UNL     1     117.085 114.832 118.008  1.00  0.00     0.136 C 
ATOM      7  O   UNL     1     118.230 115.246 118.128  1.00  0.00    -0.299 OA
ATOM      8  C   UNL     1     116.678 113.567 118.714  1.00  0.00     0.079 C 
ENDROOT
BRANCH   5   9
ATOM      9  C   UNL     1     116.620 116.846 116.478  1.00  0.00    -0.007 C 
ATOM     10  C   UNL     1     115.894 118.080 117.044  1.00  0.00     0.008 C 
ATOM     11  C   UNL     1     116.571 116.864 114.942  1.00  0.00     0.008 C 
ENDBRANCH   5   9
TORSDOF 1
ENDMDL
MODEL 9
REMARK VINA RESULT:    -3.449      2.019      4.321
REMARK INTER + INTRA:          -3.809
REMARK INTER:                  -3.625
REMARK INTRA:                  -0.184
REMARK UNBOUND:                -0.158
REMARK SMILES CC(C)[C@@H]1CC[C@H](C)CC1=O
REMARK SMILES IDX 8 1 7 2 6 3 5 4 4 5 10 6 11 7 9 8 2 9 1 10 3 11
REMARK H PARENT
REMARK Flexibility Score: inf
ROOT
ATOM      1  C   UNL     1     118.855 113.273 117.775  1.00  0.00     0.008 C 
ATOM      2  C   UNL     1     118.617 114.159 119.008  1.00  0.00    -0.007 C 
ATOM      3  C   UNL     1     119.110 115.607 118.790  1.00  0.00     0.004 C 
ATOM      4  C   UNL     1     118.248 116.375 117.773  1.00  0.00     0.012 C 
ATOM      5  C   UNL     1     116.757 116.395 118.187  1.00  0.00     0.058 C 
ATOM      6  C   UNL     1     116.295 114.988 118.519  1.00  0.00     0.136 C 
ATOM      7  O   UNL     1     115.207 114.570 118.146  1.00  0.00    -0.299 OA
ATOM      8  C   UNL     1     117.137 114.142 119.435  1.00  0.00     0.079 C 
ENDROOT
BRANCH   5   9
ATOM      9  C   UNL     1     115.837 117.116 117.149  1.00  0.00    -0.007 C 
ATOM     10  C   UNL     1     116.354 117.032 115.702  1.00  0.00     0.008 C 
ATOM     11  C   UNL     1     115.583 118.582 117.534  1.00  0.00     0.008 C 
ENDBRANCH   5   9
TORSDOF 1
ENDMDL
