MODEL 1
REMARK VINA RESULT:    -6.919      0.000      0.000
REMARK INTER + INTRA:         -10.372
REMARK INTER:                  -9.346
REMARK INTRA:                  -1.026
REMARK UNBOUND:                -1.026
REMARK SMILES O=c1c(-c2ccc(O)cc2)coc2c([C@@H]3O[C@@H](CO)[C@@H](O)[C@H](O)[C@H]3O)c(O)ccc12
REMARK SMILES IDX 3 1 11 2 12 3 13 4 30 5 2 6 1 7 29 8 28 9 26 10 14 11 4 12
REMARK SMILES IDX 5 13 6 14 7 15 10 16 9 17 8 18 15 20 24 21 16 22 22 23 17 24
REMARK SMILES IDX 20 25 25 26 23 28 18 30 19 31 21 33 27 35
REMARK H PARENT 8 19 25 27 23 29 19 32 21 34 27 36
REMARK Flexibility Score: inf
ROOT
ATOM      1  C   UNL     1      -6.328  10.976  17.974  1.00  0.00     0.065 A 
ATOM      2  C   UNL     1      -5.637  11.839  17.113  1.00  0.00     0.208 A 
ATOM      3  O   UNL     1      -5.626  13.150  17.324  1.00  0.00    -0.463 OA
ATOM      4  C   UNL     1      -6.255  13.729  18.345  1.00  0.00     0.147 A 
ATOM      5  C   UNL     1      -6.986  12.933  19.258  1.00  0.00     0.066 A 
ATOM      6  C   UNL     1      -7.021  11.540  19.061  1.00  0.00     0.200 A 
ATOM      7  O   UNL     1      -7.687  10.803  19.841  1.00  0.00    -0.288 OA
ATOM      8  C   UNL     1      -7.662  13.545  20.324  1.00  0.00     0.020 A 
ATOM      9  C   UNL     1      -7.623  14.930  20.478  1.00  0.00     0.047 A 
ATOM     10  C   UNL     1      -6.904  15.727  19.579  1.00  0.00     0.125 A 
ATOM     11  C   UNL     1      -6.195  15.132  18.510  1.00  0.00     0.069 A 
ENDROOT
BRANCH   1  12
ATOM     12  C   UNL     1      -6.319   9.514  17.721  1.00  0.00    -0.011 A 
ATOM     13  C   UNL     1      -7.416   8.895  17.095  1.00  0.00     0.013 A 
ATOM     14  C   UNL     1      -7.406   7.519  16.848  1.00  0.00     0.047 A 
ATOM     15  C   UNL     1      -6.301   6.745  17.216  1.00  0.00     0.115 A 
ATOM     16  C   UNL     1      -5.209   8.730  18.084  1.00  0.00     0.013 A 
ATOM     17  C   UNL     1      -5.202   7.354  17.835  1.00  0.00     0.047 A 
BRANCH  15  18
ATOM     18  O   UNL     1      -6.306   5.376  16.964  1.00  0.00    -0.508 OA
ATOM     19  H   UNL     1      -6.871   4.975  16.225  1.00  0.00     0.293 HD
ENDBRANCH  15  18
ENDBRANCH   1  12
BRANCH  11  20
ATOM     20  C   UNL     1      -5.430  15.995  17.515  1.00  0.00     0.188 C 
ATOM     21  C   UNL     1      -6.411  16.896  16.733  1.00  0.00     0.179 C 
ATOM     22  O   UNL     1      -4.460  16.761  18.219  1.00  0.00    -0.362 OA
ATOM     23  C   UNL     1      -5.630  17.793  15.759  1.00  0.00     0.177 C 
ATOM     24  C   UNL     1      -3.665  17.570  17.362  1.00  0.00     0.176 C 
ATOM     25  C   UNL     1      -4.528  18.542  16.518  1.00  0.00     0.177 C 
BRANCH  21  26
ATOM     26  O   UNL     1      -7.311  16.090  16.017  1.00  0.00    -0.387 OA
ATOM     27  H   UNL     1      -7.409  16.494  15.115  1.00  0.00     0.211 HD
ENDBRANCH  21  26
BRANCH  23  28
ATOM     28  O   UNL     1      -6.496  18.728  15.169  1.00  0.00    -0.387 OA
ATOM     29  H   UNL     1      -6.212  18.831  14.223  1.00  0.00     0.211 HD
ENDBRANCH  23  28
BRANCH  24  30
ATOM     30  C   UNL     1      -2.652  16.743  16.535  1.00  0.00     0.191 C 
BRANCH  30  31
ATOM     31  O   UNL     1      -1.513  17.507  16.246  1.00  0.00    -0.394 OA
ATOM     32  H   UNL     1      -1.755  18.454  16.416  1.00  0.00     0.210 HD
ENDBRANCH  30  31
ENDBRANCH  24  30
BRANCH  25  33
ATOM     33  O   UNL     1      -3.734  19.258  15.607  1.00  0.00    -0.388 OA
ATOM     34  H   UNL     1      -2.887  18.750  15.507  1.00  0.00     0.211 HD
ENDBRANCH  25  33
ENDBRANCH  11  20
BRANCH  10  35
ATOM     35  O   UNL     1      -6.898  17.112  19.748  1.00  0.00    -0.507 OA
ATOM     36  H   UNL     1      -6.058  17.662  19.611  1.00  0.00     0.293 HD
ENDBRANCH  10  35
TORSDOF 9
ENDMDL
MODEL 2
REMARK VINA RESULT:    -6.797      2.475      4.424
REMARK INTER + INTRA:         -10.208
REMARK INTER:                  -9.970
REMARK INTRA:                  -0.237
REMARK UNBOUND:                -1.026
REMARK SMILES O=c1c(-c2ccc(O)cc2)coc2c([C@@H]3O[C@@H](CO)[C@@H](O)[C@H](O)[C@H]3O)c(O)ccc12
REMARK SMILES IDX 3 1 11 2 12 3 13 4 30 5 2 6 1 7 29 8 28 9 26 10 14 11 4 12
REMARK SMILES IDX 5 13 6 14 7 15 10 16 9 17 8 18 15 20 24 21 16 22 22 23 17 24
REMARK SMILES IDX 20 25 25 26 23 28 18 30 19 31 21 33 27 35
REMARK H PARENT 8 19 25 27 23 29 19 32 21 34 27 36
REMARK Flexibility Score: inf
ROOT
ATOM      1  C   UNL     1      -6.312  13.247  17.566  1.00  0.00     0.065 A 
ATOM      2  C   UNL     1      -6.964  14.299  18.223  1.00  0.00     0.208 A 
ATOM      3  O   UNL     1      -6.510  15.544  18.135  1.00  0.00    -0.463 OA
ATOM      4  C   UNL     1      -5.428  15.877  17.435  1.00  0.00     0.147 A 
ATOM      5  C   UNL     1      -4.703  14.875  16.749  1.00  0.00     0.066 A 
ATOM      6  C   UNL     1      -5.155  13.544  16.824  1.00  0.00     0.200 A 
ATOM      7  O   UNL     1      -4.516  12.621  16.246  1.00  0.00    -0.288 OA
ATOM      8  C   UNL     1      -3.553  15.224  16.025  1.00  0.00     0.020 A 
ATOM      9  C   UNL     1      -3.121  16.548  15.988  1.00  0.00     0.047 A 
ATOM     10  C   UNL     1      -3.830  17.548  16.665  1.00  0.00     0.125 A 
ATOM     11  C   UNL     1      -5.005  17.226  17.383  1.00  0.00     0.069 A 
ENDROOT
BRANCH   1  12
ATOM     12  C   UNL     1      -6.844  11.865  17.672  1.00  0.00    -0.011 A 
ATOM     13  C   UNL     1      -7.260  11.174  16.520  1.00  0.00     0.013 A 
ATOM     14  C   UNL     1      -7.754   9.870  16.616  1.00  0.00     0.047 A 
ATOM     15  C   UNL     1      -7.833   9.237  17.861  1.00  0.00     0.115 A 
ATOM     16  C   UNL     1      -6.922  11.220  18.920  1.00  0.00     0.013 A 
ATOM     17  C   UNL     1      -7.415   9.915  19.013  1.00  0.00     0.047 A 
BRANCH  15  18
ATOM     18  O   UNL     1      -8.327   7.938  17.941  1.00  0.00    -0.508 OA
ATOM     19  H   UNL     1      -8.037   7.305  18.678  1.00  0.00     0.293 HD
ENDBRANCH  15  18
ENDBRANCH   1  12
BRANCH  11  20
ATOM     20  C   UNL     1      -5.769  18.304  18.140  1.00  0.00     0.188 C 
ATOM     21  C   UNL     1      -4.778  19.255  18.848  1.00  0.00     0.179 C 
ATOM     22  O   UNL     1      -6.607  19.003  17.228  1.00  0.00    -0.362 OA
ATOM     23  C   UNL     1      -5.553  20.364  19.579  1.00  0.00     0.177 C 
ATOM     24  C   UNL     1      -7.393  20.008  17.856  1.00  0.00     0.176 C 
ATOM     25  C   UNL     1      -6.518  21.046  18.603  1.00  0.00     0.177 C 
BRANCH  21  26
ATOM     26  O   UNL     1      -4.014  18.523  19.774  1.00  0.00    -0.387 OA
ATOM     27  H   UNL     1      -4.652  18.104  20.409  1.00  0.00     0.211 HD
ENDBRANCH  21  26
BRANCH  23  28
ATOM     28  O   UNL     1      -4.658  21.322  20.082  1.00  0.00    -0.387 OA
ATOM     29  H   UNL     1      -4.780  22.146  19.542  1.00  0.00     0.211 HD
ENDBRANCH  23  28
BRANCH  24  30
ATOM     30  C   UNL     1      -8.539  19.416  18.711  1.00  0.00     0.191 C 
BRANCH  30  31
ATOM     31  O   UNL     1      -9.497  20.398  18.999  1.00  0.00    -0.394 OA
ATOM     32  H   UNL     1     -10.373  19.935  19.048  1.00  0.00     0.210 HD
ENDBRANCH  30  31
ENDBRANCH  24  30
BRANCH  25  33
ATOM     33  O   UNL     1      -7.317  21.968  19.299  1.00  0.00    -0.388 OA
ATOM     34  H   UNL     1      -7.074  21.888  20.259  1.00  0.00     0.211 HD
ENDBRANCH  25  33
ENDBRANCH  11  20
BRANCH  10  35
ATOM     35  O   UNL     1      -3.364  18.863  16.626  1.00  0.00    -0.507 OA
ATOM     36  H   UNL     1      -2.982  19.318  17.448  1.00  0.00     0.293 HD
ENDBRANCH  10  35
TORSDOF 9
ENDMDL
MODEL 3
REMARK VINA RESULT:    -6.468      2.498      8.667
REMARK INTER + INTRA:          -9.762
REMARK INTER:                  -8.636
REMARK INTRA:                  -1.127
REMARK UNBOUND:                -1.026
REMARK SMILES O=c1c(-c2ccc(O)cc2)coc2c([C@@H]3O[C@@H](CO)[C@@H](O)[C@H](O)[C@H]3O)c(O)ccc12
REMARK SMILES IDX 3 1 11 2 12 3 13 4 30 5 2 6 1 7 29 8 28 9 26 10 14 11 4 12
REMARK SMILES IDX 5 13 6 14 7 15 10 16 9 17 8 18 15 20 24 21 16 22 22 23 17 24
REMARK SMILES IDX 20 25 25 26 23 28 18 30 19 31 21 33 27 35
REMARK H PARENT 8 19 25 27 23 29 19 32 21 34 27 36
REMARK Flexibility Score: inf
ROOT
ATOM      1  C   UNL     1      -5.708  16.814  17.896  1.00  0.00     0.065 A 
ATOM      2  C   UNL     1      -6.380  15.726  18.470  1.00  0.00     0.208 A 
ATOM      3  O   UNL     1      -6.004  14.479  18.211  1.00  0.00    -0.463 OA
ATOM      4  C   UNL     1      -4.987  14.176  17.408  1.00  0.00     0.147 A 
ATOM      5  C   UNL     1      -4.259  15.214  16.779  1.00  0.00     0.066 A 
ATOM      6  C   UNL     1      -4.633  16.547  17.029  1.00  0.00     0.200 A 
ATOM      7  O   UNL     1      -4.024  17.496  16.462  1.00  0.00    -0.288 OA
ATOM      8  C   UNL     1      -3.197  14.894  15.920  1.00  0.00     0.020 A 
ATOM      9  C   UNL     1      -2.866  13.562  15.679  1.00  0.00     0.047 A 
ATOM     10  C   UNL     1      -3.580  12.527  16.295  1.00  0.00     0.125 A 
ATOM     11  C   UNL     1      -4.639  12.823  17.183  1.00  0.00     0.069 A 
ENDROOT
BRANCH   1  12
ATOM     12  C   UNL     1      -6.142  18.199  18.207  1.00  0.00    -0.011 A 
ATOM     13  C   UNL     1      -5.337  19.032  19.005  1.00  0.00     0.013 A 
ATOM     14  C   UNL     1      -5.740  20.340  19.293  1.00  0.00     0.047 A 
ATOM     15  C   UNL     1      -6.944  20.834  18.783  1.00  0.00     0.115 A 
ATOM     16  C   UNL     1      -7.350  18.705  17.694  1.00  0.00     0.013 A 
ATOM     17  C   UNL     1      -7.749  20.013  17.982  1.00  0.00     0.047 A 
BRANCH  15  18
ATOM     18  O   UNL     1      -7.332  22.139  19.079  1.00  0.00    -0.508 OA
ATOM     19  H   UNL     1      -7.646  22.401  20.006  1.00  0.00     0.293 HD
ENDBRANCH  15  18
ENDBRANCH   1  12
BRANCH  11  20
ATOM     20  C   UNL     1      -5.435  11.702  17.839  1.00  0.00     0.188 C 
ATOM     21  C   UNL     1      -6.467  11.133  16.840  1.00  0.00     0.179 C 
ATOM     22  O   UNL     1      -4.534  10.700  18.292  1.00  0.00    -0.362 OA
ATOM     23  C   UNL     1      -7.241   9.976  17.495  1.00  0.00     0.177 C 
ATOM     24  C   UNL     1      -5.187   9.627  18.958  1.00  0.00     0.176 C 
ATOM     25  C   UNL     1      -6.252   8.949  18.058  1.00  0.00     0.177 C 
BRANCH  21  26
ATOM     26  O   UNL     1      -7.363  12.150  16.468  1.00  0.00    -0.387 OA
ATOM     27  H   UNL     1      -6.820  12.886  16.079  1.00  0.00     0.211 HD
ENDBRANCH  21  26
BRANCH  23  28
ATOM     28  O   UNL     1      -8.059   9.348  16.541  1.00  0.00    -0.387 OA
ATOM     29  H   UNL     1      -7.893   9.799  15.673  1.00  0.00     0.211 HD
ENDBRANCH  23  28
BRANCH  24  30
ATOM     30  C   UNL     1      -5.705  10.027  20.360  1.00  0.00     0.191 C 
BRANCH  30  31
ATOM     31  O   UNL     1      -5.722   8.915  21.214  1.00  0.00    -0.394 OA
ATOM     32  H   UNL     1      -4.775   8.651  21.354  1.00  0.00     0.210 HD
ENDBRANCH  30  31
ENDBRANCH  24  30
BRANCH  25  33
ATOM     33  O   UNL     1      -6.954   7.962  18.769  1.00  0.00    -0.388 OA
ATOM     34  H   UNL     1      -6.331   7.199  18.888  1.00  0.00     0.211 HD
ENDBRANCH  25  33
ENDBRANCH  11  20
BRANCH  10  35
ATOM     35  O   UNL     1      -3.238  11.202  16.020  1.00  0.00    -0.507 OA
ATOM     36  H   UNL     1      -2.792  10.612  16.713  1.00  0.00     0.293 HD
ENDBRANCH  10  35
TORSDOF 9
ENDMDL
MODEL 4
REMARK VINA RESULT:    -6.281      2.692      8.639
REMARK INTER + INTRA:          -9.511
REMARK INTER:                  -8.420
REMARK INTRA:                  -1.091
REMARK UNBOUND:                -1.026
REMARK SMILES O=c1c(-c2ccc(O)cc2)coc2c([C@@H]3O[C@@H](CO)[C@@H](O)[C@H](O)[C@H]3O)c(O)ccc12
REMARK SMILES IDX 3 1 11 2 12 3 13 4 30 5 2 6 1 7 29 8 28 9 26 10 14 11 4 12
REMARK SMILES IDX 5 13 6 14 7 15 10 16 9 17 8 18 15 20 24 21 16 22 22 23 17 24
REMARK SMILES IDX 20 25 25 26 23 28 18 30 19 31 21 33 27 35
REMARK H PARENT 8 19 25 27 23 29 19 32 21 34 27 36
REMARK Flexibility Score: inf
ROOT
ATOM      1  C   UNL     1      -6.474  15.983  18.535  1.00  0.00     0.065 A 
ATOM      2  C   UNL     1      -6.108  15.078  19.540  1.00  0.00     0.208 A 
ATOM      3  O   UNL     1      -6.239  13.769  19.360  1.00  0.00    -0.463 OA
ATOM      4  C   UNL     1      -6.716  13.232  18.240  1.00  0.00     0.147 A 
ATOM      5  C   UNL     1      -7.120  14.074  17.177  1.00  0.00     0.066 A 
ATOM      6  C   UNL     1      -6.998  15.467  17.336  1.00  0.00     0.200 A 
ATOM      7  O   UNL     1      -7.374  16.248  16.419  1.00  0.00    -0.288 OA
ATOM      8  C   UNL     1      -7.638  13.508  16.002  1.00  0.00     0.020 A 
ATOM      9  C   UNL     1      -7.764  12.125  15.886  1.00  0.00     0.047 A 
ATOM     10  C   UNL     1      -7.369  11.282  16.931  1.00  0.00     0.125 A 
ATOM     11  C   UNL     1      -6.822  11.827  18.116  1.00  0.00     0.069 A 
ENDROOT
BRANCH   1  12
ATOM     12  C   UNL     1      -6.311  17.442  18.758  1.00  0.00    -0.011 A 
ATOM     13  C   UNL     1      -7.435  18.255  18.985  1.00  0.00     0.013 A 
ATOM     14  C   UNL     1      -7.284  19.628  19.203  1.00  0.00     0.047 A 
ATOM     15  C   UNL     1      -6.010  20.204  19.204  1.00  0.00     0.115 A 
ATOM     16  C   UNL     1      -5.032  18.028  18.765  1.00  0.00     0.013 A 
ATOM     17  C   UNL     1      -4.884  19.401  18.985  1.00  0.00     0.047 A 
BRANCH  15  18
ATOM     18  O   UNL     1      -5.874  21.573  19.422  1.00  0.00    -0.508 OA
ATOM     19  H   UNL     1      -6.483  22.244  18.969  1.00  0.00     0.293 HD
ENDBRANCH  15  18
ENDBRANCH   1  12
BRANCH  11  20
ATOM     20  C   UNL     1      -6.412  10.917  19.267  1.00  0.00     0.188 C 
ATOM     21  C   UNL     1      -7.643  10.574  20.134  1.00  0.00     0.179 C 
ATOM     22  O   UNL     1      -5.800   9.748  18.736  1.00  0.00    -0.362 OA
ATOM     23  C   UNL     1      -7.230   9.625  21.271  1.00  0.00     0.177 C 
ATOM     24  C   UNL     1      -5.345   8.855  19.744  1.00  0.00     0.176 C 
ATOM     25  C   UNL     1      -6.492   8.414  20.689  1.00  0.00     0.177 C 
BRANCH  21  26
ATOM     26  O   UNL     1      -8.174  11.757  20.675  1.00  0.00    -0.387 OA
ATOM     27  H   UNL     1      -8.746  12.166  19.973  1.00  0.00     0.211 HD
ENDBRANCH  21  26
BRANCH  23  28
ATOM     28  O   UNL     1      -8.370   9.177  21.959  1.00  0.00    -0.387 OA
ATOM     29  H   UNL     1      -9.160   9.530  21.473  1.00  0.00     0.211 HD
ENDBRANCH  23  28
BRANCH  24  30
ATOM     30  C   UNL     1      -4.087   9.379  20.477  1.00  0.00     0.191 C 
BRANCH  30  31
ATOM     31  O   UNL     1      -3.337   8.312  20.991  1.00  0.00    -0.394 OA
ATOM     32  H   UNL     1      -3.986   7.608  21.253  1.00  0.00     0.210 HD
ENDBRANCH  30  31
ENDBRANCH  24  30
BRANCH  25  33
ATOM     33  O   UNL     1      -6.001   7.615  21.735  1.00  0.00    -0.388 OA
ATOM     34  H   UNL     1      -6.791   7.297  22.246  1.00  0.00     0.211 HD
ENDBRANCH  25  33
ENDBRANCH  11  20
BRANCH  10  35
ATOM     35  O   UNL     1      -7.525   9.903  16.794  1.00  0.00    -0.507 OA
ATOM     36  H   UNL     1      -8.360   9.425  17.114  1.00  0.00     0.293 HD
ENDBRANCH  10  35
TORSDOF 9
ENDMDL
MODEL 5
REMARK VINA RESULT:    -6.195      1.722      8.450
REMARK INTER + INTRA:          -9.394
REMARK INTER:                  -8.303
REMARK INTRA:                  -1.090
REMARK UNBOUND:                -1.026
REMARK SMILES O=c1c(-c2ccc(O)cc2)coc2c([C@@H]3O[C@@H](CO)[C@@H](O)[C@H](O)[C@H]3O)c(O)ccc12
REMARK SMILES IDX 3 1 11 2 12 3 13 4 30 5 2 6 1 7 29 8 28 9 26 10 14 11 4 12
REMARK SMILES IDX 5 13 6 14 7 15 10 16 9 17 8 18 15 20 24 21 16 22 22 23 17 24
REMARK SMILES IDX 20 25 25 26 23 28 18 30 19 31 21 33 27 35
REMARK H PARENT 8 19 25 27 23 29 19 32 21 34 27 36
REMARK Flexibility Score: inf
ROOT
ATOM      1  C   UNL     1      -5.860  14.793  18.060  1.00  0.00     0.065 A 
ATOM      2  C   UNL     1      -5.428  13.523  17.652  1.00  0.00     0.208 A 
ATOM      3  O   UNL     1      -5.853  12.427  18.271  1.00  0.00    -0.463 OA
ATOM      4  C   UNL     1      -6.698  12.452  19.298  1.00  0.00     0.147 A 
ATOM      5  C   UNL     1      -7.176  13.693  19.782  1.00  0.00     0.066 A 
ATOM      6  C   UNL     1      -6.744  14.874  19.151  1.00  0.00     0.200 A 
ATOM      7  O   UNL     1      -7.129  16.000  19.574  1.00  0.00    -0.288 OA
ATOM      8  C   UNL     1      -8.055  13.719  20.875  1.00  0.00     0.020 A 
ATOM      9  C   UNL     1      -8.447  12.531  21.489  1.00  0.00     0.047 A 
ATOM     10  C   UNL     1      -7.979  11.298  21.020  1.00  0.00     0.125 A 
ATOM     11  C   UNL     1      -7.112  11.243  19.905  1.00  0.00     0.069 A 
ENDROOT
BRANCH   1  12
ATOM     12  C   UNL     1      -5.378  16.002  17.348  1.00  0.00    -0.011 A 
ATOM     13  C   UNL     1      -4.029  16.391  17.442  1.00  0.00     0.013 A 
ATOM     14  C   UNL     1      -3.570  17.526  16.766  1.00  0.00     0.047 A 
ATOM     15  C   UNL     1      -4.448  18.281  15.982  1.00  0.00     0.115 A 
ATOM     16  C   UNL     1      -6.253  16.764  16.553  1.00  0.00     0.013 A 
ATOM     17  C   UNL     1      -5.791  17.897  15.876  1.00  0.00     0.047 A 
BRANCH  15  18
ATOM     18  O   UNL     1      -3.977  19.408  15.314  1.00  0.00    -0.508 OA
ATOM     19  H   UNL     1      -3.016  19.716  15.406  1.00  0.00     0.293 HD
ENDBRANCH  15  18
ENDBRANCH   1  12
BRANCH  11  20
ATOM     20  C   UNL     1      -6.580   9.906  19.404  1.00  0.00     0.188 C 
ATOM     21  C   UNL     1      -5.450   9.406  20.330  1.00  0.00     0.179 C 
ATOM     22  O   UNL     1      -7.655   8.978  19.338  1.00  0.00    -0.362 OA
ATOM     23  C   UNL     1      -4.944   8.039  19.842  1.00  0.00     0.177 C 
ATOM     24  C   UNL     1      -7.260   7.707  18.839  1.00  0.00     0.176 C 
ATOM     25  C   UNL     1      -6.128   7.077  19.689  1.00  0.00     0.177 C 
BRANCH  21  26
ATOM     26  O   UNL     1      -4.394  10.334  20.317  1.00  0.00    -0.387 OA
ATOM     27  H   UNL     1      -4.351  10.738  21.223  1.00  0.00     0.211 HD
ENDBRANCH  21  26
BRANCH  23  28
ATOM     28  O   UNL     1      -4.037   7.504  20.772  1.00  0.00    -0.387 OA
ATOM     29  H   UNL     1      -4.417   6.643  21.087  1.00  0.00     0.211 HD
ENDBRANCH  23  28
BRANCH  24  30
ATOM     30  C   UNL     1      -6.970   7.730  17.319  1.00  0.00     0.191 C 
BRANCH  30  31
ATOM     31  O   UNL     1      -6.966   6.428  16.798  1.00  0.00    -0.394 OA
ATOM     32  H   UNL     1      -7.050   6.517  15.813  1.00  0.00     0.210 HD
ENDBRANCH  30  31
ENDBRANCH  24  30
BRANCH  25  33
ATOM     33  O   UNL     1      -5.683   5.872  19.120  1.00  0.00    -0.388 OA
ATOM     34  H   UNL     1      -5.392   5.292  19.871  1.00  0.00     0.211 HD
ENDBRANCH  25  33
ENDBRANCH  11  20
BRANCH  10  35
ATOM     35  O   UNL     1      -8.374  10.126  21.667  1.00  0.00    -0.507 OA
ATOM     36  H   UNL     1      -7.710   9.398  21.905  1.00  0.00     0.293 HD
ENDBRANCH  10  35
TORSDOF 9
ENDMDL
MODEL 6
REMARK VINA RESULT:    -6.145      2.848      4.461
REMARK INTER + INTRA:          -9.327
REMARK INTER:                  -8.394
REMARK INTRA:                  -0.933
REMARK UNBOUND:                -1.026
REMARK SMILES O=c1c(-c2ccc(O)cc2)coc2c([C@@H]3O[C@@H](CO)[C@@H](O)[C@H](O)[C@H]3O)c(O)ccc12
REMARK SMILES IDX 3 1 11 2 12 3 13 4 30 5 2 6 1 7 29 8 28 9 26 10 14 11 4 12
REMARK SMILES IDX 5 13 6 14 7 15 10 16 9 17 8 18 15 20 24 21 16 22 22 23 17 24
REMARK SMILES IDX 20 25 25 26 23 28 18 30 19 31 21 33 27 35
REMARK H PARENT 8 19 25 27 23 29 19 32 21 34 27 36
REMARK Flexibility Score: inf
ROOT
ATOM      1  C   UNL     1      -7.593  11.936  20.542  1.00  0.00     0.065 A 
ATOM      2  C   UNL     1      -7.337  13.250  20.956  1.00  0.00     0.208 A 
ATOM      3  O   UNL     1      -7.118  14.214  20.069  1.00  0.00    -0.463 OA
ATOM      4  C   UNL     1      -7.126  14.010  18.754  1.00  0.00     0.147 A 
ATOM      5  C   UNL     1      -7.366  12.710  18.249  1.00  0.00     0.066 A 
ATOM      6  C   UNL     1      -7.598  11.665  19.162  1.00  0.00     0.200 A 
ATOM      7  O   UNL     1      -7.789  10.488  18.747  1.00  0.00    -0.288 OA
ATOM      8  C   UNL     1      -7.358  12.492  16.863  1.00  0.00     0.020 A 
ATOM      9  C   UNL     1      -7.105  13.547  15.988  1.00  0.00     0.047 A 
ATOM     10  C   UNL     1      -6.864  14.837  16.476  1.00  0.00     0.125 A 
ATOM     11  C   UNL     1      -6.890  15.087  17.868  1.00  0.00     0.069 A 
ENDROOT
BRANCH   1  12
ATOM     12  C   UNL     1      -7.842  10.877  21.552  1.00  0.00    -0.011 A 
ATOM     13  C   UNL     1      -6.971   9.778  21.658  1.00  0.00     0.013 A 
ATOM     14  C   UNL     1      -7.198   8.784  22.615  1.00  0.00     0.047 A 
ATOM     15  C   UNL     1      -8.292   8.877  23.480  1.00  0.00     0.115 A 
ATOM     16  C   UNL     1      -8.938  10.967  22.430  1.00  0.00     0.013 A 
ATOM     17  C   UNL     1      -9.162   9.971  23.386  1.00  0.00     0.047 A 
BRANCH  15  18
ATOM     18  O   UNL     1      -8.507   7.879  24.427  1.00  0.00    -0.508 OA
ATOM     19  H   UNL     1      -8.908   8.086  25.334  1.00  0.00     0.293 HD
ENDBRANCH  15  18
ENDBRANCH   1  12
BRANCH  11  20
ATOM     20  C   UNL     1      -6.606  16.483  18.408  1.00  0.00     0.188 C 
ATOM     21  C   UNL     1      -5.084  16.686  18.572  1.00  0.00     0.179 C 
ATOM     22  O   UNL     1      -7.173  17.443  17.524  1.00  0.00    -0.362 OA
ATOM     23  C   UNL     1      -4.801  18.110  19.079  1.00  0.00     0.177 C 
ATOM     24  C   UNL     1      -6.993  18.781  17.971  1.00  0.00     0.176 C 
ATOM     25  C   UNL     1      -5.495  19.129  18.168  1.00  0.00     0.177 C 
BRANCH  21  26
ATOM     26  O   UNL     1      -4.587  15.748  19.492  1.00  0.00    -0.387 OA
ATOM     27  H   UNL     1      -3.632  15.597  19.266  1.00  0.00     0.211 HD
ENDBRANCH  21  26
BRANCH  23  28
ATOM     28  O   UNL     1      -3.418  18.356  19.070  1.00  0.00    -0.387 OA
ATOM     29  H   UNL     1      -2.981  17.571  19.492  1.00  0.00     0.211 HD
ENDBRANCH  23  28
BRANCH  24  30
ATOM     30  C   UNL     1      -7.887  19.127  19.185  1.00  0.00     0.191 C 
BRANCH  30  31
ATOM     31  O   UNL     1      -8.352  20.446  19.094  1.00  0.00    -0.394 OA
ATOM     32  H   UNL     1      -9.029  20.459  18.368  1.00  0.00     0.210 HD
ENDBRANCH  30  31
ENDBRANCH  24  30
BRANCH  25  33
ATOM     33  O   UNL     1      -5.346  20.418  18.706  1.00  0.00    -0.388 OA
ATOM     34  H   UNL     1      -5.889  20.445  19.537  1.00  0.00     0.211 HD
ENDBRANCH  25  33
ENDBRANCH  11  20
BRANCH  10  35
ATOM     35  O   UNL     1      -6.595  15.869  15.577  1.00  0.00    -0.507 OA
ATOM     36  H   UNL     1      -5.757  16.434  15.650  1.00  0.00     0.293 HD
ENDBRANCH  10  35
TORSDOF 9
ENDMDL
MODEL 7
REMARK VINA RESULT:    -6.130      2.844      8.725
REMARK INTER + INTRA:          -9.307
REMARK INTER:                  -8.791
REMARK INTRA:                  -0.516
REMARK UNBOUND:                -1.026
REMARK SMILES O=c1c(-c2ccc(O)cc2)coc2c([C@@H]3O[C@@H](CO)[C@@H](O)[C@H](O)[C@H]3O)c(O)ccc12
REMARK SMILES IDX 3 1 11 2 12 3 13 4 30 5 2 6 1 7 29 8 28 9 26 10 14 11 4 12
REMARK SMILES IDX 5 13 6 14 7 15 10 16 9 17 8 18 15 20 24 21 16 22 22 23 17 24
REMARK SMILES IDX 20 25 25 26 23 28 18 30 19 31 21 33 27 35
REMARK H PARENT 8 19 25 27 23 29 19 32 21 34 27 36
REMARK Flexibility Score: inf
ROOT
ATOM      1  C   UNL     1      -6.657  13.784  18.070  1.00  0.00     0.065 A 
ATOM      2  C   UNL     1      -6.248  13.313  19.325  1.00  0.00     0.208 A 
ATOM      3  O   UNL     1      -6.258  12.015  19.604  1.00  0.00    -0.463 OA
ATOM      4  C   UNL     1      -6.646  11.086  18.733  1.00  0.00     0.147 A 
ATOM      5  C   UNL     1      -7.085  11.474  17.445  1.00  0.00     0.066 A 
ATOM      6  C   UNL     1      -7.091  12.842  17.119  1.00  0.00     0.200 A 
ATOM      7  O   UNL     1      -7.502  13.226  15.988  1.00  0.00    -0.288 OA
ATOM      8  C   UNL     1      -7.510  10.495  16.534  1.00  0.00     0.020 A 
ATOM      9  C   UNL     1      -7.510   9.150  16.897  1.00  0.00     0.047 A 
ATOM     10  C   UNL     1      -7.080   8.755  18.170  1.00  0.00     0.125 A 
ATOM     11  C   UNL     1      -6.625   9.720  19.098  1.00  0.00     0.069 A 
ENDROOT
BRANCH   1  12
ATOM     12  C   UNL     1      -6.630  15.239  17.780  1.00  0.00    -0.011 A 
ATOM     13  C   UNL     1      -6.928  16.170  18.792  1.00  0.00     0.013 A 
ATOM     14  C   UNL     1      -6.895  17.542  18.524  1.00  0.00     0.047 A 
ATOM     15  C   UNL     1      -6.559  18.001  17.247  1.00  0.00     0.115 A 
ATOM     16  C   UNL     1      -6.288  15.709  16.499  1.00  0.00     0.013 A 
ATOM     17  C   UNL     1      -6.255  17.082  16.235  1.00  0.00     0.047 A 
BRANCH  15  18
ATOM     18  O   UNL     1      -6.531  19.371  16.994  1.00  0.00    -0.508 OA
ATOM     19  H   UNL     1      -6.926  19.761  16.147  1.00  0.00     0.293 HD
ENDBRANCH  15  18
ENDBRANCH   1  12
BRANCH  11  20
ATOM     20  C   UNL     1      -6.177   9.300  20.492  1.00  0.00     0.188 C 
ATOM     21  C   UNL     1      -7.408   9.050  21.390  1.00  0.00     0.179 C 
ATOM     22  O   UNL     1      -5.361   8.140  20.385  1.00  0.00    -0.362 OA
ATOM     23  C   UNL     1      -6.951   8.588  22.784  1.00  0.00     0.177 C 
ATOM     24  C   UNL     1      -4.859   7.697  21.640  1.00  0.00     0.176 C 
ATOM     25  C   UNL     1      -6.000   7.395  22.645  1.00  0.00     0.177 C 
BRANCH  21  26
ATOM     26  O   UNL     1      -8.148  10.239  21.504  1.00  0.00    -0.387 OA
ATOM     27  H   UNL     1      -8.718  10.149  22.312  1.00  0.00     0.211 HD
ENDBRANCH  21  26
BRANCH  23  28
ATOM     28  O   UNL     1      -8.064   8.200  23.549  1.00  0.00    -0.387 OA
ATOM     29  H   UNL     1      -7.730   7.594  24.260  1.00  0.00     0.211 HD
ENDBRANCH  23  28
BRANCH  24  30
ATOM     30  C   UNL     1      -3.754   8.624  22.198  1.00  0.00     0.191 C 
BRANCH  30  31
ATOM     31  O   UNL     1      -2.629   8.607  21.361  1.00  0.00    -0.394 OA
ATOM     32  H   UNL     1      -2.579   7.696  20.971  1.00  0.00     0.210 HD
ENDBRANCH  30  31
ENDBRANCH  24  30
BRANCH  25  33
ATOM     33  O   UNL     1      -5.481   7.058  23.906  1.00  0.00    -0.388 OA
ATOM     34  H   UNL     1      -4.513   7.276  23.884  1.00  0.00     0.211 HD
ENDBRANCH  25  33
ENDBRANCH  11  20
BRANCH  10  35
ATOM     35  O   UNL     1      -7.109   7.403  18.512  1.00  0.00    -0.507 OA
ATOM     36  H   UNL     1      -6.670   6.696  17.932  1.00  0.00     0.293 HD
ENDBRANCH  10  35
TORSDOF 9
ENDMDL
MODEL 8
REMARK VINA RESULT:    -6.093      2.533      8.762
REMARK INTER + INTRA:          -9.257
REMARK INTER:                  -8.134
REMARK INTRA:                  -1.123
REMARK UNBOUND:                -1.026
REMARK SMILES O=c1c(-c2ccc(O)cc2)coc2c([C@@H]3O[C@@H](CO)[C@@H](O)[C@H](O)[C@H]3O)c(O)ccc12
REMARK SMILES IDX 3 1 11 2 12 3 13 4 30 5 2 6 1 7 29 8 28 9 26 10 14 11 4 12
REMARK SMILES IDX 5 13 6 14 7 15 10 16 9 17 8 18 15 20 24 21 16 22 22 23 17 24
REMARK SMILES IDX 20 25 25 26 23 28 18 30 19 31 21 33 27 35
REMARK H PARENT 8 19 25 27 23 29 19 32 21 34 27 36
REMARK Flexibility Score: inf
ROOT
ATOM      1  C   UNL     1      -6.000  15.415  18.464  1.00  0.00     0.065 A 
ATOM      2  C   UNL     1      -7.022  14.503  18.762  1.00  0.00     0.208 A 
ATOM      3  O   UNL     1      -6.744  13.235  19.041  1.00  0.00    -0.463 OA
ATOM      4  C   UNL     1      -5.506  12.746  19.057  1.00  0.00     0.147 A 
ATOM      5  C   UNL     1      -4.415  13.595  18.757  1.00  0.00     0.066 A 
ATOM      6  C   UNL     1      -4.674  14.945  18.454  1.00  0.00     0.200 A 
ATOM      7  O   UNL     1      -3.727  15.724  18.155  1.00  0.00    -0.288 OA
ATOM      8  C   UNL     1      -3.112  13.076  18.758  1.00  0.00     0.020 A 
ATOM      9  C   UNL     1      -2.893  11.730  19.043  1.00  0.00     0.047 A 
ATOM     10  C   UNL     1      -3.965  10.880  19.339  1.00  0.00     0.125 A 
ATOM     11  C   UNL     1      -5.286  11.384  19.367  1.00  0.00     0.069 A 
ENDROOT
BRANCH   1  12
ATOM     12  C   UNL     1      -6.335  16.830  18.164  1.00  0.00    -0.011 A 
ATOM     13  C   UNL     1      -6.727  17.700  19.197  1.00  0.00     0.013 A 
ATOM     14  C   UNL     1      -7.035  19.035  18.918  1.00  0.00     0.047 A 
ATOM     15  C   UNL     1      -6.949  19.519  17.610  1.00  0.00     0.115 A 
ATOM     16  C   UNL     1      -6.246  17.325  16.850  1.00  0.00     0.013 A 
ATOM     17  C   UNL     1      -6.553  18.661  16.576  1.00  0.00     0.047 A 
BRANCH  15  18
ATOM     18  O   UNL     1      -7.259  20.852  17.347  1.00  0.00    -0.508 OA
ATOM     19  H   UNL     1      -7.937  21.357  17.906  1.00  0.00     0.293 HD
ENDBRANCH  15  18
ENDBRANCH   1  12
BRANCH  11  20
ATOM     20  C   UNL     1      -6.460  10.460  19.666  1.00  0.00     0.188 C 
ATOM     21  C   UNL     1      -6.802   9.620  18.416  1.00  0.00     0.179 C 
ATOM     22  O   UNL     1      -6.128   9.638  20.778  1.00  0.00    -0.362 OA
ATOM     23  C   UNL     1      -7.962   8.662  18.736  1.00  0.00     0.177 C 
ATOM     24  C   UNL     1      -7.186   8.767  21.158  1.00  0.00     0.176 C 
ATOM     25  C   UNL     1      -7.626   7.848  19.990  1.00  0.00     0.177 C 
BRANCH  21  26
ATOM     26  O   UNL     1      -7.172  10.478  17.367  1.00  0.00    -0.387 OA
ATOM     27  H   UNL     1      -7.872  11.086  17.723  1.00  0.00     0.211 HD
ENDBRANCH  21  26
BRANCH  23  28
ATOM     28  O   UNL     1      -8.166   7.782  17.660  1.00  0.00    -0.387 OA
ATOM     29  H   UNL     1      -9.075   7.398  17.767  1.00  0.00     0.211 HD
ENDBRANCH  23  28
BRANCH  24  30
ATOM     30  C   UNL     1      -8.351   9.514  21.848  1.00  0.00     0.191 C 
BRANCH  30  31
ATOM     31  O   UNL     1      -9.089   8.637  22.655  1.00  0.00    -0.394 OA
ATOM     32  H   UNL     1      -9.455   9.179  23.402  1.00  0.00     0.210 HD
ENDBRANCH  30  31
ENDBRANCH  24  30
BRANCH  25  33
ATOM     33  O   UNL     1      -8.738   7.070  20.356  1.00  0.00    -0.388 OA
ATOM     34  H   UNL     1      -8.723   6.998  21.346  1.00  0.00     0.211 HD
ENDBRANCH  25  33
ENDBRANCH  11  20
BRANCH  10  35
ATOM     35  O   UNL     1      -3.717   9.532  19.602  1.00  0.00    -0.507 OA
ATOM     36  H   UNL     1      -2.824   9.214  19.961  1.00  0.00     0.293 HD
ENDBRANCH  10  35
TORSDOF 9
ENDMDL
MODEL 9
REMARK VINA RESULT:    -6.049      2.145      4.324
REMARK INTER + INTRA:          -9.197
REMARK INTER:                  -8.669
REMARK INTRA:                  -0.528
REMARK UNBOUND:                -1.026
REMARK SMILES O=c1c(-c2ccc(O)cc2)coc2c([C@@H]3O[C@@H](CO)[C@@H](O)[C@H](O)[C@H]3O)c(O)ccc12
REMARK SMILES IDX 3 1 11 2 12 3 13 4 30 5 2 6 1 7 29 8 28 9 26 10 14 11 4 12
REMARK SMILES IDX 5 13 6 14 7 15 10 16 9 17 8 18 15 20 24 21 16 22 22 23 17 24
REMARK SMILES IDX 20 25 25 26 23 28 18 30 19 31 21 33 27 35
REMARK H PARENT 8 19 25 27 23 29 19 32 21 34 27 36
REMARK Flexibility Score: inf
ROOT
ATOM      1  C   UNL     1      -4.811  13.099  16.868  1.00  0.00     0.065 A 
ATOM      2  C   UNL     1      -5.303  14.230  17.534  1.00  0.00     0.208 A 
ATOM      3  O   UNL     1      -4.763  15.427  17.337  1.00  0.00    -0.463 OA
ATOM      4  C   UNL     1      -3.740  15.637  16.513  1.00  0.00     0.147 A 
ATOM      5  C   UNL     1      -3.174  14.549  15.808  1.00  0.00     0.066 A 
ATOM      6  C   UNL     1      -3.720  13.266  15.996  1.00  0.00     0.200 A 
ATOM      7  O   UNL     1      -3.222  12.269  15.403  1.00  0.00    -0.288 OA
ATOM      8  C   UNL     1      -2.084  14.769  14.951  1.00  0.00     0.020 A 
ATOM      9  C   UNL     1      -1.555  16.050  14.803  1.00  0.00     0.047 A 
ATOM     10  C   UNL     1      -2.106  17.134  15.498  1.00  0.00     0.125 A 
ATOM     11  C   UNL     1      -3.219  16.942  16.349  1.00  0.00     0.069 A 
ENDROOT
BRANCH   1  12
ATOM     12  C   UNL     1      -5.437  11.773  17.099  1.00  0.00    -0.011 A 
ATOM     13  C   UNL     1      -4.724  10.757  17.761  1.00  0.00     0.013 A 
ATOM     14  C   UNL     1      -5.314   9.510  17.987  1.00  0.00     0.047 A 
ATOM     15  C   UNL     1      -6.622   9.263  17.562  1.00  0.00     0.115 A 
ATOM     16  C   UNL     1      -6.755  11.519  16.679  1.00  0.00     0.013 A 
ATOM     17  C   UNL     1      -7.343  10.271  16.908  1.00  0.00     0.047 A 
BRANCH  15  18
ATOM     18  O   UNL     1      -7.197   8.016  17.794  1.00  0.00    -0.508 OA
ATOM     19  H   UNL     1      -7.020   7.229  17.181  1.00  0.00     0.293 HD
ENDBRANCH  15  18
ENDBRANCH   1  12
BRANCH  11  20
ATOM     20  C   UNL     1      -3.809  18.112  17.125  1.00  0.00     0.188 C 
ATOM     21  C   UNL     1      -5.294  18.304  16.746  1.00  0.00     0.179 C 
ATOM     22  O   UNL     1      -3.650  17.869  18.518  1.00  0.00    -0.362 OA
ATOM     23  C   UNL     1      -5.894  19.461  17.561  1.00  0.00     0.177 C 
ATOM     24  C   UNL     1      -4.137  18.934  19.325  1.00  0.00     0.176 C 
ATOM     25  C   UNL     1      -5.634  19.229  19.054  1.00  0.00     0.177 C 
BRANCH  21  26
ATOM     26  O   UNL     1      -5.388  18.592  15.373  1.00  0.00    -0.387 OA
ATOM     27  H   UNL     1      -5.565  17.733  14.908  1.00  0.00     0.211 HD
ENDBRANCH  21  26
BRANCH  23  28
ATOM     28  O   UNL     1      -7.281  19.531  17.344  1.00  0.00    -0.387 OA
ATOM     29  H   UNL     1      -7.427  20.176  16.604  1.00  0.00     0.211 HD
ENDBRANCH  23  28
BRANCH  24  30
ATOM     30  C   UNL     1      -3.226  20.183  19.271  1.00  0.00     0.191 C 
BRANCH  30  31
ATOM     31  O   UNL     1      -3.296  20.896  20.477  1.00  0.00    -0.394 OA
ATOM     32  H   UNL     1      -3.161  21.852  20.249  1.00  0.00     0.210 HD
ENDBRANCH  30  31
ENDBRANCH  24  30
BRANCH  25  33
ATOM     33  O   UNL     1      -6.066  20.348  19.785  1.00  0.00    -0.388 OA
ATOM     34  H   UNL     1      -6.925  20.095  20.212  1.00  0.00     0.211 HD
ENDBRANCH  25  33
ENDBRANCH  11  20
BRANCH  10  35
ATOM     35  O   UNL     1      -1.543  18.401  15.345  1.00  0.00    -0.507 OA
ATOM     36  H   UNL     1      -1.631  19.114  16.061  1.00  0.00     0.293 HD
ENDBRANCH  10  35
TORSDOF 9
ENDMDL
