MODEL 1
REMARK VINA RESULT:    -5.164      0.000      0.000
REMARK INTER + INTRA:          -9.540
REMARK INTER:                  -8.183
REMARK INTRA:                  -1.357
REMARK UNBOUND:                -1.357
REMARK SMILES CCCCCCCCCCCC(=O)[O-]
REMARK SMILES IDX 7 1 8 2 9 3 10 4 11 5 12 6 13 7 14 8 6 9 5 10 4 11 3 12 2 13
REMARK SMILES IDX 1 14
REMARK H PARENT
REMARK Flexibility Score: inf
ROOT
ATOM      1  C   UNL     1      11.383   4.218  18.782  1.00  0.00     0.000 C 
ENDROOT
BRANCH   1   2
ATOM      2  C   UNL     1      12.251   5.394  18.318  1.00  0.00     0.000 C 
BRANCH   2   3
ATOM      3  C   UNL     1      11.584   6.736  18.657  1.00  0.00     0.000 C 
BRANCH   3   4
ATOM      4  C   UNL     1      12.416   7.582  19.633  1.00  0.00     0.006 C 
BRANCH   4   5
ATOM      5  C   UNL     1      11.655   7.915  20.923  1.00  0.00     0.053 C 
BRANCH   5   6
ATOM      6  C   UNL     1      12.481   8.801  21.802  1.00  0.00     0.041 C 
ATOM      7  O   UNL     1      11.969   9.820  22.334  1.00  0.00    -0.550 OA
ATOM      8  O   UNL     1      13.804   8.474  22.071  1.00  0.00    -0.550 OA
ENDBRANCH   5   6
ENDBRANCH   4   5
ENDBRANCH   3   4
ENDBRANCH   2   3
ENDBRANCH   1   2
BRANCH   1   9
ATOM      9  C   UNL     1      11.287   4.177  20.315  1.00  0.00     0.000 C 
BRANCH   9  10
ATOM     10  C   UNL     1       9.846   3.977  20.818  1.00  0.00    -0.000 C 
BRANCH  10  11
ATOM     11  C   UNL     1       9.130   5.263  21.276  1.00  0.00    -0.000 C 
BRANCH  11  12
ATOM     12  C   UNL     1       7.866   5.626  20.477  1.00  0.00    -0.000 C 
BRANCH  12  13
ATOM     13  C   UNL     1       7.812   4.943  19.104  1.00  0.00    -0.003 C 
ATOM     14  C   UNL     1       8.047   5.949  17.980  1.00  0.00     0.004 C 
ENDBRANCH  12  13
ENDBRANCH  11  12
ENDBRANCH  10  11
ENDBRANCH   9  10
ENDBRANCH   1   9
TORSDOF 10
ENDMDL
MODEL 2
REMARK VINA RESULT:    -5.057     18.638     19.586
REMARK INTER + INTRA:          -9.370
REMARK INTER:                  -7.935
REMARK INTRA:                  -1.435
REMARK UNBOUND:                -1.357
REMARK SMILES CCCCCCCCCCCC(=O)[O-]
REMARK SMILES IDX 7 1 8 2 9 3 10 4 11 5 12 6 13 7 14 8 6 9 5 10 4 11 3 12 2 13
REMARK SMILES IDX 1 14
REMARK H PARENT
REMARK Flexibility Score: inf
ROOT
ATOM      1  C   UNL     1      18.703  -6.849  33.965  1.00  0.00     0.000 C 
ENDROOT
BRANCH   1   2
ATOM      2  C   UNL     1      19.345  -5.648  33.260  1.00  0.00     0.000 C 
BRANCH   2   3
ATOM      3  C   UNL     1      18.446  -4.406  33.360  1.00  0.00     0.000 C 
BRANCH   3   4
ATOM      4  C   UNL     1      18.936  -3.404  34.417  1.00  0.00     0.006 C 
BRANCH   4   5
ATOM      5  C   UNL     1      17.920  -2.286  34.687  1.00  0.00     0.053 C 
BRANCH   5   6
ATOM      6  C   UNL     1      18.263  -1.565  35.953  1.00  0.00     0.041 C 
ATOM      7  O   UNL     1      17.492  -1.628  36.945  1.00  0.00    -0.550 OA
ATOM      8  O   UNL     1      19.457  -0.863  36.051  1.00  0.00    -0.550 OA
ENDBRANCH   5   6
ENDBRANCH   4   5
ENDBRANCH   3   4
ENDBRANCH   2   3
ENDBRANCH   1   2
BRANCH   1   9
ATOM      9  C   UNL     1      17.855  -7.673  32.984  1.00  0.00     0.000 C 
BRANCH   9  10
ATOM     10  C   UNL     1      16.367  -7.725  33.377  1.00  0.00    -0.000 C 
BRANCH  10  11
ATOM     11  C   UNL     1      16.032  -7.105  34.748  1.00  0.00    -0.000 C 
BRANCH  11  12
ATOM     12  C   UNL     1      15.197  -5.814  34.695  1.00  0.00    -0.000 C 
BRANCH  12  13
ATOM     13  C   UNL     1      15.486  -4.867  35.867  1.00  0.00    -0.003 C 
ATOM     14  C   UNL     1      16.742  -5.295  36.622  1.00  0.00     0.004 C 
ENDBRANCH  12  13
ENDBRANCH  11  12
ENDBRANCH  10  11
ENDBRANCH   9  10
ENDBRANCH   1   9
TORSDOF 10
ENDMDL
MODEL 3
REMARK VINA RESULT:    -5.040      1.440      2.928
REMARK INTER + INTRA:          -9.344
REMARK INTER:                  -7.906
REMARK INTRA:                  -1.438
REMARK UNBOUND:                -1.357
REMARK SMILES CCCCCCCCCCCC(=O)[O-]
REMARK SMILES IDX 7 1 8 2 9 3 10 4 11 5 12 6 13 7 14 8 6 9 5 10 4 11 3 12 2 13
REMARK SMILES IDX 1 14
REMARK H PARENT
REMARK Flexibility Score: inf
ROOT
ATOM      1  C   UNL     1      10.466   4.164  21.272  1.00  0.00     0.000 C 
ENDROOT
BRANCH   1   2
ATOM      2  C   UNL     1       9.201   5.032  21.262  1.00  0.00     0.000 C 
BRANCH   2   3
ATOM      3  C   UNL     1       9.557   6.523  21.373  1.00  0.00     0.000 C 
BRANCH   3   4
ATOM      4  C   UNL     1      11.074   6.771  21.372  1.00  0.00     0.006 C 
BRANCH   4   5
ATOM      5  C   UNL     1      11.427   8.264  21.403  1.00  0.00     0.053 C 
BRANCH   5   6
ATOM      6  C   UNL     1      12.912   8.449  21.368  1.00  0.00     0.041 C 
ATOM      7  O   UNL     1      13.514   8.524  20.265  1.00  0.00    -0.550 OA
ATOM      8  O   UNL     1      13.623   8.587  22.553  1.00  0.00    -0.550 OA
ENDBRANCH   5   6
ENDBRANCH   4   5
ENDBRANCH   3   4
ENDBRANCH   2   3
ENDBRANCH   1   2
BRANCH   1   9
ATOM      9  C   UNL     1      10.220   2.826  20.557  1.00  0.00     0.000 C 
BRANCH   9  10
ATOM     10  C   UNL     1       9.543   2.996  19.186  1.00  0.00    -0.000 C 
BRANCH  10  11
ATOM     11  C   UNL     1      10.434   3.615  18.090  1.00  0.00    -0.000 C 
BRANCH  11  12
ATOM     12  C   UNL     1      10.046   5.042  17.662  1.00  0.00    -0.000 C 
BRANCH  12  13
ATOM     13  C   UNL     1      11.172   6.059  17.889  1.00  0.00    -0.003 C 
ATOM     14  C   UNL     1      12.471   5.362  18.286  1.00  0.00     0.004 C 
ENDBRANCH  12  13
ENDBRANCH  11  12
ENDBRANCH  10  11
ENDBRANCH   9  10
ENDBRANCH   1   9
TORSDOF 10
ENDMDL
MODEL 4
REMARK VINA RESULT:    -5.028     18.115     19.856
REMARK INTER + INTRA:          -9.325
REMARK INTER:                  -8.049
REMARK INTRA:                  -1.276
REMARK UNBOUND:                -1.357
REMARK SMILES CCCCCCCCCCCC(=O)[O-]
REMARK SMILES IDX 7 1 8 2 9 3 10 4 11 5 12 6 13 7 14 8 6 9 5 10 4 11 3 12 2 13
REMARK SMILES IDX 1 14
REMARK H PARENT
REMARK Flexibility Score: inf
ROOT
ATOM      1  C   UNL     1      16.414  -3.424  32.981  1.00  0.00     0.000 C 
ENDROOT
BRANCH   1   2
ATOM      2  C   UNL     1      17.010  -4.737  32.462  1.00  0.00     0.000 C 
BRANCH   2   3
ATOM      3  C   UNL     1      15.938  -5.836  32.387  1.00  0.00     0.000 C 
BRANCH   3   4
ATOM      4  C   UNL     1      16.387  -7.148  33.048  1.00  0.00     0.006 C 
BRANCH   4   5
ATOM      5  C   UNL     1      15.277  -8.208  33.071  1.00  0.00     0.053 C 
BRANCH   5   6
ATOM      6  C   UNL     1      15.519  -9.238  32.012  1.00  0.00     0.041 C 
ATOM      7  O   UNL     1      16.666  -9.371  31.510  1.00  0.00    -0.550 OA
ATOM      8  O   UNL     1      14.491 -10.082  31.616  1.00  0.00    -0.550 OA
ENDBRANCH   5   6
ENDBRANCH   4   5
ENDBRANCH   3   4
ENDBRANCH   2   3
ENDBRANCH   1   2
BRANCH   1   9
ATOM      9  C   UNL     1      17.417  -2.681  33.878  1.00  0.00     0.000 C 
BRANCH   9  10
ATOM     10  C   UNL     1      18.639  -3.541  34.248  1.00  0.00    -0.000 C 
BRANCH  10  11
ATOM     11  C   UNL     1      18.534  -4.278  35.598  1.00  0.00    -0.000 C 
BRANCH  11  12
ATOM     12  C   UNL     1      17.216  -4.058  36.362  1.00  0.00    -0.000 C 
BRANCH  12  13
ATOM     13  C   UNL     1      16.306  -5.294  36.349  1.00  0.00    -0.003 C 
ATOM     14  C   UNL     1      14.901  -4.936  35.872  1.00  0.00     0.004 C 
ENDBRANCH  12  13
ENDBRANCH  11  12
ENDBRANCH  10  11
ENDBRANCH   9  10
ENDBRANCH   1   9
TORSDOF 10
ENDMDL
MODEL 5
REMARK VINA RESULT:    -5.008      1.231      2.554
REMARK INTER + INTRA:          -9.292
REMARK INTER:                  -7.716
REMARK INTRA:                  -1.577
REMARK UNBOUND:                -1.357
REMARK SMILES CCCCCCCCCCCC(=O)[O-]
REMARK SMILES IDX 7 1 8 2 9 3 10 4 11 5 12 6 13 7 14 8 6 9 5 10 4 11 3 12 2 13
REMARK SMILES IDX 1 14
REMARK H PARENT
REMARK Flexibility Score: inf
ROOT
ATOM      1  C   UNL     1       8.442   6.342  18.320  1.00  0.00     0.000 C 
ENDROOT
BRANCH   1   2
ATOM      2  C   UNL     1       9.614   7.227  18.758  1.00  0.00     0.000 C 
BRANCH   2   3
ATOM      3  C   UNL     1      10.899   6.852  18.003  1.00  0.00     0.000 C 
BRANCH   3   4
ATOM      4  C   UNL     1      12.150   6.914  18.894  1.00  0.00     0.006 C 
BRANCH   4   5
ATOM      5  C   UNL     1      11.856   7.494  20.284  1.00  0.00     0.053 C 
BRANCH   5   6
ATOM      6  C   UNL     1      13.038   8.259  20.790  1.00  0.00     0.041 C 
ATOM      7  O   UNL     1      13.768   8.899  19.988  1.00  0.00    -0.550 OA
ATOM      8  O   UNL     1      13.305   8.305  22.152  1.00  0.00    -0.550 OA
ENDBRANCH   5   6
ENDBRANCH   4   5
ENDBRANCH   3   4
ENDBRANCH   2   3
ENDBRANCH   1   2
BRANCH   1   9
ATOM      9  C   UNL     1       7.907   5.514  19.499  1.00  0.00     0.000 C 
BRANCH   9  10
ATOM     10  C   UNL     1       8.754   5.673  20.774  1.00  0.00    -0.000 C 
BRANCH  10  11
ATOM     11  C   UNL     1       9.465   4.391  21.251  1.00  0.00    -0.000 C 
BRANCH  11  12
ATOM     12  C   UNL     1      10.619   3.912  20.352  1.00  0.00    -0.000 C 
BRANCH  12  13
ATOM     13  C   UNL     1      10.204   2.783  19.400  1.00  0.00    -0.003 C 
ATOM     14  C   UNL     1      10.456   3.171  17.945  1.00  0.00     0.004 C 
ENDBRANCH  12  13
ENDBRANCH  11  12
ENDBRANCH  10  11
ENDBRANCH   9  10
ENDBRANCH   1   9
TORSDOF 10
ENDMDL
MODEL 6
REMARK VINA RESULT:    -5.005     18.184     19.507
REMARK INTER + INTRA:          -9.288
REMARK INTER:                  -7.862
REMARK INTRA:                  -1.427
REMARK UNBOUND:                -1.357
REMARK SMILES CCCCCCCCCCCC(=O)[O-]
REMARK SMILES IDX 7 1 8 2 9 3 10 4 11 5 12 6 13 7 14 8 6 9 5 10 4 11 3 12 2 13
REMARK SMILES IDX 1 14
REMARK H PARENT
REMARK Flexibility Score: inf
ROOT
ATOM      1  C   UNL     1      18.669  -5.591  36.073  1.00  0.00     0.000 C 
ENDROOT
BRANCH   1   2
ATOM      2  C   UNL     1      18.912  -5.766  34.569  1.00  0.00     0.000 C 
BRANCH   2   3
ATOM      3  C   UNL     1      19.130  -4.406  33.887  1.00  0.00     0.000 C 
BRANCH   3   4
ATOM      4  C   UNL     1      19.349  -3.266  34.894  1.00  0.00     0.006 C 
BRANCH   4   5
ATOM      5  C   UNL     1      18.227  -2.220  34.853  1.00  0.00     0.053 C 
BRANCH   5   6
ATOM      6  C   UNL     1      18.322  -1.309  36.036  1.00  0.00     0.041 C 
ATOM      7  O   UNL     1      17.481  -1.394  36.969  1.00  0.00    -0.550 OA
ATOM      8  O   UNL     1      19.366  -0.398  36.131  1.00  0.00    -0.550 OA
ENDBRANCH   5   6
ENDBRANCH   4   5
ENDBRANCH   3   4
ENDBRANCH   2   3
ENDBRANCH   1   2
BRANCH   1   9
ATOM      9  C   UNL     1      17.254  -6.047  36.459  1.00  0.00     0.000 C 
BRANCH   9  10
ATOM     10  C   UNL     1      16.199  -4.942  36.273  1.00  0.00    -0.000 C 
BRANCH  10  11
ATOM     11  C   UNL     1      15.423  -4.995  34.942  1.00  0.00    -0.000 C 
BRANCH  11  12
ATOM     12  C   UNL     1      15.033  -6.407  34.470  1.00  0.00    -0.000 C 
BRANCH  12  13
ATOM     13  C   UNL     1      15.652  -6.774  33.114  1.00  0.00    -0.003 C 
ATOM     14  C   UNL     1      15.979  -5.524  32.302  1.00  0.00     0.004 C 
ENDBRANCH  12  13
ENDBRANCH  11  12
ENDBRANCH  10  11
ENDBRANCH   9  10
ENDBRANCH   1   9
TORSDOF 10
ENDMDL
MODEL 7
REMARK VINA RESULT:    -5.004     19.195     20.252
REMARK INTER + INTRA:          -9.287
REMARK INTER:                  -7.723
REMARK INTRA:                  -1.564
REMARK UNBOUND:                -1.357
REMARK SMILES CCCCCCCCCCCC(=O)[O-]
REMARK SMILES IDX 7 1 8 2 9 3 10 4 11 5 12 6 13 7 14 8 6 9 5 10 4 11 3 12 2 13
REMARK SMILES IDX 1 14
REMARK H PARENT
REMARK Flexibility Score: inf
ROOT
ATOM      1  C   UNL     1      16.683  -4.256  36.166  1.00  0.00     0.000 C 
ENDROOT
BRANCH   1   2
ATOM      2  C   UNL     1      15.537  -5.223  35.846  1.00  0.00     0.000 C 
BRANCH   2   3
ATOM      3  C   UNL     1      15.385  -5.413  34.329  1.00  0.00     0.000 C 
BRANCH   3   4
ATOM      4  C   UNL     1      15.312  -6.893  33.921  1.00  0.00     0.006 C 
BRANCH   4   5
ATOM      5  C   UNL     1      15.675  -7.118  32.448  1.00  0.00     0.053 C 
BRANCH   5   6
ATOM      6  C   UNL     1      15.946  -8.568  32.194  1.00  0.00     0.041 C 
ATOM      7  O   UNL     1      14.991  -9.384  32.107  1.00  0.00    -0.550 OA
ATOM      8  O   UNL     1      17.249  -9.009  32.004  1.00  0.00    -0.550 OA
ENDBRANCH   5   6
ENDBRANCH   4   5
ENDBRANCH   3   4
ENDBRANCH   2   3
ENDBRANCH   1   2
BRANCH   1   9
ATOM      9  C   UNL     1      17.057  -3.420  34.933  1.00  0.00     0.000 C 
BRANCH   9  10
ATOM     10  C   UNL     1      18.538  -2.999  34.922  1.00  0.00    -0.000 C 
BRANCH  10  11
ATOM     11  C   UNL     1      19.480  -3.943  34.148  1.00  0.00    -0.000 C 
BRANCH  11  12
ATOM     12  C   UNL     1      18.786  -4.875  33.139  1.00  0.00    -0.000 C 
BRANCH  12  13
ATOM     13  C   UNL     1      19.219  -6.340  33.285  1.00  0.00    -0.003 C 
ATOM     14  C   UNL     1      18.841  -6.891  34.658  1.00  0.00     0.004 C 
ENDBRANCH  12  13
ENDBRANCH  11  12
ENDBRANCH  10  11
ENDBRANCH   9  10
ENDBRANCH   1   9
TORSDOF 10
ENDMDL
MODEL 8
REMARK VINA RESULT:    -4.977     18.731     20.469
REMARK INTER + INTRA:          -9.244
REMARK INTER:                  -7.740
REMARK INTRA:                  -1.504
REMARK UNBOUND:                -1.357
REMARK SMILES CCCCCCCCCCCC(=O)[O-]
REMARK SMILES IDX 7 1 8 2 9 3 10 4 11 5 12 6 13 7 14 8 6 9 5 10 4 11 3 12 2 13
REMARK SMILES IDX 1 14
REMARK H PARENT
REMARK Flexibility Score: inf
ROOT
ATOM      1  C   UNL     1      17.349  -5.990  36.671  1.00  0.00     0.000 C 
ENDROOT
BRANCH   1   2
ATOM      2  C   UNL     1      17.222  -7.159  35.686  1.00  0.00     0.000 C 
BRANCH   2   3
ATOM      3  C   UNL     1      18.529  -7.363  34.904  1.00  0.00     0.000 C 
BRANCH   3   4
ATOM      4  C   UNL     1      18.290  -7.632  33.410  1.00  0.00     0.006 C 
BRANCH   4   5
ATOM      5  C   UNL     1      16.806  -7.840  33.079  1.00  0.00     0.053 C 
BRANCH   5   6
ATOM      6  C   UNL     1      16.658  -8.783  31.926  1.00  0.00     0.041 C 
ATOM      7  O   UNL     1      15.629  -8.739  31.201  1.00  0.00    -0.550 OA
ATOM      8  O   UNL     1      17.677  -9.677  31.623  1.00  0.00    -0.550 OA
ENDBRANCH   5   6
ENDBRANCH   4   5
ENDBRANCH   3   4
ENDBRANCH   2   3
ENDBRANCH   1   2
BRANCH   1   9
ATOM      9  C   UNL     1      16.302  -4.906  36.376  1.00  0.00     0.000 C 
BRANCH   9  10
ATOM     10  C   UNL     1      15.571  -5.128  35.039  1.00  0.00    -0.000 C 
BRANCH  10  11
ATOM     11  C   UNL     1      15.897  -4.099  33.938  1.00  0.00    -0.000 C 
BRANCH  11  12
ATOM     12  C   UNL     1      17.351  -4.122  33.433  1.00  0.00    -0.000 C 
BRANCH  12  13
ATOM     13  C   UNL     1      18.242  -3.088  34.135  1.00  0.00    -0.003 C 
ATOM     14  C   UNL     1      19.554  -3.717  34.597  1.00  0.00     0.004 C 
ENDBRANCH  12  13
ENDBRANCH  11  12
ENDBRANCH  10  11
ENDBRANCH   9  10
ENDBRANCH   1   9
TORSDOF 10
ENDMDL
MODEL 9
REMARK VINA RESULT:    -4.966      1.263      2.390
REMARK INTER + INTRA:          -9.226
REMARK INTER:                  -7.867
REMARK INTRA:                  -1.359
REMARK UNBOUND:                -1.357
REMARK SMILES CCCCCCCCCCCC(=O)[O-]
REMARK SMILES IDX 7 1 8 2 9 3 10 4 11 5 12 6 13 7 14 8 6 9 5 10 4 11 3 12 2 13
REMARK SMILES IDX 1 14
REMARK H PARENT
REMARK Flexibility Score: inf
ROOT
ATOM      1  C   UNL     1      10.428   2.940  19.909  1.00  0.00     0.000 C 
ENDROOT
BRANCH   1   2
ATOM      2  C   UNL     1      10.773   3.779  21.145  1.00  0.00     0.000 C 
BRANCH   2   3
ATOM      3  C   UNL     1      11.744   4.915  20.784  1.00  0.00     0.000 C 
BRANCH   3   4
ATOM      4  C   UNL     1      11.509   6.183  21.620  1.00  0.00     0.006 C 
BRANCH   4   5
ATOM      5  C   UNL     1      11.592   7.466  20.783  1.00  0.00     0.053 C 
BRANCH   5   6
ATOM      6  C   UNL     1      12.872   8.189  21.063  1.00  0.00     0.041 C 
ATOM      7  O   UNL     1      13.571   8.629  20.114  1.00  0.00    -0.550 OA
ATOM      8  O   UNL     1      13.268   8.419  22.375  1.00  0.00    -0.550 OA
ENDBRANCH   5   6
ENDBRANCH   4   5
ENDBRANCH   3   4
ENDBRANCH   2   3
ENDBRANCH   1   2
BRANCH   1   9
ATOM      9  C   UNL     1      11.015   3.568  18.636  1.00  0.00     0.000 C 
BRANCH   9  10
ATOM     10  C   UNL     1       9.933   4.093  17.675  1.00  0.00    -0.000 C 
BRANCH  10  11
ATOM     11  C   UNL     1       9.568   5.581  17.852  1.00  0.00    -0.000 C 
BRANCH  11  12
ATOM     12  C   UNL     1       8.107   5.852  18.250  1.00  0.00    -0.000 C 
BRANCH  12  13
ATOM     13  C   UNL     1       7.632   4.971  19.412  1.00  0.00    -0.003 C 
ATOM     14  C   UNL     1       7.833   5.672  20.753  1.00  0.00     0.004 C 
ENDBRANCH  12  13
ENDBRANCH  11  12
ENDBRANCH  10  11
ENDBRANCH   9  10
ENDBRANCH   1   9
TORSDOF 10
ENDMDL
