MODEL 1
REMARK VINA RESULT:    -5.754      0.000      0.000
REMARK INTER + INTRA:          -6.835
REMARK INTER:                  -6.764
REMARK INTRA:                  -0.072
REMARK UNBOUND:                -0.072
REMARK SMILES O=c1c(O)c(-c2ccc(O)c(O)c2)oc2cc(O)ccc12
REMARK SMILES IDX 5 1 3 2 2 3 1 4 21 5 15 6 14 7 16 8 17 9 19 10 20 11 6 12
REMARK SMILES IDX 7 13 8 14 9 15 13 16 11 17 10 18 12 20 4 22 18 24
REMARK H PARENT 10 19 12 21 4 23 18 25
REMARK Flexibility Score: inf
ROOT
ATOM      1  C   UNL     1      26.712  16.740  12.190  1.00  0.00     0.180 A 
ATOM      2  C   UNL     1      26.082  17.871  11.631  1.00  0.00     0.208 A 
ATOM      3  C   UNL     1      26.095  19.076  12.350  1.00  0.00     0.235 A 
ATOM      4  O   UNL     1      25.529  20.099  11.876  1.00  0.00    -0.285 OA
ATOM      5  C   UNL     1      26.748  19.133  13.591  1.00  0.00     0.069 A 
ATOM      6  C   UNL     1      27.376  17.963  14.071  1.00  0.00     0.142 A 
ATOM      7  O   UNL     1      27.333  16.840  13.364  1.00  0.00    -0.452 OA
ATOM      8  C   UNL     1      28.046  17.982  15.299  1.00  0.00     0.094 A 
ATOM      9  C   UNL     1      28.095  19.159  16.058  1.00  0.00     0.119 A 
ATOM     10  C   UNL     1      27.473  20.319  15.585  1.00  0.00     0.047 A 
ATOM     11  C   UNL     1      26.802  20.311  14.358  1.00  0.00     0.020 A 
ENDROOT
BRANCH   1  12
ATOM     12  C   UNL     1      26.726  15.428  11.504  1.00  0.00     0.025 A 
ATOM     13  C   UNL     1      27.946  14.761  11.313  1.00  0.00     0.016 A 
ATOM     14  C   UNL     1      27.981  13.513  10.686  1.00  0.00     0.051 A 
ATOM     15  C   UNL     1      26.797  12.906  10.254  1.00  0.00     0.157 A 
ATOM     16  C   UNL     1      25.534  14.807  11.087  1.00  0.00     0.062 A 
ATOM     17  C   UNL     1      25.567  13.553  10.459  1.00  0.00     0.158 A 
BRANCH  15  18
ATOM     18  O   UNL     1      26.863  11.661   9.629  1.00  0.00    -0.504 OA
ATOM     19  H   UNL     1      27.081  10.814  10.139  1.00  0.00     0.293 HD
ENDBRANCH  15  18
BRANCH  17  20
ATOM     20  O   UNL     1      24.382  12.947  10.043  1.00  0.00    -0.504 OA
ATOM     21  H   UNL     1      24.337  11.956   9.836  1.00  0.00     0.293 HD
ENDBRANCH  17  20
ENDBRANCH   1  12
BRANCH   2  22
ATOM     22  O   UNL     1      25.483  17.797  10.372  1.00  0.00    -0.502 OA
ATOM     23  H   UNL     1      25.692  17.056   9.714  1.00  0.00     0.293 HD
ENDBRANCH   2  22
BRANCH   9  24
ATOM     24  O   UNL     1      28.760  19.186  17.282  1.00  0.00    -0.508 OA
ATOM     25  H   UNL     1      29.756  19.355  17.340  1.00  0.00     0.293 HD
ENDBRANCH   9  24
TORSDOF 5
ENDMDL
MODEL 2
REMARK VINA RESULT:    -5.534      1.318      1.903
REMARK INTER + INTRA:          -6.576
REMARK INTER:                  -6.259
REMARK INTRA:                  -0.317
REMARK UNBOUND:                -0.072
REMARK SMILES O=c1c(O)c(-c2ccc(O)c(O)c2)oc2cc(O)ccc12
REMARK SMILES IDX 5 1 3 2 2 3 1 4 21 5 15 6 14 7 16 8 17 9 19 10 20 11 6 12
REMARK SMILES IDX 7 13 8 14 9 15 13 16 11 17 10 18 12 20 4 22 18 24
REMARK H PARENT 10 19 12 21 4 23 18 25
REMARK Flexibility Score: inf
ROOT
ATOM      1  C   UNL     1      27.405  16.772  12.644  1.00  0.00     0.180 A 
ATOM      2  C   UNL     1      27.649  18.015  12.023  1.00  0.00     0.208 A 
ATOM      3  C   UNL     1      28.007  19.112  12.823  1.00  0.00     0.235 A 
ATOM      4  O   UNL     1      28.220  20.236  12.291  1.00  0.00    -0.285 OA
ATOM      5  C   UNL     1      28.132  18.943  14.211  1.00  0.00     0.069 A 
ATOM      6  C   UNL     1      27.894  17.662  14.753  1.00  0.00     0.142 A 
ATOM      7  O   UNL     1      27.550  16.651  13.963  1.00  0.00    -0.452 OA
ATOM      8  C   UNL     1      28.019  17.451  16.130  1.00  0.00     0.094 A 
ATOM      9  C   UNL     1      28.378  18.509  16.976  1.00  0.00     0.119 A 
ATOM     10  C   UNL     1      28.613  19.780  16.441  1.00  0.00     0.047 A 
ATOM     11  C   UNL     1      28.493  20.001  15.066  1.00  0.00     0.020 A 
ENDROOT
BRANCH   1  12
ATOM     12  C   UNL     1      27.006  15.573  11.874  1.00  0.00     0.025 A 
ATOM     13  C   UNL     1      25.644  15.326  11.638  1.00  0.00     0.016 A 
ATOM     14  C   UNL     1      25.246  14.211  10.896  1.00  0.00     0.051 A 
ATOM     15  C   UNL     1      26.200  13.336  10.365  1.00  0.00     0.157 A 
ATOM     16  C   UNL     1      27.965  14.704  11.322  1.00  0.00     0.062 A 
ATOM     17  C   UNL     1      27.566  13.586  10.575  1.00  0.00     0.158 A 
BRANCH  15  18
ATOM     18  O   UNL     1      25.772  12.231   9.631  1.00  0.00    -0.504 OA
ATOM     19  H   UNL     1      25.916  11.282   9.953  1.00  0.00     0.293 HD
ENDBRANCH  15  18
BRANCH  17  20
ATOM     20  O   UNL     1      28.523  12.725  10.037  1.00  0.00    -0.504 OA
ATOM     21  H   UNL     1      28.961  12.912   9.143  1.00  0.00     0.293 HD
ENDBRANCH  17  20
ENDBRANCH   1  12
BRANCH   2  22
ATOM     22  O   UNL     1      27.565  18.140  10.635  1.00  0.00    -0.502 OA
ATOM     23  H   UNL     1      27.571  19.041  10.171  1.00  0.00     0.293 HD
ENDBRANCH   2  22
BRANCH   9  24
ATOM     24  O   UNL     1      28.503  18.308  18.349  1.00  0.00    -0.508 OA
ATOM     25  H   UNL     1      28.057  18.924  19.018  1.00  0.00     0.293 HD
ENDBRANCH   9  24
TORSDOF 5
ENDMDL
MODEL 3
REMARK VINA RESULT:    -5.173      1.069      1.245
REMARK INTER + INTRA:          -6.152
REMARK INTER:                  -5.925
REMARK INTRA:                  -0.227
REMARK UNBOUND:                -0.072
REMARK SMILES O=c1c(O)c(-c2ccc(O)c(O)c2)oc2cc(O)ccc12
REMARK SMILES IDX 5 1 3 2 2 3 1 4 21 5 15 6 14 7 16 8 17 9 19 10 20 11 6 12
REMARK SMILES IDX 7 13 8 14 9 15 13 16 11 17 10 18 12 20 4 22 18 24
REMARK H PARENT 10 19 12 21 4 23 18 25
REMARK Flexibility Score: inf
ROOT
ATOM      1  C   UNL     1      27.059  17.148  13.207  1.00  0.00     0.180 A 
ATOM      2  C   UNL     1      26.478  18.366  12.799  1.00  0.00     0.208 A 
ATOM      3  C   UNL     1      26.523  19.464  13.673  1.00  0.00     0.235 A 
ATOM      4  O   UNL     1      26.001  20.561  13.335  1.00  0.00    -0.285 OA
ATOM      5  C   UNL     1      27.159  19.329  14.918  1.00  0.00     0.069 A 
ATOM      6  C   UNL     1      27.738  18.083  15.242  1.00  0.00     0.142 A 
ATOM      7  O   UNL     1      27.665  17.067  14.390  1.00  0.00    -0.452 OA
ATOM      8  C   UNL     1      28.389  17.912  16.468  1.00  0.00     0.094 A 
ATOM      9  C   UNL     1      28.469  18.975  17.379  1.00  0.00     0.119 A 
ATOM     10  C   UNL     1      27.896  20.210  17.060  1.00  0.00     0.047 A 
ATOM     11  C   UNL     1      27.244  20.392  15.836  1.00  0.00     0.020 A 
ENDROOT
BRANCH   1  12
ATOM     12  C   UNL     1      27.036  15.941  12.351  1.00  0.00     0.025 A 
ATOM     13  C   UNL     1      28.241  15.436  11.836  1.00  0.00     0.016 A 
ATOM     14  C   UNL     1      28.245  14.286  11.043  1.00  0.00     0.051 A 
ATOM     15  C   UNL     1      27.050  13.614  10.764  1.00  0.00     0.157 A 
ATOM     16  C   UNL     1      25.838  15.252  12.088  1.00  0.00     0.062 A 
ATOM     17  C   UNL     1      25.841  14.096  11.292  1.00  0.00     0.158 A 
BRANCH  15  18
ATOM     18  O   UNL     1      27.086  12.471   9.968  1.00  0.00    -0.504 OA
ATOM     19  H   UNL     1      27.398  12.496   9.005  1.00  0.00     0.293 HD
ENDBRANCH  15  18
BRANCH  17  20
ATOM     20  O   UNL     1      24.649  13.423  11.030  1.00  0.00    -0.504 OA
ATOM     21  H   UNL     1      24.509  12.461  11.315  1.00  0.00     0.293 HD
ENDBRANCH  17  20
ENDBRANCH   1  12
BRANCH   2  22
ATOM     22  O   UNL     1      25.896  18.484  11.535  1.00  0.00    -0.502 OA
ATOM     23  H   UNL     1      26.160  19.212  10.882  1.00  0.00     0.293 HD
ENDBRANCH   2  22
BRANCH   9  24
ATOM     24  O   UNL     1      29.115  18.813  18.602  1.00  0.00    -0.508 OA
ATOM     25  H   UNL     1      28.610  18.537  19.436  1.00  0.00     0.293 HD
ENDBRANCH   9  24
TORSDOF 5
ENDMDL
MODEL 4
REMARK VINA RESULT:    -4.604      1.456      2.826
REMARK INTER + INTRA:          -5.484
REMARK INTER:                  -5.993
REMARK INTRA:                   0.510
REMARK UNBOUND:                -0.072
REMARK SMILES O=c1c(O)c(-c2ccc(O)c(O)c2)oc2cc(O)ccc12
REMARK SMILES IDX 5 1 3 2 2 3 1 4 21 5 15 6 14 7 16 8 17 9 19 10 20 11 6 12
REMARK SMILES IDX 7 13 8 14 9 15 13 16 11 17 10 18 12 20 4 22 18 24
REMARK H PARENT 10 19 12 21 4 23 18 25
REMARK Flexibility Score: inf
ROOT
ATOM      1  C   UNL     1      26.801  16.765  12.285  1.00  0.00     0.180 A 
ATOM      2  C   UNL     1      27.925  17.303  12.943  1.00  0.00     0.208 A 
ATOM      3  C   UNL     1      27.808  18.553  13.572  1.00  0.00     0.235 A 
ATOM      4  O   UNL     1      28.803  19.061  14.158  1.00  0.00    -0.285 OA
ATOM      5  C   UNL     1      26.575  19.225  13.547  1.00  0.00     0.069 A 
ATOM      6  C   UNL     1      25.490  18.608  12.888  1.00  0.00     0.142 A 
ATOM      7  O   UNL     1      25.646  17.428  12.298  1.00  0.00    -0.452 OA
ATOM      8  C   UNL     1      24.243  19.240  12.851  1.00  0.00     0.094 A 
ATOM      9  C   UNL     1      24.066  20.488  13.465  1.00  0.00     0.119 A 
ATOM     10  C   UNL     1      25.140  21.101  14.118  1.00  0.00     0.047 A 
ATOM     11  C   UNL     1      26.390  20.477  14.162  1.00  0.00     0.020 A 
ENDROOT
BRANCH   1  12
ATOM     12  C   UNL     1      26.849  15.462  11.584  1.00  0.00     0.025 A 
ATOM     13  C   UNL     1      28.086  14.826  11.392  1.00  0.00     0.016 A 
ATOM     14  C   UNL     1      28.153  13.587  10.751  1.00  0.00     0.051 A 
ATOM     15  C   UNL     1      26.986  12.957  10.306  1.00  0.00     0.157 A 
ATOM     16  C   UNL     1      25.675  14.818  11.154  1.00  0.00     0.062 A 
ATOM     17  C   UNL     1      25.740  13.572  10.512  1.00  0.00     0.158 A 
BRANCH  15  18
ATOM     18  O   UNL     1      27.084  11.722   9.667  1.00  0.00    -0.504 OA
ATOM     19  H   UNL     1      27.973  11.340   9.367  1.00  0.00     0.293 HD
ENDBRANCH  15  18
BRANCH  17  20
ATOM     20  O   UNL     1      24.572  12.943  10.083  1.00  0.00    -0.504 OA
ATOM     21  H   UNL     1      23.748  12.895  10.671  1.00  0.00     0.293 HD
ENDBRANCH  17  20
ENDBRANCH   1  12
BRANCH   2  22
ATOM     22  O   UNL     1      29.125  16.590  12.993  1.00  0.00    -0.502 OA
ATOM     23  H   UNL     1      29.860  16.811  13.653  1.00  0.00     0.293 HD
ENDBRANCH   2  22
BRANCH   9  24
ATOM     24  O   UNL     1      22.827  21.125  13.432  1.00  0.00    -0.508 OA
ATOM     25  H   UNL     1      22.597  21.798  12.711  1.00  0.00     0.293 HD
ENDBRANCH   9  24
TORSDOF 5
ENDMDL
MODEL 5
REMARK VINA RESULT:    -4.409      2.000      6.834
REMARK INTER + INTRA:          -5.254
REMARK INTER:                  -5.443
REMARK INTRA:                   0.188
REMARK UNBOUND:                -0.072
REMARK SMILES O=c1c(O)c(-c2ccc(O)c(O)c2)oc2cc(O)ccc12
REMARK SMILES IDX 5 1 3 2 2 3 1 4 21 5 15 6 14 7 16 8 17 9 19 10 20 11 6 12
REMARK SMILES IDX 7 13 8 14 9 15 13 16 11 17 10 18 12 20 4 22 18 24
REMARK H PARENT 10 19 12 21 4 23 18 25
REMARK Flexibility Score: inf
ROOT
ATOM      1  C   UNL     1      27.693  18.080  14.518  1.00  0.00     0.180 A 
ATOM      2  C   UNL     1      28.064  18.912  13.442  1.00  0.00     0.208 A 
ATOM      3  C   UNL     1      27.689  18.543  12.141  1.00  0.00     0.235 A 
ATOM      4  O   UNL     1      28.018  19.265  11.160  1.00  0.00    -0.285 OA
ATOM      5  C   UNL     1      26.940  17.372  11.944  1.00  0.00     0.069 A 
ATOM      6  C   UNL     1      26.588  16.605  13.076  1.00  0.00     0.142 A 
ATOM      7  O   UNL     1      26.970  16.985  14.290  1.00  0.00    -0.452 OA
ATOM      8  C   UNL     1      25.834  15.437  12.922  1.00  0.00     0.094 A 
ATOM      9  C   UNL     1      25.427  15.022  11.647  1.00  0.00     0.119 A 
ATOM     10  C   UNL     1      25.777  15.779  10.523  1.00  0.00     0.047 A 
ATOM     11  C   UNL     1      26.528  16.949  10.667  1.00  0.00     0.020 A 
ENDROOT
BRANCH   1  12
ATOM     12  C   UNL     1      28.066  18.390  15.916  1.00  0.00     0.025 A 
ATOM     13  C   UNL     1      28.001  19.717  16.371  1.00  0.00     0.016 A 
ATOM     14  C   UNL     1      28.329  20.030  17.693  1.00  0.00     0.051 A 
ATOM     15  C   UNL     1      28.711  19.022  18.584  1.00  0.00     0.157 A 
ATOM     16  C   UNL     1      28.430  17.375  16.820  1.00  0.00     0.062 A 
ATOM     17  C   UNL     1      28.758  17.687  18.147  1.00  0.00     0.158 A 
BRANCH  15  18
ATOM     18  O   UNL     1      29.035  19.364  19.896  1.00  0.00    -0.504 OA
ATOM     19  H   UNL     1      29.984  19.322  20.244  1.00  0.00     0.293 HD
ENDBRANCH  15  18
BRANCH  17  20
ATOM     20  O   UNL     1      29.124  16.676  19.035  1.00  0.00    -0.504 OA
ATOM     21  H   UNL     1      28.805  16.672  19.997  1.00  0.00     0.293 HD
ENDBRANCH  17  20
ENDBRANCH   1  12
BRANCH   2  22
ATOM     22  O   UNL     1      28.766  20.097  13.673  1.00  0.00    -0.502 OA
ATOM     23  H   UNL     1      28.411  20.829  14.276  1.00  0.00     0.293 HD
ENDBRANCH   2  22
BRANCH   9  24
ATOM     24  O   UNL     1      24.677  13.860  11.485  1.00  0.00    -0.508 OA
ATOM     25  H   UNL     1      24.817  13.052  12.079  1.00  0.00     0.293 HD
ENDBRANCH   9  24
TORSDOF 5
ENDMDL
MODEL 6
REMARK VINA RESULT:    -4.148      2.371      4.331
REMARK INTER + INTRA:          -4.947
REMARK INTER:                  -5.062
REMARK INTRA:                   0.115
REMARK UNBOUND:                -0.072
REMARK SMILES O=c1c(O)c(-c2ccc(O)c(O)c2)oc2cc(O)ccc12
REMARK SMILES IDX 5 1 3 2 2 3 1 4 21 5 15 6 14 7 16 8 17 9 19 10 20 11 6 12
REMARK SMILES IDX 7 13 8 14 9 15 13 16 11 17 10 18 12 20 4 22 18 24
REMARK H PARENT 10 19 12 21 4 23 18 25
REMARK Flexibility Score: inf
ROOT
ATOM      1  C   UNL     1      27.777  18.210  14.949  1.00  0.00     0.180 A 
ATOM      2  C   UNL     1      28.064  19.563  15.226  1.00  0.00     0.208 A 
ATOM      3  C   UNL     1      28.450  19.920  16.527  1.00  0.00     0.235 A 
ATOM      4  O   UNL     1      28.701  21.125  16.802  1.00  0.00    -0.285 OA
ATOM      5  C   UNL     1      28.559  18.925  17.512  1.00  0.00     0.069 A 
ATOM      6  C   UNL     1      28.278  17.590  17.149  1.00  0.00     0.142 A 
ATOM      7  O   UNL     1      27.908  17.296  15.908  1.00  0.00    -0.452 OA
ATOM      8  C   UNL     1      28.386  16.570  18.099  1.00  0.00     0.094 A 
ATOM      9  C   UNL     1      28.771  16.867  19.414  1.00  0.00     0.119 A 
ATOM     10  C   UNL     1      29.050  18.189  19.776  1.00  0.00     0.047 A 
ATOM     11  C   UNL     1      28.947  19.216  18.833  1.00  0.00     0.020 A 
ENDROOT
BRANCH   1  12
ATOM     12  C   UNL     1      27.346  17.757  13.607  1.00  0.00     0.025 A 
ATOM     13  C   UNL     1      26.392  18.505  12.898  1.00  0.00     0.016 A 
ATOM     14  C   UNL     1      25.986  18.107  11.622  1.00  0.00     0.051 A 
ATOM     15  C   UNL     1      26.536  16.965  11.029  1.00  0.00     0.157 A 
ATOM     16  C   UNL     1      27.913  16.621  13.001  1.00  0.00     0.062 A 
ATOM     17  C   UNL     1      27.508  16.221  11.719  1.00  0.00     0.158 A 
BRANCH  15  18
ATOM     18  O   UNL     1      26.110  16.591   9.756  1.00  0.00    -0.504 OA
ATOM     19  H   UNL     1      25.718  17.258   9.102  1.00  0.00     0.293 HD
ENDBRANCH  15  18
BRANCH  17  20
ATOM     20  O   UNL     1      28.070  15.090  11.127  1.00  0.00    -0.504 OA
ATOM     21  H   UNL     1      28.723  15.164  10.356  1.00  0.00     0.293 HD
ENDBRANCH  17  20
ENDBRANCH   1  12
BRANCH   2  22
ATOM     22  O   UNL     1      27.993  20.523  14.214  1.00  0.00    -0.502 OA
ATOM     23  H   UNL     1      28.819  20.962  13.825  1.00  0.00     0.293 HD
ENDBRANCH   2  22
BRANCH   9  24
ATOM     24  O   UNL     1      28.881  15.856  20.366  1.00  0.00    -0.508 OA
ATOM     25  H   UNL     1      29.493  15.062  20.228  1.00  0.00     0.293 HD
ENDBRANCH   9  24
TORSDOF 5
ENDMDL
MODEL 7
REMARK VINA RESULT:    -4.026      2.206      6.942
REMARK INTER + INTRA:          -4.804
REMARK INTER:                  -4.768
REMARK INTRA:                  -0.036
REMARK UNBOUND:                -0.072
REMARK SMILES O=c1c(O)c(-c2ccc(O)c(O)c2)oc2cc(O)ccc12
REMARK SMILES IDX 5 1 3 2 2 3 1 4 21 5 15 6 14 7 16 8 17 9 19 10 20 11 6 12
REMARK SMILES IDX 7 13 8 14 9 15 13 16 11 17 10 18 12 20 4 22 18 24
REMARK H PARENT 10 19 12 21 4 23 18 25
REMARK Flexibility Score: inf
ROOT
ATOM      1  C   UNL     1      27.918  17.858  15.197  1.00  0.00     0.180 A 
ATOM      2  C   UNL     1      28.398  18.897  14.373  1.00  0.00     0.208 A 
ATOM      3  C   UNL     1      28.108  18.861  13.000  1.00  0.00     0.235 A 
ATOM      4  O   UNL     1      28.536  19.773  12.241  1.00  0.00    -0.285 OA
ATOM      5  C   UNL     1      27.334  17.809  12.486  1.00  0.00     0.069 A 
ATOM      6  C   UNL     1      26.870  16.820  13.380  1.00  0.00     0.142 A 
ATOM      7  O   UNL     1      27.174  16.886  14.671  1.00  0.00    -0.452 OA
ATOM      8  C   UNL     1      26.087  15.762  12.907  1.00  0.00     0.094 A 
ATOM      9  C   UNL     1      25.763  15.677  11.547  1.00  0.00     0.119 A 
ATOM     10  C   UNL     1      26.222  16.655  10.658  1.00  0.00     0.047 A 
ATOM     11  C   UNL     1      27.004  17.718  11.121  1.00  0.00     0.020 A 
ENDROOT
BRANCH   1  12
ATOM     12  C   UNL     1      28.196  17.814  16.650  1.00  0.00     0.025 A 
ATOM     13  C   UNL     1      28.834  16.689  17.197  1.00  0.00     0.016 A 
ATOM     14  C   UNL     1      29.125  16.635  18.563  1.00  0.00     0.051 A 
ATOM     15  C   UNL     1      28.798  17.708  19.399  1.00  0.00     0.157 A 
ATOM     16  C   UNL     1      27.887  18.901  17.488  1.00  0.00     0.062 A 
ATOM     17  C   UNL     1      28.180  18.848  18.859  1.00  0.00     0.158 A 
BRANCH  15  18
ATOM     18  O   UNL     1      29.099  17.624  20.758  1.00  0.00    -0.504 OA
ATOM     19  H   UNL     1      29.005  18.418  21.379  1.00  0.00     0.293 HD
ENDBRANCH  15  18
BRANCH  17  20
ATOM     20  O   UNL     1      27.865  19.927  19.685  1.00  0.00    -0.504 OA
ATOM     21  H   UNL     1      28.585  20.477  20.138  1.00  0.00     0.293 HD
ENDBRANCH  17  20
ENDBRANCH   1  12
BRANCH   2  22
ATOM     22  O   UNL     1      29.124  19.956  14.922  1.00  0.00    -0.502 OA
ATOM     23  H   UNL     1      29.435  20.745  14.368  1.00  0.00     0.293 HD
ENDBRANCH   2  22
BRANCH   9  24
ATOM     24  O   UNL     1      24.984  14.626  11.067  1.00  0.00    -0.508 OA
ATOM     25  H   UNL     1      24.665  14.598  10.106  1.00  0.00     0.293 HD
ENDBRANCH   9  24
TORSDOF 5
ENDMDL
MODEL 8
REMARK VINA RESULT:    -3.947      3.822      6.356
REMARK INTER + INTRA:          -4.711
REMARK INTER:                  -4.476
REMARK INTRA:                  -0.234
REMARK UNBOUND:                -0.072
REMARK SMILES O=c1c(O)c(-c2ccc(O)c(O)c2)oc2cc(O)ccc12
REMARK SMILES IDX 5 1 3 2 2 3 1 4 21 5 15 6 14 7 16 8 17 9 19 10 20 11 6 12
REMARK SMILES IDX 7 13 8 14 9 15 13 16 11 17 10 18 12 20 4 22 18 24
REMARK H PARENT 10 19 12 21 4 23 18 25
REMARK Flexibility Score: inf
ROOT
ATOM      1  C   UNL     1      28.159  17.233  17.076  1.00  0.00     0.180 A 
ATOM      2  C   UNL     1      28.011  18.278  18.011  1.00  0.00     0.208 A 
ATOM      3  C   UNL     1      28.097  17.978  19.380  1.00  0.00     0.235 A 
ATOM      4  O   UNL     1      27.957  18.894  20.236  1.00  0.00    -0.285 OA
ATOM      5  C   UNL     1      28.346  16.657  19.782  1.00  0.00     0.069 A 
ATOM      6  C   UNL     1      28.506  15.672  18.784  1.00  0.00     0.142 A 
ATOM      7  O   UNL     1      28.409  15.996  17.500  1.00  0.00    -0.452 OA
ATOM      8  C   UNL     1      28.765  14.346  19.145  1.00  0.00     0.094 A 
ATOM      9  C   UNL     1      28.866  13.989  20.497  1.00  0.00     0.119 A 
ATOM     10  C   UNL     1      28.707  14.963  21.488  1.00  0.00     0.047 A 
ATOM     11  C   UNL     1      28.449  16.292  21.138  1.00  0.00     0.020 A 
ENDROOT
BRANCH   1  12
ATOM     12  C   UNL     1      28.063  17.464  15.617  1.00  0.00     0.025 A 
ATOM     13  C   UNL     1      29.125  18.092  14.946  1.00  0.00     0.016 A 
ATOM     14  C   UNL     1      29.065  18.302  13.566  1.00  0.00     0.051 A 
ATOM     15  C   UNL     1      27.952  17.875  12.833  1.00  0.00     0.157 A 
ATOM     16  C   UNL     1      26.955  17.017  14.875  1.00  0.00     0.062 A 
ATOM     17  C   UNL     1      26.894  17.226  13.490  1.00  0.00     0.158 A 
BRANCH  15  18
ATOM     18  O   UNL     1      27.920  18.101  11.458  1.00  0.00    -0.504 OA
ATOM     19  H   UNL     1      28.737  18.404  10.943  1.00  0.00     0.293 HD
ENDBRANCH  15  18
BRANCH  17  20
ATOM     20  O   UNL     1      25.788  16.786  12.763  1.00  0.00    -0.504 OA
ATOM     21  H   UNL     1      25.191  16.041  13.103  1.00  0.00     0.293 HD
ENDBRANCH  17  20
ENDBRANCH   1  12
BRANCH   2  22
ATOM     22  O   UNL     1      27.813  19.591  17.579  1.00  0.00    -0.502 OA
ATOM     23  H   UNL     1      27.108  19.836  16.895  1.00  0.00     0.293 HD
ENDBRANCH   2  22
BRANCH   9  24
ATOM     24  O   UNL     1      29.124  12.670  20.865  1.00  0.00    -0.508 OA
ATOM     25  H   UNL     1      29.807  12.443  21.577  1.00  0.00     0.293 HD
ENDBRANCH   9  24
TORSDOF 5
ENDMDL
MODEL 9
REMARK VINA RESULT:    -3.862      2.347      6.650
REMARK INTER + INTRA:          -4.611
REMARK INTER:                  -4.675
REMARK INTRA:                   0.064
REMARK UNBOUND:                -0.072
REMARK SMILES O=c1c(O)c(-c2ccc(O)c(O)c2)oc2cc(O)ccc12
REMARK SMILES IDX 5 1 3 2 2 3 1 4 21 5 15 6 14 7 16 8 17 9 19 10 20 11 6 12
REMARK SMILES IDX 7 13 8 14 9 15 13 16 11 17 10 18 12 20 4 22 18 24
REMARK H PARENT 10 19 12 21 4 23 18 25
REMARK Flexibility Score: inf
ROOT
ATOM      1  C   UNL     1      27.163  18.340  13.093  1.00  0.00     0.180 A 
ATOM      2  C   UNL     1      26.452  17.161  12.791  1.00  0.00     0.208 A 
ATOM      3  C   UNL     1      26.090  16.911  11.458  1.00  0.00     0.235 A 
ATOM      4  O   UNL     1      25.444  15.868  11.165  1.00  0.00    -0.285 OA
ATOM      5  C   UNL     1      26.461  17.825  10.460  1.00  0.00     0.069 A 
ATOM      6  C   UNL     1      27.194  18.970  10.839  1.00  0.00     0.142 A 
ATOM      7  O   UNL     1      27.508  19.174  12.113  1.00  0.00    -0.452 OA
ATOM      8  C   UNL     1      27.590  19.900   9.872  1.00  0.00     0.094 A 
ATOM      9  C   UNL     1      27.261  19.699   8.525  1.00  0.00     0.119 A 
ATOM     10  C   UNL     1      26.534  18.566   8.146  1.00  0.00     0.047 A 
ATOM     11  C   UNL     1      26.134  17.630   9.105  1.00  0.00     0.020 A 
ENDROOT
BRANCH   1  12
ATOM     12  C   UNL     1      27.565  18.685  14.475  1.00  0.00     0.025 A 
ATOM     13  C   UNL     1      27.287  19.967  14.976  1.00  0.00     0.016 A 
ATOM     14  C   UNL     1      27.639  20.307  16.285  1.00  0.00     0.051 A 
ATOM     15  C   UNL     1      28.258  19.369  17.118  1.00  0.00     0.157 A 
ATOM     16  C   UNL     1      28.168  17.736  15.321  1.00  0.00     0.062 A 
ATOM     17  C   UNL     1      28.520  18.076  16.636  1.00  0.00     0.158 A 
BRANCH  15  18
ATOM     18  O   UNL     1      28.599  19.738  18.418  1.00  0.00    -0.504 OA
ATOM     19  H   UNL     1      28.013  20.347  18.976  1.00  0.00     0.293 HD
ENDBRANCH  15  18
BRANCH  17  20
ATOM     20  O   UNL     1      29.124  17.131  17.466  1.00  0.00    -0.504 OA
ATOM     21  H   UNL     1      29.158  17.253  18.471  1.00  0.00     0.293 HD
ENDBRANCH  17  20
ENDBRANCH   1  12
BRANCH   2  22
ATOM     22  O   UNL     1      26.140  16.245  13.799  1.00  0.00    -0.502 OA
ATOM     23  H   UNL     1      26.191  15.244  13.657  1.00  0.00     0.293 HD
ENDBRANCH   2  22
BRANCH   9  24
ATOM     24  O   UNL     1      27.651  20.620   7.555  1.00  0.00    -0.508 OA
ATOM     25  H   UNL     1      28.401  21.281   7.723  1.00  0.00     0.293 HD
ENDBRANCH   9  24
TORSDOF 5
ENDMDL
