MODEL 1
REMARK VINA RESULT:    -5.138      0.000      0.000
REMARK INTER + INTRA:          -5.806
REMARK INTER:                  -5.589
REMARK INTRA:                  -0.217
REMARK UNBOUND:                -0.217
REMARK SMILES O=C([O-])c1ccccc1O
REMARK SMILES IDX 4 1 9 2 5 3 8 4 6 5 7 6 2 7 1 8 3 9 10 10
REMARK H PARENT 10 11
REMARK Flexibility Score: inf
ROOT
ATOM      1  C   UNL     1       2.465  13.191   4.355  1.00  0.00     0.039 A 
ATOM      2  C   UNL     1       1.159  13.355   3.824  1.00  0.00     0.124 A 
ATOM      3  C   UNL     1       2.654  13.321   5.744  1.00  0.00     0.014 A 
ATOM      4  C   UNL     1       0.082  13.578   4.690  1.00  0.00     0.047 A 
ATOM      5  C   UNL     1       1.572  13.565   6.592  1.00  0.00     0.001 A 
ATOM      6  C   UNL     1       0.286  13.683   6.066  1.00  0.00     0.004 A 
ENDROOT
BRANCH   1   7
ATOM      7  C   UNL     1       3.629  12.851   3.509  1.00  0.00     0.075 C 
ATOM      8  O   UNL     1       3.619  11.802   2.812  1.00  0.00    -0.545 OA
ATOM      9  O   UNL     1       4.717  13.710   3.417  1.00  0.00    -0.545 OA
ENDBRANCH   1   7
BRANCH   2  10
ATOM     10  O   UNL     1       0.899  13.339   2.451  1.00  0.00    -0.507 OA
ATOM     11  H   UNL     1       0.044  13.691   2.044  1.00  0.00     0.293 HD
ENDBRANCH   2  10
TORSDOF 2
ENDMDL
MODEL 2
REMARK VINA RESULT:    -5.077      2.605      4.199
REMARK INTER + INTRA:          -5.740
REMARK INTER:                  -5.528
REMARK INTRA:                  -0.212
REMARK UNBOUND:                -0.217
REMARK SMILES O=C([O-])c1ccccc1O
REMARK SMILES IDX 4 1 9 2 5 3 8 4 6 5 7 6 2 7 1 8 3 9 10 10
REMARK H PARENT 10 11
REMARK Flexibility Score: inf
ROOT
ATOM      1  C   UNL     1       1.110  13.433   5.371  1.00  0.00     0.039 A 
ATOM      2  C   UNL     1       2.411  13.512   5.932  1.00  0.00     0.124 A 
ATOM      3  C   UNL     1       0.968  13.479   3.971  1.00  0.00     0.014 A 
ATOM      4  C   UNL     1       3.526  13.569   5.087  1.00  0.00     0.047 A 
ATOM      5  C   UNL     1       2.090  13.558   3.143  1.00  0.00     0.001 A 
ATOM      6  C   UNL     1       3.368  13.594   3.701  1.00  0.00     0.004 A 
ENDROOT
BRANCH   1   7
ATOM      7  C   UNL     1      -0.103  13.265   6.201  1.00  0.00     0.075 C 
ATOM      8  O   UNL     1      -0.219  12.262   6.955  1.00  0.00    -0.545 OA
ATOM      9  O   UNL     1      -1.096  14.237   6.216  1.00  0.00    -0.545 OA
ENDBRANCH   1   7
BRANCH   2  10
ATOM     10  O   UNL     1       2.634  13.571   7.309  1.00  0.00    -0.507 OA
ATOM     11  H   UNL     1       3.493  13.908   7.719  1.00  0.00     0.293 HD
ENDBRANCH   2  10
TORSDOF 2
ENDMDL
MODEL 3
REMARK VINA RESULT:    -5.047      1.306      2.255
REMARK INTER + INTRA:          -5.707
REMARK INTER:                  -5.456
REMARK INTRA:                  -0.251
REMARK UNBOUND:                -0.217
REMARK SMILES O=C([O-])c1ccccc1O
REMARK SMILES IDX 4 1 9 2 5 3 8 4 6 5 7 6 2 7 1 8 3 9 10 10
REMARK H PARENT 10 11
REMARK Flexibility Score: inf
ROOT
ATOM      1  C   UNL     1       2.409  12.929   4.765  1.00  0.00     0.039 A 
ATOM      2  C   UNL     1       2.466  13.511   6.057  1.00  0.00     0.124 A 
ATOM      3  C   UNL     1       1.229  12.275   4.365  1.00  0.00     0.014 A 
ATOM      4  C   UNL     1       1.334  13.480   6.881  1.00  0.00     0.047 A 
ATOM      5  C   UNL     1       0.116  12.234   5.207  1.00  0.00     0.001 A 
ATOM      6  C   UNL     1       0.165  12.844   6.460  1.00  0.00     0.004 A 
ENDROOT
BRANCH   1   7
ATOM      7  C   UNL     1       3.531  13.017   3.805  1.00  0.00     0.075 C 
ATOM      8  O   UNL     1       3.814  12.033   3.070  1.00  0.00    -0.545 OA
ATOM      9  O   UNL     1       4.244  14.200   3.650  1.00  0.00    -0.545 OA
ENDBRANCH   1   7
BRANCH   2  10
ATOM     10  O   UNL     1       3.628  14.093   6.570  1.00  0.00    -0.507 OA
ATOM     11  H   UNL     1       4.554  13.728   6.398  1.00  0.00     0.293 HD
ENDBRANCH   2  10
TORSDOF 2
ENDMDL
MODEL 4
REMARK VINA RESULT:    -4.957      1.259      2.505
REMARK INTER + INTRA:          -5.609
REMARK INTER:                  -5.411
REMARK INTRA:                  -0.198
REMARK UNBOUND:                -0.217
REMARK SMILES O=C([O-])c1ccccc1O
REMARK SMILES IDX 4 1 9 2 5 3 8 4 6 5 7 6 2 7 1 8 3 9 10 10
REMARK H PARENT 10 11
REMARK Flexibility Score: inf
ROOT
ATOM      1  C   UNL     1       1.968  13.774   3.615  1.00  0.00     0.039 A 
ATOM      2  C   UNL     1       3.098  13.550   4.444  1.00  0.00     0.124 A 
ATOM      3  C   UNL     1       0.689  13.804   4.202  1.00  0.00     0.014 A 
ATOM      4  C   UNL     1       2.928  13.429   5.828  1.00  0.00     0.047 A 
ATOM      5  C   UNL     1       0.535  13.660   5.583  1.00  0.00     0.001 A 
ATOM      6  C   UNL     1       1.654  13.482   6.395  1.00  0.00     0.004 A 
ENDROOT
BRANCH   1   7
ATOM      7  C   UNL     1       2.086  14.014   2.160  1.00  0.00     0.075 C 
ATOM      8  O   UNL     1       1.441  13.300   1.347  1.00  0.00    -0.545 OA
ATOM      9  O   UNL     1       2.851  15.067   1.673  1.00  0.00    -0.545 OA
ENDBRANCH   1   7
BRANCH   2  10
ATOM     10  O   UNL     1       4.390  13.408   3.931  1.00  0.00    -0.507 OA
ATOM     11  H   UNL     1       5.175  13.096   4.484  1.00  0.00     0.293 HD
ENDBRANCH   2  10
TORSDOF 2
ENDMDL
MODEL 5
REMARK VINA RESULT:    -4.923      0.832      1.050
REMARK INTER + INTRA:          -5.572
REMARK INTER:                  -5.328
REMARK INTRA:                  -0.244
REMARK UNBOUND:                -0.217
REMARK SMILES O=C([O-])c1ccccc1O
REMARK SMILES IDX 4 1 9 2 5 3 8 4 6 5 7 6 2 7 1 8 3 9 10 10
REMARK H PARENT 10 11
REMARK Flexibility Score: inf
ROOT
ATOM      1  C   UNL     1       2.231  13.540   4.460  1.00  0.00     0.039 A 
ATOM      2  C   UNL     1       0.852  13.542   4.125  1.00  0.00     0.124 A 
ATOM      3  C   UNL     1       2.601  13.448   5.815  1.00  0.00     0.014 A 
ATOM      4  C   UNL     1      -0.106  13.390   5.134  1.00  0.00     0.047 A 
ATOM      5  C   UNL     1       1.632  13.318   6.812  1.00  0.00     0.001 A 
ATOM      6  C   UNL     1       0.280  13.280   6.471  1.00  0.00     0.004 A 
ENDROOT
BRANCH   1   7
ATOM      7  C   UNL     1       3.296  13.592   3.435  1.00  0.00     0.075 C 
ATOM      8  O   UNL     1       3.295  14.507   2.568  1.00  0.00    -0.545 OA
ATOM      9  O   UNL     1       4.346  12.682   3.453  1.00  0.00    -0.545 OA
ENDBRANCH   1   7
BRANCH   2  10
ATOM     10  O   UNL     1       0.396  13.728   2.817  1.00  0.00    -0.507 OA
ATOM     11  H   UNL     1       0.504  13.036   2.089  1.00  0.00     0.293 HD
ENDBRANCH   2  10
TORSDOF 2
ENDMDL
MODEL 6
REMARK VINA RESULT:    -4.828      2.386      3.667
REMARK INTER + INTRA:          -5.469
REMARK INTER:                  -5.232
REMARK INTRA:                  -0.237
REMARK UNBOUND:                -0.217
REMARK SMILES O=C([O-])c1ccccc1O
REMARK SMILES IDX 4 1 9 2 5 3 8 4 6 5 7 6 2 7 1 8 3 9 10 10
REMARK H PARENT 10 11
REMARK Flexibility Score: inf
ROOT
ATOM      1  C   UNL     1       0.978  13.426   5.168  1.00  0.00     0.039 A 
ATOM      2  C   UNL     1       0.768  13.731   3.798  1.00  0.00     0.124 A 
ATOM      3  C   UNL     1       2.295  13.240   5.629  1.00  0.00     0.014 A 
ATOM      4  C   UNL     1       1.868  13.901   2.949  1.00  0.00     0.047 A 
ATOM      5  C   UNL     1       3.381  13.392   4.764  1.00  0.00     0.001 A 
ATOM      6  C   UNL     1       3.168  13.732   3.428  1.00  0.00     0.004 A 
ENDROOT
BRANCH   1   7
ATOM      7  C   UNL     1      -0.133  13.336   6.140  1.00  0.00     0.075 C 
ATOM      8  O   UNL     1      -0.963  14.279   6.242  1.00  0.00    -0.545 OA
ATOM      9  O   UNL     1      -0.318  12.190   6.904  1.00  0.00    -0.545 OA
ENDBRANCH   1   7
BRANCH   2  10
ATOM     10  O   UNL     1      -0.508  13.835   3.239  1.00  0.00    -0.507 OA
ATOM     11  H   UNL     1      -1.303  13.306   3.566  1.00  0.00     0.293 HD
ENDBRANCH   2  10
TORSDOF 2
ENDMDL
MODEL 7
REMARK VINA RESULT:    -4.729      2.299      3.734
REMARK INTER + INTRA:          -5.361
REMARK INTER:                  -5.126
REMARK INTRA:                  -0.235
REMARK UNBOUND:                -0.217
REMARK SMILES O=C([O-])c1ccccc1O
REMARK SMILES IDX 4 1 9 2 5 3 8 4 6 5 7 6 2 7 1 8 3 9 10 10
REMARK H PARENT 10 11
REMARK Flexibility Score: inf
ROOT
ATOM      1  C   UNL     1       1.392  13.556   4.817  1.00  0.00     0.039 A 
ATOM      2  C   UNL     1       2.627  13.649   4.124  1.00  0.00     0.124 A 
ATOM      3  C   UNL     1       0.203  13.865   4.132  1.00  0.00     0.014 A 
ATOM      4  C   UNL     1       2.634  13.983   2.764  1.00  0.00     0.047 A 
ATOM      5  C   UNL     1       0.229  14.217   2.780  1.00  0.00     0.001 A 
ATOM      6  C   UNL     1       1.442  14.266   2.095  1.00  0.00     0.004 A 
ENDROOT
BRANCH   1   7
ATOM      7  C   UNL     1       1.305  13.110   6.224  1.00  0.00     0.075 C 
ATOM      8  O   UNL     1       2.236  13.373   7.031  1.00  0.00    -0.545 OA
ATOM      9  O   UNL     1       0.172  12.456   6.694  1.00  0.00    -0.545 OA
ENDBRANCH   1   7
BRANCH   2  10
ATOM     10  O   UNL     1       3.859  13.456   4.753  1.00  0.00    -0.507 OA
ATOM     11  H   UNL     1       4.184  14.022   5.524  1.00  0.00     0.293 HD
ENDBRANCH   2  10
TORSDOF 2
ENDMDL
MODEL 8
REMARK VINA RESULT:    -4.687      2.170      3.706
REMARK INTER + INTRA:          -5.316
REMARK INTER:                  -5.071
REMARK INTRA:                  -0.245
REMARK UNBOUND:                -0.217
REMARK SMILES O=C([O-])c1ccccc1O
REMARK SMILES IDX 4 1 9 2 5 3 8 4 6 5 7 6 2 7 1 8 3 9 10 10
REMARK H PARENT 10 11
REMARK Flexibility Score: inf
ROOT
ATOM      1  C   UNL     1       2.386  13.673   3.121  1.00  0.00     0.039 A 
ATOM      2  C   UNL     1       3.548  14.477   2.983  1.00  0.00     0.124 A 
ATOM      3  C   UNL     1       1.209  14.060   2.453  1.00  0.00     0.014 A 
ATOM      4  C   UNL     1       3.520  15.596   2.142  1.00  0.00     0.047 A 
ATOM      5  C   UNL     1       1.192  15.192   1.635  1.00  0.00     0.001 A 
ATOM      6  C   UNL     1       2.350  15.953   1.472  1.00  0.00     0.004 A 
ENDROOT
BRANCH   1   7
ATOM      7  C   UNL     1       2.376  12.422   3.909  1.00  0.00     0.075 C 
ATOM      8  O   UNL     1       1.403  12.159   4.666  1.00  0.00    -0.545 OA
ATOM      9  O   UNL     1       3.398  11.490   3.778  1.00  0.00    -0.545 OA
ENDBRANCH   1   7
BRANCH   2  10
ATOM     10  O   UNL     1       4.727  14.220   3.687  1.00  0.00    -0.507 OA
ATOM     11  H   UNL     1       5.638  14.193   3.253  1.00  0.00     0.293 HD
ENDBRANCH   2  10
TORSDOF 2
ENDMDL
MODEL 9
REMARK VINA RESULT:    -4.549      1.969      2.836
REMARK INTER + INTRA:          -5.165
REMARK INTER:                  -4.913
REMARK INTRA:                  -0.252
REMARK UNBOUND:                -0.217
REMARK SMILES O=C([O-])c1ccccc1O
REMARK SMILES IDX 4 1 9 2 5 3 8 4 6 5 7 6 2 7 1 8 3 9 10 10
REMARK H PARENT 10 11
REMARK Flexibility Score: inf
ROOT
ATOM      1  C   UNL     1       1.662  13.693   2.992  1.00  0.00     0.039 A 
ATOM      2  C   UNL     1       0.829  13.492   4.123  1.00  0.00     0.124 A 
ATOM      3  C   UNL     1       3.057  13.749   3.176  1.00  0.00     0.014 A 
ATOM      4  C   UNL     1       1.408  13.291   5.382  1.00  0.00     0.047 A 
ATOM      5  C   UNL     1       3.617  13.568   4.442  1.00  0.00     0.001 A 
ATOM      6  C   UNL     1       2.794  13.329   5.542  1.00  0.00     0.004 A 
ENDROOT
BRANCH   1   7
ATOM      7  C   UNL     1       1.123  13.808   1.620  1.00  0.00     0.075 C 
ATOM      8  O   UNL     1       1.598  13.100   0.692  1.00  0.00    -0.545 OA
ATOM      9  O   UNL     1       0.046  14.642   1.346  1.00  0.00    -0.545 OA
ENDBRANCH   1   7
BRANCH   2  10
ATOM     10  O   UNL     1      -0.565  13.521   4.044  1.00  0.00    -0.507 OA
ATOM     11  H   UNL     1      -1.155  12.760   4.352  1.00  0.00     0.293 HD
ENDBRANCH   2  10
TORSDOF 2
ENDMDL
