MODEL 1
REMARK VINA RESULT:    -3.814      0.000      0.000
REMARK INTER + INTRA:          -4.579
REMARK INTER:                  -4.483
REMARK INTRA:                  -0.096
REMARK UNBOUND:                -0.096
REMARK SMILES O=C([O-])CCC(=O)[O-]
REMARK SMILES IDX 4 1 2 2 1 3 3 4 5 5 6 6 7 7 8 8
REMARK H PARENT
REMARK Flexibility Score: inf
ROOT
ATOM      1  C   UNL     1      18.338  -7.874  22.030  1.00  0.00     0.059 C 
ENDROOT
BRANCH   1   2
ATOM      2  C   UNL     1      18.117  -7.135  20.749  1.00  0.00     0.042 C 
ATOM      3  O   UNL     1      17.211  -7.499  19.954  1.00  0.00    -0.550 OA
ATOM      4  O   UNL     1      18.945  -6.073  20.409  1.00  0.00    -0.550 OA
ENDBRANCH   1   2
BRANCH   1   5
ATOM      5  C   UNL     1      19.802  -8.302  22.157  1.00  0.00     0.059 C 
BRANCH   5   6
ATOM      6  C   UNL     1      20.387  -7.794  23.436  1.00  0.00     0.042 C 
ATOM      7  O   UNL     1      21.470  -8.267  23.870  1.00  0.00    -0.550 OA
ATOM      8  O   UNL     1      19.760  -6.763  24.125  1.00  0.00    -0.550 OA
ENDBRANCH   5   6
ENDBRANCH   1   5
TORSDOF 3
ENDMDL
MODEL 2
REMARK VINA RESULT:    -3.730      0.029      4.001
REMARK INTER + INTRA:          -4.480
REMARK INTER:                  -4.382
REMARK INTRA:                  -0.098
REMARK UNBOUND:                -0.096
REMARK SMILES O=C([O-])CCC(=O)[O-]
REMARK SMILES IDX 4 1 2 2 1 3 3 4 5 5 6 6 7 7 8 8
REMARK H PARENT
REMARK Flexibility Score: inf
ROOT
ATOM      1  C   UNL     1      19.785  -8.342  22.172  1.00  0.00     0.059 C 
ENDROOT
BRANCH   1   2
ATOM      2  C   UNL     1      20.394  -7.801  23.427  1.00  0.00     0.042 C 
ATOM      3  O   UNL     1      21.460  -8.295  23.879  1.00  0.00    -0.550 OA
ATOM      4  O   UNL     1      19.756  -6.783  24.125  1.00  0.00    -0.550 OA
ENDBRANCH   1   2
BRANCH   1   5
ATOM      5  C   UNL     1      18.336  -7.867  22.032  1.00  0.00     0.059 C 
BRANCH   5   6
ATOM      6  C   UNL     1      18.148  -7.137  20.740  1.00  0.00     0.042 C 
ATOM      7  O   UNL     1      17.221  -7.467  19.954  1.00  0.00    -0.550 OA
ATOM      8  O   UNL     1      18.966  -6.059  20.427  1.00  0.00    -0.550 OA
ENDBRANCH   5   6
ENDBRANCH   1   5
TORSDOF 3
ENDMDL
MODEL 3
REMARK VINA RESULT:    -2.910      2.090      2.934
REMARK INTER + INTRA:          -3.516
REMARK INTER:                  -3.471
REMARK INTRA:                  -0.045
REMARK UNBOUND:                -0.096
REMARK SMILES O=C([O-])CCC(=O)[O-]
REMARK SMILES IDX 4 1 2 2 1 3 3 4 5 5 6 6 7 7 8 8
REMARK H PARENT
REMARK Flexibility Score: inf
ROOT
ATOM      1  C   UNL     1      19.325  -7.159  23.788  1.00  0.00     0.059 C 
ENDROOT
BRANCH   1   2
ATOM      2  C   UNL     1      18.094  -7.881  23.339  1.00  0.00     0.042 C 
ATOM      3  O   UNL     1      17.494  -8.661  24.125  1.00  0.00    -0.550 OA
ATOM      4  O   UNL     1      17.637  -7.730  22.036  1.00  0.00    -0.550 OA
ENDBRANCH   1   2
BRANCH   1   5
ATOM      5  C   UNL     1      20.542  -7.626  22.986  1.00  0.00     0.059 C 
BRANCH   5   6
ATOM      6  C   UNL     1      20.979  -6.561  22.031  1.00  0.00     0.042 C 
ATOM      7  O   UNL     1      20.124  -5.868  21.420  1.00  0.00    -0.550 OA
ATOM      8  O   UNL     1      22.332  -6.302  21.853  1.00  0.00    -0.550 OA
ENDBRANCH   5   6
ENDBRANCH   1   5
TORSDOF 3
ENDMDL
MODEL 4
REMARK VINA RESULT:    -2.805      1.879      2.948
REMARK INTER + INTRA:          -3.392
REMARK INTER:                  -3.382
REMARK INTRA:                  -0.011
REMARK UNBOUND:                -0.096
REMARK SMILES O=C([O-])CCC(=O)[O-]
REMARK SMILES IDX 4 1 2 2 1 3 3 4 5 5 6 6 7 7 8 8
REMARK H PARENT
REMARK Flexibility Score: inf
ROOT
ATOM      1  C   UNL     1      20.151  -8.134  21.906  1.00  0.00     0.059 C 
ENDROOT
BRANCH   1   2
ATOM      2  C   UNL     1      20.590  -6.723  21.671  1.00  0.00     0.042 C 
ATOM      3  O   UNL     1      19.793  -5.886  21.172  1.00  0.00    -0.550 OA
ATOM      4  O   UNL     1      21.895  -6.346  21.958  1.00  0.00    -0.550 OA
ENDBRANCH   1   2
BRANCH   1   5
ATOM      5  C   UNL     1      19.440  -8.256  23.256  1.00  0.00     0.059 C 
BRANCH   5   6
ATOM      6  C   UNL     1      17.990  -7.917  23.116  1.00  0.00     0.042 C 
ATOM      7  O   UNL     1      17.320  -7.570  24.124  1.00  0.00    -0.550 OA
ATOM      8  O   UNL     1      17.390  -7.936  21.863  1.00  0.00    -0.550 OA
ENDBRANCH   5   6
ENDBRANCH   1   5
TORSDOF 3
ENDMDL
MODEL 5
REMARK VINA RESULT:    -2.566     14.356     15.424
REMARK INTER + INTRA:          -3.112
REMARK INTER:                  -3.080
REMARK INTRA:                  -0.032
REMARK UNBOUND:                -0.096
REMARK SMILES O=C([O-])CCC(=O)[O-]
REMARK SMILES IDX 4 1 2 2 1 3 3 4 5 5 6 6 7 7 8 8
REMARK H PARENT
REMARK Flexibility Score: inf
ROOT
ATOM      1  C   UNL     1      16.182  -6.963   7.192  1.00  0.00     0.059 C 
ENDROOT
BRANCH   1   2
ATOM      2  C   UNL     1      15.015  -7.661   6.569  1.00  0.00     0.042 C 
ATOM      3  O   UNL     1      14.786  -7.537   5.337  1.00  0.00    -0.550 OA
ATOM      4  O   UNL     1      14.151  -8.408   7.358  1.00  0.00    -0.550 OA
ENDBRANCH   1   2
BRANCH   1   5
ATOM      5  C   UNL     1      17.476  -7.322   6.458  1.00  0.00     0.059 C 
BRANCH   5   6
ATOM      6  C   UNL     1      18.602  -7.481   7.429  1.00  0.00     0.042 C 
ATOM      7  O   UNL     1      18.722  -6.684   8.397  1.00  0.00    -0.550 OA
ATOM      8  O   UNL     1      19.492  -8.539   7.293  1.00  0.00    -0.550 OA
ENDBRANCH   5   6
ENDBRANCH   1   5
TORSDOF 3
ENDMDL
MODEL 6
REMARK VINA RESULT:    -2.554     14.481     15.894
REMARK INTER + INTRA:          -3.098
REMARK INTER:                  -3.064
REMARK INTRA:                  -0.034
REMARK UNBOUND:                -0.096
REMARK SMILES O=C([O-])CCC(=O)[O-]
REMARK SMILES IDX 4 1 2 2 1 3 3 4 5 5 6 6 7 7 8 8
REMARK H PARENT
REMARK Flexibility Score: inf
ROOT
ATOM      1  C   UNL     1      17.324  -7.422   6.295  1.00  0.00     0.059 C 
ENDROOT
BRANCH   1   2
ATOM      2  C   UNL     1      18.512  -7.492   7.202  1.00  0.00     0.042 C 
ATOM      3  O   UNL     1      19.488  -8.233   6.912  1.00  0.00    -0.550 OA
ATOM      4  O   UNL     1      18.519  -6.777   8.393  1.00  0.00    -0.550 OA
ENDBRANCH   1   2
BRANCH   1   5
ATOM      5  C   UNL     1      16.079  -6.992   7.075  1.00  0.00     0.059 C 
BRANCH   5   6
ATOM      6  C   UNL     1      14.872  -7.724   6.578  1.00  0.00     0.042 C 
ATOM      7  O   UNL     1      14.212  -8.459   7.358  1.00  0.00    -0.550 OA
ATOM      8  O   UNL     1      14.449  -7.554   5.266  1.00  0.00    -0.550 OA
ENDBRANCH   5   6
ENDBRANCH   1   5
TORSDOF 3
ENDMDL
MODEL 7
REMARK VINA RESULT:    -2.521     14.050     15.738
REMARK INTER + INTRA:          -3.059
REMARK INTER:                  -2.946
REMARK INTRA:                  -0.113
REMARK UNBOUND:                -0.096
REMARK SMILES O=C([O-])CCC(=O)[O-]
REMARK SMILES IDX 4 1 2 2 1 3 3 4 5 5 6 6 7 7 8 8
REMARK H PARENT
REMARK Flexibility Score: inf
ROOT
ATOM      1  C   UNL     1      18.788  -7.366   6.353  1.00  0.00     0.059 C 
ENDROOT
BRANCH   1   2
ATOM      2  C   UNL     1      19.020  -7.519   7.823  1.00  0.00     0.042 C 
ATOM      3  O   UNL     1      18.755  -6.572   8.609  1.00  0.00    -0.550 OA
ATOM      4  O   UNL     1      19.575  -8.692   8.320  1.00  0.00    -0.550 OA
ENDBRANCH   1   2
BRANCH   1   5
ATOM      5  C   UNL     1      17.516  -8.103   5.932  1.00  0.00     0.059 C 
BRANCH   5   6
ATOM      6  C   UNL     1      16.324  -7.208   6.061  1.00  0.00     0.042 C 
ATOM      7  O   UNL     1      15.638  -7.214   7.117  1.00  0.00    -0.550 OA
ATOM      8  O   UNL     1      16.000  -6.331   5.033  1.00  0.00    -0.550 OA
ENDBRANCH   5   6
ENDBRANCH   1   5
TORSDOF 3
ENDMDL
MODEL 8
REMARK VINA RESULT:    -2.490     14.757     16.432
REMARK INTER + INTRA:          -3.022
REMARK INTER:                  -2.978
REMARK INTRA:                  -0.044
REMARK UNBOUND:                -0.096
REMARK SMILES O=C([O-])CCC(=O)[O-]
REMARK SMILES IDX 4 1 2 2 1 3 3 4 5 5 6 6 7 7 8 8
REMARK H PARENT
REMARK Flexibility Score: inf
ROOT
ATOM      1  C   UNL     1      19.589  -6.424   4.937  1.00  0.00     0.059 C 
ENDROOT
BRANCH   1   2
ATOM      2  C   UNL     1      20.899  -5.708   4.839  1.00  0.00     0.042 C 
ATOM      3  O   UNL     1      20.929  -4.463   4.653  1.00  0.00    -0.550 OA
ATOM      4  O   UNL     1      22.087  -6.424   4.903  1.00  0.00    -0.550 OA
ENDBRANCH   1   2
BRANCH   1   5
ATOM      5  C   UNL     1      19.635  -7.477   6.047  1.00  0.00     0.059 C 
BRANCH   5   6
ATOM      6  C   UNL     1      18.580  -7.204   7.072  1.00  0.00     0.042 C 
ATOM      7  O   UNL     1      18.905  -6.910   8.253  1.00  0.00    -0.550 OA
ATOM      8  O   UNL     1      17.239  -7.226   6.710  1.00  0.00    -0.550 OA
ENDBRANCH   5   6
ENDBRANCH   1   5
TORSDOF 3
ENDMDL
MODEL 9
REMARK VINA RESULT:    -2.483     14.489     16.276
REMARK INTER + INTRA:          -3.015
REMARK INTER:                  -2.963
REMARK INTRA:                  -0.052
REMARK UNBOUND:                -0.096
REMARK SMILES O=C([O-])CCC(=O)[O-]
REMARK SMILES IDX 4 1 2 2 1 3 3 4 5 5 6 6 7 7 8 8
REMARK H PARENT
REMARK Flexibility Score: inf
ROOT
ATOM      1  C   UNL     1      19.363  -7.668   6.391  1.00  0.00     0.059 C 
ENDROOT
BRANCH   1   2
ATOM      2  C   UNL     1      18.369  -7.158   7.386  1.00  0.00     0.042 C 
ATOM      3  O   UNL     1      18.745  -6.812   8.537  1.00  0.00    -0.550 OA
ATOM      4  O   UNL     1      17.020  -7.112   7.060  1.00  0.00    -0.550 OA
ENDBRANCH   1   2
BRANCH   1   5
ATOM      5  C   UNL     1      19.372  -6.783   5.142  1.00  0.00     0.059 C 
BRANCH   5   6
ATOM      6  C   UNL     1      20.700  -6.113   4.986  1.00  0.00     0.042 C 
ATOM      7  O   UNL     1      20.789  -4.858   5.054  1.00  0.00    -0.550 OA
ATOM      8  O   UNL     1      21.848  -6.876   4.815  1.00  0.00    -0.550 OA
ENDBRANCH   5   6
ENDBRANCH   1   5
TORSDOF 3
ENDMDL
