MODEL 1
REMARK VINA RESULT:     4.956      0.000      0.000
REMARK INTER + INTRA:           5.246
REMARK INTER:                   5.246
REMARK INTRA:                   0.000
REMARK UNBOUND:                 0.000
REMARK SMILES Cc1cc(O)c(C)c(C)c1O
REMARK SMILES IDX 1 1 2 2 3 3 4 4 6 5 8 6 10 7 9 8 7 9 11 10 5 12
REMARK H PARENT 11 11 5 13
REMARK Flexibility Score: inf
ROOT
ATOM      1  C   UNL     1      -1.567   5.350 -12.082  1.00  0.00     0.048 C 
ATOM      2  C   UNL     1      -0.991   5.702 -10.735  1.00  0.00    -0.005 A 
ATOM      3  C   UNL     1      -1.766   6.439  -9.834  1.00  0.00     0.053 A 
ATOM      4  C   UNL     1      -1.270   6.797  -8.582  1.00  0.00     0.119 A 
ATOM      5  C   UNL     1       0.045   6.435  -8.208  1.00  0.00    -0.003 A 
ATOM      6  C   UNL     1       0.819   5.631  -9.089  1.00  0.00    -0.002 A 
ATOM      7  C   UNL     1       0.305   5.290 -10.363  1.00  0.00     0.121 A 
ATOM      8  C   UNL     1       2.199   5.155  -8.694  1.00  0.00     0.049 C 
ATOM      9  C   UNL     1       0.584   6.887  -6.868  1.00  0.00     0.049 C 
ENDROOT
BRANCH   7  10
ATOM     10  O   UNL     1       1.098   4.544 -11.242  1.00  0.00    -0.507 OA
ATOM     11  H   UNL     1       1.943   4.064 -10.962  1.00  0.00     0.293 HD
ENDBRANCH   7  10
BRANCH   4  12
ATOM     12  O   UNL     1      -2.120   7.508  -7.728  1.00  0.00    -0.508 OA
ATOM     13  H   UNL     1      -3.117   7.348  -7.671  1.00  0.00     0.293 HD
ENDBRANCH   4  12
TORSDOF 2
ENDMDL
MODEL 2
REMARK VINA RESULT:     6.247      1.342      2.895
REMARK INTER + INTRA:           6.612
REMARK INTER:                   6.612
REMARK INTRA:                   0.000
REMARK UNBOUND:                 0.000
REMARK SMILES Cc1cc(O)c(C)c(C)c1O
REMARK SMILES IDX 1 1 2 2 3 3 4 4 6 5 8 6 10 7 9 8 7 9 11 10 5 12
REMARK H PARENT 11 11 5 13
REMARK Flexibility Score: inf
ROOT
ATOM      1  C   UNL     1       2.311   3.797  -9.920  1.00  0.00     0.048 C 
ATOM      2  C   UNL     1       1.261   4.780  -9.475  1.00  0.00    -0.005 A 
ATOM      3  C   UNL     1       1.374   5.377  -8.215  1.00  0.00     0.053 A 
ATOM      4  C   UNL     1       0.420   6.284  -7.759  1.00  0.00     0.119 A 
ATOM      5  C   UNL     1      -0.701   6.602  -8.562  1.00  0.00    -0.003 A 
ATOM      6  C   UNL     1      -0.793   6.051  -9.870  1.00  0.00    -0.002 A 
ATOM      7  C   UNL     1       0.177   5.121 -10.311  1.00  0.00     0.121 A 
ATOM      8  C   UNL     1      -1.933   6.428 -10.790  1.00  0.00     0.049 C 
ATOM      9  C   UNL     1      -1.755   7.542  -8.021  1.00  0.00     0.049 C 
ENDROOT
BRANCH   7  10
ATOM     10  O   UNL     1       0.044   4.545 -11.579  1.00  0.00    -0.507 OA
ATOM     11  H   UNL     1      -0.833   4.489 -12.078  1.00  0.00     0.293 HD
ENDBRANCH   7  10
BRANCH   4  12
ATOM     12  O   UNL     1       0.623   6.858  -6.500  1.00  0.00    -0.508 OA
ATOM     13  H   UNL     1       1.538   7.009  -6.095  1.00  0.00     0.293 HD
ENDBRANCH   4  12
TORSDOF 2
ENDMDL
MODEL 3
REMARK VINA RESULT:     6.492      1.557      2.965
REMARK INTER + INTRA:           6.871
REMARK INTER:                   6.871
REMARK INTRA:                   0.000
REMARK UNBOUND:                 0.000
REMARK SMILES Cc1cc(O)c(C)c(C)c1O
REMARK SMILES IDX 1 1 2 2 3 3 4 4 6 5 8 6 10 7 9 8 7 9 11 10 5 12
REMARK H PARENT 11 11 5 13
REMARK Flexibility Score: inf
ROOT
ATOM      1  C   UNL     1      -0.734   5.223 -12.850  1.00  0.00     0.048 C 
ATOM      2  C   UNL     1      -0.420   5.539 -11.411  1.00  0.00    -0.005 A 
ATOM      3  C   UNL     1       0.886   5.358 -10.942  1.00  0.00     0.053 A 
ATOM      4  C   UNL     1       1.218   5.629  -9.616  1.00  0.00     0.119 A 
ATOM      5  C   UNL     1       0.226   6.074  -8.710  1.00  0.00    -0.003 A 
ATOM      6  C   UNL     1      -1.088   6.323  -9.191  1.00  0.00    -0.002 A 
ATOM      7  C   UNL     1      -1.412   6.029 -10.536  1.00  0.00     0.121 A 
ATOM      8  C   UNL     1      -2.157   6.876  -8.274  1.00  0.00     0.049 C 
ATOM      9  C   UNL     1       0.598   6.302  -7.261  1.00  0.00     0.049 C 
ENDROOT
BRANCH   7  10
ATOM     10  O   UNL     1      -2.723   6.228 -10.982  1.00  0.00    -0.507 OA
ATOM     11  H   UNL     1      -3.433   6.700 -10.438  1.00  0.00     0.293 HD
ENDBRANCH   7  10
BRANCH   4  12
ATOM     12  O   UNL     1       2.552   5.450  -9.234  1.00  0.00    -0.508 OA
ATOM     13  H   UNL     1       2.975   5.919  -8.444  1.00  0.00     0.293 HD
ENDBRANCH   4  12
TORSDOF 2
ENDMDL
MODEL 4
REMARK VINA RESULT:     6.608      1.599      3.366
REMARK INTER + INTRA:           6.995
REMARK INTER:                   6.995
REMARK INTRA:                   0.000
REMARK UNBOUND:                 0.000
REMARK SMILES Cc1cc(O)c(C)c(C)c1O
REMARK SMILES IDX 1 1 2 2 3 3 4 4 6 5 8 6 10 7 9 8 7 9 11 10 5 12
REMARK H PARENT 11 11 5 13
REMARK Flexibility Score: inf
ROOT
ATOM      1  C   UNL     1      -1.832   7.821  -6.927  1.00  0.00     0.048 C 
ATOM      2  C   UNL     1      -1.098   7.030  -7.977  1.00  0.00    -0.005 A 
ATOM      3  C   UNL     1      -1.712   6.803  -9.214  1.00  0.00     0.053 A 
ATOM      4  C   UNL     1      -1.074   6.068 -10.211  1.00  0.00     0.119 A 
ATOM      5  C   UNL     1       0.208   5.517  -9.978  1.00  0.00    -0.003 A 
ATOM      6  C   UNL     1       0.869   5.794  -8.750  1.00  0.00    -0.002 A 
ATOM      7  C   UNL     1       0.200   6.530  -7.743  1.00  0.00     0.121 A 
ATOM      8  C   UNL     1       2.271   5.291  -8.493  1.00  0.00     0.049 C 
ATOM      9  C   UNL     1       0.855   4.671 -11.053  1.00  0.00     0.049 C 
ENDROOT
BRANCH   7  10
ATOM     10  O   UNL     1       0.840   6.750  -6.519  1.00  0.00    -0.507 OA
ATOM     11  H   UNL     1       0.582   7.487  -5.877  1.00  0.00     0.293 HD
ENDBRANCH   7  10
BRANCH   4  12
ATOM     12  O   UNL     1      -1.744   5.913 -11.429  1.00  0.00    -0.508 OA
ATOM     13  H   UNL     1      -2.741   5.762 -11.503  1.00  0.00     0.293 HD
ENDBRANCH   4  12
TORSDOF 2
ENDMDL
MODEL 5
REMARK VINA RESULT:     7.468      1.422      4.053
REMARK INTER + INTRA:           7.904
REMARK INTER:                   7.904
REMARK INTRA:                   0.000
REMARK UNBOUND:                 0.000
REMARK SMILES Cc1cc(O)c(C)c(C)c1O
REMARK SMILES IDX 1 1 2 2 3 3 4 4 6 5 8 6 10 7 9 8 7 9 11 10 5 12
REMARK H PARENT 11 11 5 13
REMARK Flexibility Score: inf
ROOT
ATOM      1  C   UNL     1       2.484   5.239  -8.892  1.00  0.00     0.048 C 
ATOM      2  C   UNL     1       1.142   5.479  -9.531  1.00  0.00    -0.005 A 
ATOM      3  C   UNL     1       0.967   5.173 -10.885  1.00  0.00     0.053 A 
ATOM      4  C   UNL     1      -0.255   5.388 -11.520  1.00  0.00     0.119 A 
ATOM      5  C   UNL     1      -1.340   5.946 -10.804  1.00  0.00    -0.003 A 
ATOM      6  C   UNL     1      -1.194   6.201  -9.413  1.00  0.00    -0.002 A 
ATOM      7  C   UNL     1       0.058   5.990  -8.788  1.00  0.00     0.121 A 
ATOM      8  C   UNL     1      -2.354   6.722  -8.594  1.00  0.00     0.049 C 
ATOM      9  C   UNL     1      -2.637   6.228 -11.530  1.00  0.00     0.049 C 
ENDROOT
BRANCH   7  10
ATOM     10  O   UNL     1       0.203   6.296  -7.430  1.00  0.00    -0.507 OA
ATOM     11  H   UNL     1       0.514   5.630  -6.737  1.00  0.00     0.293 HD
ENDBRANCH   7  10
BRANCH   4  12
ATOM     12  O   UNL     1      -0.355   5.027 -12.867  1.00  0.00    -0.508 OA
ATOM     13  H   UNL     1      -0.191   5.669 -13.632  1.00  0.00     0.293 HD
ENDBRANCH   4  12
TORSDOF 2
ENDMDL
MODEL 6
REMARK VINA RESULT:     7.504      1.079      4.246
REMARK INTER + INTRA:           7.942
REMARK INTER:                   7.942
REMARK INTRA:                   0.000
REMARK UNBOUND:                 0.000
REMARK SMILES Cc1cc(O)c(C)c(C)c1O
REMARK SMILES IDX 1 1 2 2 3 3 4 4 6 5 8 6 10 7 9 8 7 9 11 10 5 12
REMARK H PARENT 11 11 5 13
REMARK Flexibility Score: inf
ROOT
ATOM      1  C   UNL     1      -0.427   7.124  -6.592  1.00  0.00     0.048 C 
ATOM      2  C   UNL     1      -0.322   6.588  -7.995  1.00  0.00    -0.005 A 
ATOM      3  C   UNL     1       0.912   6.114  -8.454  1.00  0.00     0.053 A 
ATOM      4  C   UNL     1       1.058   5.619  -9.748  1.00  0.00     0.119 A 
ATOM      5  C   UNL     1      -0.045   5.608 -10.634  1.00  0.00    -0.003 A 
ATOM      6  C   UNL     1      -1.319   6.025 -10.159  1.00  0.00    -0.002 A 
ATOM      7  C   UNL     1      -1.445   6.539  -8.847  1.00  0.00     0.121 A 
ATOM      8  C   UNL     1      -2.540   5.953 -11.048  1.00  0.00     0.049 C 
ATOM      9  C   UNL     1       0.151   5.122 -12.053  1.00  0.00     0.049 C 
ENDROOT
BRANCH   7  10
ATOM     10  O   UNL     1      -2.693   6.998  -8.410  1.00  0.00    -0.507 OA
ATOM     11  H   UNL     1      -3.009   6.931  -7.452  1.00  0.00     0.293 HD
ENDBRANCH   7  10
BRANCH   4  12
ATOM     12  O   UNL     1       2.318   5.138 -10.118  1.00  0.00    -0.508 OA
ATOM     13  H   UNL     1       2.582   4.162 -10.065  1.00  0.00     0.293 HD
ENDBRANCH   4  12
TORSDOF 2
ENDMDL
