MODEL 1
REMARK VINA RESULT:    -5.287      0.000      0.000
REMARK INTER + INTRA:          -7.593
REMARK INTER:                  -6.524
REMARK INTRA:                  -1.070
REMARK UNBOUND:                -1.070
REMARK SMILES CC(C)=CCC[C@H](C)c1ccc(C)cc1
REMARK SMILES IDX 6 1 7 2 8 3 9 4 13 5 12 6 11 7 14 8 10 9 15 10 5 11 4 12
REMARK SMILES IDX 2 13 1 14 3 15
REMARK H PARENT
REMARK Flexibility Score: inf
ROOT
ATOM      1  C   UNL     1       5.732 -16.325   7.681  1.00  0.00     0.012 C 
ENDROOT
BRANCH   1   2
ATOM      2  C   UNL     1       5.972 -17.339   6.531  1.00  0.00     0.016 C 
ATOM      3  C   UNL     1       5.481 -16.810   5.172  1.00  0.00     0.013 C 
BRANCH   2   4
ATOM      4  C   UNL     1       5.452 -18.730   6.860  1.00  0.00    -0.045 A 
ATOM      5  C   UNL     1       4.292 -22.793   7.768  1.00  0.00     0.044 C 
ATOM      6  C   UNL     1       4.657 -21.375   7.444  1.00  0.00    -0.051 A 
ATOM      7  C   UNL     1       5.080 -21.032   6.152  1.00  0.00     0.004 A 
ATOM      8  C   UNL     1       4.655 -20.399   8.450  1.00  0.00     0.004 A 
ATOM      9  C   UNL     1       5.472 -19.722   5.863  1.00  0.00     0.004 A 
ATOM     10  C   UNL     1       5.044 -19.088   8.161  1.00  0.00     0.004 A 
ENDBRANCH   2   4
ENDBRANCH   1   2
BRANCH   1  11
ATOM     11  C   UNL     1       4.781 -15.158   7.344  1.00  0.00     0.028 C 
BRANCH  11  12
ATOM     12  C   UNL     1       3.619 -15.065   8.308  1.00  0.00    -0.028 C 
ATOM     13  C   UNL     1       2.434 -15.680   8.100  1.00  0.00    -0.080 C 
ATOM     14  C   UNL     1       1.338 -15.571   9.127  1.00  0.00     0.039 C 
ATOM     15  C   UNL     1       2.176 -16.503   6.864  1.00  0.00     0.039 C 
ENDBRANCH  11  12
ENDBRANCH   1  11
TORSDOF 4
ENDMDL
MODEL 2
REMARK VINA RESULT:    -5.201      1.569      5.962
REMARK INTER + INTRA:          -7.487
REMARK INTER:                  -6.757
REMARK INTRA:                  -0.730
REMARK UNBOUND:                -1.070
REMARK SMILES CC(C)=CCC[C@H](C)c1ccc(C)cc1
REMARK SMILES IDX 6 1 7 2 8 3 9 4 13 5 12 6 11 7 14 8 10 9 15 10 5 11 4 12
REMARK SMILES IDX 2 13 1 14 3 15
REMARK H PARENT
REMARK Flexibility Score: inf
ROOT
ATOM      1  C   UNL     1       5.406 -17.793   7.226  1.00  0.00     0.012 C 
ENDROOT
BRANCH   1   2
ATOM      2  C   UNL     1       3.973 -17.262   7.495  1.00  0.00     0.016 C 
ATOM      3  C   UNL     1       2.992 -17.626   6.366  1.00  0.00     0.013 C 
BRANCH   2   4
ATOM      4  C   UNL     1       3.954 -15.785   7.856  1.00  0.00    -0.045 A 
ATOM      5  C   UNL     1       3.949 -11.520   8.556  1.00  0.00     0.044 C 
ATOM      6  C   UNL     1       3.958 -13.006   8.351  1.00  0.00    -0.051 A 
ATOM      7  C   UNL     1       5.143 -13.662   7.992  1.00  0.00     0.004 A 
ATOM      8  C   UNL     1       2.766 -13.737   8.439  1.00  0.00     0.004 A 
ATOM      9  C   UNL     1       5.141 -15.039   7.749  1.00  0.00     0.004 A 
ATOM     10  C   UNL     1       2.762 -15.114   8.199  1.00  0.00     0.004 A 
ENDBRANCH   2   4
ENDBRANCH   1   2
BRANCH   1  11
ATOM     11  C   UNL     1       5.499 -19.292   6.873  1.00  0.00     0.028 C 
BRANCH  11  12
ATOM     12  C   UNL     1       5.071 -20.182   8.018  1.00  0.00    -0.028 C 
ATOM     13  C   UNL     1       4.168 -21.178   7.883  1.00  0.00    -0.080 C 
ATOM     14  C   UNL     1       3.824 -22.047   9.064  1.00  0.00     0.039 C 
ATOM     15  C   UNL     1       3.498 -21.466   6.564  1.00  0.00     0.039 C 
ENDBRANCH  11  12
ENDBRANCH   1  11
TORSDOF 4
ENDMDL
MODEL 3
REMARK VINA RESULT:    -5.154      1.839      6.406
REMARK INTER + INTRA:          -7.429
REMARK INTER:                  -6.978
REMARK INTRA:                  -0.451
REMARK UNBOUND:                -1.070
REMARK SMILES CC(C)=CCC[C@H](C)c1ccc(C)cc1
REMARK SMILES IDX 6 1 7 2 8 3 9 4 13 5 12 6 11 7 14 8 10 9 15 10 5 11 4 12
REMARK SMILES IDX 2 13 1 14 3 15
REMARK H PARENT
REMARK Flexibility Score: inf
ROOT
ATOM      1  C   UNL     1       4.673 -16.967   6.887  1.00  0.00     0.012 C 
ENDROOT
BRANCH   1   2
ATOM      2  C   UNL     1       5.426 -15.852   7.660  1.00  0.00     0.016 C 
ATOM      3  C   UNL     1       6.062 -16.369   8.962  1.00  0.00     0.013 C 
BRANCH   2   4
ATOM      4  C   UNL     1       4.581 -14.603   7.856  1.00  0.00    -0.045 A 
ATOM      5  C   UNL     1       2.146 -11.142   8.738  1.00  0.00     0.044 C 
ATOM      6  C   UNL     1       2.984 -12.338   8.394  1.00  0.00    -0.051 A 
ATOM      7  C   UNL     1       2.414 -13.619   8.382  1.00  0.00     0.004 A 
ATOM      8  C   UNL     1       4.358 -12.194   8.161  1.00  0.00     0.004 A 
ATOM      9  C   UNL     1       3.205 -14.740   8.114  1.00  0.00     0.004 A 
ATOM     10  C   UNL     1       5.150 -13.313   7.890  1.00  0.00     0.004 A 
ENDBRANCH   2   4
ENDBRANCH   1   2
BRANCH   1  11
ATOM     11  C   UNL     1       5.376 -18.340   6.855  1.00  0.00     0.028 C 
BRANCH  11  12
ATOM     12  C   UNL     1       4.613 -19.397   7.621  1.00  0.00    -0.028 C 
ATOM     13  C   UNL     1       4.935 -20.709   7.593  1.00  0.00    -0.080 C 
ATOM     14  C   UNL     1       4.149 -21.696   8.415  1.00  0.00     0.039 C 
ATOM     15  C   UNL     1       6.087 -21.223   6.768  1.00  0.00     0.039 C 
ENDBRANCH  11  12
ENDBRANCH   1  11
TORSDOF 4
ENDMDL
MODEL 4
REMARK VINA RESULT:    -5.079      1.963      5.278
REMARK INTER + INTRA:          -7.336
REMARK INTER:                  -5.759
REMARK INTRA:                  -1.577
REMARK UNBOUND:                -1.070
REMARK SMILES CC(C)=CCC[C@H](C)c1ccc(C)cc1
REMARK SMILES IDX 6 1 7 2 8 3 9 4 13 5 12 6 11 7 14 8 10 9 15 10 5 11 4 12
REMARK SMILES IDX 2 13 1 14 3 15
REMARK H PARENT
REMARK Flexibility Score: inf
ROOT
ATOM      1  C   UNL     1       6.121 -17.155   6.182  1.00  0.00     0.012 C 
ENDROOT
BRANCH   1   2
ATOM      2  C   UNL     1       5.429 -17.207   7.570  1.00  0.00     0.016 C 
ATOM      3  C   UNL     1       4.623 -18.502   7.775  1.00  0.00     0.013 C 
BRANCH   2   4
ATOM      4  C   UNL     1       4.633 -15.947   7.873  1.00  0.00    -0.045 A 
ATOM      5  C   UNL     1       2.403 -12.284   8.412  1.00  0.00     0.044 C 
ATOM      6  C   UNL     1       3.182 -13.557   8.264  1.00  0.00    -0.051 A 
ATOM      7  C   UNL     1       4.561 -13.515   8.014  1.00  0.00     0.004 A 
ATOM      8  C   UNL     1       2.525 -14.794   8.293  1.00  0.00     0.004 A 
ATOM      9  C   UNL     1       5.279 -14.699   7.823  1.00  0.00     0.004 A 
ATOM     10  C   UNL     1       3.242 -15.979   8.105  1.00  0.00     0.004 A 
ENDBRANCH   2   4
ENDBRANCH   1   2
BRANCH   1  11
ATOM     11  C   UNL     1       5.174 -17.253   4.968  1.00  0.00     0.028 C 
BRANCH  11  12
ATOM     12  C   UNL     1       4.704 -15.897   4.492  1.00  0.00    -0.028 C 
ATOM     13  C   UNL     1       3.400 -15.553   4.412  1.00  0.00    -0.080 C 
ATOM     14  C   UNL     1       3.013 -14.167   3.966  1.00  0.00     0.039 C 
ATOM     15  C   UNL     1       2.302 -16.518   4.780  1.00  0.00     0.039 C 
ENDBRANCH  11  12
ENDBRANCH   1  11
TORSDOF 4
ENDMDL
MODEL 5
REMARK VINA RESULT:    -5.054      1.612      3.143
REMARK INTER + INTRA:          -7.306
REMARK INTER:                  -5.733
REMARK INTRA:                  -1.572
REMARK UNBOUND:                -1.070
REMARK SMILES CC(C)=CCC[C@H](C)c1ccc(C)cc1
REMARK SMILES IDX 6 1 7 2 8 3 9 4 13 5 12 6 11 7 14 8 10 9 15 10 5 11 4 12
REMARK SMILES IDX 2 13 1 14 3 15
REMARK H PARENT
REMARK Flexibility Score: inf
ROOT
ATOM      1  C   UNL     1       3.437 -15.159   8.994  1.00  0.00     0.012 C 
ENDROOT
BRANCH   1   2
ATOM      2  C   UNL     1       4.879 -15.218   8.426  1.00  0.00     0.016 C 
ATOM      3  C   UNL     1       5.302 -13.895   7.763  1.00  0.00     0.013 C 
BRANCH   2   4
ATOM      4  C   UNL     1       5.113 -16.436   7.545  1.00  0.00    -0.045 A 
ATOM      5  C   UNL     1       5.444 -19.952   5.055  1.00  0.00     0.044 C 
ATOM      6  C   UNL     1       5.367 -18.734   5.926  1.00  0.00    -0.051 A 
ATOM      7  C   UNL     1       5.054 -18.858   7.288  1.00  0.00     0.004 A 
ATOM      8  C   UNL     1       5.528 -17.458   5.371  1.00  0.00     0.004 A 
ATOM      9  C   UNL     1       4.930 -17.719   8.089  1.00  0.00     0.004 A 
ATOM     10  C   UNL     1       5.407 -16.319   6.171  1.00  0.00     0.004 A 
ENDBRANCH   2   4
ENDBRANCH   1   2
BRANCH   1  11
ATOM     11  C   UNL     1       2.315 -15.063   7.939  1.00  0.00     0.028 C 
BRANCH  11  12
ATOM     12  C   UNL     1       1.704 -16.409   7.622  1.00  0.00    -0.028 C 
ATOM     13  C   UNL     1       1.573 -16.884   6.364  1.00  0.00    -0.080 C 
ATOM     14  C   UNL     1       0.989 -18.253   6.133  1.00  0.00     0.039 C 
ATOM     15  C   UNL     1       2.018 -16.085   5.166  1.00  0.00     0.039 C 
ENDBRANCH  11  12
ENDBRANCH   1  11
TORSDOF 4
ENDMDL
MODEL 6
REMARK VINA RESULT:    -5.049      1.211      2.129
REMARK INTER + INTRA:          -7.299
REMARK INTER:                  -6.570
REMARK INTRA:                  -0.730
REMARK UNBOUND:                -1.070
REMARK SMILES CC(C)=CCC[C@H](C)c1ccc(C)cc1
REMARK SMILES IDX 6 1 7 2 8 3 9 4 13 5 12 6 11 7 14 8 10 9 15 10 5 11 4 12
REMARK SMILES IDX 2 13 1 14 3 15
REMARK H PARENT
REMARK Flexibility Score: inf
ROOT
ATOM      1  C   UNL     1       5.317 -16.754   8.162  1.00  0.00     0.012 C 
ENDROOT
BRANCH   1   2
ATOM      2  C   UNL     1       5.783 -17.493   6.880  1.00  0.00     0.016 C 
ATOM      3  C   UNL     1       5.416 -16.726   5.597  1.00  0.00     0.013 C 
BRANCH   2   4
ATOM      4  C   UNL     1       5.351 -18.951   6.855  1.00  0.00    -0.045 A 
ATOM      5  C   UNL     1       3.816 -22.991   6.869  1.00  0.00     0.044 C 
ATOM      6  C   UNL     1       4.385 -21.604   6.866  1.00  0.00    -0.051 A 
ATOM      7  C   UNL     1       4.534 -20.899   8.070  1.00  0.00     0.004 A 
ATOM      8  C   UNL     1       4.697 -20.971   5.656  1.00  0.00     0.004 A 
ATOM      9  C   UNL     1       5.013 -19.586   8.063  1.00  0.00     0.004 A 
ATOM     10  C   UNL     1       5.180 -19.660   5.648  1.00  0.00     0.004 A 
ENDBRANCH   2   4
ENDBRANCH   1   2
BRANCH   1  11
ATOM     11  C   UNL     1       4.000 -15.963   8.028  1.00  0.00     0.028 C 
BRANCH  11  12
ATOM     12  C   UNL     1       4.095 -14.578   8.627  1.00  0.00    -0.028 C 
ATOM     13  C   UNL     1       4.004 -13.447   7.894  1.00  0.00    -0.080 C 
ATOM     14  C   UNL     1       4.070 -12.103   8.570  1.00  0.00     0.039 C 
ATOM     15  C   UNL     1       3.816 -13.486   6.398  1.00  0.00     0.039 C 
ENDBRANCH  11  12
ENDBRANCH   1  11
TORSDOF 4
ENDMDL
MODEL 7
REMARK VINA RESULT:    -5.038      1.449      2.641
REMARK INTER + INTRA:          -7.286
REMARK INTER:                  -5.870
REMARK INTRA:                  -1.416
REMARK UNBOUND:                -1.070
REMARK SMILES CC(C)=CCC[C@H](C)c1ccc(C)cc1
REMARK SMILES IDX 6 1 7 2 8 3 9 4 13 5 12 6 11 7 14 8 10 9 15 10 5 11 4 12
REMARK SMILES IDX 2 13 1 14 3 15
REMARK H PARENT
REMARK Flexibility Score: inf
ROOT
ATOM      1  C   UNL     1       5.271 -17.587   4.123  1.00  0.00     0.012 C 
ENDROOT
BRANCH   1   2
ATOM      2  C   UNL     1       5.363 -19.133   4.032  1.00  0.00     0.016 C 
ATOM      3  C   UNL     1       4.596 -19.694   2.821  1.00  0.00     0.013 C 
BRANCH   2   4
ATOM      4  C   UNL     1       5.006 -19.819   5.341  1.00  0.00    -0.045 A 
ATOM      5  C   UNL     1       3.819 -21.994   8.883  1.00  0.00     0.044 C 
ATOM      6  C   UNL     1       4.240 -21.208   7.676  1.00  0.00    -0.051 A 
ATOM      7  C   UNL     1       3.296 -20.467   6.952  1.00  0.00     0.004 A 
ATOM      8  C   UNL     1       5.562 -21.274   7.218  1.00  0.00     0.004 A 
ATOM      9  C   UNL     1       3.677 -19.778   5.797  1.00  0.00     0.004 A 
ATOM     10  C   UNL     1       5.945 -20.584   6.064  1.00  0.00     0.004 A 
ENDBRANCH   2   4
ENDBRANCH   1   2
BRANCH   1  11
ATOM     11  C   UNL     1       5.940 -16.958   5.363  1.00  0.00     0.028 C 
BRANCH  11  12
ATOM     12  C   UNL     1       4.975 -16.133   6.183  1.00  0.00    -0.028 C 
ATOM     13  C   UNL     1       4.709 -16.380   7.485  1.00  0.00    -0.080 C 
ATOM     14  C   UNL     1       3.763 -15.487   8.244  1.00  0.00     0.039 C 
ATOM     15  C   UNL     1       5.355 -17.527   8.220  1.00  0.00     0.039 C 
ENDBRANCH  11  12
ENDBRANCH   1  11
TORSDOF 4
ENDMDL
MODEL 8
REMARK VINA RESULT:    -5.035      1.113      5.201
REMARK INTER + INTRA:          -7.283
REMARK INTER:                  -6.093
REMARK INTRA:                  -1.190
REMARK UNBOUND:                -1.070
REMARK SMILES CC(C)=CCC[C@H](C)c1ccc(C)cc1
REMARK SMILES IDX 6 1 7 2 8 3 9 4 13 5 12 6 11 7 14 8 10 9 15 10 5 11 4 12
REMARK SMILES IDX 2 13 1 14 3 15
REMARK H PARENT
REMARK Flexibility Score: inf
ROOT
ATOM      1  C   UNL     1       5.324 -16.360   6.071  1.00  0.00     0.012 C 
ENDROOT
BRANCH   1   2
ATOM      2  C   UNL     1       4.967 -15.678   7.418  1.00  0.00     0.016 C 
ATOM      3  C   UNL     1       5.906 -16.106   8.559  1.00  0.00     0.013 C 
BRANCH   2   4
ATOM      4  C   UNL     1       3.493 -15.812   7.768  1.00  0.00    -0.045 A 
ATOM      5  C   UNL     1      -0.743 -15.891   8.624  1.00  0.00     0.044 C 
ATOM      6  C   UNL     1       0.732 -15.892   8.353  1.00  0.00    -0.051 A 
ATOM      7  C   UNL     1       1.577 -15.010   9.043  1.00  0.00     0.004 A 
ATOM      8  C   UNL     1       1.266 -16.716   7.354  1.00  0.00     0.004 A 
ATOM      9  C   UNL     1       2.944 -14.973   8.754  1.00  0.00     0.004 A 
ATOM     10  C   UNL     1       2.633 -16.682   7.066  1.00  0.00     0.004 A 
ENDBRANCH   2   4
ENDBRANCH   1   2
BRANCH   1  11
ATOM     11  C   UNL     1       6.079 -17.701   6.189  1.00  0.00     0.028 C 
BRANCH  11  12
ATOM     12  C   UNL     1       5.228 -18.880   5.773  1.00  0.00    -0.028 C 
ATOM     13  C   UNL     1       4.712 -19.767   6.651  1.00  0.00    -0.080 C 
ATOM     14  C   UNL     1       3.841 -20.894   6.161  1.00  0.00     0.039 C 
ATOM     15  C   UNL     1       4.967 -19.653   8.133  1.00  0.00     0.039 C 
ENDBRANCH  11  12
ENDBRANCH   1  11
TORSDOF 4
ENDMDL
MODEL 9
REMARK VINA RESULT:    -4.986      2.691      6.966
REMARK INTER + INTRA:          -7.221
REMARK INTER:                  -6.178
REMARK INTRA:                  -1.043
REMARK UNBOUND:                -1.070
REMARK SMILES CC(C)=CCC[C@H](C)c1ccc(C)cc1
REMARK SMILES IDX 6 1 7 2 8 3 9 4 13 5 12 6 11 7 14 8 10 9 15 10 5 11 4 12
REMARK SMILES IDX 2 13 1 14 3 15
REMARK H PARENT
REMARK Flexibility Score: inf
ROOT
ATOM      1  C   UNL     1       5.168 -15.616   8.484  1.00  0.00     0.012 C 
ENDROOT
BRANCH   1   2
ATOM      2  C   UNL     1       3.899 -14.780   8.795  1.00  0.00     0.016 C 
ATOM      3  C   UNL     1       2.604 -15.588   8.605  1.00  0.00     0.013 C 
BRANCH   2   4
ATOM      4  C   UNL     1       3.887 -13.442   8.071  1.00  0.00    -0.045 A 
ATOM      5  C   UNL     1       3.752  -9.501   6.303  1.00  0.00     0.044 C 
ATOM      6  C   UNL     1       3.799 -10.884   6.881  1.00  0.00    -0.051 A 
ATOM      7  C   UNL     1       2.612 -11.543   7.233  1.00  0.00     0.004 A 
ATOM      8  C   UNL     1       5.030 -11.496   7.147  1.00  0.00     0.004 A 
ATOM      9  C   UNL     1       2.657 -12.810   7.821  1.00  0.00     0.004 A 
ATOM     10  C   UNL     1       5.077 -12.765   7.733  1.00  0.00     0.004 A 
ENDBRANCH   2   4
ENDBRANCH   1   2
BRANCH   1  11
ATOM     11  C   UNL     1       4.919 -16.940   7.732  1.00  0.00     0.028 C 
BRANCH  11  12
ATOM     12  C   UNL     1       5.718 -17.035   6.451  1.00  0.00    -0.028 C 
ATOM     13  C   UNL     1       5.291 -16.530   5.273  1.00  0.00    -0.080 C 
ATOM     14  C   UNL     1       6.163 -16.631   4.049  1.00  0.00     0.039 C 
ATOM     15  C   UNL     1       3.957 -15.839   5.145  1.00  0.00     0.039 C 
ENDBRANCH  11  12
ENDBRANCH   1  11
TORSDOF 4
ENDMDL
