MODEL 1
REMARK VINA RESULT:    -3.516      0.000      0.000
REMARK INTER + INTRA:         -13.529
REMARK INTER:                  -9.270
REMARK INTRA:                  -4.259
REMARK UNBOUND:                -4.259
REMARK SMILES CCCCCCCCCCCCCCCCCCCCCCCCCCCCCC(=O)[O-]
REMARK SMILES IDX 16 1 17 2 18 3 19 4 20 5 21 6 22 7 23 8 24 9 25 10 26 11
REMARK SMILES IDX 27 12 28 13 29 14 30 15 31 16 32 17 15 18 14 19 13 20 12 21
REMARK SMILES IDX 11 22 10 23 9 24 8 25 7 26 6 27 5 28 4 29 3 30 2 31 1 32
REMARK H PARENT
REMARK Flexibility Score: inf
ROOT
ATOM      1  C   UNL     1      65.966  29.655  58.747  1.00  0.00     0.000 C 
ENDROOT
BRANCH   1   2
ATOM      2  C   UNL     1      65.595  28.956  60.066  1.00  0.00     0.000 C 
BRANCH   2   3
ATOM      3  C   UNL     1      65.288  27.462  59.877  1.00  0.00     0.000 C 
BRANCH   3   4
ATOM      4  C   UNL     1      64.319  27.199  58.710  1.00  0.00     0.000 C 
BRANCH   4   5
ATOM      5  C   UNL     1      63.071  26.409  59.156  1.00  0.00     0.000 C 
BRANCH   5   6
ATOM      6  C   UNL     1      62.752  26.546  60.658  1.00  0.00     0.000 C 
BRANCH   6   7
ATOM      7  C   UNL     1      61.558  27.457  60.988  1.00  0.00     0.000 C 
BRANCH   7   8
ATOM      8  C   UNL     1      61.830  28.934  60.654  1.00  0.00     0.000 C 
BRANCH   8   9
ATOM      9  C   UNL     1      60.749  29.546  59.747  1.00  0.00     0.000 C 
BRANCH   9  10
ATOM     10  C   UNL     1      61.238  30.681  58.827  1.00  0.00     0.000 C 
BRANCH  10  11
ATOM     11  C   UNL     1      62.743  30.990  58.971  1.00  0.00     0.000 C 
BRANCH  11  12
ATOM     12  C   UNL     1      63.052  32.481  58.767  1.00  0.00     0.000 C 
BRANCH  12  13
ATOM     13  C   UNL     1      63.957  33.015  59.886  1.00  0.00     0.006 C 
BRANCH  13  14
ATOM     14  C   UNL     1      63.648  34.476  60.236  1.00  0.00     0.053 C 
BRANCH  14  15
ATOM     15  C   UNL     1      64.627  35.030  61.225  1.00  0.00     0.041 C 
ATOM     16  O   UNL     1      65.814  35.259  60.878  1.00  0.00    -0.550 OA
ATOM     17  O   UNL     1      64.239  35.261  62.538  1.00  0.00    -0.550 OA
ENDBRANCH  14  15
ENDBRANCH  13  14
ENDBRANCH  12  13
ENDBRANCH  11  12
ENDBRANCH  10  11
ENDBRANCH   9  10
ENDBRANCH   8   9
ENDBRANCH   7   8
ENDBRANCH   6   7
ENDBRANCH   5   6
ENDBRANCH   4   5
ENDBRANCH   3   4
ENDBRANCH   2   3
ENDBRANCH   1   2
BRANCH   1  18
ATOM     18  C   UNL     1      67.409  29.353  58.312  1.00  0.00     0.000 C 
BRANCH  18  19
ATOM     19  C   UNL     1      67.472  28.492  57.038  1.00  0.00     0.000 C 
BRANCH  19  20
ATOM     20  C   UNL     1      68.914  28.133  56.646  1.00  0.00     0.000 C 
BRANCH  20  21
ATOM     21  C   UNL     1      69.485  26.988  57.498  1.00  0.00     0.000 C 
BRANCH  21  22
ATOM     22  C   UNL     1      70.768  27.385  58.248  1.00  0.00     0.000 C 
BRANCH  22  23
ATOM     23  C   UNL     1      70.750  27.004  59.744  1.00  0.00     0.000 C 
BRANCH  23  24
ATOM     24  C   UNL     1      69.749  27.848  60.550  1.00  0.00    -0.000 C 
BRANCH  24  25
ATOM     25  C   UNL     1      70.406  29.054  61.244  1.00  0.00    -0.000 C 
BRANCH  25  26
ATOM     26  C   UNL     1      71.949  29.005  61.240  1.00  0.00    -0.000 C 
BRANCH  26  27
ATOM     27  C   UNL     1      72.569  30.244  60.576  1.00  0.00    -0.000 C 
BRANCH  27  28
ATOM     28  C   UNL     1      71.528  31.362  60.415  1.00  0.00    -0.000 C 
BRANCH  28  29
ATOM     29  C   UNL     1      71.418  31.875  58.967  1.00  0.00    -0.000 C 
BRANCH  29  30
ATOM     30  C   UNL     1      70.623  30.964  58.009  1.00  0.00    -0.000 C 
BRANCH  30  31
ATOM     31  C   UNL     1      70.118  31.652  56.730  1.00  0.00    -0.003 C 
ATOM     32  C   UNL     1      69.085  32.743  57.009  1.00  0.00     0.004 C 
ENDBRANCH  30  31
ENDBRANCH  29  30
ENDBRANCH  28  29
ENDBRANCH  27  28
ENDBRANCH  26  27
ENDBRANCH  25  26
ENDBRANCH  24  25
ENDBRANCH  23  24
ENDBRANCH  22  23
ENDBRANCH  21  22
ENDBRANCH  20  21
ENDBRANCH  19  20
ENDBRANCH  18  19
ENDBRANCH   1  18
TORSDOF 28
ENDMDL
MODEL 2
REMARK VINA RESULT:    -3.434     12.096     15.007
REMARK INTER + INTRA:         -13.314
REMARK INTER:                  -8.373
REMARK INTRA:                  -4.941
REMARK UNBOUND:                -4.259
REMARK SMILES CCCCCCCCCCCCCCCCCCCCCCCCCCCCCC(=O)[O-]
REMARK SMILES IDX 16 1 17 2 18 3 19 4 20 5 21 6 22 7 23 8 24 9 25 10 26 11
REMARK SMILES IDX 27 12 28 13 29 14 30 15 31 16 32 17 15 18 14 19 13 20 12 21
REMARK SMILES IDX 11 22 10 23 9 24 8 25 7 26 6 27 5 28 4 29 3 30 2 31 1 32
REMARK H PARENT
REMARK Flexibility Score: inf
ROOT
ATOM      1  C   UNL     1      60.571  24.787  50.901  1.00  0.00     0.000 C 
ENDROOT
BRANCH   1   2
ATOM      2  C   UNL     1      59.973  24.578  49.499  1.00  0.00     0.000 C 
BRANCH   2   3
ATOM      3  C   UNL     1      59.120  25.769  49.037  1.00  0.00     0.000 C 
BRANCH   3   4
ATOM      4  C   UNL     1      59.962  27.024  48.747  1.00  0.00     0.000 C 
BRANCH   4   5
ATOM      5  C   UNL     1      59.103  28.306  48.702  1.00  0.00     0.000 C 
BRANCH   5   6
ATOM      6  C   UNL     1      58.374  28.612  50.025  1.00  0.00     0.000 C 
BRANCH   6   7
ATOM      7  C   UNL     1      56.855  28.820  49.896  1.00  0.00     0.000 C 
BRANCH   7   8
ATOM      8  C   UNL     1      56.051  27.912  50.843  1.00  0.00     0.000 C 
BRANCH   8   9
ATOM      9  C   UNL     1      56.912  26.809  51.481  1.00  0.00     0.000 C 
BRANCH   9  10
ATOM     10  C   UNL     1      56.164  25.498  51.790  1.00  0.00     0.000 C 
BRANCH  10  11
ATOM     11  C   UNL     1      57.090  24.266  51.894  1.00  0.00     0.000 C 
BRANCH  11  12
ATOM     12  C   UNL     1      57.573  24.023  53.332  1.00  0.00     0.000 C 
BRANCH  12  13
ATOM     13  C   UNL     1      56.419  23.555  54.230  1.00  0.00     0.006 C 
BRANCH  13  14
ATOM     14  C   UNL     1      55.679  22.347  53.641  1.00  0.00     0.053 C 
BRANCH  14  15
ATOM     15  C   UNL     1      55.626  21.204  54.607  1.00  0.00     0.041 C 
ATOM     16  O   UNL     1      56.076  21.342  55.774  1.00  0.00    -0.550 OA
ATOM     17  O   UNL     1      55.110  19.977  54.210  1.00  0.00    -0.550 OA
ENDBRANCH  14  15
ENDBRANCH  13  14
ENDBRANCH  12  13
ENDBRANCH  11  12
ENDBRANCH  10  11
ENDBRANCH   9  10
ENDBRANCH   8   9
ENDBRANCH   7   8
ENDBRANCH   6   7
ENDBRANCH   5   6
ENDBRANCH   4   5
ENDBRANCH   3   4
ENDBRANCH   2   3
ENDBRANCH   1   2
BRANCH   1  18
ATOM     18  C   UNL     1      62.041  24.347  50.981  1.00  0.00     0.000 C 
BRANCH  18  19
ATOM     19  C   UNL     1      62.677  24.163  49.592  1.00  0.00     0.000 C 
BRANCH  19  20
ATOM     20  C   UNL     1      63.704  23.020  49.566  1.00  0.00     0.000 C 
BRANCH  20  21
ATOM     21  C   UNL     1      63.037  21.634  49.540  1.00  0.00     0.000 C 
BRANCH  21  22
ATOM     22  C   UNL     1      61.878  21.550  48.532  1.00  0.00     0.000 C 
BRANCH  22  23
ATOM     23  C   UNL     1      60.551  21.070  49.160  1.00  0.00     0.000 C 
BRANCH  23  24
ATOM     24  C   UNL     1      60.753  20.459  50.557  1.00  0.00    -0.000 C 
BRANCH  24  25
ATOM     25  C   UNL     1      59.981  21.211  51.656  1.00  0.00    -0.000 C 
BRANCH  25  26
ATOM     26  C   UNL     1      58.550  20.676  51.883  1.00  0.00    -0.000 C 
BRANCH  26  27
ATOM     27  C   UNL     1      58.507  19.557  52.935  1.00  0.00    -0.000 C 
BRANCH  27  28
ATOM     28  C   UNL     1      58.119  18.215  52.297  1.00  0.00    -0.000 C 
BRANCH  28  29
ATOM     29  C   UNL     1      56.720  18.238  51.655  1.00  0.00    -0.000 C 
BRANCH  29  30
ATOM     30  C   UNL     1      56.704  18.117  50.118  1.00  0.00    -0.000 C 
BRANCH  30  31
ATOM     31  C   UNL     1      57.741  17.144  49.533  1.00  0.00    -0.003 C 
ATOM     32  C   UNL     1      58.852  17.853  48.757  1.00  0.00     0.004 C 
ENDBRANCH  30  31
ENDBRANCH  29  30
ENDBRANCH  28  29
ENDBRANCH  27  28
ENDBRANCH  26  27
ENDBRANCH  25  26
ENDBRANCH  24  25
ENDBRANCH  23  24
ENDBRANCH  22  23
ENDBRANCH  21  22
ENDBRANCH  20  21
ENDBRANCH  19  20
ENDBRANCH  18  19
ENDBRANCH   1  18
TORSDOF 28
ENDMDL
MODEL 3
REMARK VINA RESULT:    -3.432     11.548     15.387
REMARK INTER + INTRA:         -13.307
REMARK INTER:                  -8.228
REMARK INTRA:                  -5.079
REMARK UNBOUND:                -4.259
REMARK SMILES CCCCCCCCCCCCCCCCCCCCCCCCCCCCCC(=O)[O-]
REMARK SMILES IDX 16 1 17 2 18 3 19 4 20 5 21 6 22 7 23 8 24 9 25 10 26 11
REMARK SMILES IDX 27 12 28 13 29 14 30 15 31 16 32 17 15 18 14 19 13 20 12 21
REMARK SMILES IDX 11 22 10 23 9 24 8 25 7 26 6 27 5 28 4 29 3 30 2 31 1 32
REMARK H PARENT
REMARK Flexibility Score: inf
ROOT
ATOM      1  C   UNL     1      62.065  23.458  50.183  1.00  0.00     0.000 C 
ENDROOT
BRANCH   1   2
ATOM      2  C   UNL     1      61.557  22.629  48.990  1.00  0.00     0.000 C 
BRANCH   2   3
ATOM      3  C   UNL     1      60.373  21.723  49.362  1.00  0.00     0.000 C 
BRANCH   3   4
ATOM      4  C   UNL     1      60.801  20.498  50.190  1.00  0.00     0.000 C 
BRANCH   4   5
ATOM      5  C   UNL     1      60.090  20.443  51.559  1.00  0.00     0.000 C 
BRANCH   5   6
ATOM      6  C   UNL     1      61.053  20.485  52.762  1.00  0.00     0.000 C 
BRANCH   6   7
ATOM      7  C   UNL     1      60.709  19.513  53.903  1.00  0.00     0.000 C 
BRANCH   7   8
ATOM      8  C   UNL     1      59.234  19.073  53.883  1.00  0.00     0.000 C 
BRANCH   8   9
ATOM      9  C   UNL     1      59.066  17.578  53.569  1.00  0.00     0.000 C 
BRANCH   9  10
ATOM     10  C   UNL     1      60.359  16.852  53.149  1.00  0.00     0.000 C 
BRANCH  10  11
ATOM     11  C   UNL     1      60.502  16.673  51.623  1.00  0.00     0.000 C 
BRANCH  11  12
ATOM     12  C   UNL     1      59.181  16.251  50.962  1.00  0.00     0.000 C 
BRANCH  12  13
ATOM     13  C   UNL     1      58.643  17.361  50.048  1.00  0.00     0.006 C 
BRANCH  13  14
ATOM     14  C   UNL     1      57.154  17.179  49.727  1.00  0.00     0.053 C 
BRANCH  14  15
ATOM     15  C   UNL     1      56.326  18.300  50.276  1.00  0.00     0.041 C 
ATOM     16  O   UNL     1      56.731  18.955  51.271  1.00  0.00    -0.550 OA
ATOM     17  O   UNL     1      55.093  18.600  49.711  1.00  0.00    -0.550 OA
ENDBRANCH  14  15
ENDBRANCH  13  14
ENDBRANCH  12  13
ENDBRANCH  11  12
ENDBRANCH  10  11
ENDBRANCH   9  10
ENDBRANCH   8   9
ENDBRANCH   7   8
ENDBRANCH   6   7
ENDBRANCH   5   6
ENDBRANCH   4   5
ENDBRANCH   3   4
ENDBRANCH   2   3
ENDBRANCH   1   2
BRANCH   1  18
ATOM     18  C   UNL     1      63.426  24.114  49.902  1.00  0.00     0.000 C 
BRANCH  18  19
ATOM     19  C   UNL     1      63.287  25.557  49.387  1.00  0.00     0.000 C 
BRANCH  19  20
ATOM     20  C   UNL     1      62.046  26.264  49.955  1.00  0.00     0.000 C 
BRANCH  20  21
ATOM     21  C   UNL     1      61.305  27.092  48.892  1.00  0.00     0.000 C 
BRANCH  21  22
ATOM     22  C   UNL     1      60.267  28.050  49.501  1.00  0.00     0.000 C 
BRANCH  22  23
ATOM     23  C   UNL     1      59.042  28.288  48.591  1.00  0.00     0.000 C 
BRANCH  23  24
ATOM     24  C   UNL     1      57.735  28.413  49.391  1.00  0.00    -0.000 C 
BRANCH  24  25
ATOM     25  C   UNL     1      57.533  27.262  50.393  1.00  0.00    -0.000 C 
BRANCH  25  26
ATOM     26  C   UNL     1      57.165  25.919  49.726  1.00  0.00    -0.000 C 
BRANCH  26  27
ATOM     27  C   UNL     1      58.329  24.917  49.755  1.00  0.00    -0.000 C 
BRANCH  27  28
ATOM     28  C   UNL     1      58.959  24.843  51.154  1.00  0.00    -0.000 C 
BRANCH  28  29
ATOM     29  C   UNL     1      58.433  23.660  51.988  1.00  0.00    -0.000 C 
BRANCH  29  30
ATOM     30  C   UNL     1      59.002  23.562  53.417  1.00  0.00    -0.000 C 
BRANCH  30  31
ATOM     31  C   UNL     1      60.092  24.595  53.753  1.00  0.00    -0.003 C 
ATOM     32  C   UNL     1      61.493  23.987  53.801  1.00  0.00     0.004 C 
ENDBRANCH  30  31
ENDBRANCH  29  30
ENDBRANCH  28  29
ENDBRANCH  27  28
ENDBRANCH  26  27
ENDBRANCH  25  26
ENDBRANCH  24  25
ENDBRANCH  23  24
ENDBRANCH  22  23
ENDBRANCH  21  22
ENDBRANCH  20  21
ENDBRANCH  19  20
ENDBRANCH  18  19
ENDBRANCH   1  18
TORSDOF 28
ENDMDL
MODEL 4
REMARK VINA RESULT:    -3.424     11.171     14.747
REMARK INTER + INTRA:         -13.286
REMARK INTER:                  -8.746
REMARK INTRA:                  -4.540
REMARK UNBOUND:                -4.259
REMARK SMILES CCCCCCCCCCCCCCCCCCCCCCCCCCCCCC(=O)[O-]
REMARK SMILES IDX 16 1 17 2 18 3 19 4 20 5 21 6 22 7 23 8 24 9 25 10 26 11
REMARK SMILES IDX 27 12 28 13 29 14 30 15 31 16 32 17 15 18 14 19 13 20 12 21
REMARK SMILES IDX 11 22 10 23 9 24 8 25 7 26 6 27 5 28 4 29 3 30 2 31 1 32
REMARK H PARENT
REMARK Flexibility Score: inf
ROOT
ATOM      1  C   UNL     1      59.677  24.222  49.749  1.00  0.00     0.000 C 
ENDROOT
BRANCH   1   2
ATOM      2  C   UNL     1      58.874  24.195  51.061  1.00  0.00     0.000 C 
BRANCH   2   3
ATOM      3  C   UNL     1      57.714  25.203  51.064  1.00  0.00     0.000 C 
BRANCH   3   4
ATOM      4  C   UNL     1      57.434  25.789  49.668  1.00  0.00     0.000 C 
BRANCH   4   5
ATOM      5  C   UNL     1      56.956  27.255  49.737  1.00  0.00     0.000 C 
BRANCH   5   6
ATOM      6  C   UNL     1      57.929  28.258  49.087  1.00  0.00     0.000 C 
BRANCH   6   7
ATOM      7  C   UNL     1      59.296  27.673  48.692  1.00  0.00     0.000 C 
BRANCH   7   8
ATOM      8  C   UNL     1      60.453  28.261  49.517  1.00  0.00     0.000 C 
BRANCH   8   9
ATOM      9  C   UNL     1      60.342  27.928  51.014  1.00  0.00     0.000 C 
BRANCH   9  10
ATOM     10  C   UNL     1      60.349  29.150  51.954  1.00  0.00     0.000 C 
BRANCH  10  11
ATOM     11  C   UNL     1      58.965  29.814  52.116  1.00  0.00     0.000 C 
BRANCH  11  12
ATOM     12  C   UNL     1      57.956  28.892  52.819  1.00  0.00     0.000 C 
BRANCH  12  13
ATOM     13  C   UNL     1      56.523  29.420  52.661  1.00  0.00     0.006 C 
BRANCH  13  14
ATOM     14  C   UNL     1      56.428  30.536  51.612  1.00  0.00     0.053 C 
BRANCH  14  15
ATOM     15  C   UNL     1      55.201  30.399  50.765  1.00  0.00     0.041 C 
ATOM     16  O   UNL     1      55.245  30.684  49.540  1.00  0.00    -0.550 OA
ATOM     17  O   UNL     1      54.002  29.988  51.333  1.00  0.00    -0.550 OA
ENDBRANCH  14  15
ENDBRANCH  13  14
ENDBRANCH  12  13
ENDBRANCH  11  12
ENDBRANCH  10  11
ENDBRANCH   9  10
ENDBRANCH   8   9
ENDBRANCH   7   8
ENDBRANCH   6   7
ENDBRANCH   5   6
ENDBRANCH   4   5
ENDBRANCH   3   4
ENDBRANCH   2   3
ENDBRANCH   1   2
BRANCH   1  18
ATOM     18  C   UNL     1      60.897  23.289  49.791  1.00  0.00     0.000 C 
BRANCH  18  19
ATOM     19  C   UNL     1      60.506  21.818  50.013  1.00  0.00     0.000 C 
BRANCH  19  20
ATOM     20  C   UNL     1      61.469  21.096  50.970  1.00  0.00     0.000 C 
BRANCH  20  21
ATOM     21  C   UNL     1      60.808  19.900  51.675  1.00  0.00     0.000 C 
BRANCH  21  22
ATOM     22  C   UNL     1      59.634  20.314  52.578  1.00  0.00     0.000 C 
BRANCH  22  23
ATOM     23  C   UNL     1      59.058  19.149  53.411  1.00  0.00     0.000 C 
BRANCH  23  24
ATOM     24  C   UNL     1      60.135  18.440  54.248  1.00  0.00    -0.000 C 
BRANCH  24  25
ATOM     25  C   UNL     1      59.965  16.911  54.271  1.00  0.00    -0.000 C 
BRANCH  25  26
ATOM     26  C   UNL     1      58.894  16.393  53.287  1.00  0.00    -0.000 C 
BRANCH  26  27
ATOM     27  C   UNL     1      59.509  15.876  51.977  1.00  0.00    -0.000 C 
BRANCH  27  28
ATOM     28  C   UNL     1      58.573  16.137  50.788  1.00  0.00    -0.000 C 
BRANCH  28  29
ATOM     29  C   UNL     1      59.006  17.346  49.938  1.00  0.00    -0.000 C 
BRANCH  29  30
ATOM     30  C   UNL     1      57.953  18.465  49.807  1.00  0.00    -0.000 C 
BRANCH  30  31
ATOM     31  C   UNL     1      56.497  18.012  50.015  1.00  0.00    -0.003 C 
ATOM     32  C   UNL     1      55.831  18.686  51.214  1.00  0.00     0.004 C 
ENDBRANCH  30  31
ENDBRANCH  29  30
ENDBRANCH  28  29
ENDBRANCH  27  28
ENDBRANCH  26  27
ENDBRANCH  25  26
ENDBRANCH  24  25
ENDBRANCH  23  24
ENDBRANCH  22  23
ENDBRANCH  21  22
ENDBRANCH  20  21
ENDBRANCH  19  20
ENDBRANCH  18  19
ENDBRANCH   1  18
TORSDOF 28
ENDMDL
MODEL 5
REMARK VINA RESULT:    -3.415     10.376     14.253
REMARK INTER + INTRA:         -13.264
REMARK INTER:                  -8.153
REMARK INTRA:                  -5.111
REMARK UNBOUND:                -4.259
REMARK SMILES CCCCCCCCCCCCCCCCCCCCCCCCCCCCCC(=O)[O-]
REMARK SMILES IDX 16 1 17 2 18 3 19 4 20 5 21 6 22 7 23 8 24 9 25 10 26 11
REMARK SMILES IDX 27 12 28 13 29 14 30 15 31 16 32 17 15 18 14 19 13 20 12 21
REMARK SMILES IDX 11 22 10 23 9 24 8 25 7 26 6 27 5 28 4 29 3 30 2 31 1 32
REMARK H PARENT
REMARK Flexibility Score: inf
ROOT
ATOM      1  C   UNL     1      56.318  29.641  49.713  1.00  0.00     0.000 C 
ENDROOT
BRANCH   1   2
ATOM      2  C   UNL     1      55.026  30.380  50.100  1.00  0.00     0.000 C 
BRANCH   2   3
ATOM      3  C   UNL     1      54.838  30.484  51.622  1.00  0.00     0.000 C 
BRANCH   3   4
ATOM      4  C   UNL     1      56.049  31.123  52.326  1.00  0.00     0.000 C 
BRANCH   4   5
ATOM      5  C   UNL     1      56.487  30.324  53.572  1.00  0.00     0.000 C 
BRANCH   5   6
ATOM      6  C   UNL     1      57.584  29.279  53.287  1.00  0.00     0.000 C 
BRANCH   6   7
ATOM      7  C   UNL     1      59.011  29.844  53.195  1.00  0.00     0.000 C 
BRANCH   7   8
ATOM      8  C   UNL     1      59.671  29.568  51.833  1.00  0.00     0.000 C 
BRANCH   8   9
ATOM      9  C   UNL     1      60.895  28.643  51.944  1.00  0.00     0.000 C 
BRANCH   9  10
ATOM     10  C   UNL     1      60.972  27.822  53.246  1.00  0.00     0.000 C 
BRANCH  10  11
ATOM     11  C   UNL     1      61.151  26.306  53.012  1.00  0.00     0.000 C 
BRANCH  11  12
ATOM     12  C   UNL     1      59.889  25.510  53.376  1.00  0.00     0.000 C 
BRANCH  12  13
ATOM     13  C   UNL     1      58.732  25.844  52.424  1.00  0.00     0.006 C 
BRANCH  13  14
ATOM     14  C   UNL     1      57.361  25.586  53.062  1.00  0.00     0.053 C 
BRANCH  14  15
ATOM     15  C   UNL     1      56.611  24.505  52.348  1.00  0.00     0.041 C 
ATOM     16  O   UNL     1      55.779  24.800  51.451  1.00  0.00    -0.550 OA
ATOM     17  O   UNL     1      56.805  23.174  52.694  1.00  0.00    -0.550 OA
ENDBRANCH  14  15
ENDBRANCH  13  14
ENDBRANCH  12  13
ENDBRANCH  11  12
ENDBRANCH  10  11
ENDBRANCH   9  10
ENDBRANCH   8   9
ENDBRANCH   7   8
ENDBRANCH   6   7
ENDBRANCH   5   6
ENDBRANCH   4   5
ENDBRANCH   3   4
ENDBRANCH   2   3
ENDBRANCH   1   2
BRANCH   1  18
ATOM     18  C   UNL     1      56.251  28.139  50.032  1.00  0.00     0.000 C 
BRANCH  18  19
ATOM     19  C   UNL     1      57.539  27.396  49.637  1.00  0.00     0.000 C 
BRANCH  19  20
ATOM     20  C   UNL     1      58.481  28.268  48.792  1.00  0.00     0.000 C 
BRANCH  20  21
ATOM     21  C   UNL     1      59.855  27.612  48.580  1.00  0.00     0.000 C 
BRANCH  21  22
ATOM     22  C   UNL     1      59.877  26.129  48.988  1.00  0.00     0.000 C 
BRANCH  22  23
ATOM     23  C   UNL     1      61.243  25.662  49.536  1.00  0.00     0.000 C 
BRANCH  23  24
ATOM     24  C   UNL     1      61.324  24.133  49.678  1.00  0.00    -0.000 C 
BRANCH  24  25
ATOM     25  C   UNL     1      59.945  23.474  49.859  1.00  0.00    -0.000 C 
BRANCH  25  26
ATOM     26  C   UNL     1      59.863  22.540  51.086  1.00  0.00    -0.000 C 
BRANCH  26  27
ATOM     27  C   UNL     1      60.898  21.406  51.025  1.00  0.00    -0.000 C 
BRANCH  27  28
ATOM     28  C   UNL     1      60.592  20.442  49.869  1.00  0.00    -0.000 C 
BRANCH  28  29
ATOM     29  C   UNL     1      59.625  19.313  50.271  1.00  0.00    -0.000 C 
BRANCH  29  30
ATOM     30  C   UNL     1      58.942  18.588  49.094  1.00  0.00    -0.000 C 
BRANCH  30  31
ATOM     31  C   UNL     1      58.224  17.279  49.467  1.00  0.00    -0.003 C 
ATOM     32  C   UNL     1      57.660  17.294  50.887  1.00  0.00     0.004 C 
ENDBRANCH  30  31
ENDBRANCH  29  30
ENDBRANCH  28  29
ENDBRANCH  27  28
ENDBRANCH  26  27
ENDBRANCH  25  26
ENDBRANCH  24  25
ENDBRANCH  23  24
ENDBRANCH  22  23
ENDBRANCH  21  22
ENDBRANCH  20  21
ENDBRANCH  19  20
ENDBRANCH  18  19
ENDBRANCH   1  18
TORSDOF 28
ENDMDL
MODEL 6
REMARK VINA RESULT:    -3.403      2.065      7.515
REMARK INTER + INTRA:         -13.231
REMARK INTER:                  -9.163
REMARK INTRA:                  -4.068
REMARK UNBOUND:                -4.259
REMARK SMILES CCCCCCCCCCCCCCCCCCCCCCCCCCCCCC(=O)[O-]
REMARK SMILES IDX 16 1 17 2 18 3 19 4 20 5 21 6 22 7 23 8 24 9 25 10 26 11
REMARK SMILES IDX 27 12 28 13 29 14 30 15 31 16 32 17 15 18 14 19 13 20 12 21
REMARK SMILES IDX 11 22 10 23 9 24 8 25 7 26 6 27 5 28 4 29 3 30 2 31 1 32
REMARK H PARENT
REMARK Flexibility Score: inf
ROOT
ATOM      1  C   UNL     1      64.423  28.334  56.453  1.00  0.00     0.000 C 
ENDROOT
BRANCH   1   2
ATOM      2  C   UNL     1      65.687  27.813  57.158  1.00  0.00     0.000 C 
BRANCH   2   3
ATOM      3  C   UNL     1      65.365  26.875  58.332  1.00  0.00     0.000 C 
BRANCH   3   4
ATOM      4  C   UNL     1      66.613  26.504  59.153  1.00  0.00     0.000 C 
BRANCH   4   5
ATOM      5  C   UNL     1      67.220  27.726  59.875  1.00  0.00     0.000 C 
BRANCH   5   6
ATOM      6  C   UNL     1      68.627  28.108  59.375  1.00  0.00     0.000 C 
BRANCH   6   7
ATOM      7  C   UNL     1      69.784  27.651  60.280  1.00  0.00     0.000 C 
BRANCH   7   8
ATOM      8  C   UNL     1      70.167  28.707  61.331  1.00  0.00     0.000 C 
BRANCH   8   9
ATOM      9  C   UNL     1      71.419  29.507  60.938  1.00  0.00     0.000 C 
BRANCH   9  10
ATOM     10  C   UNL     1      72.133  29.013  59.664  1.00  0.00     0.000 C 
BRANCH  10  11
ATOM     11  C   UNL     1      72.101  30.029  58.502  1.00  0.00     0.000 C 
BRANCH  11  12
ATOM     12  C   UNL     1      71.004  31.088  58.687  1.00  0.00     0.000 C 
BRANCH  12  13
ATOM     13  C   UNL     1      71.163  32.229  57.673  1.00  0.00     0.006 C 
BRANCH  13  14
ATOM     14  C   UNL     1      69.864  33.022  57.482  1.00  0.00     0.053 C 
BRANCH  14  15
ATOM     15  C   UNL     1      69.934  34.368  58.136  1.00  0.00     0.041 C 
ATOM     16  O   UNL     1      70.342  34.473  59.321  1.00  0.00    -0.550 OA
ATOM     17  O   UNL     1      69.518  35.501  57.449  1.00  0.00    -0.550 OA
ENDBRANCH  14  15
ENDBRANCH  13  14
ENDBRANCH  12  13
ENDBRANCH  11  12
ENDBRANCH  10  11
ENDBRANCH   9  10
ENDBRANCH   8   9
ENDBRANCH   7   8
ENDBRANCH   6   7
ENDBRANCH   5   6
ENDBRANCH   4   5
ENDBRANCH   3   4
ENDBRANCH   2   3
ENDBRANCH   1   2
BRANCH   1  18
ATOM     18  C   UNL     1      63.133  27.893  57.164  1.00  0.00     0.000 C 
BRANCH  18  19
ATOM     19  C   UNL     1      61.955  28.844  56.889  1.00  0.00     0.000 C 
BRANCH  19  20
ATOM     20  C   UNL     1      60.752  28.562  57.803  1.00  0.00     0.000 C 
BRANCH  20  21
ATOM     21  C   UNL     1      60.423  29.749  58.723  1.00  0.00     0.000 C 
BRANCH  21  22
ATOM     22  C   UNL     1      60.673  29.439  60.209  1.00  0.00     0.000 C 
BRANCH  22  23
ATOM     23  C   UNL     1      61.373  28.083  60.445  1.00  0.00     0.000 C 
BRANCH  23  24
ATOM     24  C   UNL     1      62.881  28.240  60.698  1.00  0.00    -0.000 C 
BRANCH  24  25
ATOM     25  C   UNL     1      63.300  29.702  60.933  1.00  0.00    -0.000 C 
BRANCH  25  26
ATOM     26  C   UNL     1      64.611  30.093  60.216  1.00  0.00    -0.000 C 
BRANCH  26  27
ATOM     27  C   UNL     1      64.357  30.946  58.964  1.00  0.00    -0.000 C 
BRANCH  27  28
ATOM     28  C   UNL     1      63.351  32.070  59.257  1.00  0.00    -0.000 C 
BRANCH  28  29
ATOM     29  C   UNL     1      64.011  33.322  59.865  1.00  0.00    -0.000 C 
BRANCH  29  30
ATOM     30  C   UNL     1      63.163  34.608  59.793  1.00  0.00    -0.000 C 
BRANCH  30  31
ATOM     31  C   UNL     1      63.121  35.430  61.093  1.00  0.00    -0.003 C 
ATOM     32  C   UNL     1      64.348  35.208  61.977  1.00  0.00     0.004 C 
ENDBRANCH  30  31
ENDBRANCH  29  30
ENDBRANCH  28  29
ENDBRANCH  27  28
ENDBRANCH  26  27
ENDBRANCH  25  26
ENDBRANCH  24  25
ENDBRANCH  23  24
ENDBRANCH  22  23
ENDBRANCH  21  22
ENDBRANCH  20  21
ENDBRANCH  19  20
ENDBRANCH  18  19
ENDBRANCH   1  18
TORSDOF 28
ENDMDL
MODEL 7
REMARK VINA RESULT:    -3.359     12.188     15.402
REMARK INTER + INTRA:         -13.115
REMARK INTER:                  -8.540
REMARK INTRA:                  -4.575
REMARK UNBOUND:                -4.259
REMARK SMILES CCCCCCCCCCCCCCCCCCCCCCCCCCCCCC(=O)[O-]
REMARK SMILES IDX 16 1 17 2 18 3 19 4 20 5 21 6 22 7 23 8 24 9 25 10 26 11
REMARK SMILES IDX 27 12 28 13 29 14 30 15 31 16 32 17 15 18 14 19 13 20 12 21
REMARK SMILES IDX 11 22 10 23 9 24 8 25 7 26 6 27 5 28 4 29 3 30 2 31 1 32
REMARK H PARENT
REMARK Flexibility Score: inf
ROOT
ATOM      1  C   UNL     1      59.509  20.746  50.917  1.00  0.00     0.000 C 
ENDROOT
BRANCH   1   2
ATOM      2  C   UNL     1      59.513  19.867  52.179  1.00  0.00     0.000 C 
BRANCH   2   3
ATOM      3  C   UNL     1      60.412  18.629  52.034  1.00  0.00     0.000 C 
BRANCH   3   4
ATOM      4  C   UNL     1      59.699  17.327  52.441  1.00  0.00     0.000 C 
BRANCH   4   5
ATOM      5  C   UNL     1      59.630  16.313  51.279  1.00  0.00     0.000 C 
BRANCH   5   6
ATOM      6  C   UNL     1      58.246  16.229  50.607  1.00  0.00     0.000 C 
BRANCH   6   7
ATOM      7  C   UNL     1      58.019  17.227  49.459  1.00  0.00     0.000 C 
BRANCH   7   8
ATOM      8  C   UNL     1      56.915  18.252  49.774  1.00  0.00     0.000 C 
BRANCH   8   9
ATOM      9  C   UNL     1      56.280  18.032  51.157  1.00  0.00     0.000 C 
BRANCH   9  10
ATOM     10  C   UNL     1      55.468  19.226  51.696  1.00  0.00     0.000 C 
BRANCH  10  11
ATOM     11  C   UNL     1      55.491  19.347  53.235  1.00  0.00     0.000 C 
BRANCH  11  12
ATOM     12  C   UNL     1      55.287  17.990  53.927  1.00  0.00     0.000 C 
BRANCH  12  13
ATOM     13  C   UNL     1      56.571  17.534  54.634  1.00  0.00     0.006 C 
BRANCH  13  14
ATOM     14  C   UNL     1      56.337  16.312  55.532  1.00  0.00     0.053 C 
BRANCH  14  15
ATOM     15  C   UNL     1      56.011  16.711  56.938  1.00  0.00     0.041 C 
ATOM     16  O   UNL     1      56.913  16.730  57.815  1.00  0.00    -0.550 OA
ATOM     17  O   UNL     1      54.705  17.028  57.289  1.00  0.00    -0.550 OA
ENDBRANCH  14  15
ENDBRANCH  13  14
ENDBRANCH  12  13
ENDBRANCH  11  12
ENDBRANCH  10  11
ENDBRANCH   9  10
ENDBRANCH   8   9
ENDBRANCH   7   8
ENDBRANCH   6   7
ENDBRANCH   5   6
ENDBRANCH   4   5
ENDBRANCH   3   4
ENDBRANCH   2   3
ENDBRANCH   1   2
BRANCH   1  18
ATOM     18  C   UNL     1      60.545  20.284  49.879  1.00  0.00     0.000 C 
BRANCH  18  19
ATOM     19  C   UNL     1      60.661  21.255  48.691  1.00  0.00     0.000 C 
BRANCH  19  20
ATOM     20  C   UNL     1      62.122  21.521  48.295  1.00  0.00     0.000 C 
BRANCH  20  21
ATOM     21  C   UNL     1      63.095  21.313  49.468  1.00  0.00     0.000 C 
BRANCH  21  22
ATOM     22  C   UNL     1      64.078  22.482  49.642  1.00  0.00     0.000 C 
BRANCH  22  23
ATOM     23  C   UNL     1      63.740  23.398  50.838  1.00  0.00     0.000 C 
BRANCH  23  24
ATOM     24  C   UNL     1      62.501  22.916  51.611  1.00  0.00    -0.000 C 
BRANCH  24  25
ATOM     25  C   UNL     1      61.346  23.931  51.584  1.00  0.00    -0.000 C 
BRANCH  25  26
ATOM     26  C   UNL     1      61.810  25.392  51.397  1.00  0.00    -0.000 C 
BRANCH  26  27
ATOM     27  C   UNL     1      61.157  26.059  50.177  1.00  0.00    -0.000 C 
BRANCH  27  28
ATOM     28  C   UNL     1      60.339  25.043  49.366  1.00  0.00    -0.000 C 
BRANCH  28  29
ATOM     29  C   UNL     1      58.826  25.332  49.394  1.00  0.00    -0.000 C 
BRANCH  29  30
ATOM     30  C   UNL     1      58.406  26.535  50.263  1.00  0.00    -0.000 C 
BRANCH  30  31
ATOM     31  C   UNL     1      57.857  27.740  49.480  1.00  0.00    -0.003 C 
ATOM     32  C   UNL     1      58.880  28.337  48.514  1.00  0.00     0.004 C 
ENDBRANCH  30  31
ENDBRANCH  29  30
ENDBRANCH  28  29
ENDBRANCH  27  28
ENDBRANCH  26  27
ENDBRANCH  25  26
ENDBRANCH  24  25
ENDBRANCH  23  24
ENDBRANCH  22  23
ENDBRANCH  21  22
ENDBRANCH  20  21
ENDBRANCH  19  20
ENDBRANCH  18  19
ENDBRANCH   1  18
TORSDOF 28
ENDMDL
MODEL 8
REMARK VINA RESULT:    -3.338      2.852      7.986
REMARK INTER + INTRA:         -13.060
REMARK INTER:                  -7.592
REMARK INTRA:                  -5.468
REMARK UNBOUND:                -4.259
REMARK SMILES CCCCCCCCCCCCCCCCCCCCCCCCCCCCCC(=O)[O-]
REMARK SMILES IDX 16 1 17 2 18 3 19 4 20 5 21 6 22 7 23 8 24 9 25 10 26 11
REMARK SMILES IDX 27 12 28 13 29 14 30 15 31 16 32 17 15 18 14 19 13 20 12 21
REMARK SMILES IDX 11 22 10 23 9 24 8 25 7 26 6 27 5 28 4 29 3 30 2 31 1 32
REMARK H PARENT
REMARK Flexibility Score: inf
ROOT
ATOM      1  C   UNL     1      63.885  30.185  60.499  1.00  0.00     0.000 C 
ENDROOT
BRANCH   1   2
ATOM      2  C   UNL     1      65.220  29.711  59.900  1.00  0.00     0.000 C 
BRANCH   2   3
ATOM      3  C   UNL     1      65.264  28.190  59.684  1.00  0.00     0.000 C 
BRANCH   3   4
ATOM      4  C   UNL     1      65.559  27.808  58.222  1.00  0.00     0.000 C 
BRANCH   4   5
ATOM      5  C   UNL     1      64.394  28.172  57.278  1.00  0.00     0.000 C 
BRANCH   5   6
ATOM      6  C   UNL     1      64.739  29.278  56.262  1.00  0.00     0.000 C 
BRANCH   6   7
ATOM      7  C   UNL     1      63.896  30.558  56.383  1.00  0.00     0.000 C 
BRANCH   7   8
ATOM      8  C   UNL     1      64.744  31.838  56.279  1.00  0.00     0.000 C 
BRANCH   8   9
ATOM      9  C   UNL     1      66.013  31.781  57.144  1.00  0.00     0.000 C 
BRANCH   9  10
ATOM     10  C   UNL     1      67.310  32.201  56.424  1.00  0.00     0.000 C 
BRANCH  10  11
ATOM     11  C   UNL     1      68.577  31.518  56.982  1.00  0.00     0.000 C 
BRANCH  11  12
ATOM     12  C   UNL     1      68.294  30.097  57.493  1.00  0.00     0.000 C 
BRANCH  12  13
ATOM     13  C   UNL     1      69.450  29.584  58.363  1.00  0.00     0.006 C 
BRANCH  13  14
ATOM     14  C   UNL     1      69.069  28.325  59.152  1.00  0.00     0.053 C 
BRANCH  14  15
ATOM     15  C   UNL     1      69.975  28.109  60.324  1.00  0.00     0.041 C 
ATOM     16  O   UNL     1      70.940  27.305  60.237  1.00  0.00    -0.550 OA
ATOM     17  O   UNL     1      69.736  28.768  61.523  1.00  0.00    -0.550 OA
ENDBRANCH  14  15
ENDBRANCH  13  14
ENDBRANCH  12  13
ENDBRANCH  11  12
ENDBRANCH  10  11
ENDBRANCH   9  10
ENDBRANCH   8   9
ENDBRANCH   7   8
ENDBRANCH   6   7
ENDBRANCH   5   6
ENDBRANCH   4   5
ENDBRANCH   3   4
ENDBRANCH   2   3
ENDBRANCH   1   2
BRANCH   1  18
ATOM     18  C   UNL     1      63.021  29.017  61.001  1.00  0.00     0.000 C 
BRANCH  18  19
ATOM     19  C   UNL     1      61.520  29.245  60.752  1.00  0.00     0.000 C 
BRANCH  19  20
ATOM     20  C   UNL     1      61.002  28.451  59.542  1.00  0.00     0.000 C 
BRANCH  20  21
ATOM     21  C   UNL     1      60.993  29.288  58.252  1.00  0.00     0.000 C 
BRANCH  21  22
ATOM     22  C   UNL     1      60.932  30.801  58.523  1.00  0.00     0.000 C 
BRANCH  22  23
ATOM     23  C   UNL     1      59.536  31.414  58.277  1.00  0.00     0.000 C 
BRANCH  23  24
ATOM     24  C   UNL     1      59.600  32.686  57.415  1.00  0.00    -0.000 C 
BRANCH  24  25
ATOM     25  C   UNL     1      60.695  32.623  56.336  1.00  0.00    -0.000 C 
BRANCH  25  26
ATOM     26  C   UNL     1      61.682  33.810  56.386  1.00  0.00    -0.000 C 
BRANCH  26  27
ATOM     27  C   UNL     1      61.566  34.608  57.694  1.00  0.00    -0.000 C 
BRANCH  27  28
ATOM     28  C   UNL     1      62.948  34.838  58.324  1.00  0.00    -0.000 C 
BRANCH  28  29
ATOM     29  C   UNL     1      63.433  33.640  59.161  1.00  0.00    -0.000 C 
BRANCH  29  30
ATOM     30  C   UNL     1      63.999  34.000  60.550  1.00  0.00    -0.000 C 
BRANCH  30  31
ATOM     31  C   UNL     1      63.410  35.274  61.180  1.00  0.00    -0.003 C 
ATOM     32  C   UNL     1      64.068  35.638  62.511  1.00  0.00     0.004 C 
ENDBRANCH  30  31
ENDBRANCH  29  30
ENDBRANCH  28  29
ENDBRANCH  27  28
ENDBRANCH  26  27
ENDBRANCH  25  26
ENDBRANCH  24  25
ENDBRANCH  23  24
ENDBRANCH  22  23
ENDBRANCH  21  22
ENDBRANCH  20  21
ENDBRANCH  19  20
ENDBRANCH  18  19
ENDBRANCH   1  18
TORSDOF 28
ENDMDL
MODEL 9
REMARK VINA RESULT:    -3.309      8.949     11.367
REMARK INTER + INTRA:         -12.984
REMARK INTER:                  -7.200
REMARK INTRA:                  -5.784
REMARK UNBOUND:                -4.259
REMARK SMILES CCCCCCCCCCCCCCCCCCCCCCCCCCCCCC(=O)[O-]
REMARK SMILES IDX 16 1 17 2 18 3 19 4 20 5 21 6 22 7 23 8 24 9 25 10 26 11
REMARK SMILES IDX 27 12 28 13 29 14 30 15 31 16 32 17 15 18 14 19 13 20 12 21
REMARK SMILES IDX 11 22 10 23 9 24 8 25 7 26 6 27 5 28 4 29 3 30 2 31 1 32
REMARK H PARENT
REMARK Flexibility Score: inf
ROOT
ATOM      1  C   UNL     1      58.460  26.363  52.420  1.00  0.00     0.000 C 
ENDROOT
BRANCH   1   2
ATOM      2  C   UNL     1      59.124  27.723  52.699  1.00  0.00     0.000 C 
BRANCH   2   3
ATOM      3  C   UNL     1      60.411  27.929  51.885  1.00  0.00     0.000 C 
BRANCH   3   4
ATOM      4  C   UNL     1      60.234  28.946  50.743  1.00  0.00     0.000 C 
BRANCH   4   5
ATOM      5  C   UNL     1      60.355  28.286  49.352  1.00  0.00     0.000 C 
BRANCH   5   6
ATOM      6  C   UNL     1      59.008  28.130  48.619  1.00  0.00     0.000 C 
BRANCH   6   7
ATOM      7  C   UNL     1      57.825  28.866  49.270  1.00  0.00     0.000 C 
BRANCH   7   8
ATOM      8  C   UNL     1      56.710  27.908  49.725  1.00  0.00     0.000 C 
BRANCH   8   9
ATOM      9  C   UNL     1      55.422  28.645  50.125  1.00  0.00     0.000 C 
BRANCH   9  10
ATOM     10  C   UNL     1      55.485  30.180  49.996  1.00  0.00     0.000 C 
BRANCH  10  11
ATOM     11  C   UNL     1      54.877  30.928  51.202  1.00  0.00     0.000 C 
BRANCH  11  12
ATOM     12  C   UNL     1      55.938  31.705  51.997  1.00  0.00     0.000 C 
BRANCH  12  13
ATOM     13  C   UNL     1      57.134  30.807  52.345  1.00  0.00     0.006 C 
BRANCH  13  14
ATOM     14  C   UNL     1      58.379  31.618  52.722  1.00  0.00     0.053 C 
BRANCH  14  15
ATOM     15  C   UNL     1      58.388  31.979  54.175  1.00  0.00     0.041 C 
ATOM     16  O   UNL     1      58.286  33.183  54.527  1.00  0.00    -0.550 OA
ATOM     17  O   UNL     1      58.541  30.992  55.140  1.00  0.00    -0.550 OA
ENDBRANCH  14  15
ENDBRANCH  13  14
ENDBRANCH  12  13
ENDBRANCH  11  12
ENDBRANCH  10  11
ENDBRANCH   9  10
ENDBRANCH   8   9
ENDBRANCH   7   8
ENDBRANCH   6   7
ENDBRANCH   5   6
ENDBRANCH   4   5
ENDBRANCH   3   4
ENDBRANCH   2   3
ENDBRANCH   1   2
BRANCH   1  18
ATOM     18  C   UNL     1      59.417  25.374  51.736  1.00  0.00     0.000 C 
BRANCH  18  19
ATOM     19  C   UNL     1      58.885  24.885  50.378  1.00  0.00     0.000 C 
BRANCH  19  20
ATOM     20  C   UNL     1      60.017  24.560  49.390  1.00  0.00     0.000 C 
BRANCH  20  21
ATOM     21  C   UNL     1      61.097  23.660  50.011  1.00  0.00     0.000 C 
BRANCH  21  22
ATOM     22  C   UNL     1      62.525  24.120  49.671  1.00  0.00     0.000 C 
BRANCH  22  23
ATOM     23  C   UNL     1      62.691  25.655  49.667  1.00  0.00     0.000 C 
BRANCH  23  24
ATOM     24  C   UNL     1      63.942  26.106  48.894  1.00  0.00    -0.000 C 
BRANCH  24  25
ATOM     25  C   UNL     1      63.650  27.234  47.889  1.00  0.00    -0.000 C 
BRANCH  25  26
ATOM     26  C   UNL     1      64.572  28.461  48.053  1.00  0.00    -0.000 C 
BRANCH  26  27
ATOM     27  C   UNL     1      63.784  29.741  48.375  1.00  0.00    -0.000 C 
BRANCH  27  28
ATOM     28  C   UNL     1      64.371  30.456  49.601  1.00  0.00    -0.000 C 
BRANCH  28  29
ATOM     29  C   UNL     1      63.379  30.541  50.777  1.00  0.00    -0.000 C 
BRANCH  29  30
ATOM     30  C   UNL     1      63.860  29.883  52.086  1.00  0.00    -0.000 C 
BRANCH  30  31
ATOM     31  C   UNL     1      64.659  28.582  51.903  1.00  0.00    -0.003 C 
ATOM     32  C   UNL     1      63.998  27.378  52.573  1.00  0.00     0.004 C 
ENDBRANCH  30  31
ENDBRANCH  29  30
ENDBRANCH  28  29
ENDBRANCH  27  28
ENDBRANCH  26  27
ENDBRANCH  25  26
ENDBRANCH  24  25
ENDBRANCH  23  24
ENDBRANCH  22  23
ENDBRANCH  21  22
ENDBRANCH  20  21
ENDBRANCH  19  20
ENDBRANCH  18  19
ENDBRANCH   1  18
TORSDOF 28
ENDMDL
