MODEL 1
REMARK VINA RESULT:    -4.652      0.000      0.000
REMARK INTER + INTRA:          -5.308
REMARK INTER:                  -5.060
REMARK INTRA:                  -0.248
REMARK UNBOUND:                -0.248
REMARK SMILES O=C([O-])c1ccccc1O
REMARK SMILES IDX 4 1 9 2 5 3 8 4 6 5 7 6 2 7 1 8 3 9 10 10
REMARK H PARENT 10 11
REMARK Flexibility Score: inf
ROOT
ATOM      1  C   UNL     1      20.840   0.437 -20.242  1.00  0.00     0.039 A 
ATOM      2  C   UNL     1      21.248   0.770 -18.929  1.00  0.00     0.124 A 
ATOM      3  C   UNL     1      19.767  -0.460 -20.412  1.00  0.00     0.014 A 
ATOM      4  C   UNL     1      20.586   0.208 -17.826  1.00  0.00     0.047 A 
ATOM      5  C   UNL     1      19.116  -1.012 -19.306  1.00  0.00     0.001 A 
ATOM      6  C   UNL     1      19.525  -0.679 -18.015  1.00  0.00     0.004 A 
ENDROOT
BRANCH   1   7
ATOM      7  C   UNL     1      21.512   1.008 -21.438  1.00  0.00     0.075 C 
ATOM      8  O   UNL     1      21.796   2.235 -21.483  1.00  0.00    -0.545 OA
ATOM      9  O   UNL     1      21.843   0.209 -22.526  1.00  0.00    -0.545 OA
ENDBRANCH   1   7
BRANCH   2  10
ATOM     10  O   UNL     1      22.306   1.653 -18.711  1.00  0.00    -0.507 OA
ATOM     11  H   UNL     1      22.196   2.488 -18.147  1.00  0.00     0.293 HD
ENDBRANCH   2  10
TORSDOF 2
ENDMDL
MODEL 2
REMARK VINA RESULT:    -4.612      0.532      1.136
REMARK INTER + INTRA:          -5.264
REMARK INTER:                  -5.011
REMARK INTRA:                  -0.253
REMARK UNBOUND:                -0.248
REMARK SMILES O=C([O-])c1ccccc1O
REMARK SMILES IDX 4 1 9 2 5 3 8 4 6 5 7 6 2 7 1 8 3 9 10 10
REMARK H PARENT 10 11
REMARK Flexibility Score: inf
ROOT
ATOM      1  C   UNL     1      20.586   0.047 -20.108  1.00  0.00     0.039 A 
ATOM      2  C   UNL     1      21.082   0.558 -18.885  1.00  0.00     0.124 A 
ATOM      3  C   UNL     1      19.462  -0.803 -20.082  1.00  0.00     0.014 A 
ATOM      4  C   UNL     1      20.453   0.215 -17.678  1.00  0.00     0.047 A 
ATOM      5  C   UNL     1      18.846  -1.136 -18.874  1.00  0.00     0.001 A 
ATOM      6  C   UNL     1      19.341  -0.627 -17.673  1.00  0.00     0.004 A 
ENDROOT
BRANCH   1   7
ATOM      7  C   UNL     1      21.219   0.383 -21.410  1.00  0.00     0.075 C 
ATOM      8  O   UNL     1      21.376  -0.505 -22.289  1.00  0.00    -0.545 OA
ATOM      9  O   UNL     1      21.651   1.676 -21.685  1.00  0.00    -0.545 OA
ENDBRANCH   1   7
BRANCH   2  10
ATOM     10  O   UNL     1      22.192   1.402 -18.861  1.00  0.00    -0.507 OA
ATOM     11  H   UNL     1      23.126   1.059 -19.053  1.00  0.00     0.293 HD
ENDBRANCH   2  10
TORSDOF 2
ENDMDL
MODEL 3
REMARK VINA RESULT:    -4.577      1.269      2.229
REMARK INTER + INTRA:          -5.226
REMARK INTER:                  -4.973
REMARK INTRA:                  -0.253
REMARK UNBOUND:                -0.248
REMARK SMILES O=C([O-])c1ccccc1O
REMARK SMILES IDX 4 1 9 2 5 3 8 4 6 5 7 6 2 7 1 8 3 9 10 10
REMARK H PARENT 10 11
REMARK Flexibility Score: inf
ROOT
ATOM      1  C   UNL     1      20.699   0.287 -20.042  1.00  0.00     0.039 A 
ATOM      2  C   UNL     1      19.469  -0.397 -19.883  1.00  0.00     0.124 A 
ATOM      3  C   UNL     1      21.398   0.703 -18.892  1.00  0.00     0.014 A 
ATOM      4  C   UNL     1      18.971  -0.647 -18.594  1.00  0.00     0.047 A 
ATOM      5  C   UNL     1      20.890   0.447 -17.616  1.00  0.00     0.001 A 
ATOM      6  C   UNL     1      19.678  -0.227 -17.467  1.00  0.00     0.004 A 
ENDROOT
BRANCH   1   7
ATOM      7  C   UNL     1      21.264   0.573 -21.386  1.00  0.00     0.075 C 
ATOM      8  O   UNL     1      21.642   1.737 -21.683  1.00  0.00    -0.545 OA
ATOM      9  O   UNL     1      21.388  -0.430 -22.342  1.00  0.00    -0.545 OA
ENDBRANCH   1   7
BRANCH   2  10
ATOM     10  O   UNL     1      18.741  -0.827 -20.992  1.00  0.00    -0.507 OA
ATOM     11  H   UNL     1      18.094  -0.215 -21.474  1.00  0.00     0.293 HD
ENDBRANCH   2  10
TORSDOF 2
ENDMDL
MODEL 4
REMARK VINA RESULT:    -4.395     17.574     19.237
REMARK INTER + INTRA:          -5.029
REMARK INTER:                  -4.778
REMARK INTRA:                  -0.251
REMARK UNBOUND:                -0.248
REMARK SMILES O=C([O-])c1ccccc1O
REMARK SMILES IDX 4 1 9 2 5 3 8 4 6 5 7 6 2 7 1 8 3 9 10 10
REMARK H PARENT 10 11
REMARK Flexibility Score: inf
ROOT
ATOM      1  C   UNL     1       8.555  -6.413  -6.687  1.00  0.00     0.039 A 
ATOM      2  C   UNL     1       9.758  -5.815  -7.135  1.00  0.00     0.124 A 
ATOM      3  C   UNL     1       7.836  -7.237  -7.575  1.00  0.00     0.014 A 
ATOM      4  C   UNL     1      10.212  -6.052  -8.442  1.00  0.00     0.047 A 
ATOM      5  C   UNL     1       8.299  -7.464  -8.873  1.00  0.00     0.001 A 
ATOM      6  C   UNL     1       9.486  -6.872  -9.306  1.00  0.00     0.004 A 
ENDROOT
BRANCH   1   7
ATOM      7  C   UNL     1       8.037  -6.190  -5.312  1.00  0.00     0.075 C 
ATOM      8  O   UNL     1       7.962  -5.024  -4.842  1.00  0.00    -0.545 OA
ATOM      9  O   UNL     1       7.625  -7.255  -4.519  1.00  0.00    -0.545 OA
ENDBRANCH   1   7
BRANCH   2  10
ATOM     10  O   UNL     1      10.503  -4.990  -6.292  1.00  0.00    -0.507 OA
ATOM     11  H   UNL     1      10.494  -5.109  -5.286  1.00  0.00     0.293 HD
ENDBRANCH   2  10
TORSDOF 2
ENDMDL
MODEL 5
REMARK VINA RESULT:    -4.393      1.502      3.289
REMARK INTER + INTRA:          -5.026
REMARK INTER:                  -4.813
REMARK INTRA:                  -0.213
REMARK UNBOUND:                -0.248
REMARK SMILES O=C([O-])c1ccccc1O
REMARK SMILES IDX 4 1 9 2 5 3 8 4 6 5 7 6 2 7 1 8 3 9 10 10
REMARK H PARENT 10 11
REMARK Flexibility Score: inf
ROOT
ATOM      1  C   UNL     1      21.037   0.244 -18.723  1.00  0.00     0.039 A 
ATOM      2  C   UNL     1      21.349   0.955 -19.907  1.00  0.00     0.124 A 
ATOM      3  C   UNL     1      20.378  -0.997 -18.831  1.00  0.00     0.014 A 
ATOM      4  C   UNL     1      21.001   0.419 -21.157  1.00  0.00     0.047 A 
ATOM      5  C   UNL     1      20.038  -1.519 -20.082  1.00  0.00     0.001 A 
ATOM      6  C   UNL     1      20.349  -0.812 -21.243  1.00  0.00     0.004 A 
ENDROOT
BRANCH   1   7
ATOM      7  C   UNL     1      21.386   0.773 -17.379  1.00  0.00     0.075 C 
ATOM      8  O   UNL     1      20.479   1.055 -16.551  1.00  0.00    -0.545 OA
ATOM      9  O   UNL     1      22.711   0.968 -17.006  1.00  0.00    -0.545 OA
ENDBRANCH   1   7
BRANCH   2  10
ATOM     10  O   UNL     1      22.000   2.187 -19.850  1.00  0.00    -0.507 OA
ATOM     11  H   UNL     1      22.946   2.274 -19.497  1.00  0.00     0.293 HD
ENDBRANCH   2  10
TORSDOF 2
ENDMDL
MODEL 6
REMARK VINA RESULT:    -4.370     17.510     19.192
REMARK INTER + INTRA:          -5.001
REMARK INTER:                  -4.746
REMARK INTRA:                  -0.255
REMARK UNBOUND:                -0.248
REMARK SMILES O=C([O-])c1ccccc1O
REMARK SMILES IDX 4 1 9 2 5 3 8 4 6 5 7 6 2 7 1 8 3 9 10 10
REMARK H PARENT 10 11
REMARK Flexibility Score: inf
ROOT
ATOM      1  C   UNL     1       8.556  -6.441  -6.790  1.00  0.00     0.039 A 
ATOM      2  C   UNL     1       9.757  -5.811  -7.195  1.00  0.00     0.124 A 
ATOM      3  C   UNL     1       7.854  -7.228  -7.724  1.00  0.00     0.014 A 
ATOM      4  C   UNL     1      10.225  -5.979  -8.507  1.00  0.00     0.047 A 
ATOM      5  C   UNL     1       8.332  -7.387  -9.026  1.00  0.00     0.001 A 
ATOM      6  C   UNL     1       9.516  -6.763  -9.418  1.00  0.00     0.004 A 
ENDROOT
BRANCH   1   7
ATOM      7  C   UNL     1       8.022  -6.292  -5.411  1.00  0.00     0.075 C 
ATOM      8  O   UNL     1       7.601  -7.297  -4.779  1.00  0.00    -0.545 OA
ATOM      9  O   UNL     1       7.977  -5.049  -4.789  1.00  0.00    -0.545 OA
ENDBRANCH   1   7
BRANCH   2  10
ATOM     10  O   UNL     1      10.485  -5.022  -6.305  1.00  0.00    -0.507 OA
ATOM     11  H   UNL     1      11.480  -4.865  -6.423  1.00  0.00     0.293 HD
ENDBRANCH   2  10
TORSDOF 2
ENDMDL
MODEL 7
REMARK VINA RESULT:    -4.332      1.959      2.698
REMARK INTER + INTRA:          -4.960
REMARK INTER:                  -4.707
REMARK INTRA:                  -0.253
REMARK UNBOUND:                -0.248
REMARK SMILES O=C([O-])c1ccccc1O
REMARK SMILES IDX 4 1 9 2 5 3 8 4 6 5 7 6 2 7 1 8 3 9 10 10
REMARK H PARENT 10 11
REMARK Flexibility Score: inf
ROOT
ATOM      1  C   UNL     1      19.980  -0.270 -18.151  1.00  0.00     0.039 A 
ATOM      2  C   UNL     1      20.637   0.673 -17.324  1.00  0.00     0.124 A 
ATOM      3  C   UNL     1      18.778  -0.848 -17.699  1.00  0.00     0.014 A 
ATOM      4  C   UNL     1      20.085   1.014 -16.079  1.00  0.00     0.047 A 
ATOM      5  C   UNL     1      18.239  -0.499 -16.458  1.00  0.00     0.001 A 
ATOM      6  C   UNL     1      18.892   0.431 -15.649  1.00  0.00     0.004 A 
ENDROOT
BRANCH   1   7
ATOM      7  C   UNL     1      20.528  -0.661 -19.476  1.00  0.00     0.075 C 
ATOM      8  O   UNL     1      20.654  -1.878 -19.778  1.00  0.00    -0.545 OA
ATOM      9  O   UNL     1      20.911   0.298 -20.406  1.00  0.00    -0.545 OA
ENDBRANCH   1   7
BRANCH   2  10
ATOM     10  O   UNL     1      21.830   1.270 -17.728  1.00  0.00    -0.507 OA
ATOM     11  H   UNL     1      21.973   1.583 -18.682  1.00  0.00     0.293 HD
ENDBRANCH   2  10
TORSDOF 2
ENDMDL
MODEL 8
REMARK VINA RESULT:    -4.313     17.576     18.693
REMARK INTER + INTRA:          -4.939
REMARK INTER:                  -4.687
REMARK INTRA:                  -0.252
REMARK UNBOUND:                -0.248
REMARK SMILES O=C([O-])c1ccccc1O
REMARK SMILES IDX 4 1 9 2 5 3 8 4 6 5 7 6 2 7 1 8 3 9 10 10
REMARK H PARENT 10 11
REMARK Flexibility Score: inf
ROOT
ATOM      1  C   UNL     1       8.642  -6.549  -7.606  1.00  0.00     0.039 A 
ATOM      2  C   UNL     1      10.021  -6.319  -7.384  1.00  0.00     0.124 A 
ATOM      3  C   UNL     1       8.254  -7.691  -8.333  1.00  0.00     0.014 A 
ATOM      4  C   UNL     1      10.971  -7.223  -7.886  1.00  0.00     0.047 A 
ATOM      5  C   UNL     1       9.209  -8.583  -8.827  1.00  0.00     0.001 A 
ATOM      6  C   UNL     1      10.566  -8.349  -8.604  1.00  0.00     0.004 A 
ENDROOT
BRANCH   1   7
ATOM      7  C   UNL     1       7.603  -5.619  -7.093  1.00  0.00     0.075 C 
ATOM      8  O   UNL     1       6.714  -5.171  -7.865  1.00  0.00    -0.545 OA
ATOM      9  O   UNL     1       7.587  -5.225  -5.760  1.00  0.00    -0.545 OA
ENDBRANCH   1   7
BRANCH   2  10
ATOM     10  O   UNL     1      10.454  -5.201  -6.671  1.00  0.00    -0.507 OA
ATOM     11  H   UNL     1       9.938  -4.329  -6.683  1.00  0.00     0.293 HD
ENDBRANCH   2  10
TORSDOF 2
ENDMDL
MODEL 9
REMARK VINA RESULT:    -4.144     16.634     18.200
REMARK INTER + INTRA:          -4.756
REMARK INTER:                  -4.510
REMARK INTRA:                  -0.245
REMARK UNBOUND:                -0.248
REMARK SMILES O=C([O-])c1ccccc1O
REMARK SMILES IDX 4 1 9 2 5 3 8 4 6 5 7 6 2 7 1 8 3 9 10 10
REMARK H PARENT 10 11
REMARK Flexibility Score: inf
ROOT
ATOM      1  C   UNL     1      12.386   3.811  -4.561  1.00  0.00     0.039 A 
ATOM      2  C   UNL     1      11.632   2.658  -4.236  1.00  0.00     0.124 A 
ATOM      3  C   UNL     1      11.991   5.053  -4.026  1.00  0.00     0.014 A 
ATOM      4  C   UNL     1      10.513   2.768  -3.395  1.00  0.00     0.047 A 
ATOM      5  C   UNL     1      10.876   5.148  -3.190  1.00  0.00     0.001 A 
ATOM      6  C   UNL     1      10.138   4.007  -2.875  1.00  0.00     0.004 A 
ENDROOT
BRANCH   1   7
ATOM      7  C   UNL     1      13.577   3.741  -5.447  1.00  0.00     0.075 C 
ATOM      8  O   UNL     1      13.478   3.265  -6.609  1.00  0.00    -0.545 OA
ATOM      9  O   UNL     1      14.819   4.196  -5.018  1.00  0.00    -0.545 OA
ENDBRANCH   1   7
BRANCH   2  10
ATOM     10  O   UNL     1      11.984   1.407  -4.742  1.00  0.00    -0.507 OA
ATOM     11  H   UNL     1      12.918   1.031  -4.631  1.00  0.00     0.293 HD
ENDBRANCH   2  10
TORSDOF 2
ENDMDL
