MODEL 1
REMARK VINA RESULT:     4.945      0.000      0.000
REMARK INTER + INTRA:           7.859
REMARK INTER:                   6.535
REMARK INTRA:                   1.323
REMARK UNBOUND:                 1.323
REMARK SMILES CC[C@H](C=C[C@@H](C)[C@H]1CC[C@H]2[C@H]3CC=C4C[C@@H](O)CC[C@]4(C)[C@@H]3CC[C@@]12C)C(C)C
REMARK SMILES IDX 6 1 7 2 5 3 4 4 3 5 2 6 1 7 28 8 29 9 30 10 8 11 9 12 26 13
REMARK SMILES IDX 10 14 11 15 25 16 27 17 12 18 24 19 23 20 13 21 21 22 14 23
REMARK SMILES IDX 15 24 20 25 22 26 16 27 19 28 17 29 18 30
REMARK H PARENT 18 31
REMARK Flexibility Score: inf
ROOT
ATOM      1  C   UNL     1     133.992 122.413 140.532  1.00  0.00     0.012 C 
ATOM      2  C   UNL     1     132.915 121.506 141.161  1.00  0.00     0.012 C 
ENDROOT
BRANCH   1   3
ATOM      3  C   UNL     1     135.356 121.778 140.727  1.00  0.00    -0.028 C 
ATOM      4  C   UNL     1     136.293 121.625 139.772  1.00  0.00    -0.027 C 
BRANCH   4   5
ATOM      5  C   UNL     1     136.201 122.162 138.350  1.00  0.00     0.014 C 
BRANCH   5   6
ATOM      6  C   UNL     1     134.765 122.691 138.088  1.00  0.00     0.004 C 
ATOM      7  C   UNL     1     134.720 124.087 137.458  1.00  0.00     0.004 C 
ENDBRANCH   5   6
BRANCH   5   8
ATOM      8  C   UNL     1     137.319 123.214 138.059  1.00  0.00    -0.011 C 
ATOM      9  C   UNL     1     138.347 123.264 139.208  1.00  0.00     0.008 C 
ATOM     10  C   UNL     1     138.051 122.919 136.739  1.00  0.00     0.008 C 
ENDBRANCH   5   8
ENDBRANCH   4   5
ENDBRANCH   1   3
BRANCH   1  11
ATOM     11  C   UNL     1     133.983 123.936 140.903  1.00  0.00     0.002 C 
ATOM     12  C   UNL     1     132.893 124.303 141.902  1.00  0.00     0.005 C 
ATOM     13  C   UNL     1     135.256 124.747 141.341  1.00  0.00    -0.026 C 
ATOM     14  C   UNL     1     133.151 125.761 142.241  1.00  0.00     0.005 C 
ATOM     15  C   UNL     1     134.679 125.983 142.119  1.00  0.00    -0.001 C 
ATOM     16  C   UNL     1     136.283 123.957 142.213  1.00  0.00     0.007 C 
ATOM     17  C   UNL     1     136.013 125.264 140.088  1.00  0.00     0.012 C 
ATOM     18  C   UNL     1     135.398 126.249 143.480  1.00  0.00     0.000 C 
ATOM     19  C   UNL     1     135.885 123.736 143.691  1.00  0.00     0.005 C 
ATOM     20  C   UNL     1     135.329 125.016 144.416  1.00  0.00     0.003 C 
ATOM     21  C   UNL     1     134.846 127.493 144.188  1.00  0.00     0.031 C 
ATOM     22  C   UNL     1     135.824 125.316 145.926  1.00  0.00    -0.008 C 
ATOM     23  C   UNL     1     135.685 127.789 145.380  1.00  0.00    -0.027 C 
ATOM     24  C   UNL     1     136.146 126.808 146.181  1.00  0.00    -0.065 C 
ATOM     25  C   UNL     1     137.089 124.489 146.316  1.00  0.00     0.014 C 
ATOM     26  C   UNL     1     134.664 124.949 146.887  1.00  0.00     0.016 C 
ATOM     27  C   UNL     1     136.870 127.221 147.453  1.00  0.00     0.063 C 
ATOM     28  C   UNL     1     137.690 124.835 147.684  1.00  0.00     0.033 C 
ATOM     29  C   UNL     1     138.076 126.318 147.742  1.00  0.00     0.118 C 
BRANCH  29  30
ATOM     30  O   UNL     1     138.641 126.624 148.992  1.00  0.00    -0.393 OA
ATOM     31  H   UNL     1     137.908 126.931 149.588  1.00  0.00     0.210 HD
ENDBRANCH  29  30
ENDBRANCH   1  11
TORSDOF 6
ENDMDL
