MODEL 1
REMARK VINA RESULT:    -6.086      0.000      0.000
REMARK INTER + INTRA:          -6.086
REMARK INTER:                  -6.086
REMARK INTRA:                   0.000
REMARK UNBOUND:                 0.000
REMARK SMILES CC1=CC[C@]23C[C@H]1C(C)(C)[C@H]2CC[C@H]3C
REMARK SMILES IDX 15 1 14 2 13 3 12 4 11 5 5 6 4 7 3 8 2 9 7 10 6 11 8 12 9 13
REMARK SMILES IDX 10 14 1 15
REMARK H PARENT
REMARK Flexibility Score: inf
ROOT
ATOM      1  C   UNL     1     112.020 107.842 129.271  1.00  0.00     0.008 C 
ATOM      2  C   UNL     1     110.892 106.856 128.934  1.00  0.00    -0.007 C 
ATOM      3  C   UNL     1     111.409 105.450 128.647  1.00  0.00     0.004 C 
ATOM      4  C   UNL     1     110.293 104.764 127.869  1.00  0.00     0.005 C 
ATOM      5  C   UNL     1     109.488 105.881 127.164  1.00  0.00     0.002 C 
ATOM      6  C   UNL     1     110.048 107.221 127.698  1.00  0.00    -0.020 C 
ATOM      7  C   UNL     1     108.894 108.216 128.016  1.00  0.00     0.035 C 
ATOM      8  C   UNL     1     108.189 108.685 126.752  1.00  0.00    -0.027 C 
ATOM      9  C   UNL     1     108.682 108.412 125.519  1.00  0.00    -0.074 C 
ATOM     10  C   UNL     1     109.900 107.492 125.365  1.00  0.00     0.021 C 
ATOM     11  C   UNL     1     110.847 107.794 126.517  1.00  0.00     0.016 C 
ATOM     12  C   UNL     1     109.543 105.992 125.597  1.00  0.00    -0.025 C 
ATOM     13  C   UNL     1     110.630 105.108 124.927  1.00  0.00     0.012 C 
ATOM     14  C   UNL     1     108.185 105.601 124.964  1.00  0.00     0.012 C 
ATOM     15  C   UNL     1     108.009 108.988 124.303  1.00  0.00     0.039 C 
ENDROOT
TORSDOF 0
ENDMDL
MODEL 2
REMARK VINA RESULT:    -6.085      3.882      5.656
REMARK INTER + INTRA:          -6.085
REMARK INTER:                  -6.085
REMARK INTRA:                   0.000
REMARK UNBOUND:                 0.000
REMARK SMILES CC1=CC[C@]23C[C@H]1C(C)(C)[C@H]2CC[C@H]3C
REMARK SMILES IDX 15 1 14 2 13 3 12 4 11 5 5 6 4 7 3 8 2 9 7 10 6 11 8 12 9 13
REMARK SMILES IDX 10 14 1 15
REMARK H PARENT
REMARK Flexibility Score: inf
ROOT
ATOM      1  C   UNL     1     104.727 111.970 129.254  1.00  0.00     0.008 C 
ATOM      2  C   UNL     1     105.644 110.778 128.945  1.00  0.00    -0.007 C 
ATOM      3  C   UNL     1     107.081 111.202 128.661  1.00  0.00     0.004 C 
ATOM      4  C   UNL     1     107.702 110.032 127.909  1.00  0.00     0.005 C 
ATOM      5  C   UNL     1     106.543 109.285 127.208  1.00  0.00     0.002 C 
ATOM      6  C   UNL     1     105.236 109.936 127.722  1.00  0.00    -0.020 C 
ATOM      7  C   UNL     1     104.170 108.850 128.051  1.00  0.00     0.035 C 
ATOM      8  C   UNL     1     103.668 108.153 126.796  1.00  0.00    -0.027 C 
ATOM      9  C   UNL     1     103.979 108.607 125.556  1.00  0.00    -0.074 C 
ATOM     10  C   UNL     1     104.973 109.763 125.389  1.00  0.00     0.021 C 
ATOM     11  C   UNL     1     104.722 110.747 126.522  1.00  0.00     0.016 C 
ATOM     12  C   UNL     1     106.447 109.318 125.639  1.00  0.00    -0.025 C 
ATOM     13  C   UNL     1     107.401 110.336 124.959  1.00  0.00     0.012 C 
ATOM     14  C   UNL     1     106.758 107.927 125.034  1.00  0.00     0.012 C 
ATOM     15  C   UNL     1     103.372 107.949 124.348  1.00  0.00     0.039 C 
ENDROOT
TORSDOF 0
ENDMDL
MODEL 3
REMARK VINA RESULT:    -6.075      3.983      5.728
REMARK INTER + INTRA:          -6.075
REMARK INTER:                  -6.075
REMARK INTRA:                   0.000
REMARK UNBOUND:                 0.000
REMARK SMILES CC1=CC[C@]23C[C@H]1C(C)(C)[C@H]2CC[C@H]3C
REMARK SMILES IDX 15 1 14 2 13 3 12 4 11 5 5 6 4 7 3 8 2 9 7 10 6 11 8 12 9 13
REMARK SMILES IDX 10 14 1 15
REMARK H PARENT
REMARK Flexibility Score: inf
ROOT
ATOM      1  C   UNL     1     107.855 100.385 129.274  1.00  0.00     0.008 C 
ATOM      2  C   UNL     1     106.869 101.524 128.976  1.00  0.00    -0.007 C 
ATOM      3  C   UNL     1     105.463 101.018 128.674  1.00  0.00     0.004 C 
ATOM      4  C   UNL     1     104.777 102.160 127.935  1.00  0.00     0.005 C 
ATOM      5  C   UNL     1     105.894 102.987 127.255  1.00  0.00     0.002 C 
ATOM      6  C   UNL     1     107.234 102.409 127.769  1.00  0.00    -0.020 C 
ATOM      7  C   UNL     1     108.231 103.551 128.124  1.00  0.00     0.035 C 
ATOM      8  C   UNL     1     108.699 104.297 126.884  1.00  0.00    -0.027 C 
ATOM      9  C   UNL     1     108.425 103.846 125.635  1.00  0.00    -0.074 C 
ATOM     10  C   UNL     1     107.503 102.635 125.442  1.00  0.00     0.021 C 
ATOM     11  C   UNL     1     107.805 101.649 126.561  1.00  0.00     0.016 C 
ATOM     12  C   UNL     1     106.004 102.985 125.687  1.00  0.00    -0.025 C 
ATOM     13  C   UNL     1     105.118 101.922 124.983  1.00  0.00     0.012 C 
ATOM     14  C   UNL     1     105.613 104.364 125.101  1.00  0.00     0.012 C 
ATOM     15  C   UNL     1     108.999 104.559 124.442  1.00  0.00     0.039 C 
ENDROOT
TORSDOF 0
ENDMDL
MODEL 4
REMARK VINA RESULT:    -6.059      6.086      8.078
REMARK INTER + INTRA:          -6.059
REMARK INTER:                  -6.059
REMARK INTRA:                   0.000
REMARK UNBOUND:                 0.000
REMARK SMILES CC1=CC[C@]23C[C@H]1C(C)(C)[C@H]2CC[C@H]3C
REMARK SMILES IDX 15 1 14 2 13 3 12 4 11 5 5 6 4 7 3 8 2 9 7 10 6 11 8 12 9 13
REMARK SMILES IDX 10 14 1 15
REMARK H PARENT
REMARK Flexibility Score: inf
ROOT
ATOM      1  C   UNL     1     100.440 104.731 129.246  1.00  0.00     0.008 C 
ATOM      2  C   UNL     1     101.604 105.674 128.906  1.00  0.00    -0.007 C 
ATOM      3  C   UNL     1     101.137 107.087 128.578  1.00  0.00     0.004 C 
ATOM      4  C   UNL     1     102.287 107.720 127.804  1.00  0.00     0.005 C 
ATOM      5  C   UNL     1     103.067 106.562 127.138  1.00  0.00     0.002 C 
ATOM      6  C   UNL     1     102.457 105.253 127.694  1.00  0.00    -0.020 C 
ATOM      7  C   UNL     1     103.573 104.230 128.054  1.00  0.00     0.035 C 
ATOM      8  C   UNL     1     104.283 103.710 126.813  1.00  0.00    -0.027 C 
ATOM      9  C   UNL     1     103.819 103.968 125.565  1.00  0.00    -0.074 C 
ATOM     10  C   UNL     1     102.634 104.922 125.370  1.00  0.00     0.021 C 
ATOM     11  C   UNL     1     101.659 104.678 126.512  1.00  0.00     0.016 C 
ATOM     12  C   UNL     1     103.034 106.415 125.573  1.00  0.00    -0.025 C 
ATOM     13  C   UNL     1     101.987 107.317 124.865  1.00  0.00     0.012 C 
ATOM     14  C   UNL     1     104.415 106.749 124.955  1.00  0.00     0.012 C 
ATOM     15  C   UNL     1     104.493 103.343 124.375  1.00  0.00     0.039 C 
ENDROOT
TORSDOF 0
ENDMDL
MODEL 5
REMARK VINA RESULT:    -6.041      1.635      3.124
REMARK INTER + INTRA:          -6.041
REMARK INTER:                  -6.041
REMARK INTRA:                   0.000
REMARK UNBOUND:                 0.000
REMARK SMILES CC1=CC[C@]23C[C@H]1C(C)(C)[C@H]2CC[C@H]3C
REMARK SMILES IDX 15 1 14 2 13 3 12 4 11 5 5 6 4 7 3 8 2 9 7 10 6 11 8 12 9 13
REMARK SMILES IDX 10 14 1 15
REMARK H PARENT
REMARK Flexibility Score: inf
ROOT
ATOM      1  C   UNL     1     111.987 107.830 129.326  1.00  0.00     0.008 C 
ATOM      2  C   UNL     1     111.765 106.808 128.201  1.00  0.00    -0.007 C 
ATOM      3  C   UNL     1     111.980 107.406 126.815  1.00  0.00     0.004 C 
ATOM      4  C   UNL     1     111.258 106.465 125.857  1.00  0.00     0.005 C 
ATOM      5  C   UNL     1     110.142 105.768 126.671  1.00  0.00     0.002 C 
ATOM      6  C   UNL     1     110.357 106.187 128.146  1.00  0.00    -0.020 C 
ATOM      7  C   UNL     1     110.185 104.968 129.098  1.00  0.00     0.035 C 
ATOM      8  C   UNL     1     108.743 104.487 129.145  1.00  0.00    -0.027 C 
ATOM      9  C   UNL     1     107.735 105.199 128.581  1.00  0.00    -0.074 C 
ATOM     10  C   UNL     1     108.051 106.450 127.751  1.00  0.00     0.021 C 
ATOM     11  C   UNL     1     109.208 107.168 128.430  1.00  0.00     0.016 C 
ATOM     12  C   UNL     1     108.639 106.099 126.350  1.00  0.00    -0.025 C 
ATOM     13  C   UNL     1     108.436 107.311 125.402  1.00  0.00     0.012 C 
ATOM     14  C   UNL     1     107.932 104.886 125.696  1.00  0.00     0.012 C 
ATOM     15  C   UNL     1     106.313 104.738 128.746  1.00  0.00     0.039 C 
ENDROOT
TORSDOF 0
ENDMDL
MODEL 6
REMARK VINA RESULT:    -6.008      4.361      5.866
REMARK INTER + INTRA:          -6.008
REMARK INTER:                  -6.008
REMARK INTRA:                   0.000
REMARK UNBOUND:                 0.000
REMARK SMILES CC1=CC[C@]23C[C@H]1C(C)(C)[C@H]2CC[C@H]3C
REMARK SMILES IDX 15 1 14 2 13 3 12 4 11 5 5 6 4 7 3 8 2 9 7 10 6 11 8 12 9 13
REMARK SMILES IDX 10 14 1 15
REMARK H PARENT
REMARK Flexibility Score: inf
ROOT
ATOM      1  C   UNL     1     107.804 100.423 129.284  1.00  0.00     0.008 C 
ATOM      2  C   UNL     1     106.820 100.774 128.159  1.00  0.00    -0.007 C 
ATOM      3  C   UNL     1     107.419 100.571 126.772  1.00  0.00     0.004 C 
ATOM      4  C   UNL     1     106.555 101.407 125.836  1.00  0.00     0.005 C 
ATOM      5  C   UNL     1     105.939 102.540 126.689  1.00  0.00     0.002 C 
ATOM      6  C   UNL     1     106.316 102.230 128.158  1.00  0.00    -0.020 C 
ATOM      7  C   UNL     1     105.101 102.460 129.103  1.00  0.00     0.035 C 
ATOM      8  C   UNL     1     104.738 103.933 129.207  1.00  0.00    -0.027 C 
ATOM      9  C   UNL     1     105.537 104.902 128.696  1.00  0.00    -0.074 C 
ATOM     10  C   UNL     1     106.771 104.521 127.867  1.00  0.00     0.021 C 
ATOM     11  C   UNL     1     107.382 103.282 128.503  1.00  0.00     0.016 C 
ATOM     12  C   UNL     1     106.394 104.024 126.438  1.00  0.00    -0.025 C 
ATOM     13  C   UNL     1     107.633 104.168 125.514  1.00  0.00     0.012 C 
ATOM     14  C   UNL     1     105.252 104.855 125.802  1.00  0.00     0.012 C 
ATOM     15  C   UNL     1     105.191 106.349 128.917  1.00  0.00     0.039 C 
ENDROOT
TORSDOF 0
ENDMDL
MODEL 7
REMARK VINA RESULT:    -5.996      5.909      7.623
REMARK INTER + INTRA:          -5.996
REMARK INTER:                  -5.996
REMARK INTRA:                   0.000
REMARK UNBOUND:                 0.000
REMARK SMILES CC1=CC[C@]23C[C@H]1C(C)(C)[C@H]2CC[C@H]3C
REMARK SMILES IDX 15 1 14 2 13 3 12 4 11 5 5 6 4 7 3 8 2 9 7 10 6 11 8 12 9 13
REMARK SMILES IDX 10 14 1 15
REMARK H PARENT
REMARK Flexibility Score: inf
ROOT
ATOM      1  C   UNL     1     100.484 104.678 129.244  1.00  0.00     0.008 C 
ATOM      2  C   UNL     1     100.825 105.677 128.129  1.00  0.00    -0.007 C 
ATOM      3  C   UNL     1     100.646 105.084 126.736  1.00  0.00     0.004 C 
ATOM      4  C   UNL     1     101.472 105.972 125.813  1.00  0.00     0.005 C 
ATOM      5  C   UNL     1     102.586 106.605 126.681  1.00  0.00     0.002 C 
ATOM      6  C   UNL     1     102.270 106.210 128.144  1.00  0.00    -0.020 C 
ATOM      7  C   UNL     1     102.468 107.423 129.100  1.00  0.00     0.035 C 
ATOM      8  C   UNL     1     103.933 107.815 129.219  1.00  0.00    -0.027 C 
ATOM      9  C   UNL     1     104.922 107.038 128.711  1.00  0.00    -0.074 C 
ATOM     10  C   UNL     1     104.573 105.804 127.870  1.00  0.00     0.021 C 
ATOM     11  C   UNL     1     103.341 105.163 128.491  1.00  0.00     0.016 C 
ATOM     12  C   UNL     1     104.080 106.180 126.439  1.00  0.00    -0.025 C 
ATOM     13  C   UNL     1     104.257 104.952 125.507  1.00  0.00     0.012 C 
ATOM     14  C   UNL     1     104.894 107.344 125.819  1.00  0.00     0.012 C 
ATOM     15  C   UNL     1     106.359 107.413 128.947  1.00  0.00     0.039 C 
ENDROOT
TORSDOF 0
ENDMDL
MODEL 8
REMARK VINA RESULT:    -5.981      6.396      7.829
REMARK INTER + INTRA:          -5.981
REMARK INTER:                  -5.981
REMARK INTRA:                   0.000
REMARK UNBOUND:                 0.000
REMARK SMILES CC1=CC[C@]23C[C@H]1C(C)(C)[C@H]2CC[C@H]3C
REMARK SMILES IDX 15 1 14 2 13 3 12 4 11 5 5 6 4 7 3 8 2 9 7 10 6 11 8 12 9 13
REMARK SMILES IDX 10 14 1 15
REMARK H PARENT
REMARK Flexibility Score: inf
ROOT
ATOM      1  C   UNL     1     105.180 103.683 128.926  1.00  0.00     0.008 C 
ATOM      2  C   UNL     1     104.124 103.760 127.814  1.00  0.00    -0.007 C 
ATOM      3  C   UNL     1     104.728 104.093 126.454  1.00  0.00     0.004 C 
ATOM      4  C   UNL     1     103.567 104.615 125.617  1.00  0.00     0.005 C 
ATOM      5  C   UNL     1     102.525 105.188 126.606  1.00  0.00     0.002 C 
ATOM      6  C   UNL     1     103.026 104.819 128.024  1.00  0.00    -0.020 C 
ATOM      7  C   UNL     1     101.851 104.317 128.913  1.00  0.00     0.035 C 
ATOM      8  C   UNL     1     100.872 105.435 129.238  1.00  0.00    -0.027 C 
ATOM      9  C   UNL     1     101.148 106.731 128.950  1.00  0.00    -0.074 C 
ATOM     10  C   UNL     1     102.408 107.087 128.150  1.00  0.00     0.021 C 
ATOM     11  C   UNL     1     103.518 106.153 128.609  1.00  0.00     0.016 C 
ATOM     12  C   UNL     1     102.269 106.739 126.637  1.00  0.00    -0.025 C 
ATOM     13  C   UNL     1     103.298 107.576 125.832  1.00  0.00     0.012 C 
ATOM     14  C   UNL     1     100.866 107.081 126.076  1.00  0.00     0.012 C 
ATOM     15  C   UNL     1     100.197 107.811 129.387  1.00  0.00     0.039 C 
ENDROOT
TORSDOF 0
ENDMDL
MODEL 9
REMARK VINA RESULT:    -5.930      3.169      5.770
REMARK INTER + INTRA:          -5.930
REMARK INTER:                  -5.930
REMARK INTRA:                   0.000
REMARK UNBOUND:                 0.000
REMARK SMILES CC1=CC[C@]23C[C@H]1C(C)(C)[C@H]2CC[C@H]3C
REMARK SMILES IDX 15 1 14 2 13 3 12 4 11 5 5 6 4 7 3 8 2 9 7 10 6 11 8 12 9 13
REMARK SMILES IDX 10 14 1 15
REMARK H PARENT
REMARK Flexibility Score: inf
ROOT
ATOM      1  C   UNL     1     104.799 112.011 129.281  1.00  0.00     0.008 C 
ATOM      2  C   UNL     1     105.756 111.608 128.150  1.00  0.00    -0.007 C 
ATOM      3  C   UNL     1     105.144 111.800 126.767  1.00  0.00     0.004 C 
ATOM      4  C   UNL     1     105.970 110.920 125.837  1.00  0.00     0.005 C 
ATOM      5  C   UNL     1     106.565 109.787 126.706  1.00  0.00     0.002 C 
ATOM      6  C   UNL     1     106.217 110.138 128.173  1.00  0.00    -0.020 C 
ATOM      7  C   UNL     1     107.438 109.892 129.106  1.00  0.00     0.035 C 
ATOM      8  C   UNL     1     107.760 108.411 129.236  1.00  0.00    -0.027 C 
ATOM      9  C   UNL     1     106.925 107.456 128.756  1.00  0.00    -0.074 C 
ATOM     10  C   UNL     1     105.692 107.856 127.936  1.00  0.00     0.021 C 
ATOM     11  C   UNL     1     105.125 109.126 128.554  1.00  0.00     0.016 C 
ATOM     12  C   UNL     1     106.062 108.313 126.492  1.00  0.00    -0.025 C 
ATOM     13  C   UNL     1     104.807 108.187 125.587  1.00  0.00     0.012 C 
ATOM     14  C   UNL     1     107.170 107.435 125.858  1.00  0.00     0.012 C 
ATOM     15  C   UNL     1     107.232 106.004 129.003  1.00  0.00     0.039 C 
ENDROOT
TORSDOF 0
ENDMDL
