MODEL 1
REMARK VINA RESULT:    -3.948      0.000      0.000
REMARK INTER + INTRA:          -5.569
REMARK INTER:                  -5.102
REMARK INTRA:                  -0.468
REMARK UNBOUND:                -0.468
REMARK SMILES C=CC(=O)CCCCC
REMARK SMILES IDX 6 1 7 2 8 3 9 4 5 5 3 6 4 7 2 8 1 9
REMARK H PARENT
REMARK Flexibility Score: inf
ROOT
ATOM      1  C   UNL     1      -4.126 -15.433  -7.696  1.00  0.00     0.008 C 
ENDROOT
BRANCH   1   2
ATOM      2  C   UNL     1      -3.774 -15.800  -6.245  1.00  0.00     0.000 C 
BRANCH   2   3
ATOM      3  C   UNL     1      -2.302 -15.498  -5.945  1.00  0.00    -0.003 C 
ATOM      4  C   UNL     1      -1.748 -14.446  -6.900  1.00  0.00     0.004 C 
ENDBRANCH   2   3
ENDBRANCH   1   2
BRANCH   1   5
ATOM      5  C   UNL     1      -5.410 -14.592  -7.787  1.00  0.00     0.080 C 
BRANCH   5   6
ATOM      6  C   UNL     1      -5.308 -13.249  -7.098  1.00  0.00     0.155 C 
ATOM      7  O   UNL     1      -5.936 -13.045  -6.024  1.00  0.00    -0.295 OA
BRANCH   6   8
ATOM      8  C   UNL     1      -4.536 -12.128  -7.673  1.00  0.00     0.039 C 
ATOM      9  C   UNL     1      -4.630 -11.740  -8.945  1.00  0.00     0.012 C 
ENDBRANCH   6   8
ENDBRANCH   5   6
ENDBRANCH   1   5
TORSDOF 5
ENDMDL
MODEL 2
REMARK VINA RESULT:    -3.930      1.064      2.191
REMARK INTER + INTRA:          -5.546
REMARK INTER:                  -4.977
REMARK INTRA:                  -0.569
REMARK UNBOUND:                -0.468
REMARK SMILES C=CC(=O)CCCCC
REMARK SMILES IDX 6 1 7 2 8 3 9 4 5 5 3 6 4 7 2 8 1 9
REMARK H PARENT
REMARK Flexibility Score: inf
ROOT
ATOM      1  C   UNL     1      -2.657 -13.192  -6.684  1.00  0.00     0.008 C 
ENDROOT
BRANCH   1   2
ATOM      2  C   UNL     1      -2.342 -14.576  -7.272  1.00  0.00     0.000 C 
BRANCH   2   3
ATOM      3  C   UNL     1      -2.576 -15.679  -6.234  1.00  0.00    -0.003 C 
ATOM      4  C   UNL     1      -3.919 -16.369  -6.455  1.00  0.00     0.004 C 
ENDBRANCH   2   3
ENDBRANCH   1   2
BRANCH   1   5
ATOM      5  C   UNL     1      -3.720 -12.441  -7.505  1.00  0.00     0.080 C 
BRANCH   5   6
ATOM      6  C   UNL     1      -5.118 -12.996  -7.341  1.00  0.00     0.155 C 
ATOM      7  O   UNL     1      -5.563 -13.245  -6.188  1.00  0.00    -0.295 OA
BRANCH   6   8
ATOM      8  C   UNL     1      -5.977 -13.316  -8.500  1.00  0.00     0.039 C 
ATOM      9  C   UNL     1      -5.981 -14.501  -9.113  1.00  0.00     0.012 C 
ENDBRANCH   6   8
ENDBRANCH   5   6
ENDBRANCH   1   5
TORSDOF 5
ENDMDL
MODEL 3
REMARK VINA RESULT:    -3.867      1.341      3.601
REMARK INTER + INTRA:          -5.465
REMARK INTER:                  -4.953
REMARK INTRA:                  -0.512
REMARK UNBOUND:                -0.468
REMARK SMILES C=CC(=O)CCCCC
REMARK SMILES IDX 6 1 7 2 8 3 9 4 5 5 3 6 4 7 2 8 1 9
REMARK H PARENT
REMARK Flexibility Score: inf
ROOT
ATOM      1  C   UNL     1      -5.263 -12.716  -7.289  1.00  0.00     0.008 C 
ENDROOT
BRANCH   1   2
ATOM      2  C   UNL     1      -5.255 -12.154  -8.719  1.00  0.00     0.000 C 
BRANCH   2   3
ATOM      3  C   UNL     1      -3.890 -11.549  -9.063  1.00  0.00    -0.003 C 
ATOM      4  C   UNL     1      -3.034 -11.372  -7.812  1.00  0.00     0.004 C 
ENDBRANCH   2   3
ENDBRANCH   1   2
BRANCH   1   5
ATOM      5  C   UNL     1      -5.445 -14.243  -7.267  1.00  0.00     0.080 C 
BRANCH   5   6
ATOM      6  C   UNL     1      -4.307 -14.982  -6.597  1.00  0.00     0.155 C 
ATOM      7  O   UNL     1      -4.478 -15.496  -5.458  1.00  0.00    -0.295 OA
BRANCH   6   8
ATOM      8  C   UNL     1      -2.965 -15.078  -7.206  1.00  0.00     0.039 C 
ATOM      9  C   UNL     1      -1.845 -14.691  -6.594  1.00  0.00     0.012 C 
ENDBRANCH   6   8
ENDBRANCH   5   6
ENDBRANCH   1   5
TORSDOF 5
ENDMDL
MODEL 4
REMARK VINA RESULT:    -3.799      2.069      4.442
REMARK INTER + INTRA:          -5.377
REMARK INTER:                  -5.025
REMARK INTRA:                  -0.352
REMARK UNBOUND:                -0.468
REMARK SMILES C=CC(=O)CCCCC
REMARK SMILES IDX 6 1 7 2 8 3 9 4 5 5 3 6 4 7 2 8 1 9
REMARK H PARENT
REMARK Flexibility Score: inf
ROOT
ATOM      1  C   UNL     1      -3.520 -14.188  -6.545  1.00  0.00     0.008 C 
ENDROOT
BRANCH   1   2
ATOM      2  C   UNL     1      -3.138 -14.541  -7.991  1.00  0.00     0.000 C 
BRANCH   2   3
ATOM      3  C   UNL     1      -4.335 -15.128  -8.746  1.00  0.00    -0.003 C 
ATOM      4  C   UNL     1      -5.635 -14.441  -8.340  1.00  0.00     0.004 C 
ENDBRANCH   2   3
ENDBRANCH   1   2
BRANCH   1   5
ATOM      5  C   UNL     1      -2.934 -15.184  -5.530  1.00  0.00     0.080 C 
BRANCH   5   6
ATOM      6  C   UNL     1      -3.813 -16.390  -5.284  1.00  0.00     0.155 C 
ATOM      7  O   UNL     1      -4.870 -16.268  -4.607  1.00  0.00    -0.295 OA
BRANCH   6   8
ATOM      8  C   UNL     1      -3.449 -17.739  -5.764  1.00  0.00     0.039 C 
ATOM      9  C   UNL     1      -4.106 -18.848  -5.421  1.00  0.00     0.012 C 
ENDBRANCH   6   8
ENDBRANCH   5   6
ENDBRANCH   1   5
TORSDOF 5
ENDMDL
MODEL 5
REMARK VINA RESULT:    -3.686      1.538      4.140
REMARK INTER + INTRA:          -5.231
REMARK INTER:                  -4.900
REMARK INTRA:                  -0.331
REMARK UNBOUND:                -0.468
REMARK SMILES C=CC(=O)CCCCC
REMARK SMILES IDX 6 1 7 2 8 3 9 4 5 5 3 6 4 7 2 8 1 9
REMARK H PARENT
REMARK Flexibility Score: inf
ROOT
ATOM      1  C   UNL     1      -3.083 -13.639  -8.674  1.00  0.00     0.008 C 
ENDROOT
BRANCH   1   2
ATOM      2  C   UNL     1      -3.443 -12.162  -8.450  1.00  0.00     0.000 C 
BRANCH   2   3
ATOM      3  C   UNL     1      -4.899 -11.887  -8.841  1.00  0.00    -0.003 C 
ATOM      4  C   UNL     1      -5.740 -13.158  -8.769  1.00  0.00     0.004 C 
ENDBRANCH   2   3
ENDBRANCH   1   2
BRANCH   1   5
ATOM      5  C   UNL     1      -2.406 -14.265  -7.444  1.00  0.00     0.080 C 
BRANCH   5   6
ATOM      6  C   UNL     1      -3.380 -14.836  -6.437  1.00  0.00     0.155 C 
ATOM      7  O   UNL     1      -3.681 -14.170  -5.409  1.00  0.00    -0.295 OA
BRANCH   6   8
ATOM      8  C   UNL     1      -3.960 -16.187  -6.583  1.00  0.00     0.039 C 
ATOM      9  C   UNL     1      -3.677 -17.205  -5.770  1.00  0.00     0.012 C 
ENDBRANCH   6   8
ENDBRANCH   5   6
ENDBRANCH   1   5
TORSDOF 5
ENDMDL
MODEL 6
REMARK VINA RESULT:    -3.664      1.998      4.196
REMARK INTER + INTRA:          -5.202
REMARK INTER:                  -4.644
REMARK INTRA:                  -0.557
REMARK UNBOUND:                -0.468
REMARK SMILES C=CC(=O)CCCCC
REMARK SMILES IDX 6 1 7 2 8 3 9 4 5 5 3 6 4 7 2 8 1 9
REMARK H PARENT
REMARK Flexibility Score: inf
ROOT
ATOM      1  C   UNL     1      -3.232 -12.587  -8.022  1.00  0.00     0.008 C 
ENDROOT
BRANCH   1   2
ATOM      2  C   UNL     1      -4.507 -12.476  -8.873  1.00  0.00     0.000 C 
BRANCH   2   3
ATOM      3  C   UNL     1      -5.689 -13.165  -8.182  1.00  0.00    -0.003 C 
ATOM      4  C   UNL     1      -5.711 -12.857  -6.688  1.00  0.00     0.004 C 
ENDBRANCH   2   3
ENDBRANCH   1   2
BRANCH   1   5
ATOM      5  C   UNL     1      -2.519 -13.935  -8.218  1.00  0.00     0.080 C 
BRANCH   5   6
ATOM      6  C   UNL     1      -2.072 -14.581  -6.925  1.00  0.00     0.155 C 
ATOM      7  O   UNL     1      -0.870 -14.483  -6.558  1.00  0.00    -0.295 OA
BRANCH   6   8
ATOM      8  C   UNL     1      -2.989 -15.384  -6.089  1.00  0.00     0.039 C 
ATOM      9  C   UNL     1      -3.914 -16.205  -6.586  1.00  0.00     0.012 C 
ENDBRANCH   6   8
ENDBRANCH   5   6
ENDBRANCH   1   5
TORSDOF 5
ENDMDL
MODEL 7
REMARK VINA RESULT:    -3.649      1.391      4.023
REMARK INTER + INTRA:          -5.183
REMARK INTER:                  -4.804
REMARK INTRA:                  -0.378
REMARK UNBOUND:                -0.468
REMARK SMILES C=CC(=O)CCCCC
REMARK SMILES IDX 6 1 7 2 8 3 9 4 5 5 3 6 4 7 2 8 1 9
REMARK H PARENT
REMARK Flexibility Score: inf
ROOT
ATOM      1  C   UNL     1      -4.569 -11.864  -7.689  1.00  0.00     0.008 C 
ENDROOT
BRANCH   1   2
ATOM      2  C   UNL     1      -5.019 -12.455  -9.035  1.00  0.00     0.000 C 
BRANCH   2   3
ATOM      3  C   UNL     1      -6.132 -13.489  -8.835  1.00  0.00    -0.003 C 
ATOM      4  C   UNL     1      -5.632 -14.901  -9.124  1.00  0.00     0.004 C 
ENDBRANCH   2   3
ENDBRANCH   1   2
BRANCH   1   5
ATOM      5  C   UNL     1      -3.185 -12.381  -7.263  1.00  0.00     0.080 C 
BRANCH   5   6
ATOM      6  C   UNL     1      -3.231 -13.681  -6.491  1.00  0.00     0.155 C 
ATOM      7  O   UNL     1      -4.202 -13.920  -5.723  1.00  0.00    -0.295 OA
BRANCH   6   8
ATOM      8  C   UNL     1      -2.140 -14.674  -6.557  1.00  0.00     0.039 C 
ATOM      9  C   UNL     1      -2.093 -15.774  -5.805  1.00  0.00     0.012 C 
ENDBRANCH   6   8
ENDBRANCH   5   6
ENDBRANCH   1   5
TORSDOF 5
ENDMDL
MODEL 8
REMARK VINA RESULT:    -3.608      1.898      2.437
REMARK INTER + INTRA:          -5.130
REMARK INTER:                  -4.683
REMARK INTRA:                  -0.448
REMARK UNBOUND:                -0.468
REMARK SMILES C=CC(=O)CCCCC
REMARK SMILES IDX 6 1 7 2 8 3 9 4 5 5 3 6 4 7 2 8 1 9
REMARK H PARENT
REMARK Flexibility Score: inf
ROOT
ATOM      1  C   UNL     1      -2.270 -14.481  -7.263  1.00  0.00     0.008 C 
ENDROOT
BRANCH   1   2
ATOM      2  C   UNL     1      -3.197 -14.133  -6.088  1.00  0.00     0.000 C 
BRANCH   2   3
ATOM      3  C   UNL     1      -3.315 -15.311  -5.115  1.00  0.00    -0.003 C 
ATOM      4  C   UNL     1      -3.773 -16.577  -5.833  1.00  0.00     0.004 C 
ENDBRANCH   2   3
ENDBRANCH   1   2
BRANCH   1   5
ATOM      5  C   UNL     1      -2.783 -13.910  -8.596  1.00  0.00     0.080 C 
BRANCH   5   6
ATOM      6  C   UNL     1      -4.227 -14.252  -8.889  1.00  0.00     0.155 C 
ATOM      7  O   UNL     1      -4.562 -15.454  -9.072  1.00  0.00    -0.295 OA
BRANCH   6   8
ATOM      8  C   UNL     1      -5.268 -13.213  -9.029  1.00  0.00     0.039 C 
ATOM      9  C   UNL     1      -5.091 -11.937  -8.685  1.00  0.00     0.012 C 
ENDBRANCH   6   8
ENDBRANCH   5   6
ENDBRANCH   1   5
TORSDOF 5
ENDMDL
MODEL 9
REMARK VINA RESULT:    -3.541      1.594      2.509
REMARK INTER + INTRA:          -5.043
REMARK INTER:                  -4.725
REMARK INTRA:                  -0.318
REMARK UNBOUND:                -0.468
REMARK SMILES C=CC(=O)CCCCC
REMARK SMILES IDX 6 1 7 2 8 3 9 4 5 5 3 6 4 7 2 8 1 9
REMARK H PARENT
REMARK Flexibility Score: inf
ROOT
ATOM      1  C   UNL     1      -1.897 -14.302  -6.771  1.00  0.00     0.008 C 
ENDROOT
BRANCH   1   2
ATOM      2  C   UNL     1      -2.267 -15.471  -5.845  1.00  0.00     0.000 C 
BRANCH   2   3
ATOM      3  C   UNL     1      -3.604 -16.096  -6.259  1.00  0.00    -0.003 C 
ATOM      4  C   UNL     1      -3.730 -17.524  -5.738  1.00  0.00     0.004 C 
ENDBRANCH   2   3
ENDBRANCH   1   2
BRANCH   1   5
ATOM      5  C   UNL     1      -2.859 -14.181  -7.965  1.00  0.00     0.080 C 
BRANCH   5   6
ATOM      6  C   UNL     1      -3.566 -12.845  -8.045  1.00  0.00     0.155 C 
ATOM      7  O   UNL     1      -3.004 -11.811  -7.592  1.00  0.00    -0.295 OA
BRANCH   6   8
ATOM      8  C   UNL     1      -4.933 -12.711  -8.589  1.00  0.00     0.039 C 
ATOM      9  C   UNL     1      -5.804 -13.718  -8.657  1.00  0.00     0.012 C 
ENDBRANCH   6   8
ENDBRANCH   5   6
ENDBRANCH   1   5
TORSDOF 5
ENDMDL
