MODEL 1
REMARK VINA RESULT:    -4.742      0.000      0.000
REMARK INTER + INTRA:          -4.881
REMARK INTER:                  -4.881
REMARK INTRA:                   0.000
REMARK UNBOUND:                 0.000
REMARK SMILES Nc1ncnc2nc[nH]c12
REMARK SMILES IDX 8 1 7 2 6 3 5 4 4 5 3 6 2 7 10 8 9 9 1 11
REMARK H PARENT 9 10 1 12 1 13
REMARK Flexibility Score: inf
ROOT
ATOM      1  C   UNL     1       4.730   7.910  23.770  1.00  0.00     0.199 A 
ATOM      2  N   UNL     1       5.186   6.629  23.727  1.00  0.00    -0.217 NA
ATOM      3  C   UNL     1       4.305   6.041  22.901  1.00  0.00     0.182 A 
ATOM      4  N   UNL     1       4.303   4.742  22.514  1.00  0.00    -0.215 NA
ATOM      5  C   UNL     1       3.318   4.325  21.662  1.00  0.00     0.226 A 
ATOM      6  N   UNL     1       2.364   5.204  21.216  1.00  0.00    -0.217 NA
ATOM      7  C   UNL     1       2.365   6.513  21.606  1.00  0.00     0.152 A 
ATOM      8  C   UNL     1       3.374   6.923  22.474  1.00  0.00     0.127 A 
ATOM      9  N   UNL     1       3.623   8.122  23.014  1.00  0.00    -0.340 N 
ATOM     10  H   UNL     1       3.098   9.016  22.891  1.00  0.00     0.168 HD
ENDROOT
BRANCH   7  11
ATOM     11  N   UNL     1       1.362   7.411  21.129  1.00  0.00    -0.382 N 
ATOM     12  H   UNL     1       1.588   8.421  20.990  1.00  0.00     0.158 HD
ATOM     13  H   UNL     1       0.395   7.082  20.912  1.00  0.00     0.158 HD
ENDBRANCH   7  11
TORSDOF 1
ENDMDL
MODEL 2
REMARK VINA RESULT:    -4.735      1.502      2.118
REMARK INTER + INTRA:          -4.874
REMARK INTER:                  -4.874
REMARK INTRA:                   0.000
REMARK UNBOUND:                 0.000
REMARK SMILES Nc1ncnc2nc[nH]c12
REMARK SMILES IDX 8 1 7 2 6 3 5 4 4 5 3 6 2 7 10 8 9 9 1 11
REMARK H PARENT 9 10 1 12 1 13
REMARK Flexibility Score: inf
ROOT
ATOM      1  C   UNL     1       5.656   7.378  23.404  1.00  0.00     0.199 A 
ATOM      2  N   UNL     1       4.838   6.297  23.281  1.00  0.00    -0.217 NA
ATOM      3  C   UNL     1       3.865   6.765  22.482  1.00  0.00     0.182 A 
ATOM      4  N   UNL     1       2.782   6.080  22.043  1.00  0.00    -0.215 NA
ATOM      5  C   UNL     1       1.894   6.730  21.231  1.00  0.00     0.226 A 
ATOM      6  N   UNL     1       2.102   8.039  20.878  1.00  0.00    -0.217 NA
ATOM      7  C   UNL     1       3.194   8.731  21.321  1.00  0.00     0.152 A 
ATOM      8  C   UNL     1       4.089   8.055  22.147  1.00  0.00     0.127 A 
ATOM      9  N   UNL     1       5.225   8.469  22.721  1.00  0.00    -0.340 N 
ATOM     10  H   UNL     1       5.681   9.406  22.666  1.00  0.00     0.168 HD
ENDROOT
BRANCH   7  11
ATOM     11  N   UNL     1       3.390  10.093  20.941  1.00  0.00    -0.382 N 
ATOM     12  H   UNL     1       4.305  10.561  21.129  1.00  0.00     0.158 HD
ATOM     13  H   UNL     1       2.636  10.643  20.473  1.00  0.00     0.158 HD
ENDBRANCH   7  11
TORSDOF 1
ENDMDL
MODEL 3
REMARK VINA RESULT:    -4.621      1.258      2.916
REMARK INTER + INTRA:          -4.756
REMARK INTER:                  -4.756
REMARK INTRA:                   0.000
REMARK UNBOUND:                 0.000
REMARK SMILES Nc1ncnc2nc[nH]c12
REMARK SMILES IDX 8 1 7 2 6 3 5 4 4 5 3 6 2 7 10 8 9 9 1 11
REMARK H PARENT 9 10 1 12 1 13
REMARK Flexibility Score: inf
ROOT
ATOM      1  C   UNL     1       3.295   9.239  21.296  1.00  0.00     0.199 A 
ATOM      2  N   UNL     1       2.555   8.189  20.846  1.00  0.00    -0.217 NA
ATOM      3  C   UNL     1       3.131   7.147  21.468  1.00  0.00     0.182 A 
ATOM      4  N   UNL     1       2.771   5.845  21.364  1.00  0.00    -0.215 NA
ATOM      5  C   UNL     1       3.483   4.920  22.078  1.00  0.00     0.226 A 
ATOM      6  N   UNL     1       4.529   5.311  22.874  1.00  0.00    -0.217 NA
ATOM      7  C   UNL     1       4.893   6.623  22.979  1.00  0.00     0.152 A 
ATOM      8  C   UNL     1       4.159   7.552  22.246  1.00  0.00     0.127 A 
ATOM      9  N   UNL     1       4.284   8.882  22.154  1.00  0.00    -0.340 N 
ATOM     10  H   UNL     1       4.974   9.508  22.625  1.00  0.00     0.168 HD
ENDROOT
BRANCH   7  11
ATOM     11  N   UNL     1       5.986   7.006  23.815  1.00  0.00    -0.382 N 
ATOM     12  H   UNL     1       6.396   6.319  24.487  1.00  0.00     0.158 HD
ATOM     13  H   UNL     1       6.394   7.966  23.772  1.00  0.00     0.158 HD
ENDBRANCH   7  11
TORSDOF 1
ENDMDL
MODEL 4
REMARK VINA RESULT:    -4.549      1.003      3.703
REMARK INTER + INTRA:          -4.682
REMARK INTER:                  -4.682
REMARK INTRA:                   0.000
REMARK UNBOUND:                 0.000
REMARK SMILES Nc1ncnc2nc[nH]c12
REMARK SMILES IDX 8 1 7 2 6 3 5 4 4 5 3 6 2 7 10 8 9 9 1 11
REMARK H PARENT 9 10 1 12 1 13
REMARK Flexibility Score: inf
ROOT
ATOM      1  C   UNL     1       3.555   4.161  21.861  1.00  0.00     0.199 A 
ATOM      2  N   UNL     1       2.774   5.086  21.240  1.00  0.00    -0.217 NA
ATOM      3  C   UNL     1       3.295   6.242  21.683  1.00  0.00     0.182 A 
ATOM      4  N   UNL     1       2.878   7.491  21.363  1.00  0.00    -0.215 NA
ATOM      5  C   UNL     1       3.537   8.553  21.918  1.00  0.00     0.226 A 
ATOM      6  N   UNL     1       4.591   8.349  22.772  1.00  0.00    -0.217 NA
ATOM      7  C   UNL     1       5.013   7.091  23.095  1.00  0.00     0.152 A 
ATOM      8  C   UNL     1       4.331   6.020  22.523  1.00  0.00     0.127 A 
ATOM      9  N   UNL     1       4.517   4.701  22.653  1.00  0.00    -0.340 N 
ATOM     10  H   UNL     1       5.228   4.194  23.224  1.00  0.00     0.168 HD
ENDROOT
BRANCH   7  11
ATOM     11  N   UNL     1       6.112   6.903  23.987  1.00  0.00    -0.382 N 
ATOM     12  H   UNL     1       5.948   6.871  25.018  1.00  0.00     0.158 HD
ATOM     13  H   UNL     1       7.088   6.794  23.633  1.00  0.00     0.158 HD
ENDBRANCH   7  11
TORSDOF 1
ENDMDL
MODEL 5
REMARK VINA RESULT:    -4.508      1.270      2.549
REMARK INTER + INTRA:          -4.640
REMARK INTER:                  -4.640
REMARK INTRA:                   0.000
REMARK UNBOUND:                 0.000
REMARK SMILES Nc1ncnc2nc[nH]c12
REMARK SMILES IDX 8 1 7 2 6 3 5 4 4 5 3 6 2 7 10 8 9 9 1 11
REMARK H PARENT 9 10 1 12 1 13
REMARK Flexibility Score: inf
ROOT
ATOM      1  C   UNL     1       5.832   7.351  23.911  1.00  0.00     0.199 A 
ATOM      2  N   UNL     1       5.273   8.488  23.415  1.00  0.00    -0.217 NA
ATOM      3  C   UNL     1       4.327   8.005  22.593  1.00  0.00     0.182 A 
ATOM      4  N   UNL     1       3.467   8.730  21.837  1.00  0.00    -0.215 NA
ATOM      5  C   UNL     1       2.569   8.055  21.057  1.00  0.00     0.226 A 
ATOM      6  N   UNL     1       2.547   6.684  21.047  1.00  0.00    -0.217 NA
ATOM      7  C   UNL     1       3.413   5.952  21.808  1.00  0.00     0.152 A 
ATOM      8  C   UNL     1       4.322   6.653  22.597  1.00  0.00     0.127 A 
ATOM      9  N   UNL     1       5.273   6.212  23.430  1.00  0.00    -0.340 N 
ATOM     10  H   UNL     1       5.533   5.228  23.663  1.00  0.00     0.168 HD
ENDROOT
BRANCH   7  11
ATOM     11  N   UNL     1       3.372   4.525  21.782  1.00  0.00    -0.382 N 
ATOM     12  H   UNL     1       2.699   4.010  22.394  1.00  0.00     0.158 HD
ATOM     13  H   UNL     1       4.004   3.973  21.161  1.00  0.00     0.158 HD
ENDBRANCH   7  11
TORSDOF 1
ENDMDL
MODEL 6
REMARK VINA RESULT:    -4.298      1.364      3.088
REMARK INTER + INTRA:          -4.424
REMARK INTER:                  -4.424
REMARK INTRA:                   0.000
REMARK UNBOUND:                 0.000
REMARK SMILES Nc1ncnc2nc[nH]c12
REMARK SMILES IDX 8 1 7 2 6 3 5 4 4 5 3 6 2 7 10 8 9 9 1 11
REMARK H PARENT 9 10 1 12 1 13
REMARK Flexibility Score: inf
ROOT
ATOM      1  C   UNL     1       2.320   5.497  20.504  1.00  0.00     0.199 A 
ATOM      2  N   UNL     1       3.000   4.851  21.490  1.00  0.00    -0.217 NA
ATOM      3  C   UNL     1       3.680   5.853  22.071  1.00  0.00     0.182 A 
ATOM      4  N   UNL     1       4.526   5.751  23.125  1.00  0.00    -0.215 NA
ATOM      5  C   UNL     1       5.130   6.891  23.579  1.00  0.00     0.226 A 
ATOM      6  N   UNL     1       4.880   8.098  22.979  1.00  0.00    -0.217 NA
ATOM      7  C   UNL     1       4.027   8.202  21.916  1.00  0.00     0.152 A 
ATOM      8  C   UNL     1       3.420   7.033  21.465  1.00  0.00     0.127 A 
ATOM      9  N   UNL     1       2.556   6.833  20.462  1.00  0.00    -0.340 N 
ATOM     10  H   UNL     1       2.152   7.529  19.798  1.00  0.00     0.168 HD
ENDROOT
BRANCH   7  11
ATOM     11  N   UNL     1       3.782   9.470  21.306  1.00  0.00    -0.382 N 
ATOM     12  H   UNL     1       3.853   9.573  20.269  1.00  0.00     0.158 HD
ATOM     13  H   UNL     1       3.531  10.308  21.875  1.00  0.00     0.158 HD
ENDBRANCH   7  11
TORSDOF 1
ENDMDL
MODEL 7
REMARK VINA RESULT:    -4.252     14.879     15.331
REMARK INTER + INTRA:          -4.376
REMARK INTER:                  -4.376
REMARK INTRA:                   0.000
REMARK UNBOUND:                 0.000
REMARK SMILES Nc1ncnc2nc[nH]c12
REMARK SMILES IDX 8 1 7 2 6 3 5 4 4 5 3 6 2 7 10 8 9 9 1 11
REMARK H PARENT 9 10 1 12 1 13
REMARK Flexibility Score: inf
ROOT
ATOM      1  C   UNL     1      13.290  -0.731  31.738  1.00  0.00     0.199 A 
ATOM      2  N   UNL     1      12.716  -1.599  30.860  1.00  0.00    -0.217 NA
ATOM      3  C   UNL     1      11.654  -2.042  31.552  1.00  0.00     0.182 A 
ATOM      4  N   UNL     1      10.732  -2.941  31.128  1.00  0.00    -0.215 NA
ATOM      5  C   UNL     1       9.715  -3.271  31.980  1.00  0.00     0.226 A 
ATOM      6  N   UNL     1       9.638  -2.703  33.226  1.00  0.00    -0.217 NA
ATOM      7  C   UNL     1      10.566  -1.797  33.655  1.00  0.00     0.152 A 
ATOM      8  C   UNL     1      11.596  -1.471  32.776  1.00  0.00     0.127 A 
ATOM      9  N   UNL     1      12.629  -0.631  32.919  1.00  0.00    -0.340 N 
ATOM     10  H   UNL     1      12.878  -0.036  33.739  1.00  0.00     0.168 HD
ENDROOT
BRANCH   7  11
ATOM     11  N   UNL     1      10.466  -1.219  34.956  1.00  0.00    -0.382 N 
ATOM     12  H   UNL     1       9.646  -0.619  35.200  1.00  0.00     0.158 HD
ATOM     13  H   UNL     1      11.199  -1.380  35.682  1.00  0.00     0.158 HD
ENDBRANCH   7  11
TORSDOF 1
ENDMDL
MODEL 8
REMARK VINA RESULT:    -4.234      1.856      3.707
REMARK INTER + INTRA:          -4.357
REMARK INTER:                  -4.357
REMARK INTRA:                   0.000
REMARK UNBOUND:                 0.000
REMARK SMILES Nc1ncnc2nc[nH]c12
REMARK SMILES IDX 8 1 7 2 6 3 5 4 4 5 3 6 2 7 10 8 9 9 1 11
REMARK H PARENT 9 10 1 12 1 13
REMARK Flexibility Score: inf
ROOT
ATOM      1  C   UNL     1       1.169   5.545  20.086  1.00  0.00     0.199 A 
ATOM      2  N   UNL     1       2.070   5.382  21.092  1.00  0.00    -0.217 NA
ATOM      3  C   UNL     1       2.532   6.631  21.266  1.00  0.00     0.182 A 
ATOM      4  N   UNL     1       3.466   7.029  22.163  1.00  0.00    -0.215 NA
ATOM      5  C   UNL     1       3.810   8.352  22.191  1.00  0.00     0.226 A 
ATOM      6  N   UNL     1       3.220   9.244  21.332  1.00  0.00    -0.217 NA
ATOM      7  C   UNL     1       2.279   8.844  20.427  1.00  0.00     0.152 A 
ATOM      8  C   UNL     1       1.939   7.493  20.410  1.00  0.00     0.127 A 
ATOM      9  N   UNL     1       1.065   6.825  19.647  1.00  0.00    -0.340 N 
ATOM     10  H   UNL     1       0.446   7.190  18.890  1.00  0.00     0.168 HD
ENDROOT
BRANCH   7  11
ATOM     11  N   UNL     1       1.678   9.790  19.542  1.00  0.00    -0.382 N 
ATOM     12  H   UNL     1       1.707  10.809  19.769  1.00  0.00     0.158 HD
ATOM     13  H   UNL     1       1.204   9.488  18.662  1.00  0.00     0.158 HD
ENDBRANCH   7  11
TORSDOF 1
ENDMDL
MODEL 9
REMARK VINA RESULT:    -4.037      2.222      2.937
REMARK INTER + INTRA:          -4.155
REMARK INTER:                  -4.155
REMARK INTRA:                   0.000
REMARK UNBOUND:                 0.000
REMARK SMILES Nc1ncnc2nc[nH]c12
REMARK SMILES IDX 8 1 7 2 6 3 5 4 4 5 3 6 2 7 10 8 9 9 1 11
REMARK H PARENT 9 10 1 12 1 13
REMARK Flexibility Score: inf
ROOT
ATOM      1  C   UNL     1       3.807   8.489  22.219  1.00  0.00     0.199 A 
ATOM      2  N   UNL     1       3.703   7.172  21.894  1.00  0.00    -0.217 NA
ATOM      3  C   UNL     1       2.835   7.200  20.868  1.00  0.00     0.182 A 
ATOM      4  N   UNL     1       2.381   6.134  20.166  1.00  0.00    -0.215 NA
ATOM      5  C   UNL     1       1.494   6.362  19.150  1.00  0.00     0.226 A 
ATOM      6  N   UNL     1       1.084   7.638  18.857  1.00  0.00    -0.217 NA
ATOM      7  C   UNL     1       1.542   8.713  19.565  1.00  0.00     0.152 A 
ATOM      8  C   UNL     1       2.443   8.464  20.596  1.00  0.00     0.127 A 
ATOM      9  N   UNL     1       3.049   9.305  21.444  1.00  0.00    -0.340 N 
ATOM     10  H   UNL     1       2.966  10.344  21.505  1.00  0.00     0.168 HD
ENDROOT
BRANCH   7  11
ATOM     11  N   UNL     1       1.100  10.032  19.242  1.00  0.00    -0.382 N 
ATOM     12  H   UNL     1       0.708  10.649  19.989  1.00  0.00     0.158 HD
ATOM     13  H   UNL     1       1.159  10.404  18.269  1.00  0.00     0.158 HD
ENDBRANCH   7  11
TORSDOF 1
ENDMDL
