MODEL 1
REMARK VINA RESULT:    -4.129      0.000      0.000
REMARK INTER + INTRA:          -9.604
REMARK INTER:                  -7.509
REMARK INTRA:                  -2.095
REMARK UNBOUND:                -2.095
REMARK SMILES CCCCCCCCCCCCCCCC(=O)[O-]
REMARK SMILES IDX 9 1 10 2 11 3 12 4 13 5 14 6 15 7 16 8 17 9 18 10 8 11 7 12
REMARK SMILES IDX 6 13 5 14 4 15 3 16 2 17 1 18
REMARK H PARENT
REMARK Flexibility Score: inf
ROOT
ATOM      1  C   UNL     1      -2.408  -2.868  -2.893  1.00  0.00     0.000 C 
ENDROOT
BRANCH   1   2
ATOM      2  C   UNL     1      -3.094  -3.954  -3.747  1.00  0.00     0.000 C 
BRANCH   2   3
ATOM      3  C   UNL     1      -4.634  -3.939  -3.717  1.00  0.00     0.000 C 
BRANCH   3   4
ATOM      4  C   UNL     1      -5.303  -3.401  -4.995  1.00  0.00     0.000 C 
BRANCH   4   5
ATOM      5  C   UNL     1      -4.320  -3.246  -6.163  1.00  0.00     0.000 C 
BRANCH   5   6
ATOM      6  C   UNL     1      -4.134  -1.766  -6.532  1.00  0.00     0.006 C 
BRANCH   6   7
ATOM      7  C   UNL     1      -5.385  -0.930  -6.229  1.00  0.00     0.053 C 
BRANCH   7   8
ATOM      8  C   UNL     1      -5.044   0.508  -5.978  1.00  0.00     0.041 C 
ATOM      9  O   UNL     1      -5.683   1.422  -6.562  1.00  0.00    -0.550 OA
ATOM     10  O   UNL     1      -4.043   0.839  -5.073  1.00  0.00    -0.550 OA
ENDBRANCH   7   8
ENDBRANCH   6   7
ENDBRANCH   5   6
ENDBRANCH   4   5
ENDBRANCH   3   4
ENDBRANCH   2   3
ENDBRANCH   1   2
BRANCH   1  11
ATOM     11  C   UNL     1      -3.267  -1.621  -2.611  1.00  0.00     0.000 C 
BRANCH  11  12
ATOM     12  C   UNL     1      -3.614  -1.460  -1.121  1.00  0.00    -0.000 C 
BRANCH  12  13
ATOM     13  C   UNL     1      -2.954  -2.534  -0.242  1.00  0.00    -0.000 C 
BRANCH  13  14
ATOM     14  C   UNL     1      -3.974  -3.358   0.562  1.00  0.00    -0.000 C 
BRANCH  14  15
ATOM     15  C   UNL     1      -4.404  -4.641  -0.182  1.00  0.00    -0.000 C 
BRANCH  15  16
ATOM     16  C   UNL     1      -5.931  -4.808  -0.294  1.00  0.00    -0.000 C 
BRANCH  16  17
ATOM     17  C   UNL     1      -6.685  -3.537  -0.718  1.00  0.00    -0.003 C 
ATOM     18  C   UNL     1      -7.982  -3.328   0.064  1.00  0.00     0.004 C 
ENDBRANCH  16  17
ENDBRANCH  15  16
ENDBRANCH  14  15
ENDBRANCH  13  14
ENDBRANCH  12  13
ENDBRANCH  11  12
ENDBRANCH   1  11
TORSDOF 14
ENDMDL
MODEL 2
REMARK VINA RESULT:    -4.085      2.149      3.679
REMARK INTER + INTRA:          -9.524
REMARK INTER:                  -8.281
REMARK INTRA:                  -1.243
REMARK UNBOUND:                -2.095
REMARK SMILES CCCCCCCCCCCCCCCC(=O)[O-]
REMARK SMILES IDX 9 1 10 2 11 3 12 4 13 5 14 6 15 7 16 8 17 9 18 10 8 11 7 12
REMARK SMILES IDX 6 13 5 14 4 15 3 16 2 17 1 18
REMARK H PARENT
REMARK Flexibility Score: inf
ROOT
ATOM      1  C   UNL     1      -5.491  -2.983  -0.374  1.00  0.00     0.000 C 
ENDROOT
BRANCH   1   2
ATOM      2  C   UNL     1      -5.201  -4.381  -0.956  1.00  0.00     0.000 C 
BRANCH   2   3
ATOM      3  C   UNL     1      -5.355  -4.501  -2.485  1.00  0.00     0.000 C 
BRANCH   3   4
ATOM      4  C   UNL     1      -4.189  -3.917  -3.303  1.00  0.00     0.000 C 
BRANCH   4   5
ATOM      5  C   UNL     1      -4.430  -3.988  -4.818  1.00  0.00     0.000 C 
BRANCH   5   6
ATOM      6  C   UNL     1      -5.017  -2.669  -5.343  1.00  0.00     0.006 C 
BRANCH   6   7
ATOM      7  C   UNL     1      -4.193  -2.084  -6.498  1.00  0.00     0.053 C 
BRANCH   7   8
ATOM      8  C   UNL     1      -4.118  -0.589  -6.426  1.00  0.00     0.041 C 
ATOM      9  O   UNL     1      -5.135   0.081  -6.106  1.00  0.00    -0.550 OA
ATOM     10  O   UNL     1      -2.918   0.062  -6.681  1.00  0.00    -0.550 OA
ENDBRANCH   7   8
ENDBRANCH   6   7
ENDBRANCH   5   6
ENDBRANCH   4   5
ENDBRANCH   3   4
ENDBRANCH   2   3
ENDBRANCH   1   2
BRANCH   1  11
ATOM     11  C   UNL     1      -6.741  -2.896   0.522  1.00  0.00     0.000 C 
BRANCH  11  12
ATOM     12  C   UNL     1      -8.026  -3.333  -0.202  1.00  0.00    -0.000 C 
BRANCH  12  13
ATOM     13  C   UNL     1      -8.674  -4.570   0.440  1.00  0.00    -0.000 C 
BRANCH  13  14
ATOM     14  C   UNL     1      -7.946  -5.031   1.715  1.00  0.00    -0.000 C 
BRANCH  14  15
ATOM     15  C   UNL     1      -7.420  -6.478   1.595  1.00  0.00    -0.000 C 
BRANCH  15  16
ATOM     16  C   UNL     1      -7.483  -7.042   0.163  1.00  0.00    -0.000 C 
BRANCH  16  17
ATOM     17  C   UNL     1      -6.910  -8.460   0.007  1.00  0.00    -0.003 C 
ATOM     18  C   UNL     1      -7.955  -9.551   0.242  1.00  0.00     0.004 C 
ENDBRANCH  16  17
ENDBRANCH  15  16
ENDBRANCH  14  15
ENDBRANCH  13  14
ENDBRANCH  12  13
ENDBRANCH  11  12
ENDBRANCH   1  11
TORSDOF 14
ENDMDL
MODEL 3
REMARK VINA RESULT:    -4.043      1.442      2.918
REMARK INTER + INTRA:          -9.447
REMARK INTER:                  -8.097
REMARK INTRA:                  -1.350
REMARK UNBOUND:                -2.095
REMARK SMILES CCCCCCCCCCCCCCCC(=O)[O-]
REMARK SMILES IDX 9 1 10 2 11 3 12 4 13 5 14 6 15 7 16 8 17 9 18 10 8 11 7 12
REMARK SMILES IDX 6 13 5 14 4 15 3 16 2 17 1 18
REMARK H PARENT
REMARK Flexibility Score: inf
ROOT
ATOM      1  C   UNL     1      -5.461  -3.759  -1.393  1.00  0.00     0.000 C 
ENDROOT
BRANCH   1   2
ATOM      2  C   UNL     1      -4.180  -3.686  -2.249  1.00  0.00     0.000 C 
BRANCH   2   3
ATOM      3  C   UNL     1      -4.296  -4.300  -3.658  1.00  0.00     0.000 C 
BRANCH   3   4
ATOM      4  C   UNL     1      -5.117  -3.472  -4.663  1.00  0.00     0.000 C 
BRANCH   4   5
ATOM      5  C   UNL     1      -4.466  -3.403  -6.051  1.00  0.00     0.000 C 
BRANCH   5   6
ATOM      6  C   UNL     1      -3.987  -1.977  -6.363  1.00  0.00     0.006 C 
BRANCH   6   7
ATOM      7  C   UNL     1      -5.150  -0.979  -6.449  1.00  0.00     0.053 C 
BRANCH   7   8
ATOM      8  C   UNL     1      -4.819   0.318  -5.775  1.00  0.00     0.041 C 
ATOM      9  O   UNL     1      -5.319   1.395  -6.194  1.00  0.00    -0.550 OA
ATOM     10  O   UNL     1      -3.984   0.333  -4.665  1.00  0.00    -0.550 OA
ENDBRANCH   7   8
ENDBRANCH   6   7
ENDBRANCH   5   6
ENDBRANCH   4   5
ENDBRANCH   3   4
ENDBRANCH   2   3
ENDBRANCH   1   2
BRANCH   1  11
ATOM     11  C   UNL     1      -5.529  -2.747  -0.234  1.00  0.00     0.000 C 
BRANCH  11  12
ATOM     12  C   UNL     1      -6.760  -2.954   0.666  1.00  0.00    -0.000 C 
BRANCH  12  13
ATOM     13  C   UNL     1      -7.982  -3.466  -0.113  1.00  0.00    -0.000 C 
BRANCH  13  14
ATOM     14  C   UNL     1      -8.859  -4.422   0.714  1.00  0.00    -0.000 C 
BRANCH  14  15
ATOM     15  C   UNL     1      -8.070  -5.651   1.215  1.00  0.00    -0.000 C 
BRANCH  15  16
ATOM     16  C   UNL     1      -7.549  -6.555   0.082  1.00  0.00    -0.000 C 
BRANCH  16  17
ATOM     17  C   UNL     1      -6.301  -7.378   0.441  1.00  0.00    -0.003 C 
ATOM     18  C   UNL     1      -5.147  -6.514   0.947  1.00  0.00     0.004 C 
ENDBRANCH  16  17
ENDBRANCH  15  16
ENDBRANCH  14  15
ENDBRANCH  13  14
ENDBRANCH  12  13
ENDBRANCH  11  12
ENDBRANCH   1  11
TORSDOF 14
ENDMDL
MODEL 4
REMARK VINA RESULT:    -4.000      1.247      1.786
REMARK INTER + INTRA:          -9.369
REMARK INTER:                  -7.847
REMARK INTRA:                  -1.521
REMARK UNBOUND:                -2.095
REMARK SMILES CCCCCCCCCCCCCCCC(=O)[O-]
REMARK SMILES IDX 9 1 10 2 11 3 12 4 13 5 14 6 15 7 16 8 17 9 18 10 8 11 7 12
REMARK SMILES IDX 6 13 5 14 4 15 3 16 2 17 1 18
REMARK H PARENT
REMARK Flexibility Score: inf
ROOT
ATOM      1  C   UNL     1      -3.678  -3.314  -2.732  1.00  0.00     0.000 C 
ENDROOT
BRANCH   1   2
ATOM      2  C   UNL     1      -5.137  -3.603  -3.136  1.00  0.00     0.000 C 
BRANCH   2   3
ATOM      3  C   UNL     1      -5.465  -3.373  -4.624  1.00  0.00     0.000 C 
BRANCH   3   4
ATOM      4  C   UNL     1      -4.291  -3.607  -5.592  1.00  0.00     0.000 C 
BRANCH   4   5
ATOM      5  C   UNL     1      -4.016  -2.400  -6.499  1.00  0.00     0.000 C 
BRANCH   5   6
ATOM      6  C   UNL     1      -4.575  -1.110  -5.881  1.00  0.00     0.006 C 
BRANCH   6   7
ATOM      7  C   UNL     1      -3.466  -0.189  -5.353  1.00  0.00     0.053 C 
BRANCH   7   8
ATOM      8  C   UNL     1      -3.736   1.249  -5.677  1.00  0.00     0.041 C 
ATOM      9  O   UNL     1      -3.048   1.842  -6.548  1.00  0.00    -0.550 OA
ATOM     10  O   UNL     1      -4.769   1.925  -5.040  1.00  0.00    -0.550 OA
ENDBRANCH   7   8
ENDBRANCH   6   7
ENDBRANCH   5   6
ENDBRANCH   4   5
ENDBRANCH   3   4
ENDBRANCH   2   3
ENDBRANCH   1   2
BRANCH   1  11
ATOM     11  C   UNL     1      -3.443  -1.942  -2.072  1.00  0.00     0.000 C 
BRANCH  11  12
ATOM     12  C   UNL     1      -3.990  -1.870  -0.636  1.00  0.00    -0.000 C 
BRANCH  12  13
ATOM     13  C   UNL     1      -3.962  -3.232   0.075  1.00  0.00    -0.000 C 
BRANCH  13  14
ATOM     14  C   UNL     1      -5.344  -3.661   0.597  1.00  0.00    -0.000 C 
BRANCH  14  15
ATOM     15  C   UNL     1      -6.441  -2.628   0.259  1.00  0.00    -0.000 C 
BRANCH  15  16
ATOM     16  C   UNL     1      -7.711  -3.252  -0.349  1.00  0.00    -0.000 C 
BRANCH  16  17
ATOM     17  C   UNL     1      -8.502  -4.157   0.608  1.00  0.00    -0.003 C 
ATOM     18  C   UNL     1      -8.400  -5.638   0.244  1.00  0.00     0.004 C 
ENDBRANCH  16  17
ENDBRANCH  15  16
ENDBRANCH  14  15
ENDBRANCH  13  14
ENDBRANCH  12  13
ENDBRANCH  11  12
ENDBRANCH   1  11
TORSDOF 14
ENDMDL
MODEL 5
REMARK VINA RESULT:    -3.970      3.858      7.195
REMARK INTER + INTRA:          -9.314
REMARK INTER:                  -7.847
REMARK INTRA:                  -1.467
REMARK UNBOUND:                -2.095
REMARK SMILES CCCCCCCCCCCCCCCC(=O)[O-]
REMARK SMILES IDX 9 1 10 2 11 3 12 4 13 5 14 6 15 7 16 8 17 9 18 10 8 11 7 12
REMARK SMILES IDX 6 13 5 14 4 15 3 16 2 17 1 18
REMARK H PARENT
REMARK Flexibility Score: inf
ROOT
ATOM      1  C   UNL     1      -4.537  -3.682  -2.926  1.00  0.00     0.000 C 
ENDROOT
BRANCH   1   2
ATOM      2  C   UNL     1      -5.500  -3.914  -1.744  1.00  0.00     0.000 C 
BRANCH   2   3
ATOM      3  C   UNL     1      -5.253  -3.025  -0.510  1.00  0.00     0.000 C 
BRANCH   3   4
ATOM      4  C   UNL     1      -6.514  -2.675   0.301  1.00  0.00     0.000 C 
BRANCH   4   5
ATOM      5  C   UNL     1      -7.807  -3.172  -0.361  1.00  0.00     0.000 C 
BRANCH   5   6
ATOM      6  C   UNL     1      -8.525  -4.192   0.534  1.00  0.00     0.006 C 
BRANCH   6   7
ATOM      7  C   UNL     1      -8.163  -5.640   0.174  1.00  0.00     0.053 C 
BRANCH   7   8
ATOM      8  C   UNL     1      -7.469  -6.337   1.305  1.00  0.00     0.041 C 
ATOM      9  O   UNL     1      -6.756  -5.682   2.110  1.00  0.00    -0.550 OA
ATOM     10  O   UNL     1      -7.636  -7.704   1.489  1.00  0.00    -0.550 OA
ENDBRANCH   7   8
ENDBRANCH   6   7
ENDBRANCH   5   6
ENDBRANCH   4   5
ENDBRANCH   3   4
ENDBRANCH   2   3
ENDBRANCH   1   2
BRANCH   1  11
ATOM     11  C   UNL     1      -5.215  -3.306  -4.257  1.00  0.00     0.000 C 
BRANCH  11  12
ATOM     12  C   UNL     1      -4.362  -3.669  -5.484  1.00  0.00    -0.000 C 
BRANCH  12  13
ATOM     13  C   UNL     1      -4.229  -2.503  -6.477  1.00  0.00    -0.000 C 
BRANCH  13  14
ATOM     14  C   UNL     1      -5.178  -1.335  -6.156  1.00  0.00    -0.000 C 
BRANCH  14  15
ATOM     15  C   UNL     1      -4.430   0.014  -6.063  1.00  0.00    -0.000 C 
BRANCH  15  16
ATOM     16  C   UNL     1      -3.036  -0.095  -5.418  1.00  0.00    -0.000 C 
BRANCH  16  17
ATOM     17  C   UNL     1      -2.914   0.572  -4.039  1.00  0.00    -0.003 C 
ATOM     18  C   UNL     1      -3.030  -0.424  -2.886  1.00  0.00     0.004 C 
ENDBRANCH  16  17
ENDBRANCH  15  16
ENDBRANCH  14  15
ENDBRANCH  13  14
ENDBRANCH  12  13
ENDBRANCH  11  12
ENDBRANCH   1  11
TORSDOF 14
ENDMDL
MODEL 6
REMARK VINA RESULT:    -3.947      1.850      2.823
REMARK INTER + INTRA:          -9.273
REMARK INTER:                  -7.688
REMARK INTRA:                  -1.585
REMARK UNBOUND:                -2.095
REMARK SMILES CCCCCCCCCCCCCCCC(=O)[O-]
REMARK SMILES IDX 9 1 10 2 11 3 12 4 13 5 14 6 15 7 16 8 17 9 18 10 8 11 7 12
REMARK SMILES IDX 6 13 5 14 4 15 3 16 2 17 1 18
REMARK H PARENT
REMARK Flexibility Score: inf
ROOT
ATOM      1  C   UNL     1      -5.321  -3.488  -4.482  1.00  0.00     0.000 C 
ENDROOT
BRANCH   1   2
ATOM      2  C   UNL     1      -4.026  -3.382  -5.312  1.00  0.00     0.000 C 
BRANCH   2   3
ATOM      3  C   UNL     1      -4.046  -2.319  -6.428  1.00  0.00     0.000 C 
BRANCH   3   4
ATOM      4  C   UNL     1      -5.282  -1.402  -6.429  1.00  0.00     0.000 C 
BRANCH   4   5
ATOM      5  C   UNL     1      -4.954   0.042  -6.025  1.00  0.00     0.000 C 
BRANCH   5   6
ATOM      6  C   UNL     1      -3.439   0.235  -5.857  1.00  0.00     0.006 C 
BRANCH   6   7
ATOM      7  C   UNL     1      -3.084   0.913  -4.526  1.00  0.00     0.053 C 
BRANCH   7   8
ATOM      8  C   UNL     1      -2.434  -0.042  -3.572  1.00  0.00     0.041 C 
ATOM      9  O   UNL     1      -2.619   0.077  -2.332  1.00  0.00    -0.550 OA
ATOM     10  O   UNL     1      -1.649  -1.082  -4.054  1.00  0.00    -0.550 OA
ENDBRANCH   7   8
ENDBRANCH   6   7
ENDBRANCH   5   6
ENDBRANCH   4   5
ENDBRANCH   3   4
ENDBRANCH   2   3
ENDBRANCH   1   2
BRANCH   1  11
ATOM     11  C   UNL     1      -5.131  -3.996  -3.040  1.00  0.00     0.000 C 
BRANCH  11  12
ATOM     12  C   UNL     1      -3.969  -3.300  -2.311  1.00  0.00    -0.000 C 
BRANCH  12  13
ATOM     13  C   UNL     1      -4.410  -2.635  -0.997  1.00  0.00    -0.000 C 
BRANCH  13  14
ATOM     14  C   UNL     1      -4.388  -3.603   0.198  1.00  0.00    -0.000 C 
BRANCH  14  15
ATOM     15  C   UNL     1      -5.771  -3.724   0.876  1.00  0.00    -0.000 C 
BRANCH  15  16
ATOM     16  C   UNL     1      -6.862  -2.865   0.210  1.00  0.00    -0.000 C 
BRANCH  16  17
ATOM     17  C   UNL     1      -8.174  -3.610  -0.084  1.00  0.00    -0.003 C 
ATOM     18  C   UNL     1      -8.106  -5.094   0.276  1.00  0.00     0.004 C 
ENDBRANCH  16  17
ENDBRANCH  15  16
ENDBRANCH  14  15
ENDBRANCH  13  14
ENDBRANCH  12  13
ENDBRANCH  11  12
ENDBRANCH   1  11
TORSDOF 14
ENDMDL
MODEL 7
REMARK VINA RESULT:    -3.912      1.572      3.766
REMARK INTER + INTRA:          -9.210
REMARK INTER:                  -7.241
REMARK INTRA:                  -1.969
REMARK UNBOUND:                -2.095
REMARK SMILES CCCCCCCCCCCCCCCC(=O)[O-]
REMARK SMILES IDX 9 1 10 2 11 3 12 4 13 5 14 6 15 7 16 8 17 9 18 10 8 11 7 12
REMARK SMILES IDX 6 13 5 14 4 15 3 16 2 17 1 18
REMARK H PARENT
REMARK Flexibility Score: inf
ROOT
ATOM      1  C   UNL     1      -5.231  -3.283  -3.960  1.00  0.00     0.000 C 
ENDROOT
BRANCH   1   2
ATOM      2  C   UNL     1      -4.656  -3.741  -5.315  1.00  0.00     0.000 C 
BRANCH   2   3
ATOM      3  C   UNL     1      -4.042  -2.623  -6.181  1.00  0.00     0.000 C 
BRANCH   3   4
ATOM      4  C   UNL     1      -4.962  -1.413  -6.426  1.00  0.00     0.000 C 
BRANCH   4   5
ATOM      5  C   UNL     1      -4.220  -0.072  -6.333  1.00  0.00     0.000 C 
BRANCH   5   6
ATOM      6  C   UNL     1      -5.191   1.070  -5.998  1.00  0.00     0.006 C 
BRANCH   6   7
ATOM      7  C   UNL     1      -4.491   2.239  -5.290  1.00  0.00     0.053 C 
BRANCH   7   8
ATOM      8  C   UNL     1      -3.690   3.069  -6.246  1.00  0.00     0.041 C 
ATOM      9  O   UNL     1      -2.448   3.197  -6.087  1.00  0.00    -0.550 OA
ATOM     10  O   UNL     1      -4.311   3.675  -7.331  1.00  0.00    -0.550 OA
ENDBRANCH   7   8
ENDBRANCH   6   7
ENDBRANCH   5   6
ENDBRANCH   4   5
ENDBRANCH   3   4
ENDBRANCH   2   3
ENDBRANCH   1   2
BRANCH   1  11
ATOM     11  C   UNL     1      -5.101  -4.306  -2.816  1.00  0.00     0.000 C 
BRANCH  11  12
ATOM     12  C   UNL     1      -5.733  -3.816  -1.502  1.00  0.00    -0.000 C 
BRANCH  12  13
ATOM     13  C   UNL     1      -4.682  -3.429  -0.450  1.00  0.00    -0.000 C 
BRANCH  13  14
ATOM     14  C   UNL     1      -4.318  -1.935  -0.490  1.00  0.00    -0.000 C 
BRANCH  14  15
ATOM     15  C   UNL     1      -2.964  -1.683  -1.188  1.00  0.00    -0.000 C 
BRANCH  15  16
ATOM     16  C   UNL     1      -3.058  -0.731  -2.395  1.00  0.00    -0.000 C 
BRANCH  16  17
ATOM     17  C   UNL     1      -2.053  -1.022  -3.521  1.00  0.00    -0.003 C 
ATOM     18  C   UNL     1      -1.488  -2.441  -3.459  1.00  0.00     0.004 C 
ENDBRANCH  16  17
ENDBRANCH  15  16
ENDBRANCH  14  15
ENDBRANCH  13  14
ENDBRANCH  12  13
ENDBRANCH  11  12
ENDBRANCH   1  11
TORSDOF 14
ENDMDL
MODEL 8
REMARK VINA RESULT:    -3.862      1.167      2.005
REMARK INTER + INTRA:          -9.118
REMARK INTER:                  -7.585
REMARK INTRA:                  -1.533
REMARK UNBOUND:                -2.095
REMARK SMILES CCCCCCCCCCCCCCCC(=O)[O-]
REMARK SMILES IDX 9 1 10 2 11 3 12 4 13 5 14 6 15 7 16 8 17 9 18 10 8 11 7 12
REMARK SMILES IDX 6 13 5 14 4 15 3 16 2 17 1 18
REMARK H PARENT
REMARK Flexibility Score: inf
ROOT
ATOM      1  C   UNL     1      -3.255  -1.455  -2.446  1.00  0.00     0.000 C 
ENDROOT
BRANCH   1   2
ATOM      2  C   UNL     1      -2.259  -2.543  -2.897  1.00  0.00     0.000 C 
BRANCH   2   3
ATOM      3  C   UNL     1      -2.823  -3.581  -3.887  1.00  0.00     0.000 C 
BRANCH   3   4
ATOM      4  C   UNL     1      -4.332  -3.857  -3.750  1.00  0.00     0.000 C 
BRANCH   4   5
ATOM      5  C   UNL     1      -5.123  -3.480  -5.010  1.00  0.00     0.000 C 
BRANCH   5   6
ATOM      6  C   UNL     1      -4.232  -2.740  -6.019  1.00  0.00     0.006 C 
BRANCH   6   7
ATOM      7  C   UNL     1      -4.842  -1.403  -6.463  1.00  0.00     0.053 C 
BRANCH   7   8
ATOM      8  C   UNL     1      -4.053  -0.236  -5.951  1.00  0.00     0.041 C 
ATOM      9  O   UNL     1      -4.646   0.775  -5.490  1.00  0.00    -0.550 OA
ATOM     10  O   UNL     1      -2.665  -0.278  -5.954  1.00  0.00    -0.550 OA
ENDBRANCH   7   8
ENDBRANCH   6   7
ENDBRANCH   5   6
ENDBRANCH   4   5
ENDBRANCH   3   4
ENDBRANCH   2   3
ENDBRANCH   1   2
BRANCH   1  11
ATOM     11  C   UNL     1      -3.573  -1.445  -0.939  1.00  0.00     0.000 C 
BRANCH  11  12
ATOM     12  C   UNL     1      -3.401  -2.827  -0.284  1.00  0.00    -0.000 C 
BRANCH  12  13
ATOM     13  C   UNL     1      -4.722  -3.386   0.269  1.00  0.00    -0.000 C 
BRANCH  13  14
ATOM     14  C   UNL     1      -5.943  -2.972  -0.569  1.00  0.00    -0.000 C 
BRANCH  14  15
ATOM     15  C   UNL     1      -7.244  -2.957   0.264  1.00  0.00    -0.000 C 
BRANCH  15  16
ATOM     16  C   UNL     1      -7.520  -4.280   1.003  1.00  0.00    -0.000 C 
BRANCH  16  17
ATOM     17  C   UNL     1      -8.871  -4.931   0.667  1.00  0.00    -0.003 C 
ATOM     18  C   UNL     1      -9.894  -4.789   1.793  1.00  0.00     0.004 C 
ENDBRANCH  16  17
ENDBRANCH  15  16
ENDBRANCH  14  15
ENDBRANCH  13  14
ENDBRANCH  12  13
ENDBRANCH  11  12
ENDBRANCH   1  11
TORSDOF 14
ENDMDL
MODEL 9
REMARK VINA RESULT:    -3.850      1.643      3.206
REMARK INTER + INTRA:          -9.096
REMARK INTER:                  -7.073
REMARK INTRA:                  -2.023
REMARK UNBOUND:                -2.095
REMARK SMILES CCCCCCCCCCCCCCCC(=O)[O-]
REMARK SMILES IDX 9 1 10 2 11 3 12 4 13 5 14 6 15 7 16 8 17 9 18 10 8 11 7 12
REMARK SMILES IDX 6 13 5 14 4 15 3 16 2 17 1 18
REMARK H PARENT
REMARK Flexibility Score: inf
ROOT
ATOM      1  C   UNL     1      -4.691  -3.993  -3.979  1.00  0.00     0.000 C 
ENDROOT
BRANCH   1   2
ATOM      2  C   UNL     1      -5.316  -2.991  -4.972  1.00  0.00     0.000 C 
BRANCH   2   3
ATOM      3  C   UNL     1      -4.401  -2.560  -6.134  1.00  0.00     0.000 C 
BRANCH   3   4
ATOM      4  C   UNL     1      -4.398  -1.049  -6.432  1.00  0.00     0.000 C 
BRANCH   4   5
ATOM      5  C   UNL     1      -3.458  -0.262  -5.510  1.00  0.00     0.000 C 
BRANCH   5   6
ATOM      6  C   UNL     1      -4.088   1.077  -5.096  1.00  0.00     0.006 C 
BRANCH   6   7
ATOM      7  C   UNL     1      -4.606   1.873  -6.301  1.00  0.00     0.053 C 
BRANCH   7   8
ATOM      8  C   UNL     1      -3.635   2.932  -6.726  1.00  0.00     0.041 C 
ATOM      9  O   UNL     1      -3.733   4.101  -6.270  1.00  0.00    -0.550 OA
ATOM     10  O   UNL     1      -2.602   2.620  -7.602  1.00  0.00    -0.550 OA
ENDBRANCH   7   8
ENDBRANCH   6   7
ENDBRANCH   5   6
ENDBRANCH   4   5
ENDBRANCH   3   4
ENDBRANCH   2   3
ENDBRANCH   1   2
BRANCH   1  11
ATOM     11  C   UNL     1      -3.231  -4.383  -4.278  1.00  0.00     0.000 C 
BRANCH  11  12
ATOM     12  C   UNL     1      -2.256  -3.923  -3.181  1.00  0.00    -0.000 C 
BRANCH  12  13
ATOM     13  C   UNL     1      -1.679  -2.524  -3.452  1.00  0.00    -0.000 C 
BRANCH  13  14
ATOM     14  C   UNL     1      -1.788  -1.588  -2.236  1.00  0.00    -0.000 C 
BRANCH  14  15
ATOM     15  C   UNL     1      -3.242  -1.131  -1.981  1.00  0.00    -0.000 C 
BRANCH  15  16
ATOM     16  C   UNL     1      -3.752  -1.455  -0.565  1.00  0.00    -0.000 C 
BRANCH  16  17
ATOM     17  C   UNL     1      -4.352  -2.861  -0.406  1.00  0.00    -0.003 C 
ATOM     18  C   UNL     1      -5.856  -2.836  -0.131  1.00  0.00     0.004 C 
ENDBRANCH  16  17
ENDBRANCH  15  16
ENDBRANCH  14  15
ENDBRANCH  13  14
ENDBRANCH  12  13
ENDBRANCH  11  12
ENDBRANCH   1  11
TORSDOF 14
ENDMDL
