MODEL 1
REMARK VINA RESULT:    -4.502      0.000      0.000
REMARK INTER + INTRA:          -6.901
REMARK INTER:                  -6.608
REMARK INTRA:                  -0.293
REMARK UNBOUND:                -0.293
REMARK SMILES O=C([O-])CCCCCCCC(=O)[O-]
REMARK SMILES IDX 7 1 6 2 5 3 4 4 2 5 1 6 3 7 8 8 9 9 10 10 11 11 12 12 13 13
REMARK H PARENT
REMARK Flexibility Score: inf
ROOT
ATOM      1  C   UNL     1       0.198  -6.017   6.768  1.00  0.00     0.000 C 
ENDROOT
BRANCH   1   2
ATOM      2  C   UNL     1      -0.651  -7.292   6.883  1.00  0.00     0.000 C 
BRANCH   2   3
ATOM      3  C   UNL     1      -1.622  -7.200   8.070  1.00  0.00     0.006 C 
BRANCH   3   4
ATOM      4  C   UNL     1      -2.362  -8.522   8.318  1.00  0.00     0.053 C 
BRANCH   4   5
ATOM      5  C   UNL     1      -3.849  -8.347   8.256  1.00  0.00     0.041 C 
ATOM      6  O   UNL     1      -4.346  -7.336   7.693  1.00  0.00    -0.550 OA
ATOM      7  O   UNL     1      -4.687  -9.319   8.789  1.00  0.00    -0.550 OA
ENDBRANCH   4   5
ENDBRANCH   3   4
ENDBRANCH   2   3
ENDBRANCH   1   2
BRANCH   1   8
ATOM      8  C   UNL     1      -0.633  -4.728   6.908  1.00  0.00     0.000 C 
BRANCH   8   9
ATOM      9  C   UNL     1      -1.127  -4.125   5.580  1.00  0.00     0.006 C 
BRANCH   9  10
ATOM     10  C   UNL     1      -1.373  -2.614   5.665  1.00  0.00     0.053 C 
BRANCH  10  11
ATOM     11  C   UNL     1      -1.522  -2.031   4.295  1.00  0.00     0.041 C 
ATOM     12  O   UNL     1      -1.406  -2.766   3.278  1.00  0.00    -0.550 OA
ATOM     13  O   UNL     1      -1.741  -0.669   4.138  1.00  0.00    -0.550 OA
ENDBRANCH  10  11
ENDBRANCH   9  10
ENDBRANCH   8   9
ENDBRANCH   1   8
TORSDOF 8
ENDMDL
MODEL 2
REMARK VINA RESULT:    -4.301      0.392      6.458
REMARK INTER + INTRA:          -6.606
REMARK INTER:                  -6.353
REMARK INTRA:                  -0.253
REMARK UNBOUND:                -0.293
REMARK SMILES O=C([O-])CCCCCCCC(=O)[O-]
REMARK SMILES IDX 7 1 6 2 5 3 4 4 2 5 1 6 3 7 8 8 9 9 10 10 11 11 12 12 13 13
REMARK H PARENT
REMARK Flexibility Score: inf
ROOT
ATOM      1  C   UNL     1       0.356  -5.710   6.961  1.00  0.00     0.000 C 
ENDROOT
BRANCH   1   2
ATOM      2  C   UNL     1      -0.559  -4.477   6.973  1.00  0.00     0.000 C 
BRANCH   2   3
ATOM      3  C   UNL     1      -1.082  -4.167   5.562  1.00  0.00     0.006 C 
BRANCH   3   4
ATOM      4  C   UNL     1      -1.437  -2.684   5.386  1.00  0.00     0.053 C 
BRANCH   4   5
ATOM      5  C   UNL     1      -1.487  -2.291   3.941  1.00  0.00     0.041 C 
ATOM      6  O   UNL     1      -1.576  -1.077   3.618  1.00  0.00    -0.550 OA
ATOM      7  O   UNL     1      -1.401  -3.262   2.952  1.00  0.00    -0.550 OA
ENDBRANCH   4   5
ENDBRANCH   3   4
ENDBRANCH   2   3
ENDBRANCH   1   2
BRANCH   1   8
ATOM      8  C   UNL     1      -0.423  -7.037   6.946  1.00  0.00     0.000 C 
BRANCH   8   9
ATOM      9  C   UNL     1      -1.791  -6.997   7.653  1.00  0.00     0.006 C 
BRANCH   9  10
ATOM     10  C   UNL     1      -2.235  -8.370   8.173  1.00  0.00     0.053 C 
BRANCH  10  11
ATOM     11  C   UNL     1      -3.727  -8.439   8.254  1.00  0.00     0.041 C 
ATOM     12  O   UNL     1      -4.289  -9.466   8.719  1.00  0.00    -0.550 OA
ATOM     13  O   UNL     1      -4.500  -7.390   7.773  1.00  0.00    -0.550 OA
ENDBRANCH  10  11
ENDBRANCH   9  10
ENDBRANCH   8   9
ENDBRANCH   1   8
TORSDOF 8
ENDMDL
MODEL 3
REMARK VINA RESULT:    -4.106      3.000      6.542
REMARK INTER + INTRA:          -6.320
REMARK INTER:                  -5.849
REMARK INTRA:                  -0.472
REMARK UNBOUND:                -0.293
REMARK SMILES O=C([O-])CCCCCCCC(=O)[O-]
REMARK SMILES IDX 7 1 6 2 5 3 4 4 2 5 1 6 3 7 8 8 9 9 10 10 11 11 12 12 13 13
REMARK H PARENT
REMARK Flexibility Score: inf
ROOT
ATOM      1  C   UNL     1       0.042  -2.264   8.889  1.00  0.00     0.000 C 
ENDROOT
BRANCH   1   2
ATOM      2  C   UNL     1      -0.284  -0.814   9.278  1.00  0.00     0.000 C 
BRANCH   2   3
ATOM      3  C   UNL     1      -0.953  -0.070   8.112  1.00  0.00     0.006 C 
BRANCH   3   4
ATOM      4  C   UNL     1      -1.185  -0.981   6.899  1.00  0.00     0.053 C 
BRANCH   4   5
ATOM      5  C   UNL     1      -1.315  -0.196   5.629  1.00  0.00     0.041 C 
ATOM      6  O   UNL     1      -1.065   1.039   5.620  1.00  0.00    -0.550 OA
ATOM      7  O   UNL     1      -1.678  -0.834   4.450  1.00  0.00    -0.550 OA
ENDBRANCH   4   5
ENDBRANCH   3   4
ENDBRANCH   2   3
ENDBRANCH   1   2
BRANCH   1   8
ATOM      8  C   UNL     1      -0.450  -3.290   9.927  1.00  0.00     0.000 C 
BRANCH   8   9
ATOM      9  C   UNL     1      -0.415  -4.756   9.459  1.00  0.00     0.006 C 
BRANCH   9  10
ATOM     10  C   UNL     1       0.546  -4.987   8.286  1.00  0.00     0.053 C 
BRANCH  10  11
ATOM     11  C   UNL     1      -0.206  -5.444   7.077  1.00  0.00     0.041 C 
ATOM     12  O   UNL     1      -0.302  -6.673   6.817  1.00  0.00    -0.550 OA
ATOM     13  O   UNL     1      -0.761  -4.513   6.208  1.00  0.00    -0.550 OA
ENDBRANCH  10  11
ENDBRANCH   9  10
ENDBRANCH   8   9
ENDBRANCH   1   8
TORSDOF 8
ENDMDL
MODEL 4
REMARK VINA RESULT:    -4.077      3.566      6.500
REMARK INTER + INTRA:          -6.277
REMARK INTER:                  -5.969
REMARK INTRA:                  -0.307
REMARK UNBOUND:                -0.293
REMARK SMILES O=C([O-])CCCCCCCC(=O)[O-]
REMARK SMILES IDX 7 1 6 2 5 3 4 4 2 5 1 6 3 7 8 8 9 9 10 10 11 11 12 12 13 13
REMARK H PARENT
REMARK Flexibility Score: inf
ROOT
ATOM      1  C   UNL     1       0.064  -6.129   6.653  1.00  0.00     0.000 C 
ENDROOT
BRANCH   1   2
ATOM      2  C   UNL     1      -0.368  -4.921   7.496  1.00  0.00     0.000 C 
BRANCH   2   3
ATOM      3  C   UNL     1       0.556  -4.739   8.710  1.00  0.00     0.006 C 
BRANCH   3   4
ATOM      4  C   UNL     1       1.969  -5.279   8.450  1.00  0.00     0.053 C 
BRANCH   4   5
ATOM      5  C   UNL     1       2.943  -4.812   9.488  1.00  0.00     0.041 C 
ATOM      6  O   UNL     1       3.647  -5.647  10.117  1.00  0.00    -0.550 OA
ATOM      7  O   UNL     1       3.098  -3.455   9.737  1.00  0.00    -0.550 OA
ENDBRANCH   4   5
ENDBRANCH   3   4
ENDBRANCH   2   3
ENDBRANCH   1   2
BRANCH   1   8
ATOM      8  C   UNL     1      -0.713  -7.412   6.999  1.00  0.00     0.000 C 
BRANCH   8   9
ATOM      9  C   UNL     1      -1.834  -7.234   8.039  1.00  0.00     0.006 C 
BRANCH   9  10
ATOM     10  C   UNL     1      -2.733  -8.470   8.166  1.00  0.00     0.053 C 
BRANCH  10  11
ATOM     11  C   UNL     1      -4.142  -8.062   8.458  1.00  0.00     0.041 C 
ATOM     12  O   UNL     1      -4.690  -8.407   9.539  1.00  0.00    -0.550 OA
ATOM     13  O   UNL     1      -4.869  -7.344   7.518  1.00  0.00    -0.550 OA
ENDBRANCH  10  11
ENDBRANCH   9  10
ENDBRANCH   8   9
ENDBRANCH   1   8
TORSDOF 8
ENDMDL
MODEL 5
REMARK VINA RESULT:    -3.994      3.471      4.223
REMARK INTER + INTRA:          -6.156
REMARK INTER:                  -5.828
REMARK INTRA:                  -0.328
REMARK UNBOUND:                -0.293
REMARK SMILES O=C([O-])CCCCCCCC(=O)[O-]
REMARK SMILES IDX 7 1 6 2 5 3 4 4 2 5 1 6 3 7 8 8 9 9 10 10 11 11 12 12 13 13
REMARK H PARENT
REMARK Flexibility Score: inf
ROOT
ATOM      1  C   UNL     1      -0.088  -5.869   6.810  1.00  0.00     0.000 C 
ENDROOT
BRANCH   1   2
ATOM      2  C   UNL     1      -0.773  -7.222   7.047  1.00  0.00     0.000 C 
BRANCH   2   3
ATOM      3  C   UNL     1      -1.758  -7.140   8.224  1.00  0.00     0.006 C 
BRANCH   3   4
ATOM      4  C   UNL     1      -2.392  -8.500   8.546  1.00  0.00     0.053 C 
BRANCH   4   5
ATOM      5  C   UNL     1      -3.811  -8.579   8.070  1.00  0.00     0.041 C 
ATOM      6  O   UNL     1      -4.412  -9.686   8.052  1.00  0.00    -0.550 OA
ATOM      7  O   UNL     1      -4.479  -7.426   7.680  1.00  0.00    -0.550 OA
ENDBRANCH   4   5
ENDBRANCH   3   4
ENDBRANCH   2   3
ENDBRANCH   1   2
BRANCH   1   8
ATOM      8  C   UNL     1       0.277  -5.142   8.117  1.00  0.00     0.000 C 
BRANCH   8   9
ATOM      9  C   UNL     1       1.755  -5.250   8.532  1.00  0.00     0.006 C 
BRANCH   9  10
ATOM     10  C   UNL     1       2.017  -4.736   9.952  1.00  0.00     0.053 C 
BRANCH  10  11
ATOM     11  C   UNL     1       2.298  -3.266   9.932  1.00  0.00     0.041 C 
ATOM     12  O   UNL     1       1.362  -2.440  10.093  1.00  0.00    -0.550 OA
ATOM     13  O   UNL     1       3.586  -2.808   9.685  1.00  0.00    -0.550 OA
ENDBRANCH  10  11
ENDBRANCH   9  10
ENDBRANCH   8   9
ENDBRANCH   1   8
TORSDOF 8
ENDMDL
MODEL 6
REMARK VINA RESULT:    -3.803     12.729     14.413
REMARK INTER + INTRA:          -5.875
REMARK INTER:                  -5.413
REMARK INTRA:                  -0.462
REMARK UNBOUND:                -0.293
REMARK SMILES O=C([O-])CCCCCCCC(=O)[O-]
REMARK SMILES IDX 7 1 6 2 5 3 4 4 2 5 1 6 3 7 8 8 9 9 10 10 11 11 12 12 13 13
REMARK H PARENT
REMARK Flexibility Score: inf
ROOT
ATOM      1  C   UNL     1       5.745  -7.089  -3.745  1.00  0.00     0.000 C 
ENDROOT
BRANCH   1   2
ATOM      2  C   UNL     1       4.385  -7.688  -4.132  1.00  0.00     0.000 C 
BRANCH   2   3
ATOM      3  C   UNL     1       4.475  -9.217  -4.261  1.00  0.00     0.006 C 
BRANCH   3   4
ATOM      4  C   UNL     1       4.087  -9.704  -5.663  1.00  0.00     0.053 C 
BRANCH   4   5
ATOM      5  C   UNL     1       4.850  -8.986  -6.734  1.00  0.00     0.041 C 
ATOM      6  O   UNL     1       4.248  -8.234  -7.546  1.00  0.00    -0.550 OA
ATOM      7  O   UNL     1       6.230  -9.120  -6.815  1.00  0.00    -0.550 OA
ENDBRANCH   4   5
ENDBRANCH   3   4
ENDBRANCH   2   3
ENDBRANCH   1   2
BRANCH   1   8
ATOM      8  C   UNL     1       6.762  -8.151  -3.288  1.00  0.00     0.000 C 
BRANCH   8   9
ATOM      9  C   UNL     1       7.480  -7.839  -1.963  1.00  0.00     0.006 C 
BRANCH   9  10
ATOM     10  C   UNL     1       8.520  -8.899  -1.581  1.00  0.00     0.053 C 
BRANCH  10  11
ATOM     11  C   UNL     1       8.405  -9.245  -0.131  1.00  0.00     0.041 C 
ATOM     12  O   UNL     1       9.154 -10.125   0.371  1.00  0.00    -0.550 OA
ATOM     13  O   UNL     1       7.439  -8.633   0.657  1.00  0.00    -0.550 OA
ENDBRANCH  10  11
ENDBRANCH   9  10
ENDBRANCH   8   9
ENDBRANCH   1   8
TORSDOF 8
ENDMDL
MODEL 7
REMARK VINA RESULT:    -3.755     12.429     13.933
REMARK INTER + INTRA:          -5.804
REMARK INTER:                  -5.372
REMARK INTRA:                  -0.432
REMARK UNBOUND:                -0.293
REMARK SMILES O=C([O-])CCCCCCCC(=O)[O-]
REMARK SMILES IDX 7 1 6 2 5 3 4 4 2 5 1 6 3 7 8 8 9 9 10 10 11 11 12 12 13 13
REMARK H PARENT
REMARK Flexibility Score: inf
ROOT
ATOM      1  C   UNL     1       6.744  -9.118  -4.062  1.00  0.00     0.000 C 
ENDROOT
BRANCH   1   2
ATOM      2  C   UNL     1       7.350  -8.872  -2.672  1.00  0.00     0.000 C 
BRANCH   2   3
ATOM      3  C   UNL     1       8.403  -7.754  -2.722  1.00  0.00     0.006 C 
BRANCH   3   4
ATOM      4  C   UNL     1       7.881  -6.439  -2.129  1.00  0.00     0.053 C 
BRANCH   4   5
ATOM      5  C   UNL     1       8.089  -5.286  -3.063  1.00  0.00     0.041 C 
ATOM      6  O   UNL     1       8.485  -5.489  -4.242  1.00  0.00    -0.550 OA
ATOM      7  O   UNL     1       7.813  -3.991  -2.644  1.00  0.00    -0.550 OA
ENDBRANCH   4   5
ENDBRANCH   3   4
ENDBRANCH   2   3
ENDBRANCH   1   2
BRANCH   1   8
ATOM      8  C   UNL     1       5.560 -10.102  -4.036  1.00  0.00     0.000 C 
BRANCH   8   9
ATOM      9  C   UNL     1       4.168  -9.447  -4.079  1.00  0.00     0.006 C 
BRANCH   9  10
ATOM     10  C   UNL     1       4.121  -8.201  -4.973  1.00  0.00     0.053 C 
BRANCH  10  11
ATOM     11  C   UNL     1       3.904  -6.973  -4.146  1.00  0.00     0.041 C 
ATOM     12  O   UNL     1       4.888  -6.284  -3.767  1.00  0.00    -0.550 OA
ATOM     13  O   UNL     1       2.621  -6.615  -3.754  1.00  0.00    -0.550 OA
ENDBRANCH  10  11
ENDBRANCH   9  10
ENDBRANCH   8   9
ENDBRANCH   1   8
TORSDOF 8
ENDMDL
MODEL 8
REMARK VINA RESULT:    -3.722     13.477     14.921
REMARK INTER + INTRA:          -5.756
REMARK INTER:                  -5.303
REMARK INTRA:                  -0.453
REMARK UNBOUND:                -0.293
REMARK SMILES O=C([O-])CCCCCCCC(=O)[O-]
REMARK SMILES IDX 7 1 6 2 5 3 4 4 2 5 1 6 3 7 8 8 9 9 10 10 11 11 12 12 13 13
REMARK H PARENT
REMARK Flexibility Score: inf
ROOT
ATOM      1  C   UNL     1       5.463  -7.138  -3.807  1.00  0.00     0.000 C 
ENDROOT
BRANCH   1   2
ATOM      2  C   UNL     1       6.555  -8.138  -3.402  1.00  0.00     0.000 C 
BRANCH   2   3
ATOM      3  C   UNL     1       7.746  -7.417  -2.752  1.00  0.00     0.006 C 
BRANCH   3   4
ATOM      4  C   UNL     1       8.474  -6.494  -3.739  1.00  0.00     0.053 C 
BRANCH   4   5
ATOM      5  C   UNL     1       8.635  -5.108  -3.190  1.00  0.00     0.041 C 
ATOM      6  O   UNL     1       9.773  -4.688  -2.854  1.00  0.00    -0.550 OA
ATOM      7  O   UNL     1       7.532  -4.270  -3.083  1.00  0.00    -0.550 OA
ENDBRANCH   4   5
ENDBRANCH   3   4
ENDBRANCH   2   3
ENDBRANCH   1   2
BRANCH   1   8
ATOM      8  C   UNL     1       4.216  -7.818  -4.401  1.00  0.00     0.000 C 
BRANCH   8   9
ATOM      9  C   UNL     1       4.206  -9.355  -4.310  1.00  0.00     0.006 C 
BRANCH   9  10
ATOM     10  C   UNL     1       4.083 -10.034  -5.679  1.00  0.00     0.053 C 
BRANCH  10  11
ATOM     11  C   UNL     1       4.973  -9.363  -6.677  1.00  0.00     0.041 C 
ATOM     12  O   UNL     1       4.482  -8.609  -7.558  1.00  0.00    -0.550 OA
ATOM     13  O   UNL     1       6.340  -9.608  -6.666  1.00  0.00    -0.550 OA
ENDBRANCH  10  11
ENDBRANCH   9  10
ENDBRANCH   8   9
ENDBRANCH   1   8
TORSDOF 8
ENDMDL
MODEL 9
REMARK VINA RESULT:    -3.718     12.669     14.077
REMARK INTER + INTRA:          -5.750
REMARK INTER:                  -5.224
REMARK INTRA:                  -0.526
REMARK UNBOUND:                -0.293
REMARK SMILES O=C([O-])CCCCCCCC(=O)[O-]
REMARK SMILES IDX 7 1 6 2 5 3 4 4 2 5 1 6 3 7 8 8 9 9 10 10 11 11 12 12 13 13
REMARK H PARENT
REMARK Flexibility Score: inf
ROOT
ATOM      1  C   UNL     1       5.940  -7.058  -3.674  1.00  0.00     0.000 C 
ENDROOT
BRANCH   1   2
ATOM      2  C   UNL     1       7.152  -7.981  -3.867  1.00  0.00     0.000 C 
BRANCH   2   3
ATOM      3  C   UNL     1       8.011  -8.032  -2.594  1.00  0.00     0.006 C 
BRANCH   3   4
ATOM      4  C   UNL     1       7.477  -9.048  -1.575  1.00  0.00     0.053 C 
BRANCH   4   5
ATOM      5  C   UNL     1       8.143  -8.900  -0.241  1.00  0.00     0.041 C 
ATOM      6  O   UNL     1       7.459  -8.631   0.782  1.00  0.00    -0.550 OA
ATOM      7  O   UNL     1       9.514  -9.093  -0.121  1.00  0.00    -0.550 OA
ENDBRANCH   4   5
ENDBRANCH   3   4
ENDBRANCH   2   3
ENDBRANCH   1   2
BRANCH   1   8
ATOM      8  C   UNL     1       4.632  -7.659  -4.221  1.00  0.00     0.000 C 
BRANCH   8   9
ATOM      9  C   UNL     1       4.587  -9.198  -4.252  1.00  0.00     0.006 C 
BRANCH   9  10
ATOM     10  C   UNL     1       4.084  -9.754  -5.590  1.00  0.00     0.053 C 
BRANCH  10  11
ATOM     11  C   UNL     1       4.837  -9.139  -6.727  1.00  0.00     0.041 C 
ATOM     12  O   UNL     1       6.043  -9.442  -6.926  1.00  0.00    -0.550 OA
ATOM     13  O   UNL     1       4.223  -8.194  -7.538  1.00  0.00    -0.550 OA
ENDBRANCH  10  11
ENDBRANCH   9  10
ENDBRANCH   8   9
ENDBRANCH   1   8
TORSDOF 8
ENDMDL
