MODEL 1
REMARK VINA RESULT:    -4.005      0.000      0.000
REMARK INTER + INTRA:          -6.465
REMARK INTER:                  -6.113
REMARK INTRA:                  -0.352
REMARK UNBOUND:                -0.352
REMARK SMILES O=C([O-])CCCCCCCCC(=O)[O-]
REMARK SMILES IDX 7 1 6 2 5 3 4 4 2 5 1 6 3 7 8 8 9 9 10 10 11 11 12 12 13 13
REMARK SMILES IDX 14 14
REMARK H PARENT
REMARK Flexibility Score: inf
ROOT
ATOM      1  C   UNL     1      -2.241   5.980   9.968  1.00  0.00     0.000 C 
ENDROOT
BRANCH   1   2
ATOM      2  C   UNL     1      -1.703   4.781   9.171  1.00  0.00     0.000 C 
BRANCH   2   3
ATOM      3  C   UNL     1      -1.544   3.520  10.032  1.00  0.00     0.006 C 
BRANCH   3   4
ATOM      4  C   UNL     1      -2.865   2.750  10.125  1.00  0.00     0.053 C 
BRANCH   4   5
ATOM      5  C   UNL     1      -2.967   1.749   9.018  1.00  0.00     0.041 C 
ATOM      6  O   UNL     1      -1.961   1.479   8.311  1.00  0.00    -0.550 OA
ATOM      7  O   UNL     1      -4.188   1.149   8.733  1.00  0.00    -0.550 OA
ENDBRANCH   4   5
ENDBRANCH   3   4
ENDBRANCH   2   3
ENDBRANCH   1   2
BRANCH   1   8
ATOM      8  C   UNL     1      -1.308   7.199   9.907  1.00  0.00     0.000 C 
BRANCH   8   9
ATOM      9  C   UNL     1      -0.238   7.016   8.825  1.00  0.00     0.000 C 
BRANCH   9  10
ATOM     10  C   UNL     1      -0.008   8.320   8.051  1.00  0.00     0.006 C 
BRANCH  10  11
ATOM     11  C   UNL     1       1.447   8.784   8.175  1.00  0.00     0.053 C 
BRANCH  11  12
ATOM     12  C   UNL     1       2.251   8.304   7.007  1.00  0.00     0.041 C 
ATOM     13  O   UNL     1       1.828   8.475   5.834  1.00  0.00    -0.550 OA
ATOM     14  O   UNL     1       3.491   7.712   7.214  1.00  0.00    -0.550 OA
ENDBRANCH  11  12
ENDBRANCH  10  11
ENDBRANCH   9  10
ENDBRANCH   8   9
ENDBRANCH   1   8
TORSDOF 9
ENDMDL
MODEL 2
REMARK VINA RESULT:    -3.983      1.268      1.559
REMARK INTER + INTRA:          -6.430
REMARK INTER:                  -6.123
REMARK INTRA:                  -0.307
REMARK UNBOUND:                -0.352
REMARK SMILES O=C([O-])CCCCCCCCC(=O)[O-]
REMARK SMILES IDX 7 1 6 2 5 3 4 4 2 5 1 6 3 7 8 8 9 9 10 10 11 11 12 12 13 13
REMARK SMILES IDX 14 14
REMARK H PARENT
REMARK Flexibility Score: inf
ROOT
ATOM      1  C   UNL     1      -0.415   4.916   9.952  1.00  0.00     0.000 C 
ENDROOT
BRANCH   1   2
ATOM      2  C   UNL     1      -0.763   3.422   9.852  1.00  0.00     0.000 C 
BRANCH   2   3
ATOM      3  C   UNL     1      -2.277   3.167   9.812  1.00  0.00     0.006 C 
BRANCH   3   4
ATOM      4  C   UNL     1      -2.595   1.878   9.048  1.00  0.00     0.053 C 
BRANCH   4   5
ATOM      5  C   UNL     1      -4.071   1.635   9.023  1.00  0.00     0.041 C 
ATOM      6  O   UNL     1      -4.526   0.536   8.607  1.00  0.00    -0.550 OA
ATOM      7  O   UNL     1      -4.948   2.639   9.412  1.00  0.00    -0.550 OA
ENDBRANCH   4   5
ENDBRANCH   3   4
ENDBRANCH   2   3
ENDBRANCH   1   2
BRANCH   1   8
ATOM      8  C   UNL     1      -1.114   5.760   8.876  1.00  0.00     0.000 C 
BRANCH   8   9
ATOM      9  C   UNL     1      -0.746   7.242   9.017  1.00  0.00     0.000 C 
BRANCH   9  10
ATOM     10  C   UNL     1       0.751   7.463   8.774  1.00  0.00     0.006 C 
BRANCH  10  11
ATOM     11  C   UNL     1       0.993   8.163   7.433  1.00  0.00     0.053 C 
BRANCH  11  12
ATOM     12  C   UNL     1       2.427   8.570   7.305  1.00  0.00     0.041 C 
ATOM     13  O   UNL     1       2.748   9.786   7.363  1.00  0.00    -0.550 OA
ATOM     14  O   UNL     1       3.415   7.602   7.171  1.00  0.00    -0.550 OA
ENDBRANCH  11  12
ENDBRANCH  10  11
ENDBRANCH   9  10
ENDBRANCH   8   9
ENDBRANCH   1   8
TORSDOF 9
ENDMDL
MODEL 3
REMARK VINA RESULT:    -3.890      0.830      6.955
REMARK INTER + INTRA:          -6.288
REMARK INTER:                  -5.841
REMARK INTRA:                  -0.447
REMARK UNBOUND:                -0.352
REMARK SMILES O=C([O-])CCCCCCCCC(=O)[O-]
REMARK SMILES IDX 7 1 6 2 5 3 4 4 2 5 1 6 3 7 8 8 9 9 10 10 11 11 12 12 13 13
REMARK SMILES IDX 14 14
REMARK H PARENT
REMARK Flexibility Score: inf
ROOT
ATOM      1  C   UNL     1       0.233   6.755   9.656  1.00  0.00     0.000 C 
ENDROOT
BRANCH   1   2
ATOM      2  C   UNL     1      -0.408   7.669   8.600  1.00  0.00     0.000 C 
BRANCH   2   3
ATOM      3  C   UNL     1       0.456   8.895   8.275  1.00  0.00     0.006 C 
BRANCH   3   4
ATOM      4  C   UNL     1       1.945   8.581   8.454  1.00  0.00     0.053 C 
BRANCH   4   5
ATOM      5  C   UNL     1       2.556   8.172   7.151  1.00  0.00     0.041 C 
ATOM      6  O   UNL     1       3.680   7.605   7.128  1.00  0.00    -0.550 OA
ATOM      7  O   UNL     1       1.907   8.464   5.958  1.00  0.00    -0.550 OA
ENDBRANCH   4   5
ENDBRANCH   3   4
ENDBRANCH   2   3
ENDBRANCH   1   2
BRANCH   1   8
ATOM      8  C   UNL     1      -0.537   5.439   9.847  1.00  0.00     0.000 C 
BRANCH   8   9
ATOM      9  C   UNL     1      -1.983   5.574   9.358  1.00  0.00     0.000 C 
BRANCH   9  10
ATOM     10  C   UNL     1      -2.749   4.257   9.532  1.00  0.00     0.006 C 
BRANCH  10  11
ATOM     11  C   UNL     1      -1.807   3.055   9.422  1.00  0.00     0.053 C 
BRANCH  11  12
ATOM     12  C   UNL     1      -2.557   1.841   8.970  1.00  0.00     0.041 C 
ATOM     13  O   UNL     1      -2.151   1.179   7.979  1.00  0.00    -0.550 OA
ATOM     14  O   UNL     1      -3.676   1.414   9.673  1.00  0.00    -0.550 OA
ENDBRANCH  11  12
ENDBRANCH  10  11
ENDBRANCH   9  10
ENDBRANCH   8   9
ENDBRANCH   1   8
TORSDOF 9
ENDMDL
MODEL 4
REMARK VINA RESULT:    -3.889      0.840      7.272
REMARK INTER + INTRA:          -6.286
REMARK INTER:                  -5.962
REMARK INTRA:                  -0.325
REMARK UNBOUND:                -0.352
REMARK SMILES O=C([O-])CCCCCCCCC(=O)[O-]
REMARK SMILES IDX 7 1 6 2 5 3 4 4 2 5 1 6 3 7 8 8 9 9 10 10 11 11 12 12 13 13
REMARK SMILES IDX 14 14
REMARK H PARENT
REMARK Flexibility Score: inf
ROOT
ATOM      1  C   UNL     1      -1.019   6.073   8.646  1.00  0.00     0.000 C 
ENDROOT
BRANCH   1   2
ATOM      2  C   UNL     1      -0.100   7.190   9.164  1.00  0.00     0.000 C 
BRANCH   2   3
ATOM      3  C   UNL     1      -0.030   8.391   8.209  1.00  0.00     0.006 C 
BRANCH   3   4
ATOM      4  C   UNL     1       1.390   8.962   8.150  1.00  0.00     0.053 C 
BRANCH   4   5
ATOM      5  C   UNL     1       2.163   8.333   7.036  1.00  0.00     0.041 C 
ATOM      6  O   UNL     1       3.272   7.781   7.265  1.00  0.00    -0.550 OA
ATOM      7  O   UNL     1       1.684   8.399   5.733  1.00  0.00    -0.550 OA
ENDBRANCH   4   5
ENDBRANCH   3   4
ENDBRANCH   2   3
ENDBRANCH   1   2
BRANCH   1   8
ATOM      8  C   UNL     1      -1.535   5.161   9.769  1.00  0.00     0.000 C 
BRANCH   8   9
ATOM      9  C   UNL     1      -0.765   3.835   9.795  1.00  0.00     0.000 C 
BRANCH   9  10
ATOM     10  C   UNL     1      -1.698   2.650   9.521  1.00  0.00     0.006 C 
BRANCH  10  11
ATOM     11  C   UNL     1      -3.134   2.971   9.948  1.00  0.00     0.053 C 
BRANCH  11  12
ATOM     12  C   UNL     1      -4.103   2.072   9.246  1.00  0.00     0.041 C 
ATOM     13  O   UNL     1      -3.694   1.245   8.390  1.00  0.00    -0.550 OA
ATOM     14  O   UNL     1      -5.452   2.114   9.574  1.00  0.00    -0.550 OA
ENDBRANCH  11  12
ENDBRANCH  10  11
ENDBRANCH   9  10
ENDBRANCH   8   9
ENDBRANCH   1   8
TORSDOF 9
ENDMDL
MODEL 5
REMARK VINA RESULT:    -3.836      1.688      2.323
REMARK INTER + INTRA:          -6.207
REMARK INTER:                  -5.765
REMARK INTRA:                  -0.441
REMARK UNBOUND:                -0.352
REMARK SMILES O=C([O-])CCCCCCCCC(=O)[O-]
REMARK SMILES IDX 7 1 6 2 5 3 4 4 2 5 1 6 3 7 8 8 9 9 10 10 11 11 12 12 13 13
REMARK SMILES IDX 14 14
REMARK H PARENT
REMARK Flexibility Score: inf
ROOT
ATOM      1  C   UNL     1       0.361   5.706   9.812  1.00  0.00     0.000 C 
ENDROOT
BRANCH   1   2
ATOM      2  C   UNL     1      -0.936   5.864   9.003  1.00  0.00     0.000 C 
BRANCH   2   3
ATOM      3  C   UNL     1      -1.995   4.814   9.370  1.00  0.00     0.006 C 
BRANCH   3   4
ATOM      4  C   UNL     1      -1.339   3.480   9.740  1.00  0.00     0.053 C 
BRANCH   4   5
ATOM      5  C   UNL     1      -2.241   2.337   9.394  1.00  0.00     0.041 C 
ATOM      6  O   UNL     1      -3.231   2.068  10.124  1.00  0.00    -0.550 OA
ATOM      7  O   UNL     1      -1.960   1.538   8.293  1.00  0.00    -0.550 OA
ENDBRANCH   4   5
ENDBRANCH   3   4
ENDBRANCH   2   3
ENDBRANCH   1   2
BRANCH   1   8
ATOM      8  C   UNL     1       1.461   6.680   9.364  1.00  0.00     0.000 C 
BRANCH   8   9
ATOM      9  C   UNL     1       0.880   7.803   8.498  1.00  0.00     0.000 C 
BRANCH   9  10
ATOM     10  C   UNL     1       1.988   8.727   7.978  1.00  0.00     0.006 C 
BRANCH  10  11
ATOM     11  C   UNL     1       3.274   7.941   7.702  1.00  0.00     0.053 C 
BRANCH  11  12
ATOM     12  C   UNL     1       4.450   8.625   8.326  1.00  0.00     0.041 C 
ATOM     13  O   UNL     1       4.282   9.432   9.277  1.00  0.00    -0.550 OA
ATOM     14  O   UNL     1       5.736   8.334   7.888  1.00  0.00    -0.550 OA
ENDBRANCH  11  12
ENDBRANCH  10  11
ENDBRANCH   9  10
ENDBRANCH   8   9
ENDBRANCH   1   8
TORSDOF 9
ENDMDL
MODEL 6
REMARK VINA RESULT:    -3.795      1.558      7.318
REMARK INTER + INTRA:          -6.143
REMARK INTER:                  -5.767
REMARK INTRA:                  -0.375
REMARK UNBOUND:                -0.352
REMARK SMILES O=C([O-])CCCCCCCCC(=O)[O-]
REMARK SMILES IDX 7 1 6 2 5 3 4 4 2 5 1 6 3 7 8 8 9 9 10 10 11 11 12 12 13 13
REMARK SMILES IDX 14 14
REMARK H PARENT
REMARK Flexibility Score: inf
ROOT
ATOM      1  C   UNL     1       0.055   7.933   8.246  1.00  0.00     0.000 C 
ENDROOT
BRANCH   1   2
ATOM      2  C   UNL     1       1.223   8.924   8.128  1.00  0.00     0.000 C 
BRANCH   2   3
ATOM      3  C   UNL     1       2.192   8.565   6.992  1.00  0.00     0.006 C 
BRANCH   3   4
ATOM      4  C   UNL     1       3.401   7.791   7.526  1.00  0.00     0.053 C 
BRANCH   4   5
ATOM      5  C   UNL     1       4.212   8.652   8.442  1.00  0.00     0.041 C 
ATOM      6  O   UNL     1       4.649   9.765   8.046  1.00  0.00    -0.550 OA
ATOM      7  O   UNL     1       4.529   8.204   9.719  1.00  0.00    -0.550 OA
ENDBRANCH   4   5
ENDBRANCH   3   4
ENDBRANCH   2   3
ENDBRANCH   1   2
BRANCH   1   8
ATOM      8  C   UNL     1       0.209   6.974   9.435  1.00  0.00     0.000 C 
BRANCH   8   9
ATOM      9  C   UNL     1      -1.143   6.371   9.833  1.00  0.00     0.000 C 
BRANCH   9  10
ATOM     10  C   UNL     1      -1.468   5.137   8.983  1.00  0.00     0.006 C 
BRANCH  10  11
ATOM     11  C   UNL     1      -1.034   3.851   9.692  1.00  0.00     0.053 C 
BRANCH  11  12
ATOM     12  C   UNL     1      -2.078   2.790   9.539  1.00  0.00     0.041 C 
ATOM     13  O   UNL     1      -1.815   1.727   8.919  1.00  0.00    -0.550 OA
ATOM     14  O   UNL     1      -3.328   2.955  10.125  1.00  0.00    -0.550 OA
ENDBRANCH  11  12
ENDBRANCH  10  11
ENDBRANCH   9  10
ENDBRANCH   8   9
ENDBRANCH   1   8
TORSDOF 9
ENDMDL
MODEL 7
REMARK VINA RESULT:    -3.570      5.377      6.499
REMARK INTER + INTRA:          -5.799
REMARK INTER:                  -5.414
REMARK INTRA:                  -0.385
REMARK UNBOUND:                -0.352
REMARK SMILES O=C([O-])CCCCCCCCC(=O)[O-]
REMARK SMILES IDX 7 1 6 2 5 3 4 4 2 5 1 6 3 7 8 8 9 9 10 10 11 11 12 12 13 13
REMARK SMILES IDX 14 14
REMARK H PARENT
REMARK Flexibility Score: inf
ROOT
ATOM      1  C   UNL     1      -5.024   5.470   8.372  1.00  0.00     0.000 C 
ENDROOT
BRANCH   1   2
ATOM      2  C   UNL     1      -3.623   5.521   8.999  1.00  0.00     0.000 C 
BRANCH   2   3
ATOM      3  C   UNL     1      -3.224   4.197   9.667  1.00  0.00     0.006 C 
BRANCH   3   4
ATOM      4  C   UNL     1      -4.208   3.081   9.303  1.00  0.00     0.053 C 
BRANCH   4   5
ATOM      5  C   UNL     1      -3.472   1.830   8.938  1.00  0.00     0.041 C 
ATOM      6  O   UNL     1      -4.103   0.819   8.532  1.00  0.00    -0.550 OA
ATOM      7  O   UNL     1      -2.093   1.765   9.094  1.00  0.00    -0.550 OA
ENDBRANCH   4   5
ENDBRANCH   3   4
ENDBRANCH   2   3
ENDBRANCH   1   2
BRANCH   1   8
ATOM      8  C   UNL     1      -5.924   6.625   8.836  1.00  0.00     0.000 C 
BRANCH   8   9
ATOM      9  C   UNL     1      -7.171   6.738   7.952  1.00  0.00     0.000 C 
BRANCH   9  10
ATOM     10  C   UNL     1      -6.791   7.069   6.504  1.00  0.00     0.006 C 
BRANCH  10  11
ATOM     11  C   UNL     1      -8.008   7.565   5.716  1.00  0.00     0.053 C 
BRANCH  11  12
ATOM     12  C   UNL     1      -7.852   9.011   5.364  1.00  0.00     0.041 C 
ATOM     13  O   UNL     1      -7.263   9.795   6.154  1.00  0.00    -0.550 OA
ATOM     14  O   UNL     1      -8.313   9.483   4.142  1.00  0.00    -0.550 OA
ENDBRANCH  11  12
ENDBRANCH  10  11
ENDBRANCH   9  10
ENDBRANCH   8   9
ENDBRANCH   1   8
TORSDOF 9
ENDMDL
MODEL 8
REMARK VINA RESULT:    -3.465     17.664     20.503
REMARK INTER + INTRA:          -5.640
REMARK INTER:                  -5.316
REMARK INTRA:                  -0.323
REMARK UNBOUND:                -0.352
REMARK SMILES O=C([O-])CCCCCCCCC(=O)[O-]
REMARK SMILES IDX 7 1 6 2 5 3 4 4 2 5 1 6 3 7 8 8 9 9 10 10 11 11 12 12 13 13
REMARK SMILES IDX 14 14
REMARK H PARENT
REMARK Flexibility Score: inf
ROOT
ATOM      1  C   UNL     1      -9.844  -6.673  -5.066  1.00  0.00     0.000 C 
ENDROOT
BRANCH   1   2
ATOM      2  C   UNL     1      -9.495  -5.937  -3.763  1.00  0.00     0.000 C 
BRANCH   2   3
ATOM      3  C   UNL     1      -8.739  -4.624  -4.009  1.00  0.00     0.006 C 
BRANCH   3   4
ATOM      4  C   UNL     1      -7.575  -4.468  -3.024  1.00  0.00     0.053 C 
BRANCH   4   5
ATOM      5  C   UNL     1      -7.840  -3.344  -2.073  1.00  0.00     0.041 C 
ATOM      6  O   UNL     1      -6.925  -2.528  -1.785  1.00  0.00    -0.550 OA
ATOM      7  O   UNL     1      -9.083  -3.227  -1.465  1.00  0.00    -0.550 OA
ENDBRANCH   4   5
ENDBRANCH   3   4
ENDBRANCH   2   3
ENDBRANCH   1   2
BRANCH   1   8
ATOM      8  C   UNL     1      -9.809  -5.752  -6.294  1.00  0.00     0.000 C 
BRANCH   8   9
ATOM      9  C   UNL     1      -9.327  -6.512  -7.536  1.00  0.00     0.000 C 
BRANCH   9  10
ATOM     10  C   UNL     1      -9.526  -5.675  -8.805  1.00  0.00     0.006 C 
BRANCH  10  11
ATOM     11  C   UNL     1      -8.995  -6.412 -10.038  1.00  0.00     0.053 C 
BRANCH  11  12
ATOM     12  C   UNL     1      -7.615  -6.932  -9.785  1.00  0.00     0.041 C 
ATOM     13  O   UNL     1      -6.644  -6.135  -9.697  1.00  0.00    -0.550 OA
ATOM     14  O   UNL     1      -7.408  -8.293  -9.596  1.00  0.00    -0.550 OA
ENDBRANCH  11  12
ENDBRANCH  10  11
ENDBRANCH   9  10
ENDBRANCH   8   9
ENDBRANCH   1   8
TORSDOF 9
ENDMDL
MODEL 9
REMARK VINA RESULT:    -3.439     17.910     20.652
REMARK INTER + INTRA:          -5.600
REMARK INTER:                  -5.463
REMARK INTRA:                  -0.137
REMARK UNBOUND:                -0.352
REMARK SMILES O=C([O-])CCCCCCCCC(=O)[O-]
REMARK SMILES IDX 7 1 6 2 5 3 4 4 2 5 1 6 3 7 8 8 9 9 10 10 11 11 12 12 13 13
REMARK SMILES IDX 14 14
REMARK H PARENT
REMARK Flexibility Score: inf
ROOT
ATOM      1  C   UNL     1      -9.976  -5.941  -6.204  1.00  0.00     0.000 C 
ENDROOT
BRANCH   1   2
ATOM      2  C   UNL     1      -9.281  -6.378  -7.503  1.00  0.00     0.000 C 
BRANCH   2   3
ATOM      3  C   UNL     1      -9.868  -5.695  -8.747  1.00  0.00     0.006 C 
BRANCH   3   4
ATOM      4  C   UNL     1      -9.031  -6.009  -9.991  1.00  0.00     0.053 C 
BRANCH   4   5
ATOM      5  C   UNL     1      -7.877  -6.893  -9.638  1.00  0.00     0.041 C 
ATOM      6  O   UNL     1      -6.748  -6.393  -9.390  1.00  0.00    -0.550 OA
ATOM      7  O   UNL     1      -8.035  -8.273  -9.631  1.00  0.00    -0.550 OA
ENDBRANCH   4   5
ENDBRANCH   3   4
ENDBRANCH   2   3
ENDBRANCH   1   2
BRANCH   1   8
ATOM      8  C   UNL     1      -9.514  -6.751  -4.984  1.00  0.00     0.000 C 
BRANCH   8   9
ATOM      9  C   UNL     1     -10.125  -6.194  -3.693  1.00  0.00     0.000 C 
BRANCH   9  10
ATOM     10  C   UNL     1     -10.108  -4.661  -3.692  1.00  0.00     0.006 C 
BRANCH  10  11
ATOM     11  C   UNL     1      -9.152  -4.122  -2.623  1.00  0.00     0.053 C 
BRANCH  11  12
ATOM     12  C   UNL     1      -7.841  -3.742  -3.236  1.00  0.00     0.041 C 
ATOM     13  O   UNL     1      -7.712  -3.714  -4.488  1.00  0.00    -0.550 OA
ATOM     14  O   UNL     1      -6.776  -3.371  -2.425  1.00  0.00    -0.550 OA
ENDBRANCH  11  12
ENDBRANCH  10  11
ENDBRANCH   9  10
ENDBRANCH   8   9
ENDBRANCH   1   8
TORSDOF 9
ENDMDL
