MODEL 1
REMARK VINA RESULT:    -4.135      0.000      0.000
REMARK INTER + INTRA:          -9.812
REMARK INTER:                  -7.518
REMARK INTRA:                  -2.293
REMARK UNBOUND:                -2.293
REMARK SMILES CCCCCC=CCC=CCCCCCCCC(=O)[O-]
REMARK SMILES IDX 11 1 12 2 13 3 14 4 15 5 16 6 17 7 18 8 19 9 20 10 10 11
REMARK SMILES IDX 9 12 8 13 7 14 6 15 5 16 4 17 3 18 2 19 1 20
REMARK H PARENT
REMARK Flexibility Score: inf
ROOT
ATOM      1  C   UNL     1       3.013  -0.435   4.903  1.00  0.00     0.027 C 
ENDROOT
BRANCH   1   2
ATOM      2  C   UNL     1       4.476  -0.851   4.691  1.00  0.00     0.004 C 
BRANCH   2   3
ATOM      3  C   UNL     1       4.728  -1.380   3.271  1.00  0.00     0.000 C 
BRANCH   3   4
ATOM      4  C   UNL     1       4.397  -2.874   3.171  1.00  0.00     0.000 C 
BRANCH   4   5
ATOM      5  C   UNL     1       5.678  -3.717   3.078  1.00  0.00     0.000 C 
BRANCH   5   6
ATOM      6  C   UNL     1       5.389  -5.211   2.863  1.00  0.00     0.006 C 
BRANCH   6   7
ATOM      7  C   UNL     1       3.942  -5.474   2.425  1.00  0.00     0.053 C 
BRANCH   7   8
ATOM      8  C   UNL     1       3.902  -5.930   1.000  1.00  0.00     0.041 C 
ATOM      9  O   UNL     1       2.994  -5.522   0.229  1.00  0.00    -0.550 OA
ATOM     10  O   UNL     1       4.898  -6.768   0.511  1.00  0.00    -0.550 OA
ENDBRANCH   7   8
ENDBRANCH   6   7
ENDBRANCH   5   6
ENDBRANCH   4   5
ENDBRANCH   3   4
ENDBRANCH   2   3
ENDBRANCH   1   2
BRANCH   1  11
ATOM     11  C   UNL     1       2.248  -1.430   5.733  1.00  0.00    -0.031 C 
ATOM     12  C   UNL     1       2.487  -1.587   7.043  1.00  0.00    -0.027 C 
BRANCH  12  13
ATOM     13  C   UNL     1       1.715  -2.596   7.846  1.00  0.00     0.054 C 
BRANCH  13  14
ATOM     14  C   UNL     1       0.362  -2.857   7.237  1.00  0.00    -0.027 C 
ATOM     15  C   UNL     1      -0.222  -4.069   7.170  1.00  0.00    -0.031 C 
BRANCH  15  16
ATOM     16  C   UNL     1       0.421  -5.355   7.634  1.00  0.00     0.027 C 
BRANCH  16  17
ATOM     17  C   UNL     1       0.654  -6.336   6.475  1.00  0.00     0.004 C 
BRANCH  17  18
ATOM     18  C   UNL     1       2.038  -6.150   5.829  1.00  0.00     0.000 C 
BRANCH  18  19
ATOM     19  C   UNL     1       3.134  -5.848   6.863  1.00  0.00    -0.003 C 
ATOM     20  C   UNL     1       4.181  -4.861   6.345  1.00  0.00     0.004 C 
ENDBRANCH  18  19
ENDBRANCH  17  18
ENDBRANCH  16  17
ENDBRANCH  15  16
ENDBRANCH  13  14
ENDBRANCH  12  13
ENDBRANCH   1  11
TORSDOF 14
ENDMDL
MODEL 2
REMARK VINA RESULT:    -4.095      3.549      6.236
REMARK INTER + INTRA:          -9.739
REMARK INTER:                  -7.256
REMARK INTRA:                  -2.484
REMARK UNBOUND:                -2.293
REMARK SMILES CCCCCC=CCC=CCCCCCCCC(=O)[O-]
REMARK SMILES IDX 11 1 12 2 13 3 14 4 15 5 16 6 17 7 18 8 19 9 20 10 10 11
REMARK SMILES IDX 9 12 8 13 7 14 6 15 5 16 4 17 3 18 2 19 1 20
REMARK H PARENT
REMARK Flexibility Score: inf
ROOT
ATOM      1  C   UNL     1       4.282  -1.679   2.954  1.00  0.00     0.027 C 
ENDROOT
BRANCH   1   2
ATOM      2  C   UNL     1       5.711  -1.121   2.885  1.00  0.00     0.004 C 
BRANCH   2   3
ATOM      3  C   UNL     1       6.156  -0.500   4.218  1.00  0.00     0.000 C 
BRANCH   3   4
ATOM      4  C   UNL     1       7.072  -1.455   4.994  1.00  0.00     0.000 C 
BRANCH   4   5
ATOM      5  C   UNL     1       6.305  -2.152   6.127  1.00  0.00     0.000 C 
BRANCH   5   6
ATOM      6  C   UNL     1       5.043  -1.382   6.548  1.00  0.00     0.006 C 
BRANCH   6   7
ATOM      7  C   UNL     1       3.795  -2.274   6.593  1.00  0.00     0.053 C 
BRANCH   7   8
ATOM      8  C   UNL     1       2.559  -1.456   6.387  1.00  0.00     0.041 C 
ATOM      9  O   UNL     1       2.619  -0.364   5.762  1.00  0.00    -0.550 OA
ATOM     10  O   UNL     1       1.332  -1.924   6.842  1.00  0.00    -0.550 OA
ENDBRANCH   7   8
ENDBRANCH   6   7
ENDBRANCH   5   6
ENDBRANCH   4   5
ENDBRANCH   3   4
ENDBRANCH   2   3
ENDBRANCH   1   2
BRANCH   1  11
ATOM     11  C   UNL     1       4.216  -3.135   2.580  1.00  0.00    -0.031 C 
ATOM     12  C   UNL     1       4.482  -4.104   3.468  1.00  0.00    -0.027 C 
BRANCH  12  13
ATOM     13  C   UNL     1       4.419  -5.550   3.066  1.00  0.00     0.054 C 
BRANCH  13  14
ATOM     14  C   UNL     1       3.863  -5.704   1.673  1.00  0.00    -0.027 C 
ATOM     15  C   UNL     1       4.431  -6.449   0.705  1.00  0.00    -0.031 C 
BRANCH  15  16
ATOM     16  C   UNL     1       5.741  -7.185   0.849  1.00  0.00     0.027 C 
BRANCH  16  17
ATOM     17  C   UNL     1       6.939  -6.321   0.424  1.00  0.00     0.004 C 
BRANCH  17  18
ATOM     18  C   UNL     1       8.138  -6.487   1.373  1.00  0.00     0.000 C 
BRANCH  18  19
ATOM     19  C   UNL     1       8.800  -5.145   1.725  1.00  0.00    -0.003 C 
ATOM     20  C   UNL     1       7.956  -4.302   2.682  1.00  0.00     0.004 C 
ENDBRANCH  18  19
ENDBRANCH  17  18
ENDBRANCH  16  17
ENDBRANCH  15  16
ENDBRANCH  13  14
ENDBRANCH  12  13
ENDBRANCH   1  11
TORSDOF 14
ENDMDL
MODEL 3
REMARK VINA RESULT:    -4.085      1.080      2.413
REMARK INTER + INTRA:          -9.721
REMARK INTER:                  -7.049
REMARK INTRA:                  -2.672
REMARK UNBOUND:                -2.293
REMARK SMILES CCCCCC=CCC=CCCCCCCCC(=O)[O-]
REMARK SMILES IDX 11 1 12 2 13 3 14 4 15 5 16 6 17 7 18 8 19 9 20 10 10 11
REMARK SMILES IDX 9 12 8 13 7 14 6 15 5 16 4 17 3 18 2 19 1 20
REMARK H PARENT
REMARK Flexibility Score: inf
ROOT
ATOM      1  C   UNL     1       2.576  -1.215   5.855  1.00  0.00     0.027 C 
ENDROOT
BRANCH   1   2
ATOM      2  C   UNL     1       3.512  -0.442   4.914  1.00  0.00     0.004 C 
BRANCH   2   3
ATOM      3  C   UNL     1       3.795  -1.214   3.616  1.00  0.00     0.000 C 
BRANCH   3   4
ATOM      4  C   UNL     1       5.299  -1.453   3.433  1.00  0.00     0.000 C 
BRANCH   4   5
ATOM      5  C   UNL     1       5.616  -2.956   3.392  1.00  0.00     0.000 C 
BRANCH   5   6
ATOM      6  C   UNL     1       4.490  -3.779   2.745  1.00  0.00     0.006 C 
BRANCH   6   7
ATOM      7  C   UNL     1       4.970  -5.151   2.254  1.00  0.00     0.053 C 
BRANCH   7   8
ATOM      8  C   UNL     1       3.816  -5.959   1.750  1.00  0.00     0.041 C 
ATOM      9  O   UNL     1       3.178  -5.586   0.731  1.00  0.00    -0.550 OA
ATOM     10  O   UNL     1       3.476  -7.152   2.377  1.00  0.00    -0.550 OA
ENDBRANCH   7   8
ENDBRANCH   6   7
ENDBRANCH   5   6
ENDBRANCH   4   5
ENDBRANCH   3   4
ENDBRANCH   2   3
ENDBRANCH   1   2
BRANCH   1  11
ATOM     11  C   UNL     1       2.969  -2.662   5.993  1.00  0.00    -0.031 C 
ATOM     12  C   UNL     1       3.591  -3.121   7.088  1.00  0.00    -0.027 C 
BRANCH  12  13
ATOM     13  C   UNL     1       3.981  -4.569   7.196  1.00  0.00     0.054 C 
BRANCH  13  14
ATOM     14  C   UNL     1       3.639  -5.321   5.934  1.00  0.00    -0.027 C 
ATOM     15  C   UNL     1       2.759  -6.338   5.869  1.00  0.00    -0.031 C 
BRANCH  15  16
ATOM     16  C   UNL     1       2.033  -6.919   7.059  1.00  0.00     0.027 C 
BRANCH  16  17
ATOM     17  C   UNL     1       0.508  -6.889   6.877  1.00  0.00     0.004 C 
BRANCH  17  18
ATOM     18  C   UNL     1       0.004  -5.500   6.448  1.00  0.00     0.000 C 
BRANCH  18  19
ATOM     19  C   UNL     1       0.003  -4.490   7.607  1.00  0.00    -0.003 C 
ATOM     20  C   UNL     1      -0.540  -3.121   7.198  1.00  0.00     0.004 C 
ENDBRANCH  18  19
ENDBRANCH  17  18
ENDBRANCH  16  17
ENDBRANCH  15  16
ENDBRANCH  13  14
ENDBRANCH  12  13
ENDBRANCH   1  11
TORSDOF 14
ENDMDL
MODEL 4
REMARK VINA RESULT:    -4.077      3.438      6.055
REMARK INTER + INTRA:          -9.708
REMARK INTER:                  -6.840
REMARK INTRA:                  -2.867
REMARK UNBOUND:                -2.293
REMARK SMILES CCCCCC=CCC=CCCCCCCCC(=O)[O-]
REMARK SMILES IDX 11 1 12 2 13 3 14 4 15 5 16 6 17 7 18 8 19 9 20 10 10 11
REMARK SMILES IDX 9 12 8 13 7 14 6 15 5 16 4 17 3 18 2 19 1 20
REMARK H PARENT
REMARK Flexibility Score: inf
ROOT
ATOM      1  C   UNL     1       3.726   1.125   7.418  1.00  0.00     0.027 C 
ENDROOT
BRANCH   1   2
ATOM      2  C   UNL     1       3.754   0.624   8.869  1.00  0.00     0.004 C 
BRANCH   2   3
ATOM      3  C   UNL     1       4.395  -0.767   8.989  1.00  0.00     0.000 C 
BRANCH   3   4
ATOM      4  C   UNL     1       3.500  -1.720   9.791  1.00  0.00     0.000 C 
BRANCH   4   5
ATOM      5  C   UNL     1       2.083  -1.772   9.200  1.00  0.00     0.000 C 
BRANCH   5   6
ATOM      6  C   UNL     1       1.952  -2.805   8.069  1.00  0.00     0.006 C 
BRANCH   6   7
ATOM      7  C   UNL     1       0.665  -2.628   7.254  1.00  0.00     0.053 C 
BRANCH   7   8
ATOM      8  C   UNL     1      -0.510  -3.169   8.008  1.00  0.00     0.041 C 
ATOM      9  O   UNL     1      -0.638  -4.410   8.177  1.00  0.00    -0.550 OA
ATOM     10  O   UNL     1      -1.437  -2.297   8.568  1.00  0.00    -0.550 OA
ENDBRANCH   7   8
ENDBRANCH   6   7
ENDBRANCH   5   6
ENDBRANCH   4   5
ENDBRANCH   3   4
ENDBRANCH   2   3
ENDBRANCH   1   2
BRANCH   1  11
ATOM     11  C   UNL     1       3.791   0.000   6.421  1.00  0.00    -0.031 C 
ATOM     12  C   UNL     1       3.022  -0.013   5.322  1.00  0.00    -0.027 C 
BRANCH  12  13
ATOM     13  C   UNL     1       3.100  -1.154   4.348  1.00  0.00     0.054 C 
BRANCH  13  14
ATOM     14  C   UNL     1       4.360  -1.082   3.523  1.00  0.00    -0.027 C 
ATOM     15  C   UNL     1       4.939  -2.140   2.923  1.00  0.00    -0.031 C 
BRANCH  15  16
ATOM     16  C   UNL     1       4.450  -3.564   3.041  1.00  0.00     0.027 C 
BRANCH  16  17
ATOM     17  C   UNL     1       5.145  -4.321   4.183  1.00  0.00     0.004 C 
BRANCH  17  18
ATOM     18  C   UNL     1       4.331  -4.275   5.487  1.00  0.00     0.000 C 
BRANCH  18  19
ATOM     19  C   UNL     1       5.095  -3.594   6.634  1.00  0.00    -0.003 C 
ATOM     20  C   UNL     1       6.366  -2.889   6.161  1.00  0.00     0.004 C 
ENDBRANCH  18  19
ENDBRANCH  17  18
ENDBRANCH  16  17
ENDBRANCH  15  16
ENDBRANCH  13  14
ENDBRANCH  12  13
ENDBRANCH   1  11
TORSDOF 14
ENDMDL
MODEL 5
REMARK VINA RESULT:    -4.052      1.709      2.988
REMARK INTER + INTRA:          -9.662
REMARK INTER:                  -6.847
REMARK INTRA:                  -2.815
REMARK UNBOUND:                -2.293
REMARK SMILES CCCCCC=CCC=CCCCCCCCC(=O)[O-]
REMARK SMILES IDX 11 1 12 2 13 3 14 4 15 5 16 6 17 7 18 8 19 9 20 10 10 11
REMARK SMILES IDX 9 12 8 13 7 14 6 15 5 16 4 17 3 18 2 19 1 20
REMARK H PARENT
REMARK Flexibility Score: inf
ROOT
ATOM      1  C   UNL     1       4.131  -1.550   3.387  1.00  0.00     0.027 C 
ENDROOT
BRANCH   1   2
ATOM      2  C   UNL     1       5.644  -1.293   3.347  1.00  0.00     0.004 C 
BRANCH   2   3
ATOM      3  C   UNL     1       6.448  -2.477   3.905  1.00  0.00     0.000 C 
BRANCH   3   4
ATOM      4  C   UNL     1       6.321  -3.708   2.998  1.00  0.00     0.000 C 
BRANCH   4   5
ATOM      5  C   UNL     1       6.005  -4.966   3.819  1.00  0.00     0.000 C 
BRANCH   5   6
ATOM      6  C   UNL     1       4.623  -5.555   3.490  1.00  0.00     0.006 C 
BRANCH   6   7
ATOM      7  C   UNL     1       3.987  -4.910   2.252  1.00  0.00     0.053 C 
BRANCH   7   8
ATOM      8  C   UNL     1       3.903  -5.900   1.132  1.00  0.00     0.041 C 
ATOM      9  O   UNL     1       4.543  -6.983   1.194  1.00  0.00    -0.550 OA
ATOM     10  O   UNL     1       3.077  -5.648   0.043  1.00  0.00    -0.550 OA
ENDBRANCH   7   8
ENDBRANCH   6   7
ENDBRANCH   5   6
ENDBRANCH   4   5
ENDBRANCH   3   4
ENDBRANCH   2   3
ENDBRANCH   1   2
BRANCH   1  11
ATOM     11  C   UNL     1       3.439  -0.743   4.452  1.00  0.00    -0.031 C 
ATOM     12  C   UNL     1       4.114  -0.209   5.480  1.00  0.00    -0.027 C 
BRANCH  12  13
ATOM     13  C   UNL     1       3.397   0.584   6.536  1.00  0.00     0.054 C 
BRANCH  13  14
ATOM     14  C   UNL     1       4.083   0.458   7.873  1.00  0.00    -0.027 C 
ATOM     15  C   UNL     1       3.623  -0.287   8.897  1.00  0.00    -0.031 C 
BRANCH  15  16
ATOM     16  C   UNL     1       2.321  -1.051   8.882  1.00  0.00     0.027 C 
BRANCH  16  17
ATOM     17  C   UNL     1       2.531  -2.545   8.592  1.00  0.00     0.004 C 
BRANCH  17  18
ATOM     18  C   UNL     1       2.129  -2.917   7.154  1.00  0.00     0.000 C 
BRANCH  18  19
ATOM     19  C   UNL     1       3.183  -3.792   6.456  1.00  0.00    -0.003 C 
ATOM     20  C   UNL     1       4.600  -3.534   6.970  1.00  0.00     0.004 C 
ENDBRANCH  18  19
ENDBRANCH  17  18
ENDBRANCH  16  17
ENDBRANCH  15  16
ENDBRANCH  13  14
ENDBRANCH  12  13
ENDBRANCH   1  11
TORSDOF 14
ENDMDL
MODEL 6
REMARK VINA RESULT:    -4.030      1.133      2.814
REMARK INTER + INTRA:          -9.622
REMARK INTER:                  -7.312
REMARK INTRA:                  -2.310
REMARK UNBOUND:                -2.293
REMARK SMILES CCCCCC=CCC=CCCCCCCCC(=O)[O-]
REMARK SMILES IDX 11 1 12 2 13 3 14 4 15 5 16 6 17 7 18 8 19 9 20 10 10 11
REMARK SMILES IDX 9 12 8 13 7 14 6 15 5 16 4 17 3 18 2 19 1 20
REMARK H PARENT
REMARK Flexibility Score: inf
ROOT
ATOM      1  C   UNL     1       5.404  -1.158   2.637  1.00  0.00     0.027 C 
ENDROOT
BRANCH   1   2
ATOM      2  C   UNL     1       6.632  -1.459   3.509  1.00  0.00     0.004 C 
BRANCH   2   3
ATOM      3  C   UNL     1       7.223  -2.847   3.217  1.00  0.00     0.000 C 
BRANCH   3   4
ATOM      4  C   UNL     1       7.056  -3.783   4.420  1.00  0.00     0.000 C 
BRANCH   4   5
ATOM      5  C   UNL     1       6.097  -4.937   4.090  1.00  0.00     0.000 C 
BRANCH   5   6
ATOM      6  C   UNL     1       5.614  -4.904   2.631  1.00  0.00     0.006 C 
BRANCH   6   7
ATOM      7  C   UNL     1       4.085  -4.850   2.517  1.00  0.00     0.053 C 
BRANCH   7   8
ATOM      8  C   UNL     1       3.605  -5.795   1.460  1.00  0.00     0.041 C 
ATOM      9  O   UNL     1       3.734  -7.038   1.614  1.00  0.00    -0.550 OA
ATOM     10  O   UNL     1       2.971  -5.303   0.324  1.00  0.00    -0.550 OA
ENDBRANCH   7   8
ENDBRANCH   6   7
ENDBRANCH   5   6
ENDBRANCH   4   5
ENDBRANCH   3   4
ENDBRANCH   2   3
ENDBRANCH   1   2
BRANCH   1  11
ATOM     11  C   UNL     1       4.111  -1.339   3.385  1.00  0.00    -0.031 C 
ATOM     12  C   UNL     1       3.965  -0.923   4.651  1.00  0.00    -0.027 C 
BRANCH  12  13
ATOM     13  C   UNL     1       2.666  -1.125   5.378  1.00  0.00     0.054 C 
BRANCH  13  14
ATOM     14  C   UNL     1       2.900  -1.554   6.804  1.00  0.00    -0.027 C 
ATOM     15  C   UNL     1       3.227  -2.806   7.179  1.00  0.00    -0.031 C 
BRANCH  15  16
ATOM     16  C   UNL     1       3.343  -3.979   6.235  1.00  0.00     0.027 C 
BRANCH  16  17
ATOM     17  C   UNL     1       2.431  -5.144   6.647  1.00  0.00     0.004 C 
BRANCH  17  18
ATOM     18  C   UNL     1       1.375  -4.715   7.680  1.00  0.00     0.000 C 
BRANCH  18  19
ATOM     19  C   UNL     1      -0.033  -4.603   7.072  1.00  0.00    -0.003 C 
ATOM     20  C   UNL     1      -0.537  -3.161   7.011  1.00  0.00     0.004 C 
ENDBRANCH  18  19
ENDBRANCH  17  18
ENDBRANCH  16  17
ENDBRANCH  15  16
ENDBRANCH  13  14
ENDBRANCH  12  13
ENDBRANCH   1  11
TORSDOF 14
ENDMDL
MODEL 7
REMARK VINA RESULT:    -4.030      3.443      6.015
REMARK INTER + INTRA:          -9.621
REMARK INTER:                  -6.575
REMARK INTRA:                  -3.045
REMARK UNBOUND:                -2.293
REMARK SMILES CCCCCC=CCC=CCCCCCCCC(=O)[O-]
REMARK SMILES IDX 11 1 12 2 13 3 14 4 15 5 16 6 17 7 18 8 19 9 20 10 10 11
REMARK SMILES IDX 9 12 8 13 7 14 6 15 5 16 4 17 3 18 2 19 1 20
REMARK H PARENT
REMARK Flexibility Score: inf
ROOT
ATOM      1  C   UNL     1       4.381  -4.495   2.624  1.00  0.00     0.027 C 
ENDROOT
BRANCH   1   2
ATOM      2  C   UNL     1       4.188  -5.750   3.488  1.00  0.00     0.004 C 
BRANCH   2   3
ATOM      3  C   UNL     1       4.127  -5.419   4.987  1.00  0.00     0.000 C 
BRANCH   3   4
ATOM      4  C   UNL     1       2.934  -6.112   5.657  1.00  0.00     0.000 C 
BRANCH   4   5
ATOM      5  C   UNL     1       2.481  -5.341   6.906  1.00  0.00     0.000 C 
BRANCH   5   6
ATOM      6  C   UNL     1       2.567  -3.817   6.722  1.00  0.00     0.006 C 
BRANCH   6   7
ATOM      7  C   UNL     1       1.307  -3.092   7.213  1.00  0.00     0.053 C 
BRANCH   7   8
ATOM      8  C   UNL     1       1.580  -2.389   8.507  1.00  0.00     0.041 C 
ATOM      9  O   UNL     1       1.193  -1.203   8.678  1.00  0.00    -0.550 OA
ATOM     10  O   UNL     1       2.218  -3.062   9.542  1.00  0.00    -0.550 OA
ENDBRANCH   7   8
ENDBRANCH   6   7
ENDBRANCH   5   6
ENDBRANCH   4   5
ENDBRANCH   3   4
ENDBRANCH   2   3
ENDBRANCH   1   2
BRANCH   1  11
ATOM     11  C   UNL     1       4.218  -3.225   3.415  1.00  0.00    -0.031 C 
ATOM     12  C   UNL     1       4.749  -2.065   3.001  1.00  0.00    -0.027 C 
BRANCH  12  13
ATOM     13  C   UNL     1       4.580  -0.813   3.815  1.00  0.00     0.054 C 
BRANCH  13  14
ATOM     14  C   UNL     1       3.236  -0.783   4.496  1.00  0.00    -0.027 C 
ATOM     15  C   UNL     1       3.011  -0.249   5.712  1.00  0.00    -0.031 C 
BRANCH  15  16
ATOM     16  C   UNL     1       4.081   0.338   6.600  1.00  0.00     0.027 C 
BRANCH  16  17
ATOM     17  C   UNL     1       4.654  -0.699   7.578  1.00  0.00     0.004 C 
BRANCH  17  18
ATOM     18  C   UNL     1       6.045  -1.194   7.148  1.00  0.00     0.000 C 
BRANCH  18  19
ATOM     19  C   UNL     1       6.045  -2.679   6.751  1.00  0.00    -0.003 C 
ATOM     20  C   UNL     1       7.129  -3.017   5.726  1.00  0.00     0.004 C 
ENDBRANCH  18  19
ENDBRANCH  17  18
ENDBRANCH  16  17
ENDBRANCH  15  16
ENDBRANCH  13  14
ENDBRANCH  12  13
ENDBRANCH   1  11
TORSDOF 14
ENDMDL
MODEL 8
REMARK VINA RESULT:    -3.997      3.259      5.559
REMARK INTER + INTRA:          -9.561
REMARK INTER:                  -6.561
REMARK INTRA:                  -3.000
REMARK UNBOUND:                -2.293
REMARK SMILES CCCCCC=CCC=CCCCCCCCC(=O)[O-]
REMARK SMILES IDX 11 1 12 2 13 3 14 4 15 5 16 6 17 7 18 8 19 9 20 10 10 11
REMARK SMILES IDX 9 12 8 13 7 14 6 15 5 16 4 17 3 18 2 19 1 20
REMARK H PARENT
REMARK Flexibility Score: inf
ROOT
ATOM      1  C   UNL     1       3.739   0.799   8.156  1.00  0.00     0.027 C 
ENDROOT
BRANCH   1   2
ATOM      2  C   UNL     1       4.317  -0.139   9.225  1.00  0.00     0.004 C 
BRANCH   2   3
ATOM      3  C   UNL     1       5.288  -1.169   8.628  1.00  0.00     0.000 C 
BRANCH   3   4
ATOM      4  C   UNL     1       4.721  -2.590   8.738  1.00  0.00     0.000 C 
BRANCH   4   5
ATOM      5  C   UNL     1       4.716  -3.287   7.369  1.00  0.00     0.000 C 
BRANCH   5   6
ATOM      6  C   UNL     1       3.305  -3.404   6.770  1.00  0.00     0.006 C 
BRANCH   6   7
ATOM      7  C   UNL     1       2.221  -3.562   7.844  1.00  0.00     0.053 C 
BRANCH   7   8
ATOM      8  C   UNL     1       1.133  -2.554   7.641  1.00  0.00     0.041 C 
ATOM      9  O   UNL     1       0.257  -2.736   6.755  1.00  0.00    -0.550 OA
ATOM     10  O   UNL     1       1.059  -1.437   8.465  1.00  0.00    -0.550 OA
ENDBRANCH   7   8
ENDBRANCH   6   7
ENDBRANCH   5   6
ENDBRANCH   4   5
ENDBRANCH   3   4
ENDBRANCH   2   3
ENDBRANCH   1   2
BRANCH   1  11
ATOM     11  C   UNL     1       4.021   0.319   6.758  1.00  0.00    -0.031 C 
ATOM     12  C   UNL     1       3.033   0.048   5.893  1.00  0.00    -0.027 C 
BRANCH  12  13
ATOM     13  C   UNL     1       3.343  -0.440   4.505  1.00  0.00     0.054 C 
BRANCH  13  14
ATOM     14  C   UNL     1       4.762  -0.939   4.408  1.00  0.00    -0.027 C 
ATOM     15  C   UNL     1       5.167  -1.924   3.582  1.00  0.00    -0.031 C 
BRANCH  15  16
ATOM     16  C   UNL     1       4.250  -2.717   2.682  1.00  0.00     0.027 C 
BRANCH  16  17
ATOM     17  C   UNL     1       4.372  -4.230   2.922  1.00  0.00     0.004 C 
BRANCH  17  18
ATOM     18  C   UNL     1       5.543  -4.575   3.858  1.00  0.00     0.000 C 
BRANCH  18  19
ATOM     19  C   UNL     1       5.266  -5.823   4.711  1.00  0.00    -0.003 C 
ATOM     20  C   UNL     1       3.870  -6.401   4.478  1.00  0.00     0.004 C 
ENDBRANCH  18  19
ENDBRANCH  17  18
ENDBRANCH  16  17
ENDBRANCH  15  16
ENDBRANCH  13  14
ENDBRANCH  12  13
ENDBRANCH   1  11
TORSDOF 14
ENDMDL
MODEL 9
REMARK VINA RESULT:    -3.981      3.684      6.237
REMARK INTER + INTRA:          -9.533
REMARK INTER:                  -6.880
REMARK INTRA:                  -2.653
REMARK UNBOUND:                -2.293
REMARK SMILES CCCCCC=CCC=CCCCCCCCC(=O)[O-]
REMARK SMILES IDX 11 1 12 2 13 3 14 4 15 5 16 6 17 7 18 8 19 9 20 10 10 11
REMARK SMILES IDX 9 12 8 13 7 14 6 15 5 16 4 17 3 18 2 19 1 20
REMARK H PARENT
REMARK Flexibility Score: inf
ROOT
ATOM      1  C   UNL     1       7.058  -4.378   4.782  1.00  0.00     0.027 C 
ENDROOT
BRANCH   1   2
ATOM      2  C   UNL     1       7.589  -2.991   4.392  1.00  0.00     0.004 C 
BRANCH   2   3
ATOM      3  C   UNL     1       7.115  -2.560   2.996  1.00  0.00     0.000 C 
BRANCH   3   4
ATOM      4  C   UNL     1       6.292  -1.268   3.066  1.00  0.00     0.000 C 
BRANCH   4   5
ATOM      5  C   UNL     1       4.818  -1.536   2.728  1.00  0.00     0.000 C 
BRANCH   5   6
ATOM      6  C   UNL     1       3.978  -1.873   3.971  1.00  0.00     0.006 C 
BRANCH   6   7
ATOM      7  C   UNL     1       4.353  -1.014   5.185  1.00  0.00     0.053 C 
BRANCH   7   8
ATOM      8  C   UNL     1       3.254  -0.048   5.502  1.00  0.00     0.041 C 
ATOM      9  O   UNL     1       2.203  -0.035   4.809  1.00  0.00    -0.550 OA
ATOM     10  O   UNL     1       3.371   0.804   6.594  1.00  0.00    -0.550 OA
ENDBRANCH   7   8
ENDBRANCH   6   7
ENDBRANCH   5   6
ENDBRANCH   4   5
ENDBRANCH   3   4
ENDBRANCH   2   3
ENDBRANCH   1   2
BRANCH   1  11
ATOM     11  C   UNL     1       5.912  -4.819   3.912  1.00  0.00    -0.031 C 
ATOM     12  C   UNL     1       4.877  -5.513   4.408  1.00  0.00    -0.027 C 
BRANCH  12  13
ATOM     13  C   UNL     1       3.751  -5.950   3.514  1.00  0.00     0.054 C 
BRANCH  13  14
ATOM     14  C   UNL     1       3.782  -5.216   2.198  1.00  0.00    -0.027 C 
ATOM     15  C   UNL     1       3.974  -5.804   1.002  1.00  0.00    -0.031 C 
BRANCH  15  16
ATOM     16  C   UNL     1       4.251  -7.276   0.807  1.00  0.00     0.027 C 
BRANCH  16  17
ATOM     17  C   UNL     1       5.756  -7.584   0.790  1.00  0.00     0.004 C 
BRANCH  17  18
ATOM     18  C   UNL     1       6.593  -6.356   0.393  1.00  0.00     0.000 C 
BRANCH  18  19
ATOM     19  C   UNL     1       8.075  -6.506   0.770  1.00  0.00    -0.003 C 
ATOM     20  C   UNL     1       8.274  -6.956   2.218  1.00  0.00     0.004 C 
ENDBRANCH  18  19
ENDBRANCH  17  18
ENDBRANCH  16  17
ENDBRANCH  15  16
ENDBRANCH  13  14
ENDBRANCH  12  13
ENDBRANCH   1  11
TORSDOF 14
ENDMDL
