MODEL 1
REMARK VINA RESULT:    -3.275      0.000      0.000
REMARK INTER + INTRA:          -4.074
REMARK INTER:                  -4.041
REMARK INTRA:                  -0.033
REMARK UNBOUND:                -0.033
REMARK SMILES CCCCCC=O
REMARK SMILES IDX 4 1 3 2 2 3 1 4 5 5 6 6 7 7
REMARK H PARENT
REMARK Flexibility Score: inf
ROOT
ATOM      1  C   UNL     1       5.950  14.398 -14.717  1.00  0.00     0.008 C 
ENDROOT
BRANCH   1   2
ATOM      2  C   UNL     1       7.375  14.967 -14.821  1.00  0.00     0.000 C 
BRANCH   2   3
ATOM      3  C   UNL     1       8.347  14.308 -13.828  1.00  0.00    -0.003 C 
ATOM      4  C   UNL     1       9.603  13.762 -14.506  1.00  0.00     0.004 C 
ENDBRANCH   2   3
ENDBRANCH   1   2
BRANCH   1   5
ATOM      5  C   UNL     1       5.004  15.019 -15.755  1.00  0.00     0.072 C 
BRANCH   5   6
ATOM      6  C   UNL     1       4.377  13.981 -16.638  1.00  0.00     0.224 C 
ATOM      7  O   UNL     1       3.196  13.698 -16.519  1.00  0.00    -0.303 OA
ENDBRANCH   5   6
ENDBRANCH   1   5
TORSDOF 4
ENDMDL
MODEL 2
REMARK VINA RESULT:    -3.265      3.075      4.884
REMARK INTER + INTRA:          -4.061
REMARK INTER:                  -4.027
REMARK INTRA:                  -0.034
REMARK UNBOUND:                -0.033
REMARK SMILES CCCCCC=O
REMARK SMILES IDX 4 1 3 2 2 3 1 4 5 5 6 6 7 7
REMARK H PARENT
REMARK Flexibility Score: inf
ROOT
ATOM      1  C   UNL     1       7.593  14.948 -14.841  1.00  0.00     0.008 C 
ENDROOT
BRANCH   1   2
ATOM      2  C   UNL     1       6.139  14.478 -14.671  1.00  0.00     0.000 C 
BRANCH   2   3
ATOM      3  C   UNL     1       5.195  15.089 -15.718  1.00  0.00    -0.003 C 
ATOM      4  C   UNL     1       4.370  14.035 -16.457  1.00  0.00     0.004 C 
ENDBRANCH   2   3
ENDBRANCH   1   2
BRANCH   1   5
ATOM      5  C   UNL     1       8.548  14.232 -13.875  1.00  0.00     0.072 C 
BRANCH   5   6
ATOM      6  C   UNL     1       9.831  13.835 -14.542  1.00  0.00     0.224 C 
ATOM      7  O   UNL     1      10.903  14.025 -13.988  1.00  0.00    -0.303 OA
ENDBRANCH   5   6
ENDBRANCH   1   5
TORSDOF 4
ENDMDL
MODEL 3
REMARK VINA RESULT:    -3.192     17.559     19.025
REMARK INTER + INTRA:          -3.972
REMARK INTER:                  -3.802
REMARK INTRA:                  -0.170
REMARK UNBOUND:                -0.033
REMARK SMILES CCCCCC=O
REMARK SMILES IDX 4 1 3 2 2 3 1 4 5 5 6 6 7 7
REMARK H PARENT
REMARK Flexibility Score: inf
ROOT
ATOM      1  C   UNL     1      18.391   0.547 -13.853  1.00  0.00     0.008 C 
ENDROOT
BRANCH   1   2
ATOM      2  C   UNL     1      19.799   1.163 -13.907  1.00  0.00     0.000 C 
BRANCH   2   3
ATOM      3  C   UNL     1      19.768   2.695 -14.029  1.00  0.00    -0.003 C 
ATOM      4  C   UNL     1      18.829   3.349 -13.015  1.00  0.00     0.004 C 
ENDBRANCH   2   3
ENDBRANCH   1   2
BRANCH   1   5
ATOM      5  C   UNL     1      18.250  -0.470 -12.712  1.00  0.00     0.072 C 
BRANCH   5   6
ATOM      6  C   UNL     1      19.343  -0.330 -11.694  1.00  0.00     0.224 C 
ATOM      7  O   UNL     1      19.208  -0.792 -10.572  1.00  0.00    -0.303 OA
ENDBRANCH   5   6
ENDBRANCH   1   5
TORSDOF 4
ENDMDL
MODEL 4
REMARK VINA RESULT:    -3.180     13.392     13.934
REMARK INTER + INTRA:          -3.957
REMARK INTER:                  -3.874
REMARK INTRA:                  -0.083
REMARK UNBOUND:                -0.033
REMARK SMILES CCCCCC=O
REMARK SMILES IDX 4 1 3 2 2 3 1 4 5 5 6 6 7 7
REMARK H PARENT
REMARK Flexibility Score: inf
ROOT
ATOM      1  C   UNL     1       3.912   3.112 -21.332  1.00  0.00     0.008 C 
ENDROOT
BRANCH   1   2
ATOM      2  C   UNL     1       2.994   1.919 -21.014  1.00  0.00     0.000 C 
BRANCH   2   3
ATOM      3  C   UNL     1       3.492   1.096 -19.816  1.00  0.00    -0.003 C 
ATOM      4  C   UNL     1       4.779   1.656 -19.208  1.00  0.00     0.004 C 
ENDBRANCH   2   3
ENDBRANCH   1   2
BRANCH   1   5
ATOM      5  C   UNL     1       3.603   3.726 -22.705  1.00  0.00     0.072 C 
BRANCH   5   6
ATOM      6  C   UNL     1       4.125   2.883 -23.830  1.00  0.00     0.224 C 
ATOM      7  O   UNL     1       5.247   3.069 -24.276  1.00  0.00    -0.303 OA
ENDBRANCH   5   6
ENDBRANCH   1   5
TORSDOF 4
ENDMDL
MODEL 5
REMARK VINA RESULT:    -3.087     13.821     14.555
REMARK INTER + INTRA:          -3.842
REMARK INTER:                  -3.805
REMARK INTRA:                  -0.037
REMARK UNBOUND:                -0.033
REMARK SMILES CCCCCC=O
REMARK SMILES IDX 4 1 3 2 2 3 1 4 5 5 6 6 7 7
REMARK H PARENT
REMARK Flexibility Score: inf
ROOT
ATOM      1  C   UNL     1       3.626   2.545 -22.981  1.00  0.00     0.008 C 
ENDROOT
BRANCH   1   2
ATOM      2  C   UNL     1       3.988   2.922 -21.534  1.00  0.00     0.000 C 
BRANCH   2   3
ATOM      3  C   UNL     1       3.565   1.846 -20.522  1.00  0.00    -0.003 C 
ATOM      4  C   UNL     1       4.565   1.688 -19.376  1.00  0.00     0.004 C 
ENDBRANCH   2   3
ENDBRANCH   1   2
BRANCH   1   5
ATOM      5  C   UNL     1       4.639   3.101 -23.992  1.00  0.00     0.072 C 
BRANCH   5   6
ATOM      6  C   UNL     1       4.886   2.149 -25.124  1.00  0.00     0.224 C 
ATOM      7  O   UNL     1       6.018   1.969 -25.547  1.00  0.00    -0.303 OA
ENDBRANCH   5   6
ENDBRANCH   1   5
TORSDOF 4
ENDMDL
MODEL 6
REMARK VINA RESULT:    -3.006      5.418      6.401
REMARK INTER + INTRA:          -3.743
REMARK INTER:                  -3.702
REMARK INTRA:                  -0.040
REMARK UNBOUND:                -0.033
REMARK SMILES CCCCCC=O
REMARK SMILES IDX 4 1 3 2 2 3 1 4 5 5 6 6 7 7
REMARK H PARENT
REMARK Flexibility Score: inf
ROOT
ATOM      1  C   UNL     1       4.286  10.700 -19.399  1.00  0.00     0.008 C 
ENDROOT
BRANCH   1   2
ATOM      2  C   UNL     1       5.101   9.778 -18.475  1.00  0.00     0.000 C 
BRANCH   2   3
ATOM      3  C   UNL     1       4.890   8.289 -18.793  1.00  0.00    -0.003 C 
ATOM      4  C   UNL     1       4.324   7.506 -17.608  1.00  0.00     0.004 C 
ENDBRANCH   2   3
ENDBRANCH   1   2
BRANCH   1   5
ATOM      5  C   UNL     1       4.354  12.167 -18.953  1.00  0.00     0.072 C 
BRANCH   5   6
ATOM      6  C   UNL     1       4.300  13.113 -20.116  1.00  0.00     0.224 C 
ATOM      7  O   UNL     1       5.326  13.469 -20.673  1.00  0.00    -0.303 OA
ENDBRANCH   5   6
ENDBRANCH   1   5
TORSDOF 4
ENDMDL
MODEL 7
REMARK VINA RESULT:    -2.996     13.136     14.106
REMARK INTER + INTRA:          -3.730
REMARK INTER:                  -3.644
REMARK INTRA:                  -0.087
REMARK UNBOUND:                -0.033
REMARK SMILES CCCCCC=O
REMARK SMILES IDX 4 1 3 2 2 3 1 4 5 5 6 6 7 7
REMARK H PARENT
REMARK Flexibility Score: inf
ROOT
ATOM      1  C   UNL     1       3.918   3.314 -21.278  1.00  0.00     0.008 C 
ENDROOT
BRANCH   1   2
ATOM      2  C   UNL     1       3.300   3.627 -22.651  1.00  0.00     0.000 C 
BRANCH   2   3
ATOM      3  C   UNL     1       3.681   2.590 -23.719  1.00  0.00    -0.003 C 
ATOM      4  C   UNL     1       4.997   2.924 -24.423  1.00  0.00     0.004 C 
ENDBRANCH   2   3
ENDBRANCH   1   2
BRANCH   1   5
ATOM      5  C   UNL     1       3.547   1.909 -20.786  1.00  0.00     0.072 C 
BRANCH   5   6
ATOM      6  C   UNL     1       4.216   1.572 -19.486  1.00  0.00     0.224 C 
ATOM      7  O   UNL     1       5.434   1.553 -19.402  1.00  0.00    -0.303 OA
ENDBRANCH   5   6
ENDBRANCH   1   5
TORSDOF 4
ENDMDL
MODEL 8
REMARK VINA RESULT:    -2.947     22.617     23.410
REMARK INTER + INTRA:          -3.669
REMARK INTER:                  -3.572
REMARK INTRA:                  -0.097
REMARK UNBOUND:                -0.033
REMARK SMILES CCCCCC=O
REMARK SMILES IDX 4 1 3 2 2 3 1 4 5 5 6 6 7 7
REMARK H PARENT
REMARK Flexibility Score: inf
ROOT
ATOM      1  C   UNL     1      21.861  -3.363 -19.282  1.00  0.00     0.008 C 
ENDROOT
BRANCH   1   2
ATOM      2  C   UNL     1      21.395  -2.323 -18.249  1.00  0.00     0.000 C 
BRANCH   2   3
ATOM      3  C   UNL     1      22.290  -1.073 -18.225  1.00  0.00    -0.003 C 
ATOM      4  C   UNL     1      22.800  -0.686 -19.614  1.00  0.00     0.004 C 
ENDBRANCH   2   3
ENDBRANCH   1   2
BRANCH   1   5
ATOM      5  C   UNL     1      21.376  -4.777 -18.935  1.00  0.00     0.072 C 
BRANCH   5   6
ATOM      6  C   UNL     1      19.989  -4.772 -18.364  1.00  0.00     0.224 C 
ATOM      7  O   UNL     1      19.037  -5.125 -19.044  1.00  0.00    -0.303 OA
ENDBRANCH   5   6
ENDBRANCH   1   5
TORSDOF 4
ENDMDL
MODEL 9
REMARK VINA RESULT:    -2.917      9.703     10.731
REMARK INTER + INTRA:          -3.633
REMARK INTER:                  -3.502
REMARK INTRA:                  -0.130
REMARK UNBOUND:                -0.033
REMARK SMILES CCCCCC=O
REMARK SMILES IDX 4 1 3 2 2 3 1 4 5 5 6 6 7 7
REMARK H PARENT
REMARK Flexibility Score: inf
ROOT
ATOM      1  C   UNL     1      10.716   8.353  -9.205  1.00  0.00     0.008 C 
ENDROOT
BRANCH   1   2
ATOM      2  C   UNL     1      11.180   9.818  -9.259  1.00  0.00     0.000 C 
BRANCH   2   3
ATOM      3  C   UNL     1      12.356  10.100  -8.311  1.00  0.00    -0.003 C 
ATOM      4  C   UNL     1      13.100  11.390  -8.660  1.00  0.00     0.004 C 
ENDBRANCH   2   3
ENDBRANCH   1   2
BRANCH   1   5
ATOM      5  C   UNL     1      11.365   7.586  -8.044  1.00  0.00     0.072 C 
BRANCH   5   6
ATOM      6  C   UNL     1      12.244   6.470  -8.528  1.00  0.00     0.224 C 
ATOM      7  O   UNL     1      12.676   6.471  -9.670  1.00  0.00    -0.303 OA
ENDBRANCH   5   6
ENDBRANCH   1   5
TORSDOF 4
ENDMDL
