MODEL 1
REMARK VINA RESULT:    -3.035      0.000      0.000
REMARK INTER + INTRA:          -5.016
REMARK INTER:                  -4.277
REMARK INTRA:                  -0.740
REMARK UNBOUND:                -0.740
REMARK SMILES CCCCCCCCC(=O)[O-]
REMARK SMILES IDX 6 1 7 2 8 3 9 4 10 5 11 6 5 7 4 8 3 9 2 10 1 11
REMARK H PARENT
REMARK Flexibility Score: inf
ROOT
ATOM      1  C   UNL     1       4.610 108.241 182.006  1.00  0.00     0.000 C 
ENDROOT
BRANCH   1   2
ATOM      2  C   UNL     1       3.444 108.961 181.306  1.00  0.00     0.006 C 
BRANCH   2   3
ATOM      3  C   UNL     1       2.057 108.619 181.874  1.00  0.00     0.053 C 
BRANCH   3   4
ATOM      4  C   UNL     1       1.844 109.217 183.230  1.00  0.00     0.041 C 
ATOM      5  O   UNL     1       1.258 108.557 184.129  1.00  0.00    -0.550 OA
ATOM      6  O   UNL     1       2.262 110.516 183.491  1.00  0.00    -0.550 OA
ENDBRANCH   3   4
ENDBRANCH   2   3
ENDBRANCH   1   2
BRANCH   1   7
ATOM      7  C   UNL     1       4.592 106.722 181.783  1.00  0.00     0.000 C 
BRANCH   7   8
ATOM      8  C   UNL     1       5.288 106.353 180.464  1.00  0.00    -0.000 C 
BRANCH   8   9
ATOM      9  C   UNL     1       4.405 105.497 179.538  1.00  0.00    -0.000 C 
BRANCH   9  10
ATOM     10  C   UNL     1       2.986 105.226 180.068  1.00  0.00    -0.003 C 
ATOM     11  C   UNL     1       1.896 105.878 179.219  1.00  0.00     0.004 C 
ENDBRANCH   9  10
ENDBRANCH   8   9
ENDBRANCH   7   8
ENDBRANCH   1   7
TORSDOF 7
ENDMDL
MODEL 2
REMARK VINA RESULT:    -2.912      1.555      2.889
REMARK INTER + INTRA:          -4.844
REMARK INTER:                  -4.161
REMARK INTRA:                  -0.683
REMARK UNBOUND:                -0.740
REMARK SMILES CCCCCCCCC(=O)[O-]
REMARK SMILES IDX 6 1 7 2 8 3 9 4 10 5 11 6 5 7 4 8 3 9 2 10 1 11
REMARK H PARENT
REMARK Flexibility Score: inf
ROOT
ATOM      1  C   UNL     1       4.261 105.792 179.814  1.00  0.00     0.000 C 
ENDROOT
BRANCH   1   2
ATOM      2  C   UNL     1       4.377 107.025 180.729  1.00  0.00     0.006 C 
BRANCH   2   3
ATOM      3  C   UNL     1       3.753 106.839 182.121  1.00  0.00     0.053 C 
BRANCH   3   4
ATOM      4  C   UNL     1       3.535 108.148 182.817  1.00  0.00     0.041 C 
ATOM      5  O   UNL     1       4.511 108.775 183.309  1.00  0.00    -0.550 OA
ATOM      6  O   UNL     1       2.250 108.659 182.950  1.00  0.00    -0.550 OA
ENDBRANCH   3   4
ENDBRANCH   2   3
ENDBRANCH   1   2
BRANCH   1   7
ATOM      7  C   UNL     1       2.901 105.090 179.929  1.00  0.00     0.000 C 
BRANCH   7   8
ATOM      8  C   UNL     1       2.244 104.936 178.549  1.00  0.00    -0.000 C 
BRANCH   8   9
ATOM      9  C   UNL     1       1.489 106.200 178.098  1.00  0.00    -0.000 C 
BRANCH   9  10
ATOM     10  C   UNL     1       0.524 106.783 179.144  1.00  0.00    -0.003 C 
ATOM     11  C   UNL     1       0.951 108.159 179.652  1.00  0.00     0.004 C 
ENDBRANCH   9  10
ENDBRANCH   8   9
ENDBRANCH   7   8
ENDBRANCH   1   7
TORSDOF 7
ENDMDL
MODEL 3
REMARK VINA RESULT:    -2.908      0.836      1.467
REMARK INTER + INTRA:          -4.837
REMARK INTER:                  -4.257
REMARK INTRA:                  -0.580
REMARK UNBOUND:                -0.740
REMARK SMILES CCCCCCCCC(=O)[O-]
REMARK SMILES IDX 6 1 7 2 8 3 9 4 10 5 11 6 5 7 4 8 3 9 2 10 1 11
REMARK H PARENT
REMARK Flexibility Score: inf
ROOT
ATOM      1  C   UNL     1       4.937 106.698 181.563  1.00  0.00     0.000 C 
ENDROOT
BRANCH   1   2
ATOM      2  C   UNL     1       3.871 107.292 182.503  1.00  0.00     0.006 C 
BRANCH   2   3
ATOM      3  C   UNL     1       2.948 108.326 181.840  1.00  0.00     0.053 C 
BRANCH   3   4
ATOM      4  C   UNL     1       2.422 109.322 182.827  1.00  0.00     0.041 C 
ATOM      5  O   UNL     1       1.376 109.073 183.483  1.00  0.00    -0.550 OA
ATOM      6  O   UNL     1       3.068 110.540 182.997  1.00  0.00    -0.550 OA
ENDBRANCH   3   4
ENDBRANCH   2   3
ENDBRANCH   1   2
BRANCH   1   7
ATOM      7  C   UNL     1       4.585 106.874 180.079  1.00  0.00     0.000 C 
BRANCH   7   8
ATOM      8  C   UNL     1       4.255 105.521 179.430  1.00  0.00    -0.000 C 
BRANCH   8   9
ATOM      9  C   UNL     1       2.816 105.055 179.712  1.00  0.00    -0.000 C 
BRANCH   9  10
ATOM     10  C   UNL     1       1.777 105.495 178.666  1.00  0.00    -0.003 C 
ATOM     11  C   UNL     1       0.934 106.685 179.122  1.00  0.00     0.004 C 
ENDBRANCH   9  10
ENDBRANCH   8   9
ENDBRANCH   7   8
ENDBRANCH   1   7
TORSDOF 7
ENDMDL
MODEL 4
REMARK VINA RESULT:    -2.885      4.046      6.534
REMARK INTER + INTRA:          -4.806
REMARK INTER:                  -4.374
REMARK INTRA:                  -0.432
REMARK UNBOUND:                -0.740
REMARK SMILES CCCCCCCCC(=O)[O-]
REMARK SMILES IDX 6 1 7 2 8 3 9 4 10 5 11 6 5 7 4 8 3 9 2 10 1 11
REMARK H PARENT
REMARK Flexibility Score: inf
ROOT
ATOM      1  C   UNL     1       5.129 111.499 183.455  1.00  0.00     0.000 C 
ENDROOT
BRANCH   1   2
ATOM      2  C   UNL     1       3.960 110.925 182.634  1.00  0.00     0.006 C 
BRANCH   2   3
ATOM      3  C   UNL     1       3.728 109.419 182.832  1.00  0.00     0.053 C 
BRANCH   3   4
ATOM      4  C   UNL     1       2.306 109.031 182.563  1.00  0.00     0.041 C 
ATOM      5  O   UNL     1       1.993 108.486 181.471  1.00  0.00    -0.550 OA
ATOM      6  O   UNL     1       1.322 109.301 183.506  1.00  0.00    -0.550 OA
ENDBRANCH   3   4
ENDBRANCH   2   3
ENDBRANCH   1   2
BRANCH   1   7
ATOM      7  C   UNL     1       4.662 112.387 184.617  1.00  0.00     0.000 C 
BRANCH   7   8
ATOM      8  C   UNL     1       3.147 112.633 184.544  1.00  0.00    -0.000 C 
BRANCH   8   9
ATOM      9  C   UNL     1       2.777 114.127 184.583  1.00  0.00    -0.000 C 
BRANCH   9  10
ATOM     10  C   UNL     1       3.801 115.062 183.917  1.00  0.00    -0.003 C 
ATOM     11  C   UNL     1       3.156 116.095 182.994  1.00  0.00     0.004 C 
ENDBRANCH   9  10
ENDBRANCH   8   9
ENDBRANCH   7   8
ENDBRANCH   1   7
TORSDOF 7
ENDMDL
MODEL 5
REMARK VINA RESULT:    -2.866      3.236      5.514
REMARK INTER + INTRA:          -4.779
REMARK INTER:                  -4.355
REMARK INTRA:                  -0.424
REMARK UNBOUND:                -0.740
REMARK SMILES CCCCCCCCC(=O)[O-]
REMARK SMILES IDX 6 1 7 2 8 3 9 4 10 5 11 6 5 7 4 8 3 9 2 10 1 11
REMARK H PARENT
REMARK Flexibility Score: inf
ROOT
ATOM      1  C   UNL     1       6.069 109.129 183.847  1.00  0.00     0.000 C 
ENDROOT
BRANCH   1   2
ATOM      2  C   UNL     1       4.824 109.358 182.970  1.00  0.00     0.006 C 
BRANCH   2   3
ATOM      3  C   UNL     1       3.705 108.326 183.177  1.00  0.00     0.053 C 
BRANCH   3   4
ATOM      4  C   UNL     1       2.376 108.839 182.716  1.00  0.00     0.041 C 
ATOM      5  O   UNL     1       1.665 109.541 183.484  1.00  0.00    -0.550 OA
ATOM      6  O   UNL     1       1.908 108.516 181.449  1.00  0.00    -0.550 OA
ENDBRANCH   3   4
ENDBRANCH   2   3
ENDBRANCH   1   2
BRANCH   1   7
ATOM      7  C   UNL     1       6.360 110.308 184.786  1.00  0.00     0.000 C 
BRANCH   7   8
ATOM      8  C   UNL     1       6.050 111.646 184.100  1.00  0.00    -0.000 C 
BRANCH   8   9
ATOM      9  C   UNL     1       5.055 112.512 184.893  1.00  0.00    -0.000 C 
BRANCH   9  10
ATOM     10  C   UNL     1       3.597 112.427 184.410  1.00  0.00    -0.003 C 
ATOM     11  C   UNL     1       2.781 113.675 184.744  1.00  0.00     0.004 C 
ENDBRANCH   9  10
ENDBRANCH   8   9
ENDBRANCH   7   8
ENDBRANCH   1   7
TORSDOF 7
ENDMDL
MODEL 6
REMARK VINA RESULT:    -2.850      1.899      2.954
REMARK INTER + INTRA:          -4.757
REMARK INTER:                  -4.195
REMARK INTRA:                  -0.561
REMARK UNBOUND:                -0.740
REMARK SMILES CCCCCCCCC(=O)[O-]
REMARK SMILES IDX 6 1 7 2 8 3 9 4 10 5 11 6 5 7 4 8 3 9 2 10 1 11
REMARK H PARENT
REMARK Flexibility Score: inf
ROOT
ATOM      1  C   UNL     1       5.584 110.261 183.419  1.00  0.00     0.000 C 
ENDROOT
BRANCH   1   2
ATOM      2  C   UNL     1       4.427 109.878 182.478  1.00  0.00     0.006 C 
BRANCH   2   3
ATOM      3  C   UNL     1       3.034 110.268 182.997  1.00  0.00     0.053 C 
BRANCH   3   4
ATOM      4  C   UNL     1       2.044 109.156 182.837  1.00  0.00     0.041 C 
ATOM      5  O   UNL     1       1.349 108.779 183.817  1.00  0.00    -0.550 OA
ATOM      6  O   UNL     1       1.914 108.512 181.612  1.00  0.00    -0.550 OA
ENDBRANCH   3   4
ENDBRANCH   2   3
ENDBRANCH   1   2
BRANCH   1   7
ATOM      7  C   UNL     1       6.249 109.040 184.071  1.00  0.00     0.000 C 
BRANCH   7   8
ATOM      8  C   UNL     1       5.431 107.766 183.811  1.00  0.00    -0.000 C 
BRANCH   8   9
ATOM      9  C   UNL     1       6.290 106.594 183.303  1.00  0.00    -0.000 C 
BRANCH   9  10
ATOM     10  C   UNL     1       6.215 106.350 181.785  1.00  0.00    -0.003 C 
ATOM     11  C   UNL     1       4.788 106.392 181.242  1.00  0.00     0.004 C 
ENDBRANCH   9  10
ENDBRANCH   8   9
ENDBRANCH   7   8
ENDBRANCH   1   7
TORSDOF 7
ENDMDL
MODEL 7
REMARK VINA RESULT:    -2.843      1.308      2.560
REMARK INTER + INTRA:          -4.746
REMARK INTER:                  -4.228
REMARK INTRA:                  -0.518
REMARK UNBOUND:                -0.740
REMARK SMILES CCCCCCCCC(=O)[O-]
REMARK SMILES IDX 6 1 7 2 8 3 9 4 10 5 11 6 5 7 4 8 3 9 2 10 1 11
REMARK H PARENT
REMARK Flexibility Score: inf
ROOT
ATOM      1  C   UNL     1       1.303 108.075 180.104  1.00  0.00     0.000 C 
ENDROOT
BRANCH   1   2
ATOM      2  C   UNL     1       2.746 108.239 180.615  1.00  0.00     0.006 C 
BRANCH   2   3
ATOM      3  C   UNL     1       2.899 108.090 182.137  1.00  0.00     0.053 C 
BRANCH   3   4
ATOM      4  C   UNL     1       2.411 109.300 182.871  1.00  0.00     0.041 C 
ATOM      5  O   UNL     1       1.322 109.263 183.503  1.00  0.00    -0.550 OA
ATOM      6  O   UNL     1       3.143 110.481 182.830  1.00  0.00    -0.550 OA
ENDBRANCH   3   4
ENDBRANCH   2   3
ENDBRANCH   1   2
BRANCH   1   7
ATOM      7  C   UNL     1       1.187 107.051 178.966  1.00  0.00     0.000 C 
BRANCH   7   8
ATOM      8  C   UNL     1       1.793 105.701 179.379  1.00  0.00    -0.000 C 
BRANCH   8   9
ATOM      9  C   UNL     1       2.313 104.885 178.182  1.00  0.00    -0.000 C 
BRANCH   9  10
ATOM     10  C   UNL     1       3.753 104.366 178.332  1.00  0.00    -0.003 C 
ATOM     11  C   UNL     1       4.669 105.346 179.064  1.00  0.00     0.004 C 
ENDBRANCH   9  10
ENDBRANCH   8   9
ENDBRANCH   7   8
ENDBRANCH   1   7
TORSDOF 7
ENDMDL
MODEL 8
REMARK VINA RESULT:    -2.829      2.920      5.021
REMARK INTER + INTRA:          -4.727
REMARK INTER:                  -4.061
REMARK INTRA:                  -0.666
REMARK UNBOUND:                -0.740
REMARK SMILES CCCCCCCCC(=O)[O-]
REMARK SMILES IDX 6 1 7 2 8 3 9 4 10 5 11 6 5 7 4 8 3 9 2 10 1 11
REMARK H PARENT
REMARK Flexibility Score: inf
ROOT
ATOM      1  C   UNL     1       2.788 104.883 177.247  1.00  0.00     0.000 C 
ENDROOT
BRANCH   1   2
ATOM      2  C   UNL     1       3.668 104.642 178.487  1.00  0.00     0.006 C 
BRANCH   2   3
ATOM      3  C   UNL     1       3.035 105.096 179.811  1.00  0.00     0.053 C 
BRANCH   3   4
ATOM      4  C   UNL     1       3.983 105.912 180.635  1.00  0.00     0.041 C 
ATOM      5  O   UNL     1       5.227 105.786 180.481  1.00  0.00    -0.550 OA
ATOM      6  O   UNL     1       3.493 106.786 181.597  1.00  0.00    -0.550 OA
ENDBRANCH   3   4
ENDBRANCH   2   3
ENDBRANCH   1   2
BRANCH   1   7
ATOM      7  C   UNL     1       1.287 104.768 177.552  1.00  0.00     0.000 C 
BRANCH   7   8
ATOM      8  C   UNL     1       0.465 105.649 176.599  1.00  0.00    -0.000 C 
BRANCH   8   9
ATOM      9  C   UNL     1      -0.071 106.925 177.273  1.00  0.00    -0.000 C 
BRANCH   9  10
ATOM     10  C   UNL     1      -0.009 106.918 178.810  1.00  0.00    -0.003 C 
ATOM     11  C   UNL     1       0.845 108.050 179.380  1.00  0.00     0.004 C 
ENDBRANCH   9  10
ENDBRANCH   8   9
ENDBRANCH   7   8
ENDBRANCH   1   7
TORSDOF 7
ENDMDL
MODEL 9
REMARK VINA RESULT:    -2.798      2.110      3.215
REMARK INTER + INTRA:          -4.683
REMARK INTER:                  -4.270
REMARK INTRA:                  -0.413
REMARK UNBOUND:                -0.740
REMARK SMILES CCCCCCCCC(=O)[O-]
REMARK SMILES IDX 6 1 7 2 8 3 9 4 10 5 11 6 5 7 4 8 3 9 2 10 1 11
REMARK H PARENT
REMARK Flexibility Score: inf
ROOT
ATOM      1  C   UNL     1       2.391 108.204 180.174  1.00  0.00     0.000 C 
ENDROOT
BRANCH   1   2
ATOM      2  C   UNL     1       2.521 108.503 181.679  1.00  0.00     0.006 C 
BRANCH   2   3
ATOM      3  C   UNL     1       3.498 107.581 182.425  1.00  0.00     0.053 C 
BRANCH   3   4
ATOM      4  C   UNL     1       4.509 108.355 183.214  1.00  0.00     0.041 C 
ATOM      5  O   UNL     1       4.490 109.614 183.206  1.00  0.00    -0.550 OA
ATOM      6  O   UNL     1       5.492 107.685 183.931  1.00  0.00    -0.550 OA
ENDBRANCH   3   4
ENDBRANCH   2   3
ENDBRANCH   1   2
BRANCH   1   7
ATOM      7  C   UNL     1       0.931 108.083 179.716  1.00  0.00     0.000 C 
BRANCH   7   8
ATOM      8  C   UNL     1       0.651 106.686 179.140  1.00  0.00    -0.000 C 
BRANCH   8   9
ATOM      9  C   UNL     1       1.883 105.764 179.175  1.00  0.00    -0.000 C 
BRANCH   9  10
ATOM     10  C   UNL     1       1.992 104.786 177.992  1.00  0.00    -0.003 C 
ATOM     11  C   UNL     1       1.021 105.110 176.857  1.00  0.00     0.004 C 
ENDBRANCH   9  10
ENDBRANCH   8   9
ENDBRANCH   7   8
ENDBRANCH   1   7
TORSDOF 7
ENDMDL
