MODEL 1
REMARK VINA RESULT:    -5.389      0.000      0.000
REMARK INTER + INTRA:          -6.475
REMARK INTER:                  -6.334
REMARK INTRA:                  -0.141
REMARK UNBOUND:                -0.141
REMARK SMILES O=C([O-])C=Cc1ccc(O)c(O)c1
REMARK SMILES IDX 6 1 13 2 7 3 11 4 8 5 9 6 5 7 4 8 2 9 1 10 3 11 12 12 10 14
REMARK H PARENT 12 13 10 15
REMARK Flexibility Score: inf
ROOT
ATOM      1  C   UNL     1     -25.744 -26.761 105.567  1.00  0.00    -0.022 A 
ATOM      2  C   UNL     1     -24.891 -27.755 106.075  1.00  0.00     0.058 A 
ATOM      3  C   UNL     1     -27.073 -26.703 106.032  1.00  0.00     0.012 A 
ATOM      4  C   UNL     1     -25.357 -28.692 107.009  1.00  0.00     0.157 A 
ATOM      5  C   UNL     1     -27.537 -27.637 106.962  1.00  0.00     0.051 A 
ATOM      6  C   UNL     1     -26.689 -28.633 107.452  1.00  0.00     0.157 A 
ENDROOT
BRANCH   1   7
ATOM      7  C   UNL     1     -25.197 -25.787 104.590  1.00  0.00     0.010 C 
ATOM      8  C   UNL     1     -25.763 -24.601 104.325  1.00  0.00     0.025 C 
BRANCH   8   9
ATOM      9  C   UNL     1     -25.198 -23.664 103.339  1.00  0.00     0.064 C 
ATOM     10  O   UNL     1     -25.715 -22.532 103.145  1.00  0.00    -0.545 OA
ATOM     11  O   UNL     1     -24.076 -24.035 102.610  1.00  0.00    -0.545 OA
ENDBRANCH   8   9
ENDBRANCH   1   7
BRANCH   4  12
ATOM     12  O   UNL     1     -24.503 -29.680 107.496  1.00  0.00    -0.504 OA
ATOM     13  H   UNL     1     -24.795 -30.324 108.222  1.00  0.00     0.293 HD
ENDBRANCH   4  12
BRANCH   6  14
ATOM     14  O   UNL     1     -27.183 -29.552 108.378  1.00  0.00    -0.504 OA
ATOM     15  H   UNL     1     -26.582 -30.014 109.050  1.00  0.00     0.293 HD
ENDBRANCH   6  14
TORSDOF 4
ENDMDL
MODEL 2
REMARK VINA RESULT:    -5.370      2.471      3.321
REMARK INTER + INTRA:          -6.453
REMARK INTER:                  -6.325
REMARK INTRA:                  -0.129
REMARK UNBOUND:                -0.141
REMARK SMILES O=C([O-])C=Cc1ccc(O)c(O)c1
REMARK SMILES IDX 6 1 13 2 7 3 11 4 8 5 9 6 5 7 4 8 2 9 1 10 3 11 12 12 10 14
REMARK H PARENT 12 13 10 15
REMARK Flexibility Score: inf
ROOT
ATOM      1  C   UNL     1     -27.197 -27.045 105.656  1.00  0.00    -0.022 A 
ATOM      2  C   UNL     1     -27.680 -27.896 106.665  1.00  0.00     0.058 A 
ATOM      3  C   UNL     1     -25.816 -27.040 105.375  1.00  0.00     0.012 A 
ATOM      4  C   UNL     1     -26.804 -28.707 107.400  1.00  0.00     0.157 A 
ATOM      5  C   UNL     1     -24.944 -27.849 106.107  1.00  0.00     0.051 A 
ATOM      6  C   UNL     1     -25.428 -28.682 107.120  1.00  0.00     0.157 A 
ENDROOT
BRANCH   1   7
ATOM      7  C   UNL     1     -28.168 -26.215 104.901  1.00  0.00     0.010 C 
ATOM      8  C   UNL     1     -28.425 -26.373 103.595  1.00  0.00     0.025 C 
BRANCH   8   9
ATOM      9  C   UNL     1     -29.387 -25.522 102.875  1.00  0.00     0.064 C 
ATOM     10  O   UNL     1     -29.068 -24.370 102.476  1.00  0.00    -0.545 OA
ATOM     11  O   UNL     1     -30.669 -25.997 102.632  1.00  0.00    -0.545 OA
ENDBRANCH   8   9
ENDBRANCH   1   7
BRANCH   4  12
ATOM     12  O   UNL     1     -27.297 -29.539 108.405  1.00  0.00    -0.504 OA
ATOM     13  H   UNL     1     -27.385 -30.539 108.271  1.00  0.00     0.293 HD
ENDBRANCH   4  12
BRANCH   6  14
ATOM     14  O   UNL     1     -24.531 -29.476 107.834  1.00  0.00    -0.504 OA
ATOM     15  H   UNL     1     -23.557 -29.220 107.944  1.00  0.00     0.293 HD
ENDBRANCH   6  14
TORSDOF 4
ENDMDL
MODEL 3
REMARK VINA RESULT:    -5.367      3.815      6.565
REMARK INTER + INTRA:          -6.449
REMARK INTER:                  -6.321
REMARK INTRA:                  -0.127
REMARK UNBOUND:                -0.141
REMARK SMILES O=C([O-])C=Cc1ccc(O)c(O)c1
REMARK SMILES IDX 6 1 13 2 7 3 11 4 8 5 9 6 5 7 4 8 2 9 1 10 3 11 12 12 10 14
REMARK H PARENT 12 13 10 15
REMARK Flexibility Score: inf
ROOT
ATOM      1  C   UNL     1     -28.311 -26.119 103.163  1.00  0.00    -0.022 A 
ATOM      2  C   UNL     1     -28.903 -27.000 102.244  1.00  0.00     0.058 A 
ATOM      3  C   UNL     1     -27.579 -25.017 102.675  1.00  0.00     0.012 A 
ATOM      4  C   UNL     1     -28.750 -26.807 100.863  1.00  0.00     0.157 A 
ATOM      5  C   UNL     1     -27.427 -24.825 101.299  1.00  0.00     0.051 A 
ATOM      6  C   UNL     1     -28.005 -25.715 100.389  1.00  0.00     0.157 A 
ENDROOT
BRANCH   1   7
ATOM      7  C   UNL     1     -28.514 -26.362 104.613  1.00  0.00     0.010 C 
ATOM      8  C   UNL     1     -27.674 -27.079 105.373  1.00  0.00     0.025 C 
BRANCH   8   9
ATOM      9  C   UNL     1     -27.914 -27.310 106.807  1.00  0.00     0.064 C 
ATOM     10  O   UNL     1     -27.446 -28.323 107.392  1.00  0.00    -0.545 OA
ATOM     11  O   UNL     1     -28.671 -26.396 107.528  1.00  0.00    -0.545 OA
ENDBRANCH   8   9
ENDBRANCH   1   7
BRANCH   4  12
ATOM     12  O   UNL     1     -29.334 -27.697  99.962  1.00  0.00    -0.504 OA
ATOM     13  H   UNL     1     -30.008 -28.391 100.262  1.00  0.00     0.293 HD
ENDBRANCH   4  12
BRANCH   6  14
ATOM     14  O   UNL     1     -27.832 -25.496  99.023  1.00  0.00    -0.504 OA
ATOM     15  H   UNL     1     -26.914 -25.417  98.604  1.00  0.00     0.293 HD
ENDBRANCH   6  14
TORSDOF 4
ENDMDL
MODEL 4
REMARK VINA RESULT:    -5.141      4.327      6.935
REMARK INTER + INTRA:          -6.184
REMARK INTER:                  -6.043
REMARK INTRA:                  -0.141
REMARK UNBOUND:                -0.141
REMARK SMILES O=C([O-])C=Cc1ccc(O)c(O)c1
REMARK SMILES IDX 6 1 13 2 7 3 11 4 8 5 9 6 5 7 4 8 2 9 1 10 3 11 12 12 10 14
REMARK H PARENT 12 13 10 15
REMARK Flexibility Score: inf
ROOT
ATOM      1  C   UNL     1     -29.233 -25.146 103.277  1.00  0.00    -0.022 A 
ATOM      2  C   UNL     1     -28.971 -24.082 102.397  1.00  0.00     0.058 A 
ATOM      3  C   UNL     1     -29.136 -26.467 102.795  1.00  0.00     0.012 A 
ATOM      4  C   UNL     1     -28.644 -24.325 101.055  1.00  0.00     0.157 A 
ATOM      5  C   UNL     1     -28.810 -26.708 101.458  1.00  0.00     0.051 A 
ATOM      6  C   UNL     1     -28.566 -25.645 100.583  1.00  0.00     0.157 A 
ENDROOT
BRANCH   1   7
ATOM      7  C   UNL     1     -29.563 -24.835 104.690  1.00  0.00     0.010 C 
ATOM      8  C   UNL     1     -29.466 -25.722 105.690  1.00  0.00     0.025 C 
BRANCH   8   9
ATOM      9  C   UNL     1     -29.814 -25.381 107.080  1.00  0.00     0.064 C 
ATOM     10  O   UNL     1     -30.646 -24.471 107.339  1.00  0.00    -0.545 OA
ATOM     11  O   UNL     1     -29.214 -26.074 108.123  1.00  0.00    -0.545 OA
ENDBRANCH   8   9
ENDBRANCH   1   7
BRANCH   4  12
ATOM     12  O   UNL     1     -28.398 -23.259 100.191  1.00  0.00    -0.504 OA
ATOM     13  H   UNL     1     -29.058 -22.498 100.084  1.00  0.00     0.293 HD
ENDBRANCH   4  12
BRANCH   6  14
ATOM     14  O   UNL     1     -28.246 -25.919  99.254  1.00  0.00    -0.504 OA
ATOM     15  H   UNL     1     -28.939 -26.241  98.589  1.00  0.00     0.293 HD
ENDBRANCH   6  14
TORSDOF 4
ENDMDL
MODEL 5
REMARK VINA RESULT:    -5.113      7.730      8.380
REMARK INTER + INTRA:          -6.150
REMARK INTER:                  -6.017
REMARK INTRA:                  -0.133
REMARK UNBOUND:                -0.141
REMARK SMILES O=C([O-])C=Cc1ccc(O)c(O)c1
REMARK SMILES IDX 6 1 13 2 7 3 11 4 8 5 9 6 5 7 4 8 2 9 1 10 3 11 12 12 10 14
REMARK H PARENT 12 13 10 15
REMARK Flexibility Score: inf
ROOT
ATOM      1  C   UNL     1     -22.233 -30.664  99.369  1.00  0.00    -0.022 A 
ATOM      2  C   UNL     1     -22.890 -31.530  98.479  1.00  0.00     0.058 A 
ATOM      3  C   UNL     1     -22.367 -30.884 100.755  1.00  0.00     0.012 A 
ATOM      4  C   UNL     1     -23.688 -32.580  98.957  1.00  0.00     0.157 A 
ATOM      5  C   UNL     1     -23.161 -31.929 101.231  1.00  0.00     0.051 A 
ATOM      6  C   UNL     1     -23.826 -32.778 100.340  1.00  0.00     0.157 A 
ENDROOT
BRANCH   1   7
ATOM      7  C   UNL     1     -21.391 -29.577  98.811  1.00  0.00     0.010 C 
ATOM      8  C   UNL     1     -21.252 -28.373  99.385  1.00  0.00     0.025 C 
BRANCH   8   9
ATOM      9  C   UNL     1     -20.417 -27.313  98.795  1.00  0.00     0.064 C 
ATOM     10  O   UNL     1     -20.843 -26.132  98.687  1.00  0.00    -0.545 OA
ATOM     11  O   UNL     1     -19.138 -27.621  98.351  1.00  0.00    -0.545 OA
ENDBRANCH   8   9
ENDBRANCH   1   7
BRANCH   4  12
ATOM     12  O   UNL     1     -24.344 -33.424  98.062  1.00  0.00    -0.504 OA
ATOM     13  H   UNL     1     -24.115 -33.433  97.076  1.00  0.00     0.293 HD
ENDBRANCH   4  12
BRANCH   6  14
ATOM     14  O   UNL     1     -24.614 -33.811 100.847  1.00  0.00    -0.504 OA
ATOM     15  H   UNL     1     -25.341 -33.645 101.533  1.00  0.00     0.293 HD
ENDBRANCH   6  14
TORSDOF 4
ENDMDL
MODEL 6
REMARK VINA RESULT:    -5.073      7.091     10.368
REMARK INTER + INTRA:          -6.103
REMARK INTER:                  -5.970
REMARK INTRA:                  -0.133
REMARK UNBOUND:                -0.141
REMARK SMILES O=C([O-])C=Cc1ccc(O)c(O)c1
REMARK SMILES IDX 6 1 13 2 7 3 11 4 8 5 9 6 5 7 4 8 2 9 1 10 3 11 12 12 10 14
REMARK H PARENT 12 13 10 15
REMARK Flexibility Score: inf
ROOT
ATOM      1  C   UNL     1     -24.865 -28.455 114.252  1.00  0.00    -0.022 A 
ATOM      2  C   UNL     1     -24.928 -29.375 113.192  1.00  0.00     0.058 A 
ATOM      3  C   UNL     1     -24.106 -27.280 114.088  1.00  0.00     0.012 A 
ATOM      4  C   UNL     1     -24.227 -29.144 111.999  1.00  0.00     0.157 A 
ATOM      5  C   UNL     1     -23.408 -27.049 112.900  1.00  0.00     0.051 A 
ATOM      6  C   UNL     1     -23.461 -27.976 111.855  1.00  0.00     0.157 A 
ENDROOT
BRANCH   1   7
ATOM      7  C   UNL     1     -25.635 -28.742 115.488  1.00  0.00     0.010 C 
ATOM      8  C   UNL     1     -26.507 -29.754 115.604  1.00  0.00     0.025 C 
BRANCH   8   9
ATOM      9  C   UNL     1     -27.263 -30.002 116.843  1.00  0.00     0.064 C 
ATOM     10  O   UNL     1     -27.949 -29.092 117.381  1.00  0.00    -0.545 OA
ATOM     11  O   UNL     1     -27.219 -31.260 117.430  1.00  0.00    -0.545 OA
ENDBRANCH   8   9
ENDBRANCH   1   7
BRANCH   4  12
ATOM     12  O   UNL     1     -24.289 -30.071 110.960  1.00  0.00    -0.504 OA
ATOM     13  H   UNL     1     -23.551 -30.144 110.269  1.00  0.00     0.293 HD
ENDBRANCH   4  12
BRANCH   6  14
ATOM     14  O   UNL     1     -22.751 -27.718 110.682  1.00  0.00    -0.504 OA
ATOM     15  H   UNL     1     -23.159 -27.207 109.909  1.00  0.00     0.293 HD
ENDBRANCH   6  14
TORSDOF 4
ENDMDL
MODEL 7
REMARK VINA RESULT:    -4.975      4.583      5.556
REMARK INTER + INTRA:          -5.989
REMARK INTER:                  -5.858
REMARK INTRA:                  -0.130
REMARK UNBOUND:                -0.141
REMARK SMILES O=C([O-])C=Cc1ccc(O)c(O)c1
REMARK SMILES IDX 6 1 13 2 7 3 11 4 8 5 9 6 5 7 4 8 2 9 1 10 3 11 12 12 10 14
REMARK H PARENT 12 13 10 15
REMARK Flexibility Score: inf
ROOT
ATOM      1  C   UNL     1     -26.755 -23.997 102.080  1.00  0.00    -0.022 A 
ATOM      2  C   UNL     1     -27.127 -24.441 100.800  1.00  0.00     0.058 A 
ATOM      3  C   UNL     1     -27.210 -24.712 103.206  1.00  0.00     0.012 A 
ATOM      4  C   UNL     1     -27.958 -25.559 100.642  1.00  0.00     0.157 A 
ATOM      5  C   UNL     1     -28.037 -25.827 103.048  1.00  0.00     0.051 A 
ATOM      6  C   UNL     1     -28.417 -26.254 101.773  1.00  0.00     0.157 A 
ENDROOT
BRANCH   1   7
ATOM      7  C   UNL     1     -25.865 -22.815 102.191  1.00  0.00     0.010 C 
ATOM      8  C   UNL     1     -24.917 -22.510 101.293  1.00  0.00     0.025 C 
BRANCH   8   9
ATOM      9  C   UNL     1     -24.043 -21.334 101.443  1.00  0.00     0.064 C 
ATOM     10  O   UNL     1     -24.495 -20.165 101.318  1.00  0.00    -0.545 OA
ATOM     11  O   UNL     1     -22.695 -21.517 101.725  1.00  0.00    -0.545 OA
ENDBRANCH   8   9
ENDBRANCH   1   7
BRANCH   4  12
ATOM     12  O   UNL     1     -28.329 -25.982  99.366  1.00  0.00    -0.504 OA
ATOM     13  H   UNL     1     -29.295 -26.176  99.130  1.00  0.00     0.293 HD
ENDBRANCH   4  12
BRANCH   6  14
ATOM     14  O   UNL     1     -29.245 -27.369 101.649  1.00  0.00    -0.504 OA
ATOM     15  H   UNL     1     -29.069 -28.228 102.156  1.00  0.00     0.293 HD
ENDBRANCH   6  14
TORSDOF 4
ENDMDL
MODEL 8
REMARK VINA RESULT:    -4.940      5.466      6.613
REMARK INTER + INTRA:          -5.947
REMARK INTER:                  -5.820
REMARK INTRA:                  -0.127
REMARK UNBOUND:                -0.141
REMARK SMILES O=C([O-])C=Cc1ccc(O)c(O)c1
REMARK SMILES IDX 6 1 13 2 7 3 11 4 8 5 9 6 5 7 4 8 2 9 1 10 3 11 12 12 10 14
REMARK H PARENT 12 13 10 15
REMARK Flexibility Score: inf
ROOT
ATOM      1  C   UNL     1     -29.902 -23.420 102.802  1.00  0.00    -0.022 A 
ATOM      2  C   UNL     1     -29.327 -23.718 101.555  1.00  0.00     0.058 A 
ATOM      3  C   UNL     1     -30.108 -24.467 103.723  1.00  0.00     0.012 A 
ATOM      4  C   UNL     1     -28.987 -25.036 101.218  1.00  0.00     0.157 A 
ATOM      5  C   UNL     1     -29.769 -25.780 103.387  1.00  0.00     0.051 A 
ATOM      6  C   UNL     1     -29.212 -26.072 102.139  1.00  0.00     0.157 A 
ENDROOT
BRANCH   1   7
ATOM      7  C   UNL     1     -30.232 -22.007 103.112  1.00  0.00     0.010 C 
ATOM      8  C   UNL     1     -29.340 -21.118 103.573  1.00  0.00     0.025 C 
BRANCH   8   9
ATOM      9  C   UNL     1     -29.707 -19.725 103.882  1.00  0.00     0.064 C 
ATOM     10  O   UNL     1     -30.759 -19.455 104.520  1.00  0.00    -0.545 OA
ATOM     11  O   UNL     1     -28.879 -18.692 103.462  1.00  0.00    -0.545 OA
ENDBRANCH   8   9
ENDBRANCH   1   7
BRANCH   4  12
ATOM     12  O   UNL     1     -28.427 -25.319  99.973  1.00  0.00    -0.504 OA
ATOM     13  H   UNL     1     -29.001 -25.425  99.144  1.00  0.00     0.293 HD
ENDBRANCH   4  12
BRANCH   6  14
ATOM     14  O   UNL     1     -28.886 -27.393 101.833  1.00  0.00    -0.504 OA
ATOM     15  H   UNL     1     -29.391 -27.923 101.133  1.00  0.00     0.293 HD
ENDBRANCH   6  14
TORSDOF 4
ENDMDL
MODEL 9
REMARK VINA RESULT:    -4.920      4.721      5.512
REMARK INTER + INTRA:          -5.924
REMARK INTER:                  -5.784
REMARK INTRA:                  -0.140
REMARK UNBOUND:                -0.141
REMARK SMILES O=C([O-])C=Cc1ccc(O)c(O)c1
REMARK SMILES IDX 6 1 13 2 7 3 11 4 8 5 9 6 5 7 4 8 2 9 1 10 3 11 12 12 10 14
REMARK H PARENT 12 13 10 15
REMARK Flexibility Score: inf
ROOT
ATOM      1  C   UNL     1     -27.467 -23.918 101.925  1.00  0.00    -0.022 A 
ATOM      2  C   UNL     1     -27.648 -25.267 102.274  1.00  0.00     0.058 A 
ATOM      3  C   UNL     1     -28.603 -23.098 101.771  1.00  0.00     0.012 A 
ATOM      4  C   UNL     1     -28.934 -25.799 102.439  1.00  0.00     0.157 A 
ATOM      5  C   UNL     1     -29.885 -23.628 101.936  1.00  0.00     0.051 A 
ATOM      6  C   UNL     1     -30.058 -24.975 102.266  1.00  0.00     0.157 A 
ENDROOT
BRANCH   1   7
ATOM      7  C   UNL     1     -26.084 -23.402 101.774  1.00  0.00     0.010 C 
ATOM      8  C   UNL     1     -25.773 -22.098 101.754  1.00  0.00     0.025 C 
BRANCH   8   9
ATOM      9  C   UNL     1     -24.389 -21.622 101.590  1.00  0.00     0.064 C 
ATOM     10  O   UNL     1     -24.143 -20.424 101.289  1.00  0.00    -0.545 OA
ATOM     11  O   UNL     1     -23.337 -22.511 101.769  1.00  0.00    -0.545 OA
ENDBRANCH   8   9
ENDBRANCH   1   7
BRANCH   4  12
ATOM     12  O   UNL     1     -29.099 -27.143 102.774  1.00  0.00    -0.504 OA
ATOM     13  H   UNL     1     -29.360 -27.834 102.081  1.00  0.00     0.293 HD
ENDBRANCH   4  12
BRANCH   6  14
ATOM     14  O   UNL     1     -31.351 -25.475 102.422  1.00  0.00    -0.504 OA
ATOM     15  H   UNL     1     -32.094 -24.924 102.835  1.00  0.00     0.293 HD
ENDBRANCH   6  14
TORSDOF 4
ENDMDL
