MODEL 1
REMARK VINA RESULT:    -5.553      0.000      0.000
REMARK INTER + INTRA:          -5.878
REMARK INTER:                  -5.878
REMARK INTRA:                   0.000
REMARK UNBOUND:                 0.000
REMARK SMILES O=c1ccc2cc(O)c(O)cc2o1
REMARK SMILES IDX 4 1 3 2 2 3 1 4 13 5 12 6 11 7 9 8 7 9 6 10 5 11 8 12 10 14
REMARK H PARENT 8 13 10 15
REMARK Flexibility Score: inf
ROOT
ATOM      1  C   UNL     1       4.258  24.990  11.583  1.00  0.00     0.019 A 
ATOM      2  C   UNL     1       3.947  23.686  11.963  1.00  0.00     0.094 A 
ATOM      3  C   UNL     1       4.313  23.247  13.240  1.00  0.00     0.336 A 
ATOM      4  O   UNL     1       4.041  22.071  13.602  1.00  0.00    -0.246 OA
ATOM      5  O   UNL     1       4.946  24.063  14.078  1.00  0.00    -0.423 OA
ATOM      6  C   UNL     1       5.260  25.316  13.756  1.00  0.00     0.142 A 
ATOM      7  C   UNL     1       5.927  26.129  14.677  1.00  0.00     0.098 A 
ATOM      8  C   UNL     1       6.261  27.449  14.343  1.00  0.00     0.161 A 
ATOM      9  C   UNL     1       5.925  27.959  13.075  1.00  0.00     0.158 A 
ATOM     10  C   UNL     1       5.257  27.147  12.150  1.00  0.00     0.062 A 
ATOM     11  C   UNL     1       4.923  25.827  12.484  1.00  0.00     0.022 A 
ENDROOT
BRANCH   9  12
ATOM     12  O   UNL     1       6.245  29.269  12.718  1.00  0.00    -0.504 OA
ATOM     13  H   UNL     1       6.299  30.015  13.400  1.00  0.00     0.293 HD
ENDBRANCH   9  12
BRANCH   8  14
ATOM     14  O   UNL     1       6.925  28.257  15.265  1.00  0.00    -0.504 OA
ATOM     15  H   UNL     1       7.934  28.241  15.356  1.00  0.00     0.293 HD
ENDBRANCH   8  14
TORSDOF 2
ENDMDL
MODEL 2
REMARK VINA RESULT:    -5.316      1.675      4.901
REMARK INTER + INTRA:          -5.627
REMARK INTER:                  -5.627
REMARK INTRA:                   0.000
REMARK UNBOUND:                 0.000
REMARK SMILES O=c1ccc2cc(O)c(O)cc2o1
REMARK SMILES IDX 4 1 3 2 2 3 1 4 13 5 12 6 11 7 9 8 7 9 6 10 5 11 8 12 10 14
REMARK H PARENT 8 13 10 15
REMARK Flexibility Score: inf
ROOT
ATOM      1  C   UNL     1       5.871  25.921  14.770  1.00  0.00     0.019 A 
ATOM      2  C   UNL     1       6.358  27.191  15.076  1.00  0.00     0.094 A 
ATOM      3  C   UNL     1       6.233  28.211  14.126  1.00  0.00     0.336 A 
ATOM      4  O   UNL     1       6.666  29.365  14.385  1.00  0.00    -0.246 OA
ATOM      5  O   UNL     1       5.658  27.971  12.951  1.00  0.00    -0.423 OA
ATOM      6  C   UNL     1       5.180  26.774  12.620  1.00  0.00     0.142 A 
ATOM      7  C   UNL     1       4.586  26.580  11.369  1.00  0.00     0.098 A 
ATOM      8  C   UNL     1       4.080  25.321  11.013  1.00  0.00     0.161 A 
ATOM      9  C   UNL     1       4.171  24.247  11.919  1.00  0.00     0.158 A 
ATOM     10  C   UNL     1       4.766  24.439  13.173  1.00  0.00     0.062 A 
ATOM     11  C   UNL     1       5.271  25.697  13.527  1.00  0.00     0.022 A 
ENDROOT
BRANCH   9  12
ATOM     12  O   UNL     1       3.676  22.986  11.591  1.00  0.00    -0.504 OA
ATOM     13  H   UNL     1       4.199  22.138  11.772  1.00  0.00     0.293 HD
ENDBRANCH   9  12
BRANCH   8  14
ATOM     14  O   UNL     1       3.488  25.133   9.766  1.00  0.00    -0.504 OA
ATOM     15  H   UNL     1       4.040  25.079   8.918  1.00  0.00     0.293 HD
ENDBRANCH   8  14
TORSDOF 2
ENDMDL
MODEL 3
REMARK VINA RESULT:    -5.231      2.972      3.730
REMARK INTER + INTRA:          -5.537
REMARK INTER:                  -5.537
REMARK INTRA:                   0.000
REMARK UNBOUND:                 0.000
REMARK SMILES O=c1ccc2cc(O)c(O)cc2o1
REMARK SMILES IDX 4 1 3 2 2 3 1 4 13 5 12 6 11 7 9 8 7 9 6 10 5 11 8 12 10 14
REMARK H PARENT 8 13 10 15
REMARK Flexibility Score: inf
ROOT
ATOM      1  C   UNL     1       5.889  27.011  13.167  1.00  0.00     0.019 A 
ATOM      2  C   UNL     1       6.610  25.994  12.544  1.00  0.00     0.094 A 
ATOM      3  C   UNL     1       7.963  25.830  12.860  1.00  0.00     0.336 A 
ATOM      4  O   UNL     1       8.630  24.916  12.307  1.00  0.00    -0.246 OA
ATOM      5  O   UNL     1       8.550  26.631  13.745  1.00  0.00    -0.423 OA
ATOM      6  C   UNL     1       7.898  27.613  14.363  1.00  0.00     0.142 A 
ATOM      7  C   UNL     1       8.568  28.426  15.283  1.00  0.00     0.098 A 
ATOM      8  C   UNL     1       7.887  29.463  15.938  1.00  0.00     0.161 A 
ATOM      9  C   UNL     1       6.524  29.687  15.669  1.00  0.00     0.158 A 
ATOM     10  C   UNL     1       5.851  28.875  14.747  1.00  0.00     0.062 A 
ATOM     11  C   UNL     1       6.531  27.839  14.093  1.00  0.00     0.022 A 
ENDROOT
BRANCH   9  12
ATOM     12  O   UNL     1       5.823  30.711  16.306  1.00  0.00    -0.504 OA
ATOM     13  H   UNL     1       5.701  30.735  17.311  1.00  0.00     0.293 HD
ENDBRANCH   9  12
BRANCH   8  14
ATOM     14  O   UNL     1       8.558  30.270  16.856  1.00  0.00    -0.504 OA
ATOM     15  H   UNL     1       8.544  30.070  17.849  1.00  0.00     0.293 HD
ENDBRANCH   8  14
TORSDOF 2
ENDMDL
MODEL 4
REMARK VINA RESULT:    -5.203      2.993      4.022
REMARK INTER + INTRA:          -5.507
REMARK INTER:                  -5.507
REMARK INTRA:                   0.000
REMARK UNBOUND:                 0.000
REMARK SMILES O=c1ccc2cc(O)c(O)cc2o1
REMARK SMILES IDX 4 1 3 2 2 3 1 4 13 5 12 6 11 7 9 8 7 9 6 10 5 11 8 12 10 14
REMARK H PARENT 8 13 10 15
REMARK Flexibility Score: inf
ROOT
ATOM      1  C   UNL     1       9.221  26.471  13.796  1.00  0.00     0.019 A 
ATOM      2  C   UNL     1       8.756  25.613  12.801  1.00  0.00     0.094 A 
ATOM      3  C   UNL     1       7.436  25.741  12.357  1.00  0.00     0.336 A 
ATOM      4  O   UNL     1       6.998  24.976  11.458  1.00  0.00    -0.246 OA
ATOM      5  O   UNL     1       6.638  26.670  12.877  1.00  0.00    -0.423 OA
ATOM      6  C   UNL     1       7.041  27.510  13.827  1.00  0.00     0.142 A 
ATOM      7  C   UNL     1       6.157  28.466  14.337  1.00  0.00     0.098 A 
ATOM      8  C   UNL     1       6.576  29.353  15.339  1.00  0.00     0.161 A 
ATOM      9  C   UNL     1       7.892  29.281  15.835  1.00  0.00     0.158 A 
ATOM     10  C   UNL     1       8.779  28.325  15.326  1.00  0.00     0.062 A 
ATOM     11  C   UNL     1       8.360  27.438  14.325  1.00  0.00     0.022 A 
ENDROOT
BRANCH   9  12
ATOM     12  O   UNL     1       8.334  30.152  16.831  1.00  0.00    -0.504 OA
ATOM     13  H   UNL     1       8.415  29.866  17.799  1.00  0.00     0.293 HD
ENDBRANCH   9  12
BRANCH   8  14
ATOM     14  O   UNL     1       5.692  30.305  15.844  1.00  0.00    -0.504 OA
ATOM     15  H   UNL     1       5.653  31.246  15.468  1.00  0.00     0.293 HD
ENDBRANCH   8  14
TORSDOF 2
ENDMDL
MODEL 5
REMARK VINA RESULT:    -5.127      1.033      2.238
REMARK INTER + INTRA:          -5.427
REMARK INTER:                  -5.427
REMARK INTRA:                   0.000
REMARK UNBOUND:                 0.000
REMARK SMILES O=c1ccc2cc(O)c(O)cc2o1
REMARK SMILES IDX 4 1 3 2 2 3 1 4 13 5 12 6 11 7 9 8 7 9 6 10 5 11 8 12 10 14
REMARK H PARENT 8 13 10 15
REMARK Flexibility Score: inf
ROOT
ATOM      1  C   UNL     1       5.755  24.222  14.718  1.00  0.00     0.019 A 
ATOM      2  C   UNL     1       4.916  23.288  14.111  1.00  0.00     0.094 A 
ATOM      3  C   UNL     1       4.194  23.663  12.973  1.00  0.00     0.336 A 
ATOM      4  O   UNL     1       3.432  22.833  12.411  1.00  0.00    -0.246 OA
ATOM      5  O   UNL     1       4.310  24.892  12.477  1.00  0.00    -0.423 OA
ATOM      6  C   UNL     1       5.099  25.813  13.023  1.00  0.00     0.142 A 
ATOM      7  C   UNL     1       5.180  27.090  12.459  1.00  0.00     0.098 A 
ATOM      8  C   UNL     1       6.010  28.065  13.030  1.00  0.00     0.161 A 
ATOM      9  C   UNL     1       6.766  27.759  14.178  1.00  0.00     0.158 A 
ATOM     10  C   UNL     1       6.687  26.481  14.746  1.00  0.00     0.062 A 
ATOM     11  C   UNL     1       5.857  25.506  14.174  1.00  0.00     0.022 A 
ENDROOT
BRANCH   9  12
ATOM     12  O   UNL     1       7.599  28.710  14.766  1.00  0.00    -0.504 OA
ATOM     13  H   UNL     1       7.236  29.549  15.200  1.00  0.00     0.293 HD
ENDBRANCH   9  12
BRANCH   8  14
ATOM     14  O   UNL     1       6.089  29.336  12.463  1.00  0.00    -0.504 OA
ATOM     15  H   UNL     1       5.354  29.698  11.866  1.00  0.00     0.293 HD
ENDBRANCH   8  14
TORSDOF 2
ENDMDL
MODEL 6
REMARK VINA RESULT:    -5.099      2.357      2.945
REMARK INTER + INTRA:          -5.397
REMARK INTER:                  -5.397
REMARK INTRA:                   0.000
REMARK UNBOUND:                 0.000
REMARK SMILES O=c1ccc2cc(O)c(O)cc2o1
REMARK SMILES IDX 4 1 3 2 2 3 1 4 13 5 12 6 11 7 9 8 7 9 6 10 5 11 8 12 10 14
REMARK H PARENT 8 13 10 15
REMARK Flexibility Score: inf
ROOT
ATOM      1  C   UNL     1       6.626  24.825  12.227  1.00  0.00     0.019 A 
ATOM      2  C   UNL     1       5.674  24.675  11.221  1.00  0.00     0.094 A 
ATOM      3  C   UNL     1       4.817  25.743  10.933  1.00  0.00     0.336 A 
ATOM      4  O   UNL     1       3.951  25.627  10.027  1.00  0.00    -0.246 OA
ATOM      5  O   UNL     1       4.913  26.885  11.609  1.00  0.00    -0.423 OA
ATOM      6  C   UNL     1       5.808  27.070  12.577  1.00  0.00     0.142 A 
ATOM      7  C   UNL     1       5.862  28.292  13.255  1.00  0.00     0.098 A 
ATOM      8  C   UNL     1       6.803  28.493  14.276  1.00  0.00     0.161 A 
ATOM      9  C   UNL     1       7.697  27.462  14.620  1.00  0.00     0.158 A 
ATOM     10  C   UNL     1       7.645  26.237  13.942  1.00  0.00     0.062 A 
ATOM     11  C   UNL     1       6.705  26.036  12.922  1.00  0.00     0.022 A 
ENDROOT
BRANCH   9  12
ATOM     12  O   UNL     1       8.642  27.636  15.630  1.00  0.00    -0.504 OA
ATOM     13  H   UNL     1       8.388  27.640  16.610  1.00  0.00     0.293 HD
ENDBRANCH   9  12
BRANCH   8  14
ATOM     14  O   UNL     1       6.854  29.713  14.948  1.00  0.00    -0.504 OA
ATOM     15  H   UNL     1       7.701  30.036  15.400  1.00  0.00     0.293 HD
ENDBRANCH   8  14
TORSDOF 2
ENDMDL
MODEL 7
REMARK VINA RESULT:    -5.020      1.905      4.541
REMARK INTER + INTRA:          -5.314
REMARK INTER:                  -5.314
REMARK INTRA:                   0.000
REMARK UNBOUND:                 0.000
REMARK SMILES O=c1ccc2cc(O)c(O)cc2o1
REMARK SMILES IDX 4 1 3 2 2 3 1 4 13 5 12 6 11 7 9 8 7 9 6 10 5 11 8 12 10 14
REMARK H PARENT 8 13 10 15
REMARK Flexibility Score: inf
ROOT
ATOM      1  C   UNL     1       5.919  28.257  12.963  1.00  0.00     0.019 A 
ATOM      2  C   UNL     1       6.889  28.548  13.920  1.00  0.00     0.094 A 
ATOM      3  C   UNL     1       7.656  27.503  14.448  1.00  0.00     0.336 A 
ATOM      4  O   UNL     1       8.537  27.746  15.314  1.00  0.00    -0.246 OA
ATOM      5  O   UNL     1       7.461  26.252  14.040  1.00  0.00    -0.423 OA
ATOM      6  C   UNL     1       6.547  25.931  13.128  1.00  0.00     0.142 A 
ATOM      7  C   UNL     1       6.387  24.598  12.737  1.00  0.00     0.098 A 
ATOM      8  C   UNL     1       5.425  24.253  11.776  1.00  0.00     0.161 A 
ATOM      9  C   UNL     1       4.617  25.252  11.202  1.00  0.00     0.158 A 
ATOM     10  C   UNL     1       4.776  26.588  11.591  1.00  0.00     0.062 A 
ATOM     11  C   UNL     1       5.737  26.932  12.551  1.00  0.00     0.022 A 
ENDROOT
BRANCH   9  12
ATOM     12  O   UNL     1       3.653  24.937  10.244  1.00  0.00    -0.504 OA
ATOM     13  H   UNL     1       3.794  24.203   9.561  1.00  0.00     0.293 HD
ENDBRANCH   9  12
BRANCH   8  14
ATOM     14  O   UNL     1       5.269  22.923  11.389  1.00  0.00    -0.504 OA
ATOM     15  H   UNL     1       4.372  22.454  11.447  1.00  0.00     0.293 HD
ENDBRANCH   8  14
TORSDOF 2
ENDMDL
MODEL 8
REMARK VINA RESULT:    -4.968      1.022      4.534
REMARK INTER + INTRA:          -5.259
REMARK INTER:                  -5.259
REMARK INTRA:                   0.000
REMARK UNBOUND:                 0.000
REMARK SMILES O=c1ccc2cc(O)c(O)cc2o1
REMARK SMILES IDX 4 1 3 2 2 3 1 4 13 5 12 6 11 7 9 8 7 9 6 10 5 11 8 12 10 14
REMARK H PARENT 8 13 10 15
REMARK Flexibility Score: inf
ROOT
ATOM      1  C   UNL     1       5.203  27.060  12.103  1.00  0.00     0.019 A 
ATOM      2  C   UNL     1       5.896  28.018  12.842  1.00  0.00     0.094 A 
ATOM      3  C   UNL     1       6.387  27.674  14.107  1.00  0.00     0.336 A 
ATOM      4  O   UNL     1       7.015  28.525  14.789  1.00  0.00    -0.246 OA
ATOM      5  O   UNL     1       6.196  26.451  14.593  1.00  0.00    -0.423 OA
ATOM      6  C   UNL     1       5.541  25.507  13.921  1.00  0.00     0.142 A 
ATOM      7  C   UNL     1       5.370  24.239  14.484  1.00  0.00     0.098 A 
ATOM      8  C   UNL     1       4.680  23.240  13.781  1.00  0.00     0.161 A 
ATOM      9  C   UNL     1       4.158  23.515  12.503  1.00  0.00     0.158 A 
ATOM     10  C   UNL     1       4.328  24.784  11.937  1.00  0.00     0.062 A 
ATOM     11  C   UNL     1       5.017  25.782  12.640  1.00  0.00     0.022 A 
ENDROOT
BRANCH   9  12
ATOM     12  O   UNL     1       3.469  22.539  11.782  1.00  0.00    -0.504 OA
ATOM     13  H   UNL     1       2.529  22.689  11.437  1.00  0.00     0.293 HD
ENDBRANCH   9  12
BRANCH   8  14
ATOM     14  O   UNL     1       4.513  21.976  14.345  1.00  0.00    -0.504 OA
ATOM     15  H   UNL     1       5.305  21.410  14.625  1.00  0.00     0.293 HD
ENDBRANCH   8  14
TORSDOF 2
ENDMDL
MODEL 9
REMARK VINA RESULT:    -4.837     19.005     20.944
REMARK INTER + INTRA:          -5.119
REMARK INTER:                  -5.119
REMARK INTRA:                   0.000
REMARK UNBOUND:                 0.000
REMARK SMILES O=c1ccc2cc(O)c(O)cc2o1
REMARK SMILES IDX 4 1 3 2 2 3 1 4 13 5 12 6 11 7 9 8 7 9 6 10 5 11 8 12 10 14
REMARK H PARENT 8 13 10 15
REMARK Flexibility Score: inf
ROOT
ATOM      1  C   UNL     1      -0.318  41.044   1.327  1.00  0.00     0.019 A 
ATOM      2  C   UNL     1       0.155  41.616   0.147  1.00  0.00     0.094 A 
ATOM      3  C   UNL     1      -0.592  41.465  -1.026  1.00  0.00     0.336 A 
ATOM      4  O   UNL     1      -0.181  41.976  -2.102  1.00  0.00    -0.246 OA
ATOM      5  O   UNL     1      -1.736  40.788  -1.014  1.00  0.00    -0.423 OA
ATOM      6  C   UNL     1      -2.224  40.227   0.089  1.00  0.00     0.142 A 
ATOM      7  C   UNL     1      -3.432  39.524   0.042  1.00  0.00     0.098 A 
ATOM      8  C   UNL     1      -3.951  38.930   1.202  1.00  0.00     0.161 A 
ATOM      9  C   UNL     1      -3.253  39.040   2.419  1.00  0.00     0.158 A 
ATOM     10  C   UNL     1      -2.043  39.743   2.470  1.00  0.00     0.062 A 
ATOM     11  C   UNL     1      -1.525  40.337   1.310  1.00  0.00     0.022 A 
ENDROOT
BRANCH   9  12
ATOM     12  O   UNL     1      -3.747  38.460   3.587  1.00  0.00    -0.504 OA
ATOM     13  H   UNL     1      -3.663  38.911   4.490  1.00  0.00     0.293 HD
ENDBRANCH   9  12
BRANCH   8  14
ATOM     14  O   UNL     1      -5.157  38.232   1.150  1.00  0.00    -0.504 OA
ATOM     15  H   UNL     1      -5.293  37.369   1.662  1.00  0.00     0.293 HD
ENDBRANCH   8  14
TORSDOF 2
ENDMDL
