MODEL 1
REMARK VINA RESULT:    -0.100      0.000      0.000
REMARK INTER + INTRA:          -0.544
REMARK INTER:                  -0.129
REMARK INTRA:                  -0.415
REMARK UNBOUND:                -0.415
REMARK SMILES CCCCCCC(=O)[O-]
REMARK SMILES IDX 5 1 6 2 7 3 8 4 9 5 4 6 3 7 2 8 1 9
REMARK H PARENT
REMARK Flexibility Score: inf
ROOT
ATOM      1  C   UNL     1     161.180 181.789 179.824  1.00  0.00     0.006 C 
ENDROOT
BRANCH   1   2
ATOM      2  C   UNL     1     159.809 181.987 179.156  1.00  0.00     0.053 C 
BRANCH   2   3
ATOM      3  C   UNL     1     159.603 181.045 178.011  1.00  0.00     0.041 C 
ATOM      4  O   UNL     1     160.113 181.292 176.886  1.00  0.00    -0.550 OA
ATOM      5  O   UNL     1     158.820 179.909 178.176  1.00  0.00    -0.550 OA
ENDBRANCH   2   3
ENDBRANCH   1   2
BRANCH   1   6
ATOM      6  C   UNL     1     162.273 182.755 179.328  1.00  0.00     0.000 C 
BRANCH   6   7
ATOM      7  C   UNL     1     163.444 182.029 178.644  1.00  0.00    -0.000 C 
BRANCH   7   8
ATOM      8  C   UNL     1     163.283 180.500 178.672  1.00  0.00    -0.003 C 
ATOM      9  C   UNL     1     163.312 179.875 177.276  1.00  0.00     0.004 C 
ENDBRANCH   7   8
ENDBRANCH   6   7
ENDBRANCH   1   6
TORSDOF 5
ENDMDL
MODEL 2
REMARK VINA RESULT:    -0.097     23.274     24.426
REMARK INTER + INTRA:          -0.540
REMARK INTER:                  -0.079
REMARK INTRA:                  -0.461
REMARK UNBOUND:                -0.415
REMARK SMILES CCCCCCC(=O)[O-]
REMARK SMILES IDX 5 1 6 2 7 3 8 4 9 5 4 6 3 7 2 8 1 9
REMARK H PARENT
REMARK Flexibility Score: inf
ROOT
ATOM      1  C   UNL     1     176.930 196.914 184.931  1.00  0.00     0.006 C 
ENDROOT
BRANCH   1   2
ATOM      2  C   UNL     1     178.070 197.821 185.427  1.00  0.00     0.053 C 
BRANCH   2   3
ATOM      3  C   UNL     1     177.738 199.273 185.273  1.00  0.00     0.041 C 
ATOM      4  O   UNL     1     177.411 199.733 184.147  1.00  0.00    -0.550 OA
ATOM      5  O   UNL     1     177.820 200.125 186.367  1.00  0.00    -0.550 OA
ENDBRANCH   2   3
ENDBRANCH   1   2
BRANCH   1   6
ATOM      6  C   UNL     1     175.626 197.034 185.741  1.00  0.00     0.000 C 
BRANCH   6   7
ATOM      7  C   UNL     1     175.831 196.766 187.242  1.00  0.00    -0.000 C 
BRANCH   7   8
ATOM      8  C   UNL     1     175.383 197.949 188.116  1.00  0.00    -0.003 C 
ATOM      9  C   UNL     1     174.559 198.979 187.342  1.00  0.00     0.004 C 
ENDBRANCH   7   8
ENDBRANCH   6   7
ENDBRANCH   1   6
TORSDOF 5
ENDMDL
MODEL 3
REMARK VINA RESULT:    -0.094     22.217     23.518
REMARK INTER + INTRA:          -0.536
REMARK INTER:                  -0.068
REMARK INTRA:                  -0.468
REMARK UNBOUND:                -0.415
REMARK SMILES CCCCCCC(=O)[O-]
REMARK SMILES IDX 5 1 6 2 7 3 8 4 9 5 4 6 3 7 2 8 1 9
REMARK H PARENT
REMARK Flexibility Score: inf
ROOT
ATOM      1  C   UNL     1     175.670 196.965 184.800  1.00  0.00     0.006 C 
ENDROOT
BRANCH   1   2
ATOM      2  C   UNL     1     175.041 197.165 183.411  1.00  0.00     0.053 C 
BRANCH   2   3
ATOM      3  C   UNL     1     174.603 198.580 183.193  1.00  0.00     0.041 C 
ATOM      4  O   UNL     1     174.013 199.210 184.110  1.00  0.00    -0.550 OA
ATOM      5  O   UNL     1     174.817 199.193 181.965  1.00  0.00    -0.550 OA
ENDBRANCH   2   3
ENDBRANCH   1   2
BRANCH   1   6
ATOM      6  C   UNL     1     177.128 197.449 184.913  1.00  0.00     0.000 C 
BRANCH   6   7
ATOM      7  C   UNL     1     177.279 198.672 185.834  1.00  0.00    -0.000 C 
BRANCH   7   8
ATOM      8  C   UNL     1     177.549 199.966 185.051  1.00  0.00    -0.003 C 
ATOM      9  C   UNL     1     178.125 199.708 183.658  1.00  0.00     0.004 C 
ENDBRANCH   7   8
ENDBRANCH   6   7
ENDBRANCH   1   6
TORSDOF 5
ENDMDL
MODEL 4
REMARK VINA RESULT:    -0.088     21.664     22.957
REMARK INTER + INTRA:          -0.529
REMARK INTER:                  -0.053
REMARK INTRA:                  -0.476
REMARK UNBOUND:                -0.415
REMARK SMILES CCCCCCC(=O)[O-]
REMARK SMILES IDX 5 1 6 2 7 3 8 4 9 5 4 6 3 7 2 8 1 9
REMARK H PARENT
REMARK Flexibility Score: inf
ROOT
ATOM      1  C   UNL     1     174.615 196.895 183.874  1.00  0.00     0.006 C 
ENDROOT
BRANCH   1   2
ATOM      2  C   UNL     1     173.402 197.444 184.644  1.00  0.00     0.053 C 
BRANCH   2   3
ATOM      3  C   UNL     1     173.288 198.932 184.524  1.00  0.00     0.041 C 
ATOM      4  O   UNL     1     173.134 199.643 185.552  1.00  0.00    -0.550 OA
ATOM      5  O   UNL     1     173.320 199.533 183.272  1.00  0.00    -0.550 OA
ENDBRANCH   2   3
ENDBRANCH   1   2
BRANCH   1   6
ATOM      6  C   UNL     1     175.978 197.348 184.430  1.00  0.00     0.000 C 
BRANCH   6   7
ATOM      7  C   UNL     1     176.804 198.143 183.406  1.00  0.00    -0.000 C 
BRANCH   7   8
ATOM      8  C   UNL     1     176.910 199.634 183.765  1.00  0.00    -0.003 C 
ATOM      9  C   UNL     1     176.807 199.889 185.270  1.00  0.00     0.004 C 
ENDBRANCH   7   8
ENDBRANCH   6   7
ENDBRANCH   1   6
TORSDOF 5
ENDMDL
MODEL 5
REMARK VINA RESULT:    -0.082     20.974     22.363
REMARK INTER + INTRA:          -0.521
REMARK INTER:                  -0.060
REMARK INTRA:                  -0.461
REMARK UNBOUND:                -0.415
REMARK SMILES CCCCCCC(=O)[O-]
REMARK SMILES IDX 5 1 6 2 7 3 8 4 9 5 4 6 3 7 2 8 1 9
REMARK H PARENT
REMARK Flexibility Score: inf
ROOT
ATOM      1  C   UNL     1     176.454 197.282 179.503  1.00  0.00     0.006 C 
ENDROOT
BRANCH   1   2
ATOM      2  C   UNL     1     175.030 197.328 180.080  1.00  0.00     0.053 C 
BRANCH   2   3
ATOM      3  C   UNL     1     174.846 196.350 181.199  1.00  0.00     0.041 C 
ATOM      4  O   UNL     1     174.859 195.112 180.969  1.00  0.00    -0.550 OA
ATOM      5  O   UNL     1     174.629 196.807 182.493  1.00  0.00    -0.550 OA
ENDBRANCH   2   3
ENDBRANCH   1   2
BRANCH   1   6
ATOM      6  C   UNL     1     177.571 197.405 180.557  1.00  0.00     0.000 C 
BRANCH   6   7
ATOM      7  C   UNL     1     177.829 198.861 180.982  1.00  0.00    -0.000 C 
BRANCH   7   8
ATOM      8  C   UNL     1     177.362 199.144 182.419  1.00  0.00    -0.003 C 
ATOM      9  C   UNL     1     176.128 200.046 182.475  1.00  0.00     0.004 C 
ENDBRANCH   7   8
ENDBRANCH   6   7
ENDBRANCH   1   6
TORSDOF 5
ENDMDL
MODEL 6
REMARK VINA RESULT:    -0.082     21.729     22.928
REMARK INTER + INTRA:          -0.521
REMARK INTER:                  -0.060
REMARK INTRA:                  -0.461
REMARK UNBOUND:                -0.415
REMARK SMILES CCCCCCC(=O)[O-]
REMARK SMILES IDX 5 1 6 2 7 3 8 4 9 5 4 6 3 7 2 8 1 9
REMARK H PARENT
REMARK Flexibility Score: inf
ROOT
ATOM      1  C   UNL     1     175.644 196.593 183.795  1.00  0.00     0.006 C 
ENDROOT
BRANCH   1   2
ATOM      2  C   UNL     1     176.153 197.843 184.532  1.00  0.00     0.053 C 
BRANCH   2   3
ATOM      3  C   UNL     1     176.995 198.710 183.649  1.00  0.00     0.041 C 
ATOM      4  O   UNL     1     178.125 198.313 183.260  1.00  0.00    -0.550 OA
ATOM      5  O   UNL     1     176.546 199.972 183.281  1.00  0.00    -0.550 OA
ENDBRANCH   2   3
ENDBRANCH   1   2
BRANCH   1   6
ATOM      6  C   UNL     1     174.952 196.886 182.451  1.00  0.00     0.000 C 
BRANCH   6   7
ATOM      7  C   UNL     1     173.492 197.340 182.620  1.00  0.00    -0.000 C 
BRANCH   7   8
ATOM      8  C   UNL     1     173.295 198.824 182.271  1.00  0.00    -0.003 C 
ATOM      9  C   UNL     1     173.007 199.689 183.499  1.00  0.00     0.004 C 
ENDBRANCH   7   8
ENDBRANCH   6   7
ENDBRANCH   1   6
TORSDOF 5
ENDMDL
MODEL 7
REMARK VINA RESULT:    -0.080     21.439     22.630
REMARK INTER + INTRA:          -0.519
REMARK INTER:                  -0.058
REMARK INTRA:                  -0.461
REMARK UNBOUND:                -0.415
REMARK SMILES CCCCCCC(=O)[O-]
REMARK SMILES IDX 5 1 6 2 7 3 8 4 9 5 4 6 3 7 2 8 1 9
REMARK H PARENT
REMARK Flexibility Score: inf
ROOT
ATOM      1  C   UNL     1     173.756 198.014 185.429  1.00  0.00     0.006 C 
ENDROOT
BRANCH   1   2
ATOM      2  C   UNL     1     173.903 199.225 184.493  1.00  0.00     0.053 C 
BRANCH   2   3
ATOM      3  C   UNL     1     175.318 199.710 184.422  1.00  0.00     0.041 C 
ATOM      4  O   UNL     1     175.936 200.021 185.474  1.00  0.00    -0.550 OA
ATOM      5  O   UNL     1     175.944 199.848 183.189  1.00  0.00    -0.550 OA
ENDBRANCH   2   3
ENDBRANCH   1   2
BRANCH   1   6
ATOM      6  C   UNL     1     174.458 196.737 184.930  1.00  0.00     0.000 C 
BRANCH   6   7
ATOM      7  C   UNL     1     174.032 196.343 183.505  1.00  0.00    -0.000 C 
BRANCH   7   8
ATOM      8  C   UNL     1     175.222 196.268 182.536  1.00  0.00    -0.003 C 
ATOM      9  C   UNL     1     176.574 196.335 183.249  1.00  0.00     0.004 C 
ENDBRANCH   7   8
ENDBRANCH   6   7
ENDBRANCH   1   6
TORSDOF 5
ENDMDL
MODEL 8
REMARK VINA RESULT:    -0.075     23.573     24.832
REMARK INTER + INTRA:          -0.512
REMARK INTER:                  -0.039
REMARK INTRA:                  -0.473
REMARK UNBOUND:                -0.415
REMARK SMILES CCCCCCC(=O)[O-]
REMARK SMILES IDX 5 1 6 2 7 3 8 4 9 5 4 6 3 7 2 8 1 9
REMARK H PARENT
REMARK Flexibility Score: inf
ROOT
ATOM      1  C   UNL     1     175.672 198.135 189.514  1.00  0.00     0.006 C 
ENDROOT
BRANCH   1   2
ATOM      2  C   UNL     1     176.761 199.222 189.494  1.00  0.00     0.053 C 
BRANCH   2   3
ATOM      3  C   UNL     1     176.959 199.791 188.124  1.00  0.00     0.041 C 
ATOM      4  O   UNL     1     178.121 200.009 187.689  1.00  0.00    -0.550 OA
ATOM      5  O   UNL     1     175.860 200.113 187.338  1.00  0.00    -0.550 OA
ENDBRANCH   2   3
ENDBRANCH   1   2
BRANCH   1   6
ATOM      6  C   UNL     1     176.097 196.799 188.876  1.00  0.00     0.000 C 
BRANCH   6   7
ATOM      7  C   UNL     1     175.298 196.466 187.605  1.00  0.00    -0.000 C 
BRANCH   7   8
ATOM      8  C   UNL     1     176.141 196.607 186.327  1.00  0.00    -0.003 C 
ATOM      9  C   UNL     1     177.639 196.441 186.584  1.00  0.00     0.004 C 
ENDBRANCH   7   8
ENDBRANCH   6   7
ENDBRANCH   1   6
TORSDOF 5
ENDMDL
MODEL 9
REMARK VINA RESULT:    -0.068     21.320     22.341
REMARK INTER + INTRA:          -0.502
REMARK INTER:                  -0.032
REMARK INTRA:                  -0.470
REMARK UNBOUND:                -0.415
REMARK SMILES CCCCCCC(=O)[O-]
REMARK SMILES IDX 5 1 6 2 7 3 8 4 9 5 4 6 3 7 2 8 1 9
REMARK H PARENT
REMARK Flexibility Score: inf
ROOT
ATOM      1  C   UNL     1     175.080 197.161 183.060  1.00  0.00     0.006 C 
ENDROOT
BRANCH   1   2
ATOM      2  C   UNL     1     173.906 198.125 183.302  1.00  0.00     0.053 C 
BRANCH   2   3
ATOM      3  C   UNL     1     173.329 198.638 182.020  1.00  0.00     0.041 C 
ATOM      4  O   UNL     1     172.858 199.805 181.958  1.00  0.00    -0.550 OA
ATOM      5  O   UNL     1     173.282 197.817 180.900  1.00  0.00    -0.550 OA
ENDBRANCH   2   3
ENDBRANCH   1   2
BRANCH   1   6
ATOM      6  C   UNL     1     176.421 197.856 182.760  1.00  0.00     0.000 C 
BRANCH   6   7
ATOM      7  C   UNL     1     176.922 197.591 181.329  1.00  0.00    -0.000 C 
BRANCH   7   8
ATOM      8  C   UNL     1     176.755 198.814 180.413  1.00  0.00    -0.003 C 
ATOM      9  C   UNL     1     176.629 200.125 181.190  1.00  0.00     0.004 C 
ENDBRANCH   7   8
ENDBRANCH   6   7
ENDBRANCH   1   6
TORSDOF 5
ENDMDL
