MODEL 1
REMARK VINA RESULT:    -3.495      0.000      0.000
REMARK INTER + INTRA:          -9.721
REMARK INTER:                  -6.764
REMARK INTRA:                  -2.957
REMARK UNBOUND:                -2.957
REMARK SMILES CCCCCCCCCCCCCCCCCC(=O)[O-]
REMARK SMILES IDX 10 1 11 2 12 3 13 4 14 5 15 6 16 7 17 8 18 9 19 10 20 11
REMARK SMILES IDX 9 12 8 13 7 14 6 15 5 16 4 17 3 18 2 19 1 20
REMARK H PARENT
REMARK Flexibility Score: inf
ROOT
ATOM      1  C   UNL     1     155.279 134.883 169.453  1.00  0.00     0.000 C 
ENDROOT
BRANCH   1   2
ATOM      2  C   UNL     1     154.966 133.785 170.484  1.00  0.00     0.000 C 
BRANCH   2   3
ATOM      3  C   UNL     1     153.699 132.989 170.131  1.00  0.00     0.000 C 
BRANCH   3   4
ATOM      4  C   UNL     1     152.895 133.637 168.993  1.00  0.00     0.000 C 
BRANCH   4   5
ATOM      5  C   UNL     1     152.128 132.609 168.143  1.00  0.00     0.000 C 
BRANCH   5   6
ATOM      6  C   UNL     1     150.949 133.218 167.354  1.00  0.00     0.000 C 
BRANCH   6   7
ATOM      7  C   UNL     1     150.768 132.557 165.976  1.00  0.00     0.006 C 
BRANCH   7   8
ATOM      8  C   UNL     1     150.614 133.590 164.852  1.00  0.00     0.053 C 
BRANCH   8   9
ATOM      9  C   UNL     1     150.579 132.941 163.503  1.00  0.00     0.041 C 
ATOM     10  O   UNL     1     151.536 132.215 163.124  1.00  0.00    -0.550 OA
ATOM     11  O   UNL     1     149.506 133.166 162.650  1.00  0.00    -0.550 OA
ENDBRANCH   8   9
ENDBRANCH   7   8
ENDBRANCH   6   7
ENDBRANCH   5   6
ENDBRANCH   4   5
ENDBRANCH   3   4
ENDBRANCH   2   3
ENDBRANCH   1   2
BRANCH   1  12
ATOM     12  C   UNL     1     156.733 134.828 168.957  1.00  0.00     0.000 C 
BRANCH  12  13
ATOM     13  C   UNL     1     157.297 133.397 168.943  1.00  0.00    -0.000 C 
BRANCH  13  14
ATOM     14  C   UNL     1     158.000 133.056 167.619  1.00  0.00    -0.000 C 
BRANCH  14  15
ATOM     15  C   UNL     1     157.178 132.089 166.748  1.00  0.00    -0.000 C 
BRANCH  15  16
ATOM     16  C   UNL     1     155.660 132.251 166.949  1.00  0.00    -0.000 C 
BRANCH  16  17
ATOM     17  C   UNL     1     154.815 132.082 165.671  1.00  0.00    -0.000 C 
BRANCH  17  18
ATOM     18  C   UNL     1     154.270 133.391 165.067  1.00  0.00    -0.000 C 
BRANCH  18  19
ATOM     19  C   UNL     1     154.657 134.667 165.836  1.00  0.00    -0.003 C 
ATOM     20  C   UNL     1     153.478 135.612 166.054  1.00  0.00     0.004 C 
ENDBRANCH  18  19
ENDBRANCH  17  18
ENDBRANCH  16  17
ENDBRANCH  15  16
ENDBRANCH  14  15
ENDBRANCH  13  14
ENDBRANCH  12  13
ENDBRANCH   1  12
TORSDOF 16
ENDMDL
MODEL 2
REMARK VINA RESULT:    -3.297      2.401      4.659
REMARK INTER + INTRA:          -9.337
REMARK INTER:                  -7.871
REMARK INTRA:                  -1.466
REMARK UNBOUND:                -2.957
REMARK SMILES CCCCCCCCCCCCCCCCCC(=O)[O-]
REMARK SMILES IDX 10 1 11 2 12 3 13 4 14 5 15 6 16 7 17 8 18 9 19 10 20 11
REMARK SMILES IDX 9 12 8 13 7 14 6 15 5 16 4 17 3 18 2 19 1 20
REMARK H PARENT
REMARK Flexibility Score: inf
ROOT
ATOM      1  C   UNL     1     153.888 132.681 164.474  1.00  0.00     0.000 C 
ENDROOT
BRANCH   1   2
ATOM      2  C   UNL     1     152.895 131.977 163.533  1.00  0.00     0.000 C 
BRANCH   2   3
ATOM      3  C   UNL     1     151.485 131.875 164.136  1.00  0.00     0.000 C 
BRANCH   3   4
ATOM      4  C   UNL     1     150.422 132.570 163.270  1.00  0.00     0.000 C 
BRANCH   4   5
ATOM      5  C   UNL     1     149.681 133.690 164.019  1.00  0.00     0.000 C 
BRANCH   5   6
ATOM      6  C   UNL     1     148.184 133.391 164.253  1.00  0.00     0.000 C 
BRANCH   6   7
ATOM      7  C   UNL     1     147.612 132.429 163.197  1.00  0.00     0.006 C 
BRANCH   7   8
ATOM      8  C   UNL     1     147.217 133.153 161.904  1.00  0.00     0.053 C 
BRANCH   8   9
ATOM      9  C   UNL     1     146.144 134.171 162.143  1.00  0.00     0.041 C 
ATOM     10  O   UNL     1     144.931 133.836 162.093  1.00  0.00    -0.550 OA
ATOM     11  O   UNL     1     146.484 135.495 162.387  1.00  0.00    -0.550 OA
ENDBRANCH   8   9
ENDBRANCH   7   8
ENDBRANCH   6   7
ENDBRANCH   5   6
ENDBRANCH   4   5
ENDBRANCH   3   4
ENDBRANCH   2   3
ENDBRANCH   1   2
BRANCH   1  12
ATOM     12  C   UNL     1     153.474 132.579 165.951  1.00  0.00     0.000 C 
BRANCH  12  13
ATOM     13  C   UNL     1     154.647 132.190 166.867  1.00  0.00    -0.000 C 
BRANCH  13  14
ATOM     14  C   UNL     1     156.005 132.287 166.155  1.00  0.00    -0.000 C 
BRANCH  14  15
ATOM     15  C   UNL     1     157.191 132.103 167.119  1.00  0.00    -0.000 C 
BRANCH  15  16
ATOM     16  C   UNL     1     157.794 133.442 167.582  1.00  0.00    -0.000 C 
BRANCH  16  17
ATOM     17  C   UNL     1     157.069 134.104 168.771  1.00  0.00    -0.000 C 
BRANCH  17  18
ATOM     18  C   UNL     1     156.616 135.558 168.535  1.00  0.00    -0.000 C 
BRANCH  18  19
ATOM     19  C   UNL     1     156.328 135.915 167.066  1.00  0.00    -0.003 C 
ATOM     20  C   UNL     1     154.835 135.989 166.754  1.00  0.00     0.004 C 
ENDBRANCH  18  19
ENDBRANCH  17  18
ENDBRANCH  16  17
ENDBRANCH  15  16
ENDBRANCH  14  15
ENDBRANCH  13  14
ENDBRANCH  12  13
ENDBRANCH   1  12
TORSDOF 16
ENDMDL
MODEL 3
REMARK VINA RESULT:    -3.295      2.205      3.775
REMARK INTER + INTRA:          -9.333
REMARK INTER:                  -7.956
REMARK INTRA:                  -1.377
REMARK UNBOUND:                -2.957
REMARK SMILES CCCCCCCCCCCCCCCCCC(=O)[O-]
REMARK SMILES IDX 10 1 11 2 12 3 13 4 14 5 15 6 16 7 17 8 18 9 19 10 20 11
REMARK SMILES IDX 9 12 8 13 7 14 6 15 5 16 4 17 3 18 2 19 1 20
REMARK H PARENT
REMARK Flexibility Score: inf
ROOT
ATOM      1  C   UNL     1     155.800 132.239 167.097  1.00  0.00     0.000 C 
ENDROOT
BRANCH   1   2
ATOM      2  C   UNL     1     155.170 132.478 165.715  1.00  0.00     0.000 C 
BRANCH   2   3
ATOM      3  C   UNL     1     154.315 133.755 165.671  1.00  0.00     0.000 C 
BRANCH   3   4
ATOM      4  C   UNL     1     152.809 133.455 165.599  1.00  0.00     0.000 C 
BRANCH   4   5
ATOM      5  C   UNL     1     152.508 132.006 165.183  1.00  0.00     0.000 C 
BRANCH   5   6
ATOM      6  C   UNL     1     151.986 131.876 163.735  1.00  0.00     0.000 C 
BRANCH   6   7
ATOM      7  C   UNL     1     150.448 131.877 163.670  1.00  0.00     0.006 C 
BRANCH   7   8
ATOM      8  C   UNL     1     149.892 133.191 163.105  1.00  0.00     0.053 C 
BRANCH   8   9
ATOM      9  C   UNL     1     148.401 133.261 163.226  1.00  0.00     0.041 C 
ATOM     10  O   UNL     1     147.746 132.246 163.584  1.00  0.00    -0.550 OA
ATOM     11  O   UNL     1     147.732 134.437 162.912  1.00  0.00    -0.550 OA
ENDBRANCH   8   9
ENDBRANCH   7   8
ENDBRANCH   6   7
ENDBRANCH   5   6
ENDBRANCH   4   5
ENDBRANCH   3   4
ENDBRANCH   2   3
ENDBRANCH   1   2
BRANCH   1  12
ATOM     12  C   UNL     1     157.336 132.205 167.046  1.00  0.00     0.000 C 
BRANCH  12  13
ATOM     13  C   UNL     1     157.981 132.742 168.336  1.00  0.00    -0.000 C 
BRANCH  13  14
ATOM     14  C   UNL     1     156.942 133.290 169.328  1.00  0.00    -0.000 C 
BRANCH  14  15
ATOM     15  C   UNL     1     157.013 134.821 169.468  1.00  0.00    -0.000 C 
BRANCH  15  16
ATOM     16  C   UNL     1     156.017 135.549 168.547  1.00  0.00    -0.000 C 
BRANCH  16  17
ATOM     17  C   UNL     1     156.650 136.240 167.323  1.00  0.00    -0.000 C 
BRANCH  17  18
ATOM     18  C   UNL     1     156.313 137.736 167.167  1.00  0.00    -0.000 C 
BRANCH  18  19
ATOM     19  C   UNL     1     157.531 138.677 167.178  1.00  0.00    -0.003 C 
ATOM     20  C   UNL     1     157.176 140.113 166.799  1.00  0.00     0.004 C 
ENDBRANCH  18  19
ENDBRANCH  17  18
ENDBRANCH  16  17
ENDBRANCH  15  16
ENDBRANCH  14  15
ENDBRANCH  13  14
ENDBRANCH  12  13
ENDBRANCH   1  12
TORSDOF 16
ENDMDL
MODEL 4
REMARK VINA RESULT:    -3.222      3.973      8.270
REMARK INTER + INTRA:          -9.193
REMARK INTER:                  -7.301
REMARK INTRA:                  -1.892
REMARK UNBOUND:                -2.957
REMARK SMILES CCCCCCCCCCCCCCCCCC(=O)[O-]
REMARK SMILES IDX 10 1 11 2 12 3 13 4 14 5 15 6 16 7 17 8 18 9 19 10 20 11
REMARK SMILES IDX 9 12 8 13 7 14 6 15 5 16 4 17 3 18 2 19 1 20
REMARK H PARENT
REMARK Flexibility Score: inf
ROOT
ATOM      1  C   UNL     1     149.723 134.526 164.597  1.00  0.00     0.000 C 
ENDROOT
BRANCH   1   2
ATOM      2  C   UNL     1     149.955 133.668 165.852  1.00  0.00     0.000 C 
BRANCH   2   3
ATOM      3  C   UNL     1     151.078 132.636 165.660  1.00  0.00     0.000 C 
BRANCH   3   4
ATOM      4  C   UNL     1     151.270 132.240 164.187  1.00  0.00     0.000 C 
BRANCH   4   5
ATOM      5  C   UNL     1     152.748 132.194 163.768  1.00  0.00     0.000 C 
BRANCH   5   6
ATOM      6  C   UNL     1     153.686 132.952 164.732  1.00  0.00     0.000 C 
BRANCH   6   7
ATOM      7  C   UNL     1     154.624 132.003 165.499  1.00  0.00     0.006 C 
BRANCH   7   8
ATOM      8  C   UNL     1     154.598 132.257 167.011  1.00  0.00     0.053 C 
BRANCH   8   9
ATOM      9  C   UNL     1     155.760 133.092 167.454  1.00  0.00     0.041 C 
ATOM     10  O   UNL     1     155.714 134.346 167.353  1.00  0.00    -0.550 OA
ATOM     11  O   UNL     1     156.907 132.482 167.947  1.00  0.00    -0.550 OA
ENDBRANCH   8   9
ENDBRANCH   7   8
ENDBRANCH   6   7
ENDBRANCH   5   6
ENDBRANCH   4   5
ENDBRANCH   3   4
ENDBRANCH   2   3
ENDBRANCH   1   2
BRANCH   1  12
ATOM     12  C   UNL     1     148.279 134.435 164.079  1.00  0.00     0.000 C 
BRANCH  12  13
ATOM     13  C   UNL     1     147.662 133.042 164.298  1.00  0.00    -0.000 C 
BRANCH  13  14
ATOM     14  C   UNL     1     147.527 132.247 162.990  1.00  0.00    -0.000 C 
BRANCH  14  15
ATOM     15  C   UNL     1     147.730 133.126 161.742  1.00  0.00    -0.000 C 
BRANCH  15  16
ATOM     16  C   UNL     1     146.523 133.090 160.788  1.00  0.00    -0.000 C 
BRANCH  16  17
ATOM     17  C   UNL     1     145.147 133.060 161.482  1.00  0.00    -0.000 C 
BRANCH  17  18
ATOM     18  C   UNL     1     144.798 134.319 162.300  1.00  0.00    -0.000 C 
BRANCH  18  19
ATOM     19  C   UNL     1     145.005 135.650 161.556  1.00  0.00    -0.003 C 
ATOM     20  C   UNL     1     145.884 136.632 162.327  1.00  0.00     0.004 C 
ENDBRANCH  18  19
ENDBRANCH  17  18
ENDBRANCH  16  17
ENDBRANCH  15  16
ENDBRANCH  14  15
ENDBRANCH  13  14
ENDBRANCH  12  13
ENDBRANCH   1  12
TORSDOF 16
ENDMDL
MODEL 5
REMARK VINA RESULT:    -3.202      2.831      5.028
REMARK INTER + INTRA:          -9.154
REMARK INTER:                  -7.788
REMARK INTRA:                  -1.366
REMARK UNBOUND:                -2.957
REMARK SMILES CCCCCCCCCCCCCCCCCC(=O)[O-]
REMARK SMILES IDX 10 1 11 2 12 3 13 4 14 5 15 6 16 7 17 8 18 9 19 10 20 11
REMARK SMILES IDX 9 12 8 13 7 14 6 15 5 16 4 17 3 18 2 19 1 20
REMARK H PARENT
REMARK Flexibility Score: inf
ROOT
ATOM      1  C   UNL     1     152.286 132.617 166.111  1.00  0.00     0.000 C 
ENDROOT
BRANCH   1   2
ATOM      2  C   UNL     1     150.977 132.612 165.304  1.00  0.00     0.000 C 
BRANCH   2   3
ATOM      3  C   UNL     1     151.121 133.317 163.946  1.00  0.00     0.000 C 
BRANCH   3   4
ATOM      4  C   UNL     1     149.966 132.988 162.985  1.00  0.00     0.000 C 
BRANCH   4   5
ATOM      5  C   UNL     1     148.785 132.297 163.686  1.00  0.00     0.000 C 
BRANCH   5   6
ATOM      6  C   UNL     1     147.471 132.350 162.876  1.00  0.00     0.000 C 
BRANCH   6   7
ATOM      7  C   UNL     1     147.593 133.242 161.628  1.00  0.00     0.006 C 
BRANCH   7   8
ATOM      8  C   UNL     1     146.440 133.020 160.641  1.00  0.00     0.053 C 
BRANCH   8   9
ATOM      9  C   UNL     1     145.105 133.145 161.309  1.00  0.00     0.041 C 
ATOM     10  O   UNL     1     144.295 132.181 161.290  1.00  0.00    -0.550 OA
ATOM     11  O   UNL     1     144.744 134.337 161.924  1.00  0.00    -0.550 OA
ENDBRANCH   8   9
ENDBRANCH   7   8
ENDBRANCH   6   7
ENDBRANCH   5   6
ENDBRANCH   4   5
ENDBRANCH   3   4
ENDBRANCH   2   3
ENDBRANCH   1   2
BRANCH   1  12
ATOM     12  C   UNL     1     153.430 133.332 165.374  1.00  0.00     0.000 C 
BRANCH  12  13
ATOM     13  C   UNL     1     154.758 132.559 165.457  1.00  0.00    -0.000 C 
BRANCH  13  14
ATOM     14  C   UNL     1     155.205 132.312 166.906  1.00  0.00    -0.000 C 
BRANCH  14  15
ATOM     15  C   UNL     1     156.737 132.304 167.056  1.00  0.00    -0.000 C 
BRANCH  15  16
ATOM     16  C   UNL     1     157.250 133.420 167.984  1.00  0.00    -0.000 C 
BRANCH  16  17
ATOM     17  C   UNL     1     156.295 134.621 168.143  1.00  0.00    -0.000 C 
BRANCH  17  18
ATOM     18  C   UNL     1     156.818 135.954 167.575  1.00  0.00    -0.000 C 
BRANCH  18  19
ATOM     19  C   UNL     1     155.839 136.687 166.642  1.00  0.00    -0.003 C 
ATOM     20  C   UNL     1     154.376 136.400 166.972  1.00  0.00     0.004 C 
ENDBRANCH  18  19
ENDBRANCH  17  18
ENDBRANCH  16  17
ENDBRANCH  15  16
ENDBRANCH  14  15
ENDBRANCH  13  14
ENDBRANCH  12  13
ENDBRANCH   1  12
TORSDOF 16
ENDMDL
MODEL 6
REMARK VINA RESULT:    -3.188      2.202      4.004
REMARK INTER + INTRA:          -9.126
REMARK INTER:                  -7.302
REMARK INTRA:                  -1.824
REMARK UNBOUND:                -2.957
REMARK SMILES CCCCCCCCCCCCCCCCCC(=O)[O-]
REMARK SMILES IDX 10 1 11 2 12 3 13 4 14 5 15 6 16 7 17 8 18 9 19 10 20 11
REMARK SMILES IDX 9 12 8 13 7 14 6 15 5 16 4 17 3 18 2 19 1 20
REMARK H PARENT
REMARK Flexibility Score: inf
ROOT
ATOM      1  C   UNL     1     153.863 131.875 165.414  1.00  0.00     0.000 C 
ENDROOT
BRANCH   1   2
ATOM      2  C   UNL     1     152.980 132.191 166.633  1.00  0.00     0.000 C 
BRANCH   2   3
ATOM      3  C   UNL     1     151.524 132.494 166.243  1.00  0.00     0.000 C 
BRANCH   3   4
ATOM      4  C   UNL     1     151.252 132.251 164.750  1.00  0.00     0.000 C 
BRANCH   4   5
ATOM      5  C   UNL     1     150.595 133.457 164.058  1.00  0.00     0.000 C 
BRANCH   5   6
ATOM      6  C   UNL     1     149.573 133.062 162.970  1.00  0.00     0.000 C 
BRANCH   6   7
ATOM      7  C   UNL     1     148.378 132.283 163.548  1.00  0.00     0.006 C 
BRANCH   7   8
ATOM      8  C   UNL     1     147.173 132.280 162.600  1.00  0.00     0.053 C 
BRANCH   8   9
ATOM      9  C   UNL     1     145.903 132.625 163.315  1.00  0.00     0.041 C 
ATOM     10  O   UNL     1     144.804 132.159 162.914  1.00  0.00    -0.550 OA
ATOM     11  O   UNL     1     145.930 133.487 164.403  1.00  0.00    -0.550 OA
ENDBRANCH   8   9
ENDBRANCH   7   8
ENDBRANCH   6   7
ENDBRANCH   5   6
ENDBRANCH   4   5
ENDBRANCH   3   4
ENDBRANCH   2   3
ENDBRANCH   1   2
BRANCH   1  12
ATOM     12  C   UNL     1     155.321 132.322 165.611  1.00  0.00     0.000 C 
BRANCH  12  13
ATOM     13  C   UNL     1     155.806 132.129 167.058  1.00  0.00    -0.000 C 
BRANCH  13  14
ATOM     14  C   UNL     1     157.337 132.176 167.176  1.00  0.00    -0.000 C 
BRANCH  14  15
ATOM     15  C   UNL     1     157.842 133.502 167.773  1.00  0.00    -0.000 C 
BRANCH  15  16
ATOM     16  C   UNL     1     156.773 134.219 168.617  1.00  0.00    -0.000 C 
BRANCH  16  17
ATOM     17  C   UNL     1     156.412 135.639 168.139  1.00  0.00    -0.000 C 
BRANCH  17  18
ATOM     18  C   UNL     1     155.505 135.701 166.894  1.00  0.00    -0.000 C 
BRANCH  18  19
ATOM     19  C   UNL     1     153.997 135.744 167.196  1.00  0.00    -0.003 C 
ATOM     20  C   UNL     1     153.140 135.828 165.935  1.00  0.00     0.004 C 
ENDBRANCH  18  19
ENDBRANCH  17  18
ENDBRANCH  16  17
ENDBRANCH  15  16
ENDBRANCH  14  15
ENDBRANCH  13  14
ENDBRANCH  12  13
ENDBRANCH   1  12
TORSDOF 16
ENDMDL
MODEL 7
REMARK VINA RESULT:    -3.174      3.106      4.923
REMARK INTER + INTRA:          -9.099
REMARK INTER:                  -7.251
REMARK INTRA:                  -1.848
REMARK UNBOUND:                -2.957
REMARK SMILES CCCCCCCCCCCCCCCCCC(=O)[O-]
REMARK SMILES IDX 10 1 11 2 12 3 13 4 14 5 15 6 16 7 17 8 18 9 19 10 20 11
REMARK SMILES IDX 9 12 8 13 7 14 6 15 5 16 4 17 3 18 2 19 1 20
REMARK H PARENT
REMARK Flexibility Score: inf
ROOT
ATOM      1  C   UNL     1     155.771 135.709 169.158  1.00  0.00     0.000 C 
ENDROOT
BRANCH   1   2
ATOM      2  C   UNL     1     156.996 134.877 169.573  1.00  0.00     0.000 C 
BRANCH   2   3
ATOM      3  C   UNL     1     156.852 133.392 169.205  1.00  0.00     0.000 C 
BRANCH   3   4
ATOM      4  C   UNL     1     157.838 132.957 168.109  1.00  0.00     0.000 C 
BRANCH   4   5
ATOM      5  C   UNL     1     157.147 132.263 166.924  1.00  0.00     0.000 C 
BRANCH   5   6
ATOM      6  C   UNL     1     155.606 132.253 167.028  1.00  0.00     0.000 C 
BRANCH   6   7
ATOM      7  C   UNL     1     154.931 132.113 165.652  1.00  0.00     0.006 C 
BRANCH   7   8
ATOM      8  C   UNL     1     154.086 133.341 165.292  1.00  0.00     0.053 C 
BRANCH   8   9
ATOM      9  C   UNL     1     152.879 132.968 164.487  1.00  0.00     0.041 C 
ATOM     10  O   UNL     1     151.762 133.490 164.741  1.00  0.00    -0.550 OA
ATOM     11  O   UNL     1     152.983 132.019 163.477  1.00  0.00    -0.550 OA
ENDBRANCH   8   9
ENDBRANCH   7   8
ENDBRANCH   6   7
ENDBRANCH   5   6
ENDBRANCH   4   5
ENDBRANCH   3   4
ENDBRANCH   2   3
ENDBRANCH   1   2
BRANCH   1  12
ATOM     12  C   UNL     1     155.627 135.824 167.631  1.00  0.00     0.000 C 
BRANCH  12  13
ATOM     13  C   UNL     1     156.679 136.760 167.010  1.00  0.00    -0.000 C 
BRANCH  13  14
ATOM     14  C   UNL     1     156.891 138.037 167.838  1.00  0.00    -0.000 C 
BRANCH  14  15
ATOM     15  C   UNL     1     157.896 139.003 167.186  1.00  0.00    -0.000 C 
BRANCH  15  16
ATOM     16  C   UNL     1     157.471 140.477 167.309  1.00  0.00    -0.000 C 
BRANCH  16  17
ATOM     17  C   UNL     1     156.422 140.938 166.277  1.00  0.00    -0.000 C 
BRANCH  17  18
ATOM     18  C   UNL     1     156.380 140.118 164.973  1.00  0.00    -0.000 C 
BRANCH  18  19
ATOM     19  C   UNL     1     154.968 139.851 164.424  1.00  0.00    -0.003 C 
ATOM     20  C   UNL     1     154.168 138.876 165.286  1.00  0.00     0.004 C 
ENDBRANCH  18  19
ENDBRANCH  17  18
ENDBRANCH  16  17
ENDBRANCH  15  16
ENDBRANCH  14  15
ENDBRANCH  13  14
ENDBRANCH  12  13
ENDBRANCH   1  12
TORSDOF 16
ENDMDL
MODEL 8
REMARK VINA RESULT:    -3.158      3.867      7.434
REMARK INTER + INTRA:          -9.068
REMARK INTER:                  -7.776
REMARK INTRA:                  -1.292
REMARK UNBOUND:                -2.957
REMARK SMILES CCCCCCCCCCCCCCCCCC(=O)[O-]
REMARK SMILES IDX 10 1 11 2 12 3 13 4 14 5 15 6 16 7 17 8 18 9 19 10 20 11
REMARK SMILES IDX 9 12 8 13 7 14 6 15 5 16 4 17 3 18 2 19 1 20
REMARK H PARENT
REMARK Flexibility Score: inf
ROOT
ATOM      1  C   UNL     1     153.375 133.870 165.861  1.00  0.00     0.000 C 
ENDROOT
BRANCH   1   2
ATOM      2  C   UNL     1     154.413 133.023 165.105  1.00  0.00     0.000 C 
BRANCH   2   3
ATOM      3  C   UNL     1     155.252 132.142 166.045  1.00  0.00     0.000 C 
BRANCH   3   4
ATOM      4  C   UNL     1     155.235 132.648 167.497  1.00  0.00     0.000 C 
BRANCH   4   5
ATOM      5  C   UNL     1     156.641 132.739 168.114  1.00  0.00     0.000 C 
BRANCH   5   6
ATOM      6  C   UNL     1     157.317 134.112 167.909  1.00  0.00     0.000 C 
BRANCH   6   7
ATOM      7  C   UNL     1     156.328 135.279 168.084  1.00  0.00     0.006 C 
BRANCH   7   8
ATOM      8  C   UNL     1     156.290 136.197 166.857  1.00  0.00     0.053 C 
BRANCH   8   9
ATOM      9  C   UNL     1     156.628 137.613 167.212  1.00  0.00     0.041 C 
ATOM     10  O   UNL     1     156.273 138.557 166.458  1.00  0.00    -0.550 OA
ATOM     11  O   UNL     1     157.363 137.886 168.358  1.00  0.00    -0.550 OA
ENDBRANCH   8   9
ENDBRANCH   7   8
ENDBRANCH   6   7
ENDBRANCH   5   6
ENDBRANCH   4   5
ENDBRANCH   3   4
ENDBRANCH   2   3
ENDBRANCH   1   2
BRANCH   1  12
ATOM     12  C   UNL     1     151.941 133.349 165.672  1.00  0.00     0.000 C 
BRANCH  12  13
ATOM     13  C   UNL     1     151.892 132.030 164.881  1.00  0.00    -0.000 C 
BRANCH  13  14
ATOM     14  C   UNL     1     151.224 132.193 163.507  1.00  0.00    -0.000 C 
BRANCH  14  15
ATOM     15  C   UNL     1     150.089 133.232 163.523  1.00  0.00    -0.000 C 
BRANCH  15  16
ATOM     16  C   UNL     1     148.696 132.589 163.646  1.00  0.00    -0.000 C 
BRANCH  16  17
ATOM     17  C   UNL     1     147.636 133.147 162.675  1.00  0.00    -0.000 C 
BRANCH  17  18
ATOM     18  C   UNL     1     147.028 132.115 161.705  1.00  0.00    -0.000 C 
BRANCH  18  19
ATOM     19  C   UNL     1     146.040 132.698 160.678  1.00  0.00    -0.003 C 
ATOM     20  C   UNL     1     144.667 132.033 160.730  1.00  0.00     0.004 C 
ENDBRANCH  18  19
ENDBRANCH  17  18
ENDBRANCH  16  17
ENDBRANCH  15  16
ENDBRANCH  14  15
ENDBRANCH  13  14
ENDBRANCH  12  13
ENDBRANCH   1  12
TORSDOF 16
ENDMDL
MODEL 9
REMARK VINA RESULT:    -3.094      4.451      6.794
REMARK INTER + INTRA:          -8.945
REMARK INTER:                  -7.185
REMARK INTRA:                  -1.760
REMARK UNBOUND:                -2.957
REMARK SMILES CCCCCCCCCCCCCCCCCC(=O)[O-]
REMARK SMILES IDX 10 1 11 2 12 3 13 4 14 5 15 6 16 7 17 8 18 9 19 10 20 11
REMARK SMILES IDX 9 12 8 13 7 14 6 15 5 16 4 17 3 18 2 19 1 20
REMARK H PARENT
REMARK Flexibility Score: inf
ROOT
ATOM      1  C   UNL     1     154.801 135.887 166.380  1.00  0.00     0.000 C 
ENDROOT
BRANCH   1   2
ATOM      2  C   UNL     1     155.916 136.196 167.393  1.00  0.00     0.000 C 
BRANCH   2   3
ATOM      3  C   UNL     1     156.641 137.516 167.087  1.00  0.00     0.000 C 
BRANCH   3   4
ATOM      4  C   UNL     1     156.971 138.316 168.357  1.00  0.00     0.000 C 
BRANCH   4   5
ATOM      5  C   UNL     1     157.268 139.798 168.069  1.00  0.00     0.000 C 
BRANCH   5   6
ATOM      6  C   UNL     1     158.124 140.021 166.804  1.00  0.00     0.000 C 
BRANCH   6   7
ATOM      7  C   UNL     1     157.709 141.290 166.038  1.00  0.00     0.006 C 
BRANCH   7   8
ATOM      8  C   UNL     1     156.192 141.515 166.064  1.00  0.00     0.053 C 
BRANCH   8   9
ATOM      9  C   UNL     1     155.529 140.976 164.834  1.00  0.00     0.041 C 
ATOM     10  O   UNL     1     154.744 141.701 164.168  1.00  0.00    -0.550 OA
ATOM     11  O   UNL     1     155.753 139.662 164.443  1.00  0.00    -0.550 OA
ENDBRANCH   8   9
ENDBRANCH   7   8
ENDBRANCH   6   7
ENDBRANCH   5   6
ENDBRANCH   4   5
ENDBRANCH   3   4
ENDBRANCH   2   3
ENDBRANCH   1   2
BRANCH   1  12
ATOM     12  C   UNL     1     154.201 134.485 166.572  1.00  0.00     0.000 C 
BRANCH  12  13
ATOM     13  C   UNL     1     154.385 133.591 165.334  1.00  0.00    -0.000 C 
BRANCH  13  14
ATOM     14  C   UNL     1     155.007 132.229 165.680  1.00  0.00    -0.000 C 
BRANCH  14  15
ATOM     15  C   UNL     1     155.770 132.253 167.017  1.00  0.00    -0.000 C 
BRANCH  15  16
ATOM     16  C   UNL     1     157.298 132.226 166.830  1.00  0.00    -0.000 C 
BRANCH  16  17
ATOM     17  C   UNL     1     158.098 132.962 167.923  1.00  0.00    -0.000 C 
BRANCH  17  18
ATOM     18  C   UNL     1     157.573 132.773 169.360  1.00  0.00    -0.000 C 
BRANCH  18  19
ATOM     19  C   UNL     1     156.969 134.036 169.998  1.00  0.00    -0.003 C 
ATOM     20  C   UNL     1     155.475 133.900 170.287  1.00  0.00     0.004 C 
ENDBRANCH  18  19
ENDBRANCH  17  18
ENDBRANCH  16  17
ENDBRANCH  15  16
ENDBRANCH  14  15
ENDBRANCH  13  14
ENDBRANCH  12  13
ENDBRANCH   1  12
TORSDOF 16
ENDMDL
