MODEL 1
REMARK VINA RESULT:    -5.601      0.000      0.000
REMARK INTER + INTRA:          -6.693
REMARK INTER:                  -6.747
REMARK INTRA:                   0.054
REMARK UNBOUND:                 0.054
REMARK SMILES O=c1c(O)c(-c2ccc(O)c(O)c2)oc2cc(O)cc(O)c12
REMARK SMILES IDX 5 1 3 2 2 3 1 4 22 5 20 6 19 7 17 8 16 9 15 10 14 11 6 12
REMARK SMILES IDX 7 13 8 14 9 15 13 16 11 17 10 18 12 20 4 22 21 24 18 26
REMARK H PARENT 10 19 12 21 4 23 21 25 18 27
REMARK Flexibility Score: inf
ROOT
ATOM      1  C   UNL     1     -11.438   7.064  -1.681  1.00  0.00     0.180 A 
ATOM      2  C   UNL     1     -11.887   5.770  -2.000  1.00  0.00     0.208 A 
ATOM      3  C   UNL     1     -11.920   5.375  -3.347  1.00  0.00     0.238 A 
ATOM      4  O   UNL     1     -12.373   4.236  -3.631  1.00  0.00    -0.285 OA
ATOM      5  C   UNL     1     -11.490   6.270  -4.355  1.00  0.00     0.111 A 
ATOM      6  C   UNL     1     -11.443   5.961  -5.747  1.00  0.00     0.134 A 
ATOM      7  C   UNL     1     -11.124   6.967  -6.668  1.00  0.00     0.093 A 
ATOM      8  C   UNL     1     -10.786   8.254  -6.241  1.00  0.00     0.123 A 
ATOM      9  C   UNL     1     -10.772   8.549  -4.880  1.00  0.00     0.094 A 
ATOM     10  C   UNL     1     -11.121   7.576  -3.940  1.00  0.00     0.146 A 
ATOM     11  O   UNL     1     -11.104   7.903  -2.654  1.00  0.00    -0.452 OA
ENDROOT
BRANCH   1  12
ATOM     12  C   UNL     1     -11.351   7.545  -0.282  1.00  0.00     0.025 A 
ATOM     13  C   UNL     1     -11.910   8.773   0.104  1.00  0.00     0.016 A 
ATOM     14  C   UNL     1     -11.837   9.194   1.433  1.00  0.00     0.051 A 
ATOM     15  C   UNL     1     -11.219   8.398   2.403  1.00  0.00     0.157 A 
ATOM     16  C   UNL     1     -10.749   6.734   0.692  1.00  0.00     0.062 A 
ATOM     17  C   UNL     1     -10.671   7.148   2.027  1.00  0.00     0.158 A 
BRANCH  15  18
ATOM     18  O   UNL     1     -11.175   8.878   3.712  1.00  0.00    -0.504 OA
ATOM     19  H   UNL     1     -10.387   8.758   4.333  1.00  0.00     0.293 HD
ENDBRANCH  15  18
BRANCH  17  20
ATOM     20  O   UNL     1     -10.046   6.293   2.939  1.00  0.00    -0.504 OA
ATOM     21  H   UNL     1      -9.867   5.315   2.763  1.00  0.00     0.293 HD
ENDBRANCH  17  20
ENDBRANCH   1  12
BRANCH   2  22
ATOM     22  O   UNL     1     -12.327   4.910  -0.991  1.00  0.00    -0.502 OA
ATOM     23  H   UNL     1     -12.853   5.237  -0.189  1.00  0.00     0.293 HD
ENDBRANCH   2  22
BRANCH   6  24
ATOM     24  O   UNL     1     -11.671   4.685  -6.272  1.00  0.00    -0.507 OA
ATOM     25  H   UNL     1     -12.025   4.499  -7.197  1.00  0.00     0.293 HD
ENDBRANCH   6  24
BRANCH   8  26
ATOM     26  O   UNL     1     -10.456   9.244  -7.162  1.00  0.00    -0.508 OA
ATOM     27  H   UNL     1     -11.139   9.611  -7.816  1.00  0.00     0.293 HD
ENDBRANCH   8  26
TORSDOF 6
ENDMDL
MODEL 2
REMARK VINA RESULT:    -5.310      1.523      2.410
REMARK INTER + INTRA:          -6.343
REMARK INTER:                  -6.565
REMARK INTRA:                   0.223
REMARK UNBOUND:                 0.054
REMARK SMILES O=c1c(O)c(-c2ccc(O)c(O)c2)oc2cc(O)cc(O)c12
REMARK SMILES IDX 5 1 3 2 2 3 1 4 22 5 20 6 19 7 17 8 16 9 15 10 14 11 6 12
REMARK SMILES IDX 7 13 8 14 9 15 13 16 11 17 10 18 12 20 4 22 21 24 18 26
REMARK H PARENT 10 19 12 21 4 23 21 25 18 27
REMARK Flexibility Score: inf
ROOT
ATOM      1  C   UNL     1     -11.786   7.419  -0.704  1.00  0.00     0.180 A 
ATOM      2  C   UNL     1     -12.339   6.140  -0.518  1.00  0.00     0.208 A 
ATOM      3  C   UNL     1     -12.386   5.254  -1.605  1.00  0.00     0.238 A 
ATOM      4  O   UNL     1     -12.930   4.130  -1.446  1.00  0.00    -0.285 OA
ATOM      5  C   UNL     1     -11.865   5.650  -2.861  1.00  0.00     0.111 A 
ATOM      6  C   UNL     1     -11.825   4.820  -4.020  1.00  0.00     0.134 A 
ATOM      7  C   UNL     1     -11.407   5.360  -5.243  1.00  0.00     0.093 A 
ATOM      8  C   UNL     1     -10.968   6.684  -5.333  1.00  0.00     0.123 A 
ATOM      9  C   UNL     1     -10.949   7.484  -4.194  1.00  0.00     0.094 A 
ATOM     10  C   UNL     1     -11.393   6.984  -2.968  1.00  0.00     0.146 A 
ATOM     11  O   UNL     1     -11.367   7.785  -1.910  1.00  0.00    -0.452 OA
ENDROOT
BRANCH   1  12
ATOM     12  C   UNL     1     -11.679   8.400   0.401  1.00  0.00     0.025 A 
ATOM     13  C   UNL     1     -11.488   7.988   1.729  1.00  0.00     0.016 A 
ATOM     14  C   UNL     1     -11.365   8.931   2.750  1.00  0.00     0.051 A 
ATOM     15  C   UNL     1     -11.418  10.300   2.468  1.00  0.00     0.157 A 
ATOM     16  C   UNL     1     -11.711   9.773   0.112  1.00  0.00     0.062 A 
ATOM     17  C   UNL     1     -11.589  10.727   1.130  1.00  0.00     0.158 A 
BRANCH  15  18
ATOM     18  O   UNL     1     -11.294  11.192   3.535  1.00  0.00    -0.504 OA
ATOM     19  H   UNL     1     -12.000  11.328   4.244  1.00  0.00     0.293 HD
ENDBRANCH  15  18
BRANCH  17  20
ATOM     20  O   UNL     1     -11.643  12.076   0.769  1.00  0.00    -0.504 OA
ATOM     21  H   UNL     1     -11.018  12.506   0.102  1.00  0.00     0.293 HD
ENDBRANCH  17  20
ENDBRANCH   1  12
BRANCH   2  22
ATOM     22  O   UNL     1     -12.865   5.777   0.725  1.00  0.00    -0.502 OA
ATOM     23  H   UNL     1     -13.843   5.545   0.854  1.00  0.00     0.293 HD
ENDBRANCH   2  22
BRANCH   6  24
ATOM     24  O   UNL     1     -12.153   3.461  -4.018  1.00  0.00    -0.507 OA
ATOM     25  H   UNL     1     -12.307   2.907  -3.189  1.00  0.00     0.293 HD
ENDBRANCH   6  24
BRANCH   8  26
ATOM     26  O   UNL     1     -10.540   7.208  -6.550  1.00  0.00    -0.508 OA
ATOM     27  H   UNL     1     -10.515   8.208  -6.717  1.00  0.00     0.293 HD
ENDBRANCH   8  26
TORSDOF 6
ENDMDL
MODEL 3
REMARK VINA RESULT:    -5.162      1.357      6.527
REMARK INTER + INTRA:          -6.164
REMARK INTER:                  -6.103
REMARK INTRA:                  -0.061
REMARK UNBOUND:                 0.054
REMARK SMILES O=c1c(O)c(-c2ccc(O)c(O)c2)oc2cc(O)cc(O)c12
REMARK SMILES IDX 5 1 3 2 2 3 1 4 22 5 20 6 19 7 17 8 16 9 15 10 14 11 6 12
REMARK SMILES IDX 7 13 8 14 9 15 13 16 11 17 10 18 12 20 4 22 21 24 18 26
REMARK H PARENT 10 19 12 21 4 23 21 25 18 27
REMARK Flexibility Score: inf
ROOT
ATOM      1  C   UNL     1     -11.220   7.546  -3.603  1.00  0.00     0.180 A 
ATOM      2  C   UNL     1     -11.830   6.287  -3.738  1.00  0.00     0.208 A 
ATOM      3  C   UNL     1     -12.203   5.584  -2.582  1.00  0.00     0.238 A 
ATOM      4  O   UNL     1     -12.699   4.434  -2.707  1.00  0.00    -0.285 OA
ATOM      5  C   UNL     1     -11.978   6.155  -1.306  1.00  0.00     0.111 A 
ATOM      6  C   UNL     1     -12.352   5.549  -0.069  1.00  0.00     0.134 A 
ATOM      7  C   UNL     1     -11.962   6.145   1.137  1.00  0.00     0.093 A 
ATOM      8  C   UNL     1     -11.268   7.357   1.151  1.00  0.00     0.123 A 
ATOM      9  C   UNL     1     -10.950   7.985  -0.050  1.00  0.00     0.094 A 
ATOM     10  C   UNL     1     -11.294   7.398  -1.270  1.00  0.00     0.146 A 
ATOM     11  O   UNL     1     -10.962   8.025  -2.392  1.00  0.00    -0.452 OA
ENDROOT
BRANCH   1  12
ATOM     12  C   UNL     1     -10.821   8.358  -4.776  1.00  0.00     0.025 A 
ATOM     13  C   UNL     1     -11.291   9.669  -4.951  1.00  0.00     0.016 A 
ATOM     14  C   UNL     1     -10.882  10.424  -6.052  1.00  0.00     0.051 A 
ATOM     15  C   UNL     1      -9.990   9.895  -6.990  1.00  0.00     0.157 A 
ATOM     16  C   UNL     1      -9.909   7.832  -5.703  1.00  0.00     0.062 A 
ATOM     17  C   UNL     1      -9.493   8.582  -6.811  1.00  0.00     0.158 A 
BRANCH  15  18
ATOM     18  O   UNL     1      -9.623  10.699  -8.070  1.00  0.00    -0.504 OA
ATOM     19  H   UNL     1     -10.194  11.448  -8.436  1.00  0.00     0.293 HD
ENDBRANCH  15  18
BRANCH  17  20
ATOM     20  O   UNL     1      -8.592   7.988  -7.699  1.00  0.00    -0.504 OA
ATOM     21  H   UNL     1      -7.656   8.328  -7.865  1.00  0.00     0.293 HD
ENDBRANCH  17  20
ENDBRANCH   1  12
BRANCH   2  22
ATOM     22  O   UNL     1     -12.024   5.732  -5.006  1.00  0.00    -0.502 OA
ATOM     23  H   UNL     1     -12.473   4.834  -5.144  1.00  0.00     0.293 HD
ENDBRANCH   2  22
BRANCH   6  24
ATOM     24  O   UNL     1     -13.125   4.388   0.029  1.00  0.00    -0.507 OA
ATOM     25  H   UNL     1     -13.904   4.163  -0.571  1.00  0.00     0.293 HD
ENDBRANCH   6  24
BRANCH   8  26
ATOM     26  O   UNL     1     -10.898   7.950   2.355  1.00  0.00    -0.508 OA
ATOM     27  H   UNL     1     -11.579   8.155   3.077  1.00  0.00     0.293 HD
ENDBRANCH   8  26
TORSDOF 6
ENDMDL
MODEL 4
REMARK VINA RESULT:    -5.087      1.548      7.221
REMARK INTER + INTRA:          -6.074
REMARK INTER:                  -6.032
REMARK INTRA:                  -0.042
REMARK UNBOUND:                 0.054
REMARK SMILES O=c1c(O)c(-c2ccc(O)c(O)c2)oc2cc(O)cc(O)c12
REMARK SMILES IDX 5 1 3 2 2 3 1 4 22 5 20 6 19 7 17 8 16 9 15 10 14 11 6 12
REMARK SMILES IDX 7 13 8 14 9 15 13 16 11 17 10 18 12 20 4 22 21 24 18 26
REMARK H PARENT 10 19 12 21 4 23 21 25 18 27
REMARK Flexibility Score: inf
ROOT
ATOM      1  C   UNL     1     -11.819   7.271  -1.624  1.00  0.00     0.180 A 
ATOM      2  C   UNL     1     -12.469   8.516  -1.590  1.00  0.00     0.208 A 
ATOM      3  C   UNL     1     -12.481   9.246  -0.391  1.00  0.00     0.238 A 
ATOM      4  O   UNL     1     -13.110  10.336  -0.353  1.00  0.00    -0.285 OA
ATOM      5  C   UNL     1     -11.828   8.730   0.754  1.00  0.00     0.111 A 
ATOM      6  C   UNL     1     -11.742   9.402   2.010  1.00  0.00     0.134 A 
ATOM      7  C   UNL     1     -11.186   8.740   3.112  1.00  0.00     0.093 A 
ATOM      8  C   UNL     1     -10.653   7.454   2.985  1.00  0.00     0.123 A 
ATOM      9  C   UNL     1     -10.680   6.814   1.750  1.00  0.00     0.094 A 
ATOM     10  C   UNL     1     -11.261   7.434   0.641  1.00  0.00     0.146 A 
ATOM     11  O   UNL     1     -11.274   6.784  -0.516  1.00  0.00    -0.452 OA
ENDROOT
BRANCH   1  12
ATOM     12  C   UNL     1     -11.743   6.454  -2.858  1.00  0.00     0.025 A 
ATOM     13  C   UNL     1     -12.230   5.138  -2.894  1.00  0.00     0.016 A 
ATOM     14  C   UNL     1     -12.170   4.396  -4.075  1.00  0.00     0.051 A 
ATOM     15  C   UNL     1     -11.637   4.952  -5.242  1.00  0.00     0.157 A 
ATOM     16  C   UNL     1     -11.228   7.022  -4.032  1.00  0.00     0.062 A 
ATOM     17  C   UNL     1     -11.163   6.285  -5.222  1.00  0.00     0.158 A 
BRANCH  15  18
ATOM     18  O   UNL     1     -11.601   4.156  -6.388  1.00  0.00    -0.504 OA
ATOM     19  H   UNL     1     -11.071   3.301  -6.466  1.00  0.00     0.293 HD
ENDBRANCH  15  18
BRANCH  17  20
ATOM     20  O   UNL     1     -10.625   6.913  -6.348  1.00  0.00    -0.504 OA
ATOM     21  H   UNL     1     -10.023   6.453  -7.016  1.00  0.00     0.293 HD
ENDBRANCH  17  20
ENDBRANCH   1  12
BRANCH   2  22
ATOM     22  O   UNL     1     -13.125   8.998  -2.727  1.00  0.00    -0.502 OA
ATOM     23  H   UNL     1     -12.856   8.725  -3.665  1.00  0.00     0.293 HD
ENDBRANCH   2  22
BRANCH   6  24
ATOM     24  O   UNL     1     -12.160  10.720   2.220  1.00  0.00    -0.507 OA
ATOM     25  H   UNL     1     -12.891  10.998   2.856  1.00  0.00     0.293 HD
ENDBRANCH   6  24
BRANCH   8  26
ATOM     26  O   UNL     1     -10.088   6.810   4.082  1.00  0.00    -0.508 OA
ATOM     27  H   UNL     1      -9.093   6.858   4.272  1.00  0.00     0.293 HD
ENDBRANCH   8  26
TORSDOF 6
ENDMDL
MODEL 5
REMARK VINA RESULT:    -5.082      2.747      6.075
REMARK INTER + INTRA:          -6.068
REMARK INTER:                  -5.865
REMARK INTRA:                  -0.203
REMARK UNBOUND:                 0.054
REMARK SMILES O=c1c(O)c(-c2ccc(O)c(O)c2)oc2cc(O)cc(O)c12
REMARK SMILES IDX 5 1 3 2 2 3 1 4 22 5 20 6 19 7 17 8 16 9 15 10 14 11 6 12
REMARK SMILES IDX 7 13 8 14 9 15 13 16 11 17 10 18 12 20 4 22 21 24 18 26
REMARK H PARENT 10 19 12 21 4 23 21 25 18 27
REMARK Flexibility Score: inf
ROOT
ATOM      1  C   UNL     1     -12.162   5.809  -2.814  1.00  0.00     0.180 A 
ATOM      2  C   UNL     1     -12.407   5.850  -1.431  1.00  0.00     0.208 A 
ATOM      3  C   UNL     1     -12.704   4.655  -0.756  1.00  0.00     0.238 A 
ATOM      4  O   UNL     1     -12.976   4.706   0.472  1.00  0.00    -0.285 OA
ATOM      5  C   UNL     1     -12.737   3.433  -1.469  1.00  0.00     0.111 A 
ATOM      6  C   UNL     1     -12.988   2.157  -0.880  1.00  0.00     0.134 A 
ATOM      7  C   UNL     1     -13.125   1.032  -1.702  1.00  0.00     0.093 A 
ATOM      8  C   UNL     1     -12.956   1.125  -3.086  1.00  0.00     0.123 A 
ATOM      9  C   UNL     1     -12.653   2.355  -3.663  1.00  0.00     0.094 A 
ATOM     10  C   UNL     1     -12.545   3.502  -2.873  1.00  0.00     0.146 A 
ATOM     11  O   UNL     1     -12.264   4.657  -3.466  1.00  0.00    -0.452 OA
ENDROOT
BRANCH   1  12
ATOM     12  C   UNL     1     -11.818   7.023  -3.590  1.00  0.00     0.025 A 
ATOM     13  C   UNL     1     -12.757   8.043  -3.806  1.00  0.00     0.016 A 
ATOM     14  C   UNL     1     -12.403   9.189  -4.520  1.00  0.00     0.051 A 
ATOM     15  C   UNL     1     -11.106   9.347  -5.020  1.00  0.00     0.157 A 
ATOM     16  C   UNL     1     -10.510   7.188  -4.072  1.00  0.00     0.062 A 
ATOM     17  C   UNL     1     -10.145   8.334  -4.790  1.00  0.00     0.158 A 
BRANCH  15  18
ATOM     18  O   UNL     1     -10.817  10.514  -5.730  1.00  0.00    -0.504 OA
ATOM     19  H   UNL     1     -11.074  10.668  -6.694  1.00  0.00     0.293 HD
ENDBRANCH  15  18
BRANCH  17  20
ATOM     20  O   UNL     1      -8.829   8.423  -5.250  1.00  0.00    -0.504 OA
ATOM     21  H   UNL     1      -8.282   9.272  -5.233  1.00  0.00     0.293 HD
ENDBRANCH  17  20
ENDBRANCH   1  12
BRANCH   2  22
ATOM     22  O   UNL     1     -12.391   7.071  -0.750  1.00  0.00    -0.502 OA
ATOM     23  H   UNL     1     -11.726   7.273  -0.013  1.00  0.00     0.293 HD
ENDBRANCH   2  22
BRANCH   6  24
ATOM     24  O   UNL     1     -13.081   1.939   0.498  1.00  0.00    -0.507 OA
ATOM     25  H   UNL     1     -13.862   2.215   1.073  1.00  0.00     0.293 HD
ENDBRANCH   6  24
BRANCH   8  26
ATOM     26  O   UNL     1     -13.079  -0.002  -3.894  1.00  0.00    -0.508 OA
ATOM     27  H   UNL     1     -13.160  -0.932  -3.499  1.00  0.00     0.293 HD
ENDBRANCH   8  26
TORSDOF 6
ENDMDL
MODEL 6
REMARK VINA RESULT:    -5.060      4.345      6.657
REMARK INTER + INTRA:          -6.041
REMARK INTER:                  -6.302
REMARK INTRA:                   0.261
REMARK UNBOUND:                 0.054
REMARK SMILES O=c1c(O)c(-c2ccc(O)c(O)c2)oc2cc(O)cc(O)c12
REMARK SMILES IDX 5 1 3 2 2 3 1 4 22 5 20 6 19 7 17 8 16 9 15 10 14 11 6 12
REMARK SMILES IDX 7 13 8 14 9 15 13 16 11 17 10 18 12 20 4 22 21 24 18 26
REMARK H PARENT 10 19 12 21 4 23 21 25 18 27
REMARK Flexibility Score: inf
ROOT
ATOM      1  C   UNL     1     -12.573   2.211  -1.871  1.00  0.00     0.180 A 
ATOM      2  C   UNL     1     -12.828   3.078  -0.795  1.00  0.00     0.208 A 
ATOM      3  C   UNL     1     -12.770   4.464  -1.010  1.00  0.00     0.238 A 
ATOM      4  O   UNL     1     -12.947   5.235  -0.031  1.00  0.00    -0.285 OA
ATOM      5  C   UNL     1     -12.474   4.967  -2.300  1.00  0.00     0.111 A 
ATOM      6  C   UNL     1     -12.428   6.352  -2.640  1.00  0.00     0.134 A 
ATOM      7  C   UNL     1     -11.997   6.736  -3.916  1.00  0.00     0.093 A 
ATOM      8  C   UNL     1     -11.671   5.782  -4.884  1.00  0.00     0.123 A 
ATOM      9  C   UNL     1     -11.770   4.427  -4.579  1.00  0.00     0.094 A 
ATOM     10  C   UNL     1     -12.163   4.014  -3.304  1.00  0.00     0.146 A 
ATOM     11  O   UNL     1     -12.233   2.712  -3.053  1.00  0.00    -0.452 OA
ENDROOT
BRANCH   1  12
ATOM     12  C   UNL     1     -12.640   0.738  -1.730  1.00  0.00     0.025 A 
ATOM     13  C   UNL     1     -13.064  -0.080  -2.789  1.00  0.00     0.016 A 
ATOM     14  C   UNL     1     -13.095  -1.468  -2.640  1.00  0.00     0.051 A 
ATOM     15  C   UNL     1     -12.696  -2.067  -1.441  1.00  0.00     0.157 A 
ATOM     16  C   UNL     1     -12.219   0.139  -0.533  1.00  0.00     0.062 A 
ATOM     17  C   UNL     1     -12.247  -1.253  -0.374  1.00  0.00     0.158 A 
BRANCH  15  18
ATOM     18  O   UNL     1     -12.755  -3.459  -1.355  1.00  0.00    -0.504 OA
ATOM     19  H   UNL     1     -13.368  -3.961  -0.728  1.00  0.00     0.293 HD
ENDBRANCH  15  18
BRANCH  17  20
ATOM     20  O   UNL     1     -11.824  -1.778   0.850  1.00  0.00    -0.504 OA
ATOM     21  H   UNL     1     -12.423  -2.292   1.480  1.00  0.00     0.293 HD
ENDBRANCH  17  20
ENDBRANCH   1  12
BRANCH   2  22
ATOM     22  O   UNL     1     -13.099   2.562   0.475  1.00  0.00    -0.502 OA
ATOM     23  H   UNL     1     -12.590   2.855   1.300  1.00  0.00     0.293 HD
ENDBRANCH   2  22
BRANCH   6  24
ATOM     24  O   UNL     1     -12.820   7.380  -1.778  1.00  0.00    -0.507 OA
ATOM     25  H   UNL     1     -13.568   8.031  -1.962  1.00  0.00     0.293 HD
ENDBRANCH   6  24
BRANCH   8  26
ATOM     26  O   UNL     1     -11.258   6.173  -6.154  1.00  0.00    -0.508 OA
ATOM     27  H   UNL     1     -11.791   6.835  -6.706  1.00  0.00     0.293 HD
ENDBRANCH   8  26
TORSDOF 6
ENDMDL
MODEL 7
REMARK VINA RESULT:    -4.965      1.546      3.401
REMARK INTER + INTRA:          -5.926
REMARK INTER:                  -5.952
REMARK INTRA:                   0.026
REMARK UNBOUND:                 0.054
REMARK SMILES O=c1c(O)c(-c2ccc(O)c(O)c2)oc2cc(O)cc(O)c12
REMARK SMILES IDX 5 1 3 2 2 3 1 4 22 5 20 6 19 7 17 8 16 9 15 10 14 11 6 12
REMARK SMILES IDX 7 13 8 14 9 15 13 16 11 17 10 18 12 20 4 22 21 24 18 26
REMARK H PARENT 10 19 12 21 4 23 21 25 18 27
REMARK Flexibility Score: inf
ROOT
ATOM      1  C   UNL     1     -11.658   6.503  -1.663  1.00  0.00     0.180 A 
ATOM      2  C   UNL     1     -11.395   7.131  -2.893  1.00  0.00     0.208 A 
ATOM      3  C   UNL     1     -11.582   6.406  -4.080  1.00  0.00     0.238 A 
ATOM      4  O   UNL     1     -11.294   6.956  -5.175  1.00  0.00    -0.285 OA
ATOM      5  C   UNL     1     -12.046   5.070  -4.026  1.00  0.00     0.111 A 
ATOM      6  C   UNL     1     -12.309   4.256  -5.167  1.00  0.00     0.134 A 
ATOM      7  C   UNL     1     -12.641   2.906  -4.992  1.00  0.00     0.093 A 
ATOM      8  C   UNL     1     -12.781   2.359  -3.714  1.00  0.00     0.123 A 
ATOM      9  C   UNL     1     -12.583   3.162  -2.594  1.00  0.00     0.094 A 
ATOM     10  C   UNL     1     -12.217   4.502  -2.736  1.00  0.00     0.146 A 
ATOM     11  O   UNL     1     -12.029   5.228  -1.641  1.00  0.00    -0.452 OA
ENDROOT
BRANCH   1  12
ATOM     12  C   UNL     1     -11.508   7.209  -0.369  1.00  0.00     0.025 A 
ATOM     13  C   UNL     1     -12.024   8.500  -0.177  1.00  0.00     0.016 A 
ATOM     14  C   UNL     1     -11.892   9.136   1.059  1.00  0.00     0.051 A 
ATOM     15  C   UNL     1     -11.255   8.496   2.127  1.00  0.00     0.157 A 
ATOM     16  C   UNL     1     -10.888   6.556   0.707  1.00  0.00     0.062 A 
ATOM     17  C   UNL     1     -10.750   7.187   1.950  1.00  0.00     0.158 A 
BRANCH  15  18
ATOM     18  O   UNL     1     -11.151   9.188   3.335  1.00  0.00    -0.504 OA
ATOM     19  H   UNL     1     -11.943   9.507   3.874  1.00  0.00     0.293 HD
ENDBRANCH  15  18
BRANCH  17  20
ATOM     20  O   UNL     1     -10.110   6.480   2.972  1.00  0.00    -0.504 OA
ATOM     21  H   UNL     1      -9.523   6.909   3.672  1.00  0.00     0.293 HD
ENDBRANCH  17  20
ENDBRANCH   1  12
BRANCH   2  22
ATOM     22  O   UNL     1     -10.917   8.444  -2.923  1.00  0.00    -0.502 OA
ATOM     23  H   UNL     1     -11.382   9.179  -3.443  1.00  0.00     0.293 HD
ENDBRANCH   2  22
BRANCH   6  24
ATOM     24  O   UNL     1     -12.288   4.728  -6.484  1.00  0.00    -0.507 OA
ATOM     25  H   UNL     1     -12.902   4.410  -7.218  1.00  0.00     0.293 HD
ENDBRANCH   6  24
BRANCH   8  26
ATOM     26  O   UNL     1     -13.125   1.020  -3.549  1.00  0.00    -0.508 OA
ATOM     27  H   UNL     1     -12.966   0.337  -4.281  1.00  0.00     0.293 HD
ENDBRANCH   8  26
TORSDOF 6
ENDMDL
MODEL 8
REMARK VINA RESULT:    -4.921      2.112      3.455
REMARK INTER + INTRA:          -5.874
REMARK INTER:                  -5.586
REMARK INTRA:                  -0.287
REMARK UNBOUND:                 0.054
REMARK SMILES O=c1c(O)c(-c2ccc(O)c(O)c2)oc2cc(O)cc(O)c12
REMARK SMILES IDX 5 1 3 2 2 3 1 4 22 5 20 6 19 7 17 8 16 9 15 10 14 11 6 12
REMARK SMILES IDX 7 13 8 14 9 15 13 16 11 17 10 18 12 20 4 22 21 24 18 26
REMARK H PARENT 10 19 12 21 4 23 21 25 18 27
REMARK Flexibility Score: inf
ROOT
ATOM      1  C   UNL     1     -11.850   7.698  -1.828  1.00  0.00     0.180 A 
ATOM      2  C   UNL     1     -12.520   8.928  -1.712  1.00  0.00     0.208 A 
ATOM      3  C   UNL     1     -12.538   9.799  -2.812  1.00  0.00     0.238 A 
ATOM      4  O   UNL     1     -13.094  10.922  -2.685  1.00  0.00    -0.285 OA
ATOM      5  C   UNL     1     -11.901   9.425  -4.019  1.00  0.00     0.111 A 
ATOM      6  C   UNL     1     -11.891  10.212  -5.209  1.00  0.00     0.134 A 
ATOM      7  C   UNL     1     -11.119   9.802  -6.303  1.00  0.00     0.093 A 
ATOM      8  C   UNL     1     -10.408   8.599  -6.272  1.00  0.00     0.123 A 
ATOM      9  C   UNL     1     -10.460   7.795  -5.137  1.00  0.00     0.094 A 
ATOM     10  C   UNL     1     -11.192   8.196  -4.017  1.00  0.00     0.146 A 
ATOM     11  O   UNL     1     -11.206   7.403  -2.952  1.00  0.00    -0.452 OA
ENDROOT
BRANCH   1  12
ATOM     12  C   UNL     1     -11.808   6.715  -0.721  1.00  0.00     0.025 A 
ATOM     13  C   UNL     1     -12.628   5.576  -0.723  1.00  0.00     0.016 A 
ATOM     14  C   UNL     1     -12.553   4.651   0.320  1.00  0.00     0.051 A 
ATOM     15  C   UNL     1     -11.655   4.836   1.376  1.00  0.00     0.157 A 
ATOM     16  C   UNL     1     -10.891   6.892   0.326  1.00  0.00     0.062 A 
ATOM     17  C   UNL     1     -10.809   5.970   1.377  1.00  0.00     0.158 A 
BRANCH  15  18
ATOM     18  O   UNL     1     -11.633   3.877   2.391  1.00  0.00    -0.504 OA
ATOM     19  H   UNL     1     -12.080   3.993   3.289  1.00  0.00     0.293 HD
ENDBRANCH  15  18
BRANCH  17  20
ATOM     20  O   UNL     1      -9.880   6.218   2.392  1.00  0.00    -0.504 OA
ATOM     21  H   UNL     1     -10.006   6.913   3.113  1.00  0.00     0.293 HD
ENDBRANCH  17  20
ENDBRANCH   1  12
BRANCH   2  22
ATOM     22  O   UNL     1     -13.125   9.287  -0.504  1.00  0.00    -0.502 OA
ATOM     23  H   UNL     1     -13.320   8.613   0.227  1.00  0.00     0.293 HD
ENDBRANCH   2  22
BRANCH   6  24
ATOM     24  O   UNL     1     -12.640  11.382  -5.377  1.00  0.00    -0.507 OA
ATOM     25  H   UNL     1     -12.617  11.965  -6.199  1.00  0.00     0.293 HD
ENDBRANCH   6  24
BRANCH   8  26
ATOM     26  O   UNL     1      -9.655   8.191  -7.370  1.00  0.00    -0.508 OA
ATOM     27  H   UNL     1      -8.747   8.595  -7.571  1.00  0.00     0.293 HD
ENDBRANCH   8  26
TORSDOF 6
ENDMDL
MODEL 9
REMARK VINA RESULT:    -4.920      2.777      6.468
REMARK INTER + INTRA:          -5.872
REMARK INTER:                  -5.962
REMARK INTRA:                   0.090
REMARK UNBOUND:                 0.054
REMARK SMILES O=c1c(O)c(-c2ccc(O)c(O)c2)oc2cc(O)cc(O)c12
REMARK SMILES IDX 5 1 3 2 2 3 1 4 22 5 20 6 19 7 17 8 16 9 15 10 14 11 6 12
REMARK SMILES IDX 7 13 8 14 9 15 13 16 11 17 10 18 12 20 4 22 21 24 18 26
REMARK H PARENT 10 19 12 21 4 23 21 25 18 27
REMARK Flexibility Score: inf
ROOT
ATOM      1  C   UNL     1     -12.068   6.233  -0.198  1.00  0.00     0.180 A 
ATOM      2  C   UNL     1     -11.475   6.213   1.076  1.00  0.00     0.208 A 
ATOM      3  C   UNL     1     -11.286   7.425   1.758  1.00  0.00     0.238 A 
ATOM      4  O   UNL     1     -10.707   7.406   2.875  1.00  0.00    -0.285 OA
ATOM      5  C   UNL     1     -11.706   8.640   1.165  1.00  0.00     0.111 A 
ATOM      6  C   UNL     1     -11.600   9.922   1.783  1.00  0.00     0.134 A 
ATOM      7  C   UNL     1     -11.928  11.071   1.051  1.00  0.00     0.093 A 
ATOM      8  C   UNL     1     -12.419  10.977  -0.254  1.00  0.00     0.123 A 
ATOM      9  C   UNL     1     -12.582   9.727  -0.843  1.00  0.00     0.094 A 
ATOM     10  C   UNL     1     -12.229   8.565  -0.152  1.00  0.00     0.146 A 
ATOM     11  O   UNL     1     -12.391   7.394  -0.755  1.00  0.00    -0.452 OA
ENDROOT
BRANCH   1  12
ATOM     12  C   UNL     1     -12.323   4.993  -0.969  1.00  0.00     0.025 A 
ATOM     13  C   UNL     1     -12.822   3.837  -0.348  1.00  0.00     0.016 A 
ATOM     14  C   UNL     1     -13.078   2.688  -1.099  1.00  0.00     0.051 A 
ATOM     15  C   UNL     1     -12.854   2.672  -2.480  1.00  0.00     0.157 A 
ATOM     16  C   UNL     1     -12.118   4.987  -2.356  1.00  0.00     0.062 A 
ATOM     17  C   UNL     1     -12.371   3.839  -3.118  1.00  0.00     0.158 A 
BRANCH  15  18
ATOM     18  O   UNL     1     -13.125   1.491  -3.172  1.00  0.00    -0.504 OA
ATOM     19  H   UNL     1     -13.895   0.874  -2.958  1.00  0.00     0.293 HD
ENDBRANCH  15  18
BRANCH  17  20
ATOM     20  O   UNL     1     -12.132   3.904  -4.493  1.00  0.00    -0.504 OA
ATOM     21  H   UNL     1     -11.684   4.685  -4.952  1.00  0.00     0.293 HD
ENDBRANCH  17  20
ENDBRANCH   1  12
BRANCH   2  22
ATOM     22  O   UNL     1     -11.049   5.004   1.634  1.00  0.00    -0.502 OA
ATOM     23  H   UNL     1     -10.095   4.673   1.549  1.00  0.00     0.293 HD
ENDBRANCH   2  22
BRANCH   6  24
ATOM     24  O   UNL     1     -11.209  10.119   3.111  1.00  0.00    -0.507 OA
ATOM     25  H   UNL     1     -11.650   9.690   3.910  1.00  0.00     0.293 HD
ENDBRANCH   6  24
BRANCH   8  26
ATOM     26  O   UNL     1     -12.757  12.124  -0.969  1.00  0.00    -0.508 OA
ATOM     27  H   UNL     1     -13.076  12.965  -0.503  1.00  0.00     0.293 HD
ENDBRANCH   8  26
TORSDOF 6
ENDMDL
