MODEL 1
REMARK VINA RESULT:     4.997      0.000      0.000
REMARK INTER + INTRA:           6.823
REMARK INTER:                   7.042
REMARK INTRA:                  -0.219
REMARK UNBOUND:                -0.219
REMARK SMILES CCCCCCCCC(=O)[O-]
REMARK SMILES IDX 6 1 7 2 8 3 9 4 10 5 11 6 5 7 4 8 3 9 2 10 1 11
REMARK H PARENT
REMARK Flexibility Score: inf
ROOT
ATOM      1  C   UNL     1     -11.800  -1.129 -17.854  1.00  0.00     0.000 C 
ENDROOT
BRANCH   1   2
ATOM      2  C   UNL     1     -12.338   0.239 -18.309  1.00  0.00     0.006 C 
BRANCH   2   3
ATOM      3  C   UNL     1     -12.579   1.188 -17.128  1.00  0.00     0.053 C 
BRANCH   3   4
ATOM      4  C   UNL     1     -12.335   2.616 -17.506  1.00  0.00     0.041 C 
ATOM      5  O   UNL     1     -12.926   3.120 -18.497  1.00  0.00    -0.550 OA
ATOM      6  O   UNL     1     -11.480   3.402 -16.742  1.00  0.00    -0.550 OA
ENDBRANCH   3   4
ENDBRANCH   2   3
ENDBRANCH   1   2
BRANCH   1   7
ATOM      7  C   UNL     1     -10.319  -1.333 -18.212  1.00  0.00     0.000 C 
BRANCH   7   8
ATOM      8  C   UNL     1      -9.371  -0.739 -17.156  1.00  0.00    -0.000 C 
BRANCH   8   9
ATOM      9  C   UNL     1      -7.920  -1.233 -17.309  1.00  0.00    -0.000 C 
BRANCH   9  10
ATOM     10  C   UNL     1      -6.930  -0.672 -16.273  1.00  0.00    -0.003 C 
ATOM     11  C   UNL     1      -6.999  -1.391 -14.927  1.00  0.00     0.004 C 
ENDBRANCH   9  10
ENDBRANCH   8   9
ENDBRANCH   7   8
ENDBRANCH   1   7
TORSDOF 7
ENDMDL
MODEL 2
REMARK VINA RESULT:     5.123      0.540      1.070
REMARK INTER + INTRA:           6.999
REMARK INTER:                   7.268
REMARK INTRA:                  -0.269
REMARK UNBOUND:                -0.219
REMARK SMILES CCCCCCCCC(=O)[O-]
REMARK SMILES IDX 6 1 7 2 8 3 9 4 10 5 11 6 5 7 4 8 3 9 2 10 1 11
REMARK H PARENT
REMARK Flexibility Score: inf
ROOT
ATOM      1  C   UNL     1     -11.836  -1.135 -17.866  1.00  0.00     0.000 C 
ENDROOT
BRANCH   1   2
ATOM      2  C   UNL     1     -12.266   0.125 -17.095  1.00  0.00     0.006 C 
BRANCH   2   3
ATOM      3  C   UNL     1     -12.990   1.135 -17.994  1.00  0.00     0.053 C 
BRANCH   3   4
ATOM      4  C   UNL     1     -12.490   2.530 -17.775  1.00  0.00     0.041 C 
ATOM      5  O   UNL     1     -11.559   2.749 -16.954  1.00  0.00    -0.550 OA
ATOM      6  O   UNL     1     -13.027   3.584 -18.503  1.00  0.00    -0.550 OA
ENDBRANCH   3   4
ENDBRANCH   2   3
ENDBRANCH   1   2
BRANCH   1   7
ATOM      7  C   UNL     1     -10.366  -1.086 -18.312  1.00  0.00     0.000 C 
BRANCH   7   8
ATOM      8  C   UNL     1      -9.420  -0.662 -17.175  1.00  0.00    -0.000 C 
BRANCH   8   9
ATOM      9  C   UNL     1      -8.054  -1.372 -17.237  1.00  0.00    -0.000 C 
BRANCH   9  10
ATOM     10  C   UNL     1      -6.952  -0.741 -16.368  1.00  0.00    -0.003 C 
ATOM     11  C   UNL     1      -6.937  -1.277 -14.937  1.00  0.00     0.004 C 
ENDBRANCH   9  10
ENDBRANCH   8   9
ENDBRANCH   7   8
ENDBRANCH   1   7
TORSDOF 7
ENDMDL
