MODEL 1
REMARK VINA RESULT:    -4.203      0.000      0.000
REMARK INTER + INTRA:          -4.905
REMARK INTER:                  -4.818
REMARK INTRA:                  -0.088
REMARK UNBOUND:                -0.088
REMARK SMILES C=Cc1ccc(O)c(OC)c1
REMARK SMILES IDX 8 1 6 2 5 3 4 4 3 5 11 6 9 7 10 8 7 9 2 11 1 12
REMARK H PARENT 7 10
REMARK Flexibility Score: inf
ROOT
ATOM      1  C   UNL     1       0.099 -25.763 -46.842  1.00  0.00     0.161 A 
ATOM      2  C   UNL     1       1.503 -25.845 -46.840  1.00  0.00     0.157 A 
ATOM      3  C   UNL     1       2.258 -24.912 -46.125  1.00  0.00     0.051 A 
ATOM      4  C   UNL     1       1.629 -23.896 -45.403  1.00  0.00     0.012 A 
ATOM      5  C   UNL     1       0.225 -23.803 -45.378  1.00  0.00    -0.022 A 
ATOM      6  C   UNL     1      -0.530 -24.735 -46.110  1.00  0.00     0.058 A 
ENDROOT
BRANCH   1   7
ATOM      7  O   UNL     1      -0.634 -26.711 -47.573  1.00  0.00    -0.493 OA
ATOM      8  C   UNL     1      -2.050 -26.851 -47.525  1.00  0.00     0.278 C 
ENDBRANCH   1   7
BRANCH   2   9
ATOM      9  O   UNL     1       2.166 -26.846 -47.549  1.00  0.00    -0.504 OA
ATOM     10  H   UNL     1       3.176 -26.931 -47.549  1.00  0.00     0.293 HD
ENDBRANCH   2   9
BRANCH   5  11
ATOM     11  C   UNL     1      -0.493 -22.738 -44.634  1.00  0.00     0.000 C 
ATOM     12  C   UNL     1      -0.006 -21.515 -44.418  1.00  0.00     0.009 C 
ENDBRANCH   5  11
TORSDOF 3
ENDMDL
MODEL 2
REMARK VINA RESULT:    -4.057     14.037     15.665
REMARK INTER + INTRA:          -4.737
REMARK INTER:                  -4.704
REMARK INTRA:                  -0.033
REMARK UNBOUND:                -0.088
REMARK SMILES C=Cc1ccc(O)c(OC)c1
REMARK SMILES IDX 8 1 6 2 5 3 4 4 3 5 11 6 9 7 10 8 7 9 2 11 1 12
REMARK H PARENT 7 10
REMARK Flexibility Score: inf
ROOT
ATOM      1  C   UNL     1       1.016 -10.234 -42.000  1.00  0.00     0.161 A 
ATOM      2  C   UNL     1       0.299 -11.209 -42.715  1.00  0.00     0.157 A 
ATOM      3  C   UNL     1      -1.073 -11.365 -42.501  1.00  0.00     0.051 A 
ATOM      4  C   UNL     1      -1.744 -10.555 -41.583  1.00  0.00     0.012 A 
ATOM      5  C   UNL     1      -1.049  -9.563 -40.867  1.00  0.00    -0.022 A 
ATOM      6  C   UNL     1       0.333  -9.419 -41.075  1.00  0.00     0.058 A 
ENDROOT
BRANCH   1   7
ATOM      7  O   UNL     1       2.394 -10.103 -42.231  1.00  0.00    -0.493 OA
ATOM      8  C   UNL     1       3.395 -10.937 -41.655  1.00  0.00     0.278 C 
ENDBRANCH   1   7
BRANCH   2   9
ATOM      9  O   UNL     1       0.934 -12.037 -43.641  1.00  0.00    -0.504 OA
ATOM     10  H   UNL     1       1.788 -11.765 -44.112  1.00  0.00     0.293 HD
ENDBRANCH   2   9
BRANCH   5  11
ATOM     11  C   UNL     1      -1.712  -8.681 -39.873  1.00  0.00     0.000 C 
ATOM     12  C   UNL     1      -1.060  -7.918 -38.995  1.00  0.00     0.009 C 
ENDBRANCH   5  11
TORSDOF 3
ENDMDL
MODEL 3
REMARK VINA RESULT:    -3.982      1.740      3.717
REMARK INTER + INTRA:          -4.652
REMARK INTER:                  -4.581
REMARK INTRA:                  -0.071
REMARK UNBOUND:                -0.088
REMARK SMILES C=Cc1ccc(O)c(OC)c1
REMARK SMILES IDX 8 1 6 2 5 3 4 4 3 5 11 6 9 7 10 8 7 9 2 11 1 12
REMARK H PARENT 7 10
REMARK Flexibility Score: inf
ROOT
ATOM      1  C   UNL     1       0.676 -24.542 -46.037  1.00  0.00     0.161 A 
ATOM      2  C   UNL     1       1.731 -25.409 -46.370  1.00  0.00     0.157 A 
ATOM      3  C   UNL     1       1.466 -26.614 -47.027  1.00  0.00     0.051 A 
ATOM      4  C   UNL     1       0.157 -26.964 -47.364  1.00  0.00     0.012 A 
ATOM      5  C   UNL     1      -0.913 -26.105 -47.052  1.00  0.00    -0.022 A 
ATOM      6  C   UNL     1      -0.643 -24.901 -46.379  1.00  0.00     0.058 A 
ENDROOT
BRANCH   1   7
ATOM      7  O   UNL     1       0.971 -23.341 -45.372  1.00  0.00    -0.493 OA
ATOM      8  C   UNL     1       0.044 -22.605 -44.581  1.00  0.00     0.278 C 
ENDBRANCH   1   7
BRANCH   2   9
ATOM      9  O   UNL     1       3.052 -25.093 -46.052  1.00  0.00    -0.504 OA
ATOM     10  H   UNL     1       3.668 -24.624 -46.705  1.00  0.00     0.293 HD
ENDBRANCH   2   9
BRANCH   5  11
ATOM     11  C   UNL     1      -2.323 -26.433 -47.379  1.00  0.00     0.000 C 
ATOM     12  C   UNL     1      -3.322 -26.413 -46.496  1.00  0.00     0.009 C 
ENDBRANCH   5  11
TORSDOF 3
ENDMDL
MODEL 4
REMARK VINA RESULT:    -3.837      1.095      2.554
REMARK INTER + INTRA:          -4.486
REMARK INTER:                  -4.404
REMARK INTRA:                  -0.081
REMARK UNBOUND:                -0.088
REMARK SMILES C=Cc1ccc(O)c(OC)c1
REMARK SMILES IDX 8 1 6 2 5 3 4 4 3 5 11 6 9 7 10 8 7 9 2 11 1 12
REMARK H PARENT 7 10
REMARK Flexibility Score: inf
ROOT
ATOM      1  C   UNL     1       0.768 -25.679 -46.324  1.00  0.00     0.161 A 
ATOM      2  C   UNL     1      -0.351 -25.787 -47.168  1.00  0.00     0.157 A 
ATOM      3  C   UNL     1      -1.426 -24.906 -47.020  1.00  0.00     0.051 A 
ATOM      4  C   UNL     1      -1.397 -23.910 -46.042  1.00  0.00     0.012 A 
ATOM      5  C   UNL     1      -0.281 -23.774 -45.196  1.00  0.00    -0.022 A 
ATOM      6  C   UNL     1       0.791 -24.671 -45.338  1.00  0.00     0.058 A 
ENDROOT
BRANCH   1   7
ATOM      7  O   UNL     1       1.831 -26.581 -46.490  1.00  0.00    -0.493 OA
ATOM      8  C   UNL     1       2.615 -27.112 -45.427  1.00  0.00     0.278 C 
ENDBRANCH   1   7
BRANCH   2   9
ATOM      9  O   UNL     1      -0.416 -26.768 -48.156  1.00  0.00    -0.504 OA
ATOM     10  H   UNL     1      -0.188 -27.738 -47.972  1.00  0.00     0.293 HD
ENDBRANCH   2   9
BRANCH   5  11
ATOM     11  C   UNL     1      -0.203 -22.739 -44.135  1.00  0.00     0.000 C 
ATOM     12  C   UNL     1      -0.061 -21.434 -44.369  1.00  0.00     0.009 C 
ENDBRANCH   5  11
TORSDOF 3
ENDMDL
MODEL 5
REMARK VINA RESULT:    -3.829     13.503     15.055
REMARK INTER + INTRA:          -4.476
REMARK INTER:                  -4.405
REMARK INTRA:                  -0.072
REMARK UNBOUND:                -0.088
REMARK SMILES C=Cc1ccc(O)c(OC)c1
REMARK SMILES IDX 8 1 6 2 5 3 4 4 3 5 11 6 9 7 10 8 7 9 2 11 1 12
REMARK H PARENT 7 10
REMARK Flexibility Score: inf
ROOT
ATOM      1  C   UNL     1       0.629 -11.648 -41.183  1.00  0.00     0.161 A 
ATOM      2  C   UNL     1       1.852 -11.098 -41.606  1.00  0.00     0.157 A 
ATOM      3  C   UNL     1       1.867  -9.912 -42.344  1.00  0.00     0.051 A 
ATOM      4  C   UNL     1       0.675  -9.258 -42.661  1.00  0.00     0.012 A 
ATOM      5  C   UNL     1      -0.560  -9.783 -42.235  1.00  0.00    -0.022 A 
ATOM      6  C   UNL     1      -0.571 -10.984 -41.506  1.00  0.00     0.058 A 
ENDROOT
BRANCH   1   7
ATOM      7  O   UNL     1       0.643 -12.844 -40.449  1.00  0.00    -0.493 OA
ATOM      8  C   UNL     1      -0.451 -13.335 -39.681  1.00  0.00     0.278 C 
ENDBRANCH   1   7
BRANCH   2   9
ATOM      9  O   UNL     1       3.064 -11.721 -41.308  1.00  0.00    -0.504 OA
ATOM     10  H   UNL     1       3.192 -12.284 -40.476  1.00  0.00     0.293 HD
ENDBRANCH   2   9
BRANCH   5  11
ATOM     11  C   UNL     1      -1.856  -9.134 -42.553  1.00  0.00     0.000 C 
ATOM     12  C   UNL     1      -2.558  -8.397 -41.690  1.00  0.00     0.009 C 
ENDBRANCH   5  11
TORSDOF 3
ENDMDL
MODEL 6
REMARK VINA RESULT:    -3.822     15.811     17.064
REMARK INTER + INTRA:          -4.468
REMARK INTER:                  -4.379
REMARK INTRA:                  -0.090
REMARK UNBOUND:                -0.088
REMARK SMILES C=Cc1ccc(O)c(OC)c1
REMARK SMILES IDX 8 1 6 2 5 3 4 4 3 5 11 6 9 7 10 8 7 9 2 11 1 12
REMARK H PARENT 7 10
REMARK Flexibility Score: inf
ROOT
ATOM      1  C   UNL     1      -0.406  -9.490 -41.092  1.00  0.00     0.161 A 
ATOM      2  C   UNL     1      -0.842  -8.794 -39.952  1.00  0.00     0.157 A 
ATOM      3  C   UNL     1      -2.099  -8.183 -39.943  1.00  0.00     0.051 A 
ATOM      4  C   UNL     1      -2.934  -8.263 -41.060  1.00  0.00     0.012 A 
ATOM      5  C   UNL     1      -2.523  -8.967 -42.207  1.00  0.00    -0.022 A 
ATOM      6  C   UNL     1      -1.253  -9.567 -42.216  1.00  0.00     0.058 A 
ENDROOT
BRANCH   1   7
ATOM      7  O   UNL     1       0.864 -10.089 -41.075  1.00  0.00    -0.493 OA
ATOM      8  C   UNL     1       1.868  -9.885 -42.065  1.00  0.00     0.278 C 
ENDBRANCH   1   7
BRANCH   2   9
ATOM      9  O   UNL     1      -0.037  -8.693 -38.817  1.00  0.00    -0.504 OA
ATOM     10  H   UNL     1       0.063  -9.454 -38.156  1.00  0.00     0.293 HD
ENDBRANCH   2   9
BRANCH   5  11
ATOM     11  C   UNL     1      -3.367  -9.075 -43.423  1.00  0.00     0.000 C 
ATOM     12  C   UNL     1      -3.735  -8.037 -44.176  1.00  0.00     0.009 C 
ENDBRANCH   5  11
TORSDOF 3
ENDMDL
MODEL 7
REMARK VINA RESULT:    -3.743     13.456     15.872
REMARK INTER + INTRA:          -4.378
REMARK INTER:                  -4.284
REMARK INTRA:                  -0.094
REMARK UNBOUND:                -0.088
REMARK SMILES C=Cc1ccc(O)c(OC)c1
REMARK SMILES IDX 8 1 6 2 5 3 4 4 3 5 11 6 9 7 10 8 7 9 2 11 1 12
REMARK H PARENT 7 10
REMARK Flexibility Score: inf
ROOT
ATOM      1  C   UNL     1      -0.689 -11.205 -40.613  1.00  0.00     0.161 A 
ATOM      2  C   UNL     1      -1.326 -11.013 -41.851  1.00  0.00     0.157 A 
ATOM      3  C   UNL     1      -1.918  -9.783 -42.150  1.00  0.00     0.051 A 
ATOM      4  C   UNL     1      -1.879  -8.735 -41.229  1.00  0.00     0.012 A 
ATOM      5  C   UNL     1      -1.234  -8.900 -39.989  1.00  0.00    -0.022 A 
ATOM      6  C   UNL     1      -0.652 -10.143 -39.687  1.00  0.00     0.058 A 
ENDROOT
BRANCH   1   7
ATOM      7  O   UNL     1      -0.107 -12.452 -40.337  1.00  0.00    -0.493 OA
ATOM      8  C   UNL     1      -0.728 -13.485 -39.579  1.00  0.00     0.278 C 
ENDBRANCH   1   7
BRANCH   2   9
ATOM      9  O   UNL     1      -1.385 -12.036 -42.798  1.00  0.00    -0.504 OA
ATOM     10  H   UNL     1      -1.421 -11.850 -43.793  1.00  0.00     0.293 HD
ENDBRANCH   2   9
BRANCH   5  11
ATOM     11  C   UNL     1      -1.171  -7.821 -38.970  1.00  0.00     0.000 C 
ATOM     12  C   UNL     1      -0.567  -7.942 -37.787  1.00  0.00     0.009 C 
ENDBRANCH   5  11
TORSDOF 3
ENDMDL
MODEL 8
REMARK VINA RESULT:    -3.661     16.951     18.783
REMARK INTER + INTRA:          -4.283
REMARK INTER:                  -4.189
REMARK INTRA:                  -0.094
REMARK UNBOUND:                -0.088
REMARK SMILES C=Cc1ccc(O)c(OC)c1
REMARK SMILES IDX 8 1 6 2 5 3 4 4 3 5 11 6 9 7 10 8 7 9 2 11 1 12
REMARK H PARENT 7 10
REMARK Flexibility Score: inf
ROOT
ATOM      1  C   UNL     1      -1.010  -9.025 -36.499  1.00  0.00     0.161 A 
ATOM      2  C   UNL     1      -1.099  -7.622 -36.500  1.00  0.00     0.157 A 
ATOM      3  C   UNL     1      -1.057  -6.919 -37.707  1.00  0.00     0.051 A 
ATOM      4  C   UNL     1      -0.934  -7.600 -38.920  1.00  0.00     0.012 A 
ATOM      5  C   UNL     1      -0.858  -9.005 -38.944  1.00  0.00    -0.022 A 
ATOM      6  C   UNL     1      -0.886  -9.707 -37.727  1.00  0.00     0.058 A 
ENDROOT
BRANCH   1   7
ATOM      7  O   UNL     1      -1.049  -9.705 -35.272  1.00  0.00    -0.493 OA
ATOM      8  C   UNL     1      -0.086 -10.664 -34.847  1.00  0.00     0.278 C 
ENDBRANCH   1   7
BRANCH   2   9
ATOM      9  O   UNL     1      -1.224  -6.907 -35.309  1.00  0.00    -0.504 OA
ATOM     10  H   UNL     1      -1.984  -7.068 -34.659  1.00  0.00     0.293 HD
ENDBRANCH   2   9
BRANCH   5  11
ATOM     11  C   UNL     1      -0.717  -9.777 -40.204  1.00  0.00     0.000 C 
ATOM     12  C   UNL     1       0.145  -9.475 -41.176  1.00  0.00     0.009 C 
ENDBRANCH   5  11
TORSDOF 3
ENDMDL
MODEL 9
REMARK VINA RESULT:    -3.619     14.094     15.751
REMARK INTER + INTRA:          -4.235
REMARK INTER:                  -4.157
REMARK INTRA:                  -0.078
REMARK UNBOUND:                -0.088
REMARK SMILES C=Cc1ccc(O)c(OC)c1
REMARK SMILES IDX 8 1 6 2 5 3 4 4 3 5 11 6 9 7 10 8 7 9 2 11 1 12
REMARK H PARENT 7 10
REMARK Flexibility Score: inf
ROOT
ATOM      1  C   UNL     1      -0.574 -10.079 -41.859  1.00  0.00     0.161 A 
ATOM      2  C   UNL     1      -1.005 -11.410 -41.722  1.00  0.00     0.157 A 
ATOM      3  C   UNL     1      -2.302 -11.767 -42.100  1.00  0.00     0.051 A 
ATOM      4  C   UNL     1      -3.177 -10.813 -42.622  1.00  0.00     0.012 A 
ATOM      5  C   UNL     1      -2.762  -9.478 -42.781  1.00  0.00    -0.022 A 
ATOM      6  C   UNL     1      -1.462  -9.119 -42.387  1.00  0.00     0.058 A 
ENDROOT
BRANCH   1   7
ATOM      7  O   UNL     1       0.732  -9.747 -41.466  1.00  0.00    -0.493 OA
ATOM      8  C   UNL     1       1.874  -9.811 -42.315  1.00  0.00     0.278 C 
ENDBRANCH   1   7
BRANCH   2   9
ATOM      9  O   UNL     1      -0.160 -12.391 -41.205  1.00  0.00    -0.504 OA
ATOM     10  H   UNL     1      -0.116 -13.326 -41.594  1.00  0.00     0.293 HD
ENDBRANCH   2   9
BRANCH   5  11
ATOM     11  C   UNL     1      -3.655  -8.422 -43.323  1.00  0.00     0.000 C 
ATOM     12  C   UNL     1      -3.709  -8.072 -44.609  1.00  0.00     0.009 C 
ENDBRANCH   5  11
TORSDOF 3
ENDMDL
