MODEL 1
REMARK VINA RESULT:    -3.773      0.000      0.000
REMARK INTER + INTRA:          -5.473
REMARK INTER:                  -5.317
REMARK INTRA:                  -0.155
REMARK UNBOUND:                -0.155
REMARK SMILES CC1=CCC(=C(C)C)C(=O)CC(C)=CCC1
REMARK SMILES IDX 12 1 14 2 13 3 15 4 16 5 2 6 1 7 3 8 11 10 9 11 10 12 5 13
REMARK SMILES IDX 6 14 7 15 8 16 4 17
REMARK H PARENT
REMARK Flexibility Score: 60.00
ROOT
ATOM      1  C   UNL     1     -62.340 -76.588 221.403  1.00  0.00    -0.070 C 
ATOM      2  C   UNL     1     -61.985 -76.667 220.099  1.00  0.00    -0.027 C 
ATOM      3  C   UNL     1     -63.714 -76.069 221.738  1.00  0.00     0.039 C 
ENDROOT
BRANCH   2   4
ATOM      4  C   UNL     1     -60.617 -77.042 219.581  1.00  0.00     0.032 C 
BRANCH   4   5
ATOM      5  C   UNL     1     -60.417 -78.535 219.279  1.00  0.00     0.034 C 
BRANCH   5   6
ATOM      6  C   UNL     1     -59.134 -79.112 219.844  1.00  0.00    -0.077 C 
ATOM      7  C   UNL     1     -57.850 -78.830 219.104  1.00  0.00     0.039 C 
ATOM      8  C   UNL     1     -59.045 -79.804 221.008  1.00  0.00    -0.023 CG0
ATOM      9  G   UNL     1     -60.169 -80.345 221.873  1.00  0.00     0.000 G0
ENDBRANCH   5   6
ENDBRANCH   4   5
ENDBRANCH   2   4
BRANCH   1  10
ATOM     10  C   UNL     1     -61.461 -77.074 222.535  1.00  0.00     0.111 C 
BRANCH  10  11
ATOM     11  C   UNL     1     -61.707 -78.531 222.827  1.00  0.00     0.163 C 
ATOM     12  O   UNL     1     -62.895 -78.954 222.867  1.00  0.00    -0.294 OA
BRANCH  11  13
ATOM     13  C   UNL     1     -60.596 -79.491 223.059  1.00  0.00    -0.002 C 
ATOM     14  C   UNL     1     -60.107 -79.688 224.314  1.00  0.00    -0.069 C 
ATOM     15  C   UNL     1     -59.071 -80.748 224.603  1.00  0.00     0.039 C 
ATOM     16  C   UNL     1     -60.570 -78.823 225.464  1.00  0.00     0.039 C 
BRANCH  13  17
ATOM     17  C   UNL     1     -60.174 -80.350 221.882  1.00  0.00     0.066 CG0
ATOM     18  G   UNL     1     -59.045 -79.827 221.013  1.00  0.00     0.000 G0
ENDBRANCH  13  17
ENDBRANCH  11  13
ENDBRANCH  10  11
ENDBRANCH   1  10
TORSDOF 0
ENDMDL
MODEL 2
REMARK VINA RESULT:    -3.728      2.441      4.940
REMARK INTER + INTRA:          -5.409
REMARK INTER:                  -5.312
REMARK INTRA:                  -0.097
REMARK UNBOUND:                -0.155
REMARK SMILES CC1=CCC(=C(C)C)C(=O)CC(C)=CCC1
REMARK SMILES IDX 12 1 14 2 13 3 15 4 16 5 2 6 1 7 3 8 11 10 9 11 10 12 5 13
REMARK SMILES IDX 6 14 7 15 8 16 4 17
REMARK H PARENT
REMARK Flexibility Score: 60.00
ROOT
ATOM      1  C   UNL     1     -65.954 -77.747 223.364  1.00  0.00    -0.070 C 
ATOM      2  C   UNL     1     -65.638 -78.431 224.488  1.00  0.00    -0.027 C 
ATOM      3  C   UNL     1     -67.173 -76.860 223.387  1.00  0.00     0.039 C 
ENDROOT
BRANCH   2   4
ATOM      4  C   UNL     1     -64.536 -79.456 224.613  1.00  0.00     0.032 C 
BRANCH   4   5
ATOM      5  C   UNL     1     -63.170 -78.899 225.042  1.00  0.00     0.034 C 
BRANCH   5   6
ATOM      6  C   UNL     1     -62.001 -79.464 224.260  1.00  0.00    -0.077 C 
ATOM      7  C   UNL     1     -61.542 -80.862 224.593  1.00  0.00     0.039 C 
ATOM      8  C   UNL     1     -61.382 -78.831 223.231  1.00  0.00    -0.023 CG0
ATOM      9  G   UNL     1     -61.538 -77.392 222.777  1.00  0.00     0.000 G0
ENDBRANCH   5   6
ENDBRANCH   4   5
ENDBRANCH   2   4
BRANCH   1  10
ATOM     10  C   UNL     1     -65.101 -77.761 222.114  1.00  0.00     0.111 C 
BRANCH  10  11
ATOM     11  C   UNL     1     -63.957 -76.786 222.227  1.00  0.00     0.163 C 
ATOM     12  O   UNL     1     -64.161 -75.666 222.770  1.00  0.00    -0.294 OA
BRANCH  11  13
ATOM     13  C   UNL     1     -62.594 -77.104 221.728  1.00  0.00    -0.002 C 
ATOM     14  C   UNL     1     -62.298 -76.978 220.406  1.00  0.00    -0.069 C 
ATOM     15  C   UNL     1     -60.892 -77.167 219.887  1.00  0.00     0.039 C 
ATOM     16  C   UNL     1     -63.384 -76.669 219.400  1.00  0.00     0.039 C 
BRANCH  13  17
ATOM     17  C   UNL     1     -61.531 -77.393 222.772  1.00  0.00     0.066 CG0
ATOM     18  G   UNL     1     -61.386 -78.831 223.232  1.00  0.00     0.000 G0
ENDBRANCH  13  17
ENDBRANCH  11  13
ENDBRANCH  10  11
ENDBRANCH   1  10
TORSDOF 0
ENDMDL
MODEL 3
REMARK VINA RESULT:    -3.604     11.336     13.417
REMARK INTER + INTRA:          -5.235
REMARK INTER:                  -5.252
REMARK INTRA:                   0.018
REMARK UNBOUND:                -0.155
REMARK SMILES CC1=CCC(=C(C)C)C(=O)CC(C)=CCC1
REMARK SMILES IDX 12 1 14 2 13 3 15 4 16 5 2 6 1 7 3 8 11 10 9 11 10 12 5 13
REMARK SMILES IDX 6 14 7 15 8 16 4 17
REMARK H PARENT
REMARK Flexibility Score: 60.00
ROOT
ATOM      1  C   UNL     1     -70.901 -74.606 217.203  1.00  0.00    -0.070 C 
ATOM      2  C   UNL     1     -69.689 -75.123 216.896  1.00  0.00    -0.027 C 
ATOM      3  C   UNL     1     -71.664 -75.211 218.353  1.00  0.00     0.039 C 
ENDROOT
BRANCH   2   4
ATOM      4  C   UNL     1     -68.842 -74.733 215.708  1.00  0.00     0.032 C 
BRANCH   4   5
ATOM      5  C   UNL     1     -68.665 -75.824 214.642  1.00  0.00     0.034 C 
BRANCH   5   6
ATOM      6  C   UNL     1     -69.575 -77.023 214.831  1.00  0.00    -0.077 C 
ATOM      7  C   UNL     1     -68.971 -78.280 215.406  1.00  0.00     0.039 C 
ATOM      8  C   UNL     1     -70.910 -77.025 214.587  1.00  0.00    -0.023 CG0
ATOM      9  G   UNL     1     -71.744 -75.967 213.888  1.00  0.00     0.000 G0
ENDBRANCH   5   6
ENDBRANCH   4   5
ENDBRANCH   2   4
BRANCH   1  10
ATOM     10  C   UNL     1     -71.491 -73.399 216.508  1.00  0.00     0.111 C 
BRANCH  10  11
ATOM     11  C   UNL     1     -71.901 -73.731 215.096  1.00  0.00     0.163 C 
ATOM     12  O   UNL     1     -71.670 -72.895 214.180  1.00  0.00    -0.294 OA
BRANCH  11  13
ATOM     13  C   UNL     1     -72.559 -75.017 214.744  1.00  0.00    -0.002 C 
ATOM     14  C   UNL     1     -73.865 -75.231 215.062  1.00  0.00    -0.069 C 
ATOM     15  C   UNL     1     -74.598 -76.470 214.605  1.00  0.00     0.039 C 
ATOM     16  C   UNL     1     -74.622 -74.238 215.914  1.00  0.00     0.039 C 
BRANCH  13  17
ATOM     17  C   UNL     1     -71.769 -75.977 213.875  1.00  0.00     0.066 CG0
ATOM     18  G   UNL     1     -70.928 -77.021 214.584  1.00  0.00     0.000 G0
ENDBRANCH  13  17
ENDBRANCH  11  13
ENDBRANCH  10  11
ENDBRANCH   1  10
TORSDOF 0
ENDMDL
MODEL 4
REMARK VINA RESULT:    -3.558      2.071      4.054
REMARK INTER + INTRA:          -5.169
REMARK INTER:                  -5.147
REMARK INTRA:                  -0.022
REMARK UNBOUND:                -0.155
REMARK SMILES CC1=CCC(=C(C)C)C(=O)CC(C)=CCC1
REMARK SMILES IDX 12 1 14 2 13 3 15 4 16 5 2 6 1 7 3 8 11 10 9 11 10 12 5 13
REMARK SMILES IDX 6 14 7 15 8 16 4 17
REMARK H PARENT
REMARK Flexibility Score: 60.00
ROOT
ATOM      1  C   UNL     1     -61.169 -77.604 219.574  1.00  0.00    -0.070 C 
ATOM      2  C   UNL     1     -62.044 -76.583 219.718  1.00  0.00    -0.027 C 
ATOM      3  C   UNL     1     -59.917 -77.363 218.771  1.00  0.00     0.039 C 
ENDROOT
BRANCH   2   4
ATOM      4  C   UNL     1     -63.400 -76.673 220.376  1.00  0.00     0.032 C 
BRANCH   4   5
ATOM      5  C   UNL     1     -63.438 -76.264 221.857  1.00  0.00     0.034 C 
BRANCH   5   6
ATOM      6  C   UNL     1     -64.032 -77.318 222.772  1.00  0.00    -0.077 C 
ATOM      7  C   UNL     1     -65.533 -77.367 222.905  1.00  0.00     0.039 C 
ATOM      8  C   UNL     1     -63.314 -78.267 223.424  1.00  0.00    -0.023 CG0
ATOM      9  G   UNL     1     -61.808 -78.371 223.581  1.00  0.00     0.000 G0
ENDBRANCH   5   6
ENDBRANCH   4   5
ENDBRANCH   2   4
BRANCH   1  10
ATOM     10  C   UNL     1     -61.340 -78.948 220.247  1.00  0.00     0.111 C 
BRANCH  10  11
ATOM     11  C   UNL     1     -60.500 -79.042 221.494  1.00  0.00     0.163 C 
ATOM     12  O   UNL     1     -59.272 -78.763 221.425  1.00  0.00    -0.294 OA
BRANCH  11  13
ATOM     13  C   UNL     1     -61.071 -79.444 222.806  1.00  0.00    -0.002 C 
ATOM     14  C   UNL     1     -60.805 -80.674 223.325  1.00  0.00    -0.069 C 
ATOM     15  C   UNL     1     -61.260 -81.064 224.711  1.00  0.00     0.039 C 
ATOM     16  C   UNL     1     -60.060 -81.708 222.511  1.00  0.00     0.039 C 
BRANCH  13  17
ATOM     17  C   UNL     1     -61.796 -78.371 223.597  1.00  0.00     0.066 CG0
ATOM     18  G   UNL     1     -63.300 -78.276 223.416  1.00  0.00     0.000 G0
ENDBRANCH  13  17
ENDBRANCH  11  13
ENDBRANCH  10  11
ENDBRANCH   1  10
TORSDOF 0
ENDMDL
MODEL 5
REMARK VINA RESULT:    -3.535      1.945      4.272
REMARK INTER + INTRA:          -5.137
REMARK INTER:                  -5.357
REMARK INTRA:                   0.220
REMARK UNBOUND:                -0.155
REMARK SMILES CC1=CCC(=C(C)C)C(=O)CC(C)=CCC1
REMARK SMILES IDX 12 1 14 2 13 3 15 4 16 5 2 6 1 7 3 8 11 10 9 11 10 12 5 13
REMARK SMILES IDX 6 14 7 15 8 16 4 17
REMARK H PARENT
REMARK Flexibility Score: 60.00
ROOT
ATOM      1  C   UNL     1     -63.808 -76.190 221.819  1.00  0.00    -0.070 C 
ATOM      2  C   UNL     1     -64.680 -76.968 222.502  1.00  0.00    -0.027 C 
ATOM      3  C   UNL     1     -63.638 -74.757 222.253  1.00  0.00     0.039 C 
ENDROOT
BRANCH   2   4
ATOM      4  C   UNL     1     -65.071 -78.380 222.137  1.00  0.00     0.032 C 
BRANCH   4   5
ATOM      5  C   UNL     1     -64.654 -79.457 223.150  1.00  0.00     0.034 C 
BRANCH   5   6
ATOM      6  C   UNL     1     -63.324 -79.185 223.827  1.00  0.00    -0.077 C 
ATOM      7  C   UNL     1     -63.349 -78.679 225.248  1.00  0.00     0.039 C 
ATOM      8  C   UNL     1     -62.110 -79.433 223.273  1.00  0.00    -0.023 CG0
ATOM      9  G   UNL     1     -61.786 -79.805 221.838  1.00  0.00     0.000 G0
ENDBRANCH   5   6
ENDBRANCH   4   5
ENDBRANCH   2   4
BRANCH   1  10
ATOM     10  C   UNL     1     -62.933 -76.708 220.698  1.00  0.00     0.111 C 
BRANCH  10  11
ATOM     11  C   UNL     1     -61.664 -77.318 221.236  1.00  0.00     0.163 C 
ATOM     12  O   UNL     1     -60.928 -76.627 221.993  1.00  0.00    -0.294 OA
BRANCH  11  13
ATOM     13  C   UNL     1     -61.256 -78.711 220.915  1.00  0.00    -0.002 C 
ATOM     14  C   UNL     1     -60.336 -78.951 219.941  1.00  0.00    -0.069 C 
ATOM     15  C   UNL     1     -59.804 -80.339 219.679  1.00  0.00     0.039 C 
ATOM     16  C   UNL     1     -59.833 -77.826 219.064  1.00  0.00     0.039 C 
BRANCH  13  17
ATOM     17  C   UNL     1     -61.772 -79.805 221.830  1.00  0.00     0.066 CG0
ATOM     18  G   UNL     1     -62.105 -79.414 223.258  1.00  0.00     0.000 G0
ENDBRANCH  13  17
ENDBRANCH  11  13
ENDBRANCH  10  11
ENDBRANCH   1  10
TORSDOF 0
ENDMDL
MODEL 6
REMARK VINA RESULT:    -3.527      2.757      2.987
REMARK INTER + INTRA:          -5.126
REMARK INTER:                  -4.980
REMARK INTRA:                  -0.146
REMARK UNBOUND:                -0.155
REMARK SMILES CC1=CCC(=C(C)C)C(=O)CC(C)=CCC1
REMARK SMILES IDX 12 1 14 2 13 3 15 4 16 5 2 6 1 7 3 8 11 10 9 11 10 12 5 13
REMARK SMILES IDX 6 14 7 15 8 16 4 17
REMARK H PARENT
REMARK Flexibility Score: 60.00
ROOT
ATOM      1  C   UNL     1     -63.042 -75.917 221.603  1.00  0.00    -0.070 C 
ATOM      2  C   UNL     1     -63.227 -76.216 220.297  1.00  0.00    -0.027 C 
ATOM      3  C   UNL     1     -63.574 -74.604 222.117  1.00  0.00     0.039 C 
ENDROOT
BRANCH   2   4
ATOM      4  C   UNL     1     -62.658 -77.418 219.581  1.00  0.00     0.032 C 
BRANCH   4   5
ATOM      5  C   UNL     1     -63.621 -78.606 219.431  1.00  0.00     0.034 C 
BRANCH   5   6
ATOM      6  C   UNL     1     -63.017 -79.942 219.820  1.00  0.00    -0.077 C 
ATOM      7  C   UNL     1     -62.198 -80.672 218.783  1.00  0.00     0.039 C 
ATOM      8  C   UNL     1     -63.098 -80.496 221.056  1.00  0.00    -0.023 CG0
ATOM      9  G   UNL     1     -63.954 -80.061 222.231  1.00  0.00     0.000 G0
ENDBRANCH   5   6
ENDBRANCH   4   5
ENDBRANCH   2   4
BRANCH   1  10
ATOM     10  C   UNL     1     -62.405 -76.868 222.593  1.00  0.00     0.111 C 
BRANCH  10  11
ATOM     11  C   UNL     1     -63.438 -77.757 223.235  1.00  0.00     0.163 C 
ATOM     12  O   UNL     1     -64.482 -77.234 223.713  1.00  0.00    -0.294 OA
BRANCH  11  13
ATOM     13  C   UNL     1     -63.275 -79.233 223.314  1.00  0.00    -0.002 C 
ATOM     14  C   UNL     1     -62.675 -79.801 224.395  1.00  0.00    -0.069 C 
ATOM     15  C   UNL     1     -62.610 -81.300 224.568  1.00  0.00     0.039 C 
ATOM     16  C   UNL     1     -62.024 -78.941 225.455  1.00  0.00     0.039 C 
BRANCH  13  17
ATOM     17  C   UNL     1     -63.957 -80.058 222.239  1.00  0.00     0.066 CG0
ATOM     18  G   UNL     1     -63.108 -80.502 221.063  1.00  0.00     0.000 G0
ENDBRANCH  13  17
ENDBRANCH  11  13
ENDBRANCH  10  11
ENDBRANCH   1  10
TORSDOF 0
ENDMDL
MODEL 7
REMARK VINA RESULT:    -3.511      2.404      4.713
REMARK INTER + INTRA:          -5.103
REMARK INTER:                  -4.943
REMARK INTRA:                  -0.160
REMARK UNBOUND:                -0.155
REMARK SMILES CC1=CCC(=C(C)C)C(=O)CC(C)=CCC1
REMARK SMILES IDX 12 1 14 2 13 3 15 4 16 5 2 6 1 7 3 8 11 10 9 11 10 12 5 13
REMARK SMILES IDX 6 14 7 15 8 16 4 17
REMARK H PARENT
REMARK Flexibility Score: 60.00
ROOT
ATOM      1  C   UNL     1     -64.447 -78.794 225.365  1.00  0.00    -0.070 C 
ATOM      2  C   UNL     1     -63.419 -78.865 226.243  1.00  0.00    -0.027 C 
ATOM      3  C   UNL     1     -65.729 -78.144 225.818  1.00  0.00     0.039 C 
ENDROOT
BRANCH   2   4
ATOM      4  C   UNL     1     -62.113 -79.585 226.011  1.00  0.00     0.032 C 
BRANCH   4   5
ATOM      5  C   UNL     1     -61.000 -78.737 225.378  1.00  0.00     0.034 C 
BRANCH   5   6
ATOM      6  C   UNL     1     -60.275 -79.423 224.236  1.00  0.00    -0.077 C 
ATOM      7  C   UNL     1     -59.265 -80.488 224.584  1.00  0.00     0.039 C 
ATOM      8  C   UNL     1     -60.521 -79.200 222.920  1.00  0.00    -0.023 CG0
ATOM      9  G   UNL     1     -61.367 -78.110 222.289  1.00  0.00     0.000 G0
ENDBRANCH   5   6
ENDBRANCH   4   5
ENDBRANCH   2   4
BRANCH   1  10
ATOM     10  C   UNL     1     -64.347 -79.257 223.928  1.00  0.00     0.111 C 
BRANCH  10  11
ATOM     11  C   UNL     1     -63.801 -78.167 223.043  1.00  0.00     0.163 C 
ATOM     12  O   UNL     1     -64.188 -76.981 223.225  1.00  0.00    -0.294 OA
BRANCH  11  13
ATOM     13  C   UNL     1     -62.812 -78.441 221.967  1.00  0.00    -0.002 C 
ATOM     14  C   UNL     1     -63.230 -78.817 220.727  1.00  0.00    -0.069 C 
ATOM     15  C   UNL     1     -62.262 -78.976 219.580  1.00  0.00     0.039 C 
ATOM     16  C   UNL     1     -64.689 -79.117 220.466  1.00  0.00     0.039 C 
BRANCH  13  17
ATOM     17  C   UNL     1     -61.362 -78.111 222.267  1.00  0.00     0.066 CG0
ATOM     18  G   UNL     1     -60.527 -79.194 222.924  1.00  0.00     0.000 G0
ENDBRANCH  13  17
ENDBRANCH  11  13
ENDBRANCH  10  11
ENDBRANCH   1  10
TORSDOF 0
ENDMDL
MODEL 8
REMARK VINA RESULT:    -3.455      5.470      8.213
REMARK INTER + INTRA:          -5.024
REMARK INTER:                  -4.903
REMARK INTRA:                  -0.121
REMARK UNBOUND:                -0.155
REMARK SMILES CC1=CCC(=C(C)C)C(=O)CC(C)=CCC1
REMARK SMILES IDX 12 1 14 2 13 3 15 4 16 5 2 6 1 7 3 8 11 10 9 11 10 12 5 13
REMARK SMILES IDX 6 14 7 15 8 16 4 17
REMARK H PARENT
REMARK Flexibility Score: 60.00
ROOT
ATOM      1  C   UNL     1     -58.307 -74.890 215.725  1.00  0.00    -0.070 C 
ATOM      2  C   UNL     1     -58.266 -75.255 217.028  1.00  0.00    -0.027 C 
ATOM      3  C   UNL     1     -57.875 -73.493 215.362  1.00  0.00     0.039 C 
ENDROOT
BRANCH   2   4
ATOM      4  C   UNL     1     -58.775 -76.560 217.592  1.00  0.00     0.032 C 
BRANCH   4   5
ATOM      5  C   UNL     1     -57.706 -77.641 217.810  1.00  0.00     0.034 C 
BRANCH   5   6
ATOM      6  C   UNL     1     -58.139 -79.031 217.385  1.00  0.00    -0.077 C 
ATOM      7  C   UNL     1     -58.961 -79.839 218.358  1.00  0.00     0.039 C 
ATOM      8  C   UNL     1     -57.902 -79.574 216.164  1.00  0.00    -0.023 CG0
ATOM      9  G   UNL     1     -57.001 -79.056 215.059  1.00  0.00     0.000 G0
ENDBRANCH   5   6
ENDBRANCH   4   5
ENDBRANCH   2   4
BRANCH   1  10
ATOM     10  C   UNL     1     -58.685 -75.837 214.607  1.00  0.00     0.111 C 
BRANCH  10  11
ATOM     11  C   UNL     1     -57.513 -76.693 214.202  1.00  0.00     0.163 C 
ATOM     12  O   UNL     1     -56.388 -76.149 214.036  1.00  0.00    -0.294 OA
BRANCH  11  13
ATOM     13  C   UNL     1     -57.637 -78.161 214.001  1.00  0.00    -0.002 C 
ATOM     14  C   UNL     1     -58.149 -78.656 212.841  1.00  0.00    -0.069 C 
ATOM     15  C   UNL     1     -58.167 -80.138 212.552  1.00  0.00     0.039 C 
ATOM     16  C   UNL     1     -58.747 -77.729 211.807  1.00  0.00     0.039 C 
BRANCH  13  17
ATOM     17  C   UNL     1     -57.008 -79.053 215.055  1.00  0.00     0.066 CG0
ATOM     18  G   UNL     1     -57.912 -79.552 216.167  1.00  0.00     0.000 G0
ENDBRANCH  13  17
ENDBRANCH  11  13
ENDBRANCH  10  11
ENDBRANCH   1  10
TORSDOF 0
ENDMDL
MODEL 9
REMARK VINA RESULT:    -3.397     11.096     13.541
REMARK INTER + INTRA:          -4.943
REMARK INTER:                  -4.995
REMARK INTRA:                   0.052
REMARK UNBOUND:                -0.155
REMARK SMILES CC1=CCC(=C(C)C)C(=O)CC(C)=CCC1
REMARK SMILES IDX 12 1 14 2 13 3 15 4 16 5 2 6 1 7 3 8 11 10 9 11 10 12 5 13
REMARK SMILES IDX 6 14 7 15 8 16 4 17
REMARK H PARENT
REMARK Flexibility Score: 60.00
ROOT
ATOM      1  C   UNL     1     -72.649 -73.253 215.185  1.00  0.00    -0.070 C 
ATOM      2  C   UNL     1     -73.937 -73.645 215.318  1.00  0.00    -0.027 C 
ATOM      3  C   UNL     1     -72.283 -71.850 215.595  1.00  0.00     0.039 C 
ENDROOT
BRANCH   2   4
ATOM      4  C   UNL     1     -74.509 -74.960 214.846  1.00  0.00     0.032 C 
BRANCH   4   5
ATOM      5  C   UNL     1     -74.186 -76.171 215.734  1.00  0.00     0.034 C 
BRANCH   5   6
ATOM      6  C   UNL     1     -73.599 -77.349 214.980  1.00  0.00    -0.077 C 
ATOM      7  C   UNL     1     -74.470 -78.032 213.955  1.00  0.00     0.039 C 
ATOM      8  C   UNL     1     -72.321 -77.788 215.108  1.00  0.00    -0.023 CG0
ATOM      9  G   UNL     1     -71.284 -77.388 216.141  1.00  0.00     0.000 G0
ENDBRANCH   5   6
ENDBRANCH   4   5
ENDBRANCH   2   4
BRANCH   1  10
ATOM     10  C   UNL     1     -71.541 -74.176 214.725  1.00  0.00     0.111 C 
BRANCH  10  11
ATOM     11  C   UNL     1     -70.893 -74.871 215.894  1.00  0.00     0.163 C 
ATOM     12  O   UNL     1     -70.816 -74.266 216.998  1.00  0.00    -0.294 OA
BRANCH  11  13
ATOM     13  C   UNL     1     -70.349 -76.251 215.793  1.00  0.00    -0.002 C 
ATOM     14  C   UNL     1     -69.026 -76.453 215.549  1.00  0.00    -0.069 C 
ATOM     15  C   UNL     1     -68.419 -77.836 215.571  1.00  0.00     0.039 C 
ATOM     16  C   UNL     1     -68.118 -75.290 215.219  1.00  0.00     0.039 C 
BRANCH  13  17
ATOM     17  C   UNL     1     -71.290 -77.387 216.149  1.00  0.00     0.066 CG0
ATOM     18  G   UNL     1     -72.318 -77.786 215.107  1.00  0.00     0.000 G0
ENDBRANCH  13  17
ENDBRANCH  11  13
ENDBRANCH  10  11
ENDBRANCH   1  10
TORSDOF 0
ENDMDL
