MODEL 1
REMARK VINA RESULT:    -7.401      0.000      0.000
REMARK INTER + INTRA:          -9.840
REMARK INTER:                  -9.348
REMARK INTRA:                  -0.492
REMARK UNBOUND:                -0.492
REMARK SMILES O=C(C=Cc1ccc(O)cc1)c1ccc(O)cc1O
REMARK SMILES IDX 4 1 3 2 5 3 6 4 7 5 8 6 11 7 10 8 9 9 2 11 1 12 12 13 18 14
REMARK SMILES IDX 13 15 17 16 14 17 15 18 19 19 16 21
REMARK H PARENT 9 10 19 20 16 22
REMARK Flexibility Score: inf
ROOT
ATOM      1  C   UNL     1       6.249  -1.308  35.803  1.00  0.00     0.012 C 
ATOM      2  C   UNL     1       7.066  -0.266  35.591  1.00  0.00     0.053 C 
ENDROOT
BRANCH   1   3
ATOM      3  C   UNL     1       5.046  -1.246  36.669  1.00  0.00    -0.025 A 
ATOM      4  C   UNL     1       4.477  -2.450  37.118  1.00  0.00     0.012 A 
ATOM      5  C   UNL     1       3.350  -2.439  37.945  1.00  0.00     0.047 A 
ATOM      6  C   UNL     1       2.782  -1.227  38.345  1.00  0.00     0.115 A 
ATOM      7  C   UNL     1       4.477  -0.027  37.089  1.00  0.00     0.012 A 
ATOM      8  C   UNL     1       3.350  -0.021  37.917  1.00  0.00     0.047 A 
BRANCH   6   9
ATOM      9  O   UNL     1       1.658  -1.231  39.168  1.00  0.00    -0.508 OA
ATOM     10  H   UNL     1       0.931  -1.929  39.068  1.00  0.00     0.293 HD
ENDBRANCH   6   9
ENDBRANCH   1   3
BRANCH   2  11
ATOM     11  C   UNL     1       8.249  -0.360  34.707  1.00  0.00     0.189 C 
ATOM     12  O   UNL     1       8.204  -1.078  33.670  1.00  0.00    -0.289 OA
BRANCH  11  13
ATOM     13  C   UNL     1       9.478   0.416  34.990  1.00  0.00     0.064 A 
ATOM     14  C   UNL     1      10.721   0.087  34.405  1.00  0.00     0.130 A 
ATOM     15  C   UNL     1       9.401   1.529  35.847  1.00  0.00     0.020 A 
ATOM     16  C   UNL     1      11.862   0.842  34.715  1.00  0.00     0.093 A 
ATOM     17  C   UNL     1      10.541   2.279  36.143  1.00  0.00     0.047 A 
ATOM     18  C   UNL     1      11.773   1.937  35.584  1.00  0.00     0.119 A 
BRANCH  14  19
ATOM     19  O   UNL     1      10.820  -0.970  33.499  1.00  0.00    -0.507 OA
ATOM     20  H   UNL     1      11.374  -1.795  33.701  1.00  0.00     0.293 HD
ENDBRANCH  14  19
BRANCH  18  21
ATOM     21  O   UNL     1      12.903   2.691  35.892  1.00  0.00    -0.508 OA
ATOM     22  H   UNL     1      13.447   2.513  36.730  1.00  0.00     0.293 HD
ENDBRANCH  18  21
ENDBRANCH  11  13
ENDBRANCH   2  11
TORSDOF 6
ENDMDL
MODEL 2
REMARK VINA RESULT:    -7.205      1.723      7.975
REMARK INTER + INTRA:          -9.592
REMARK INTER:                  -9.021
REMARK INTRA:                  -0.571
REMARK UNBOUND:                -0.492
REMARK SMILES O=C(C=Cc1ccc(O)cc1)c1ccc(O)cc1O
REMARK SMILES IDX 4 1 3 2 5 3 6 4 7 5 8 6 11 7 10 8 9 9 2 11 1 12 12 13 18 14
REMARK SMILES IDX 13 15 17 16 14 17 15 18 19 19 16 21
REMARK H PARENT 9 10 19 20 16 22
REMARK Flexibility Score: inf
ROOT
ATOM      1  C   UNL     1       7.344   0.618  35.936  1.00  0.00     0.012 C 
ATOM      2  C   UNL     1       6.511  -0.432  35.984  1.00  0.00     0.053 C 
ENDROOT
BRANCH   1   3
ATOM      3  C   UNL     1       8.728   0.545  35.407  1.00  0.00    -0.025 A 
ATOM      4  C   UNL     1       9.757   1.178  36.126  1.00  0.00     0.012 A 
ATOM      5  C   UNL     1      11.078   1.126  35.672  1.00  0.00     0.047 A 
ATOM      6  C   UNL     1      11.392   0.434  34.500  1.00  0.00     0.115 A 
ATOM      7  C   UNL     1       9.055  -0.165  34.234  1.00  0.00     0.012 A 
ATOM      8  C   UNL     1      10.378  -0.214  33.783  1.00  0.00     0.047 A 
BRANCH   6   9
ATOM      9  O   UNL     1      12.712   0.391  34.057  1.00  0.00    -0.508 OA
ATOM     10  H   UNL     1      13.175  -0.487  33.856  1.00  0.00     0.293 HD
ENDBRANCH   6   9
ENDBRANCH   1   3
BRANCH   2  11
ATOM     11  C   UNL     1       5.130  -0.319  36.504  1.00  0.00     0.189 C 
ATOM     12  O   UNL     1       4.445   0.710  36.249  1.00  0.00    -0.289 OA
BRANCH  11  13
ATOM     13  C   UNL     1       4.514  -1.418  37.282  1.00  0.00     0.064 A 
ATOM     14  C   UNL     1       3.507  -1.180  38.243  1.00  0.00     0.130 A 
ATOM     15  C   UNL     1       4.926  -2.741  37.038  1.00  0.00     0.020 A 
ATOM     16  C   UNL     1       2.962  -2.252  38.966  1.00  0.00     0.093 A 
ATOM     17  C   UNL     1       4.373  -3.802  37.759  1.00  0.00     0.047 A 
ATOM     18  C   UNL     1       3.395  -3.562  38.726  1.00  0.00     0.119 A 
BRANCH  14  19
ATOM     19  O   UNL     1       3.027   0.112  38.461  1.00  0.00    -0.507 OA
ATOM     20  H   UNL     1       2.034   0.314  38.488  1.00  0.00     0.293 HD
ENDBRANCH  14  19
BRANCH  18  21
ATOM     21  O   UNL     1       2.856  -4.630  39.439  1.00  0.00    -0.508 OA
ATOM     22  H   UNL     1       2.367  -5.386  38.973  1.00  0.00     0.293 HD
ENDBRANCH  18  21
ENDBRANCH  11  13
ENDBRANCH   2  11
TORSDOF 6
ENDMDL
MODEL 3
REMARK VINA RESULT:    -7.111      2.718      3.511
REMARK INTER + INTRA:          -9.474
REMARK INTER:                  -8.852
REMARK INTRA:                  -0.622
REMARK UNBOUND:                -0.492
REMARK SMILES O=C(C=Cc1ccc(O)cc1)c1ccc(O)cc1O
REMARK SMILES IDX 4 1 3 2 5 3 6 4 7 5 8 6 11 7 10 8 9 9 2 11 1 12 12 13 18 14
REMARK SMILES IDX 13 15 17 16 14 17 15 18 19 19 16 21
REMARK H PARENT 9 10 19 20 16 22
REMARK Flexibility Score: inf
ROOT
ATOM      1  C   UNL     1       6.045  -1.885  36.331  1.00  0.00     0.012 C 
ATOM      2  C   UNL     1       7.125  -1.443  35.672  1.00  0.00     0.053 C 
ENDROOT
BRANCH   1   3
ATOM      3  C   UNL     1       5.602  -3.302  36.326  1.00  0.00    -0.025 A 
ATOM      4  C   UNL     1       6.236  -4.202  35.452  1.00  0.00     0.012 A 
ATOM      5  C   UNL     1       5.859  -5.548  35.422  1.00  0.00     0.047 A 
ATOM      6  C   UNL     1       4.853  -6.017  36.270  1.00  0.00     0.115 A 
ATOM      7  C   UNL     1       4.600  -3.785  37.190  1.00  0.00     0.012 A 
ATOM      8  C   UNL     1       4.226  -5.132  37.157  1.00  0.00     0.047 A 
BRANCH   6   9
ATOM      9  O   UNL     1       4.487  -7.360  36.228  1.00  0.00    -0.508 OA
ATOM     10  H   UNL     1       4.532  -7.947  37.052  1.00  0.00     0.293 HD
ENDBRANCH   6   9
ENDBRANCH   1   3
BRANCH   2  11
ATOM     11  C   UNL     1       7.546  -0.025  35.712  1.00  0.00     0.189 C 
ATOM     12  O   UNL     1       6.740   0.859  36.115  1.00  0.00    -0.289 OA
BRANCH  11  13
ATOM     13  C   UNL     1       8.921   0.376  35.333  1.00  0.00     0.064 A 
ATOM     14  C   UNL     1       9.671   1.291  36.103  1.00  0.00     0.130 A 
ATOM     15  C   UNL     1       9.505  -0.191  34.186  1.00  0.00     0.020 A 
ATOM     16  C   UNL     1      10.964   1.652  35.697  1.00  0.00     0.093 A 
ATOM     17  C   UNL     1      10.797   0.169  33.793  1.00  0.00     0.047 A 
ATOM     18  C   UNL     1      11.527   1.093  34.543  1.00  0.00     0.119 A 
BRANCH  14  19
ATOM     19  O   UNL     1       9.147   1.821  37.283  1.00  0.00    -0.507 OA
ATOM     20  H   UNL     1       9.138   1.291  38.147  1.00  0.00     0.293 HD
ENDBRANCH  14  19
BRANCH  18  21
ATOM     21  O   UNL     1      12.811   1.447  34.136  1.00  0.00    -0.508 OA
ATOM     22  H   UNL     1      13.635   1.040  34.567  1.00  0.00     0.293 HD
ENDBRANCH  18  21
ENDBRANCH  11  13
ENDBRANCH   2  11
TORSDOF 6
ENDMDL
MODEL 4
REMARK VINA RESULT:    -6.853      2.246      7.798
REMARK INTER + INTRA:          -9.148
REMARK INTER:                  -8.679
REMARK INTRA:                  -0.469
REMARK UNBOUND:                -0.492
REMARK SMILES O=C(C=Cc1ccc(O)cc1)c1ccc(O)cc1O
REMARK SMILES IDX 4 1 3 2 5 3 6 4 7 5 8 6 11 7 10 8 9 9 2 11 1 12 12 13 18 14
REMARK SMILES IDX 13 15 17 16 14 17 15 18 19 19 16 21
REMARK H PARENT 9 10 19 20 16 22
REMARK Flexibility Score: inf
ROOT
ATOM      1  C   UNL     1       7.822   0.938  36.122  1.00  0.00     0.012 C 
ATOM      2  C   UNL     1       7.117  -0.098  35.643  1.00  0.00     0.053 C 
ENDROOT
BRANCH   1   3
ATOM      3  C   UNL     1       9.142   1.352  35.585  1.00  0.00    -0.025 A 
ATOM      4  C   UNL     1       9.192   1.967  34.323  1.00  0.00     0.012 A 
ATOM      5  C   UNL     1      10.412   2.384  33.783  1.00  0.00     0.047 A 
ATOM      6  C   UNL     1      11.598   2.201  34.498  1.00  0.00     0.115 A 
ATOM      7  C   UNL     1      10.340   1.185  36.309  1.00  0.00     0.012 A 
ATOM      8  C   UNL     1      11.558   1.603  35.764  1.00  0.00     0.047 A 
BRANCH   6   9
ATOM      9  O   UNL     1      12.807   2.619  33.947  1.00  0.00    -0.508 OA
ATOM     10  H   UNL     1      13.385   1.992  33.402  1.00  0.00     0.293 HD
ENDBRANCH   6   9
ENDBRANCH   1   3
BRANCH   2  11
ATOM     11  C   UNL     1       5.796  -0.473  36.194  1.00  0.00     0.189 C 
ATOM     12  O   UNL     1       4.947   0.424  36.458  1.00  0.00    -0.289 OA
BRANCH  11  13
ATOM     13  C   UNL     1       5.426  -1.893  36.395  1.00  0.00     0.064 A 
ATOM     14  C   UNL     1       4.332  -2.272  37.203  1.00  0.00     0.130 A 
ATOM     15  C   UNL     1       6.171  -2.891  35.743  1.00  0.00     0.020 A 
ATOM     16  C   UNL     1       4.029  -3.631  37.377  1.00  0.00     0.093 A 
ATOM     17  C   UNL     1       5.857  -4.241  35.916  1.00  0.00     0.047 A 
ATOM     18  C   UNL     1       4.791  -4.615  36.735  1.00  0.00     0.119 A 
BRANCH  14  19
ATOM     19  O   UNL     1       3.531  -1.305  37.811  1.00  0.00    -0.507 OA
ATOM     20  H   UNL     1       3.854  -0.354  37.946  1.00  0.00     0.293 HD
ENDBRANCH  14  19
BRANCH  18  21
ATOM     21  O   UNL     1       4.493  -5.965  36.902  1.00  0.00    -0.508 OA
ATOM     22  H   UNL     1       4.032  -6.307  37.739  1.00  0.00     0.293 HD
ENDBRANCH  18  21
ENDBRANCH  11  13
ENDBRANCH   2  11
TORSDOF 6
ENDMDL
MODEL 5
REMARK VINA RESULT:    -6.843      2.006      7.912
REMARK INTER + INTRA:          -9.136
REMARK INTER:                  -8.536
REMARK INTRA:                  -0.600
REMARK UNBOUND:                -0.492
REMARK SMILES O=C(C=Cc1ccc(O)cc1)c1ccc(O)cc1O
REMARK SMILES IDX 4 1 3 2 5 3 6 4 7 5 8 6 11 7 10 8 9 9 2 11 1 12 12 13 18 14
REMARK SMILES IDX 13 15 17 16 14 17 15 18 19 19 16 21
REMARK H PARENT 9 10 19 20 16 22
REMARK Flexibility Score: inf
ROOT
ATOM      1  C   UNL     1       6.539  -1.650  35.791  1.00  0.00     0.012 C 
ATOM      2  C   UNL     1       5.369  -1.375  36.384  1.00  0.00     0.053 C 
ENDROOT
BRANCH   1   3
ATOM      3  C   UNL     1       7.490  -0.609  35.329  1.00  0.00    -0.025 A 
ATOM      4  C   UNL     1       7.694   0.523  36.136  1.00  0.00     0.012 A 
ATOM      5  C   UNL     1       8.589   1.523  35.746  1.00  0.00     0.047 A 
ATOM      6  C   UNL     1       9.301   1.404  34.550  1.00  0.00     0.115 A 
ATOM      7  C   UNL     1       8.224  -0.731  34.132  1.00  0.00     0.012 A 
ATOM      8  C   UNL     1       9.119   0.272  33.745  1.00  0.00     0.047 A 
BRANCH   6   9
ATOM      9  O   UNL     1      10.188   2.408  34.173  1.00  0.00    -0.508 OA
ATOM     10  H   UNL     1      10.193   3.311  34.632  1.00  0.00     0.293 HD
ENDBRANCH   6   9
ENDBRANCH   1   3
BRANCH   2  11
ATOM     11  C   UNL     1       4.451  -2.440  36.847  1.00  0.00     0.189 C 
ATOM     12  O   UNL     1       4.354  -3.515  36.192  1.00  0.00    -0.289 OA
BRANCH  11  13
ATOM     13  C   UNL     1       3.675  -2.290  38.100  1.00  0.00     0.064 A 
ATOM     14  C   UNL     1       3.353  -3.396  38.915  1.00  0.00     0.130 A 
ATOM     15  C   UNL     1       3.270  -1.005  38.501  1.00  0.00     0.020 A 
ATOM     16  C   UNL     1       2.603  -3.208  40.086  1.00  0.00     0.093 A 
ATOM     17  C   UNL     1       2.530  -0.826  39.673  1.00  0.00     0.047 A 
ATOM     18  C   UNL     1       2.191  -1.924  40.465  1.00  0.00     0.119 A 
BRANCH  14  19
ATOM     19  O   UNL     1       3.797  -4.676  38.581  1.00  0.00    -0.507 OA
ATOM     20  H   UNL     1       3.230  -5.310  38.030  1.00  0.00     0.293 HD
ENDBRANCH  14  19
BRANCH  18  21
ATOM     21  O   UNL     1       1.448  -1.731  41.627  1.00  0.00    -0.508 OA
ATOM     22  H   UNL     1       1.725  -1.049  42.326  1.00  0.00     0.293 HD
ENDBRANCH  18  21
ENDBRANCH  11  13
ENDBRANCH   2  11
TORSDOF 6
ENDMDL
MODEL 6
REMARK VINA RESULT:    -6.836      1.362      7.623
REMARK INTER + INTRA:          -9.127
REMARK INTER:                  -9.037
REMARK INTRA:                  -0.090
REMARK UNBOUND:                -0.492
REMARK SMILES O=C(C=Cc1ccc(O)cc1)c1ccc(O)cc1O
REMARK SMILES IDX 4 1 3 2 5 3 6 4 7 5 8 6 11 7 10 8 9 9 2 11 1 12 12 13 18 14
REMARK SMILES IDX 13 15 17 16 14 17 15 18 19 19 16 21
REMARK H PARENT 9 10 19 20 16 22
REMARK Flexibility Score: inf
ROOT
ATOM      1  C   UNL     1       7.920  -0.644  34.921  1.00  0.00     0.012 C 
ATOM      2  C   UNL     1       7.367  -1.224  35.996  1.00  0.00     0.053 C 
ENDROOT
BRANCH   1   3
ATOM      3  C   UNL     1       9.166   0.161  34.972  1.00  0.00    -0.025 A 
ATOM      4  C   UNL     1       9.312   1.111  35.998  1.00  0.00     0.012 A 
ATOM      5  C   UNL     1      10.473   1.883  36.091  1.00  0.00     0.047 A 
ATOM      6  C   UNL     1      11.509   1.713  35.169  1.00  0.00     0.115 A 
ATOM      7  C   UNL     1      10.221  -0.017  34.055  1.00  0.00     0.012 A 
ATOM      8  C   UNL     1      11.381   0.759  34.152  1.00  0.00     0.047 A 
BRANCH   6   9
ATOM      9  O   UNL     1      12.659   2.491  35.272  1.00  0.00    -0.508 OA
ATOM     10  H   UNL     1      13.244   2.681  34.468  1.00  0.00     0.293 HD
ENDBRANCH   6   9
ENDBRANCH   1   3
BRANCH   2  11
ATOM     11  C   UNL     1       6.132  -2.034  35.906  1.00  0.00     0.189 C 
ATOM     12  O   UNL     1       6.076  -3.009  35.106  1.00  0.00    -0.289 OA
BRANCH  11  13
ATOM     13  C   UNL     1       4.968  -1.752  36.777  1.00  0.00     0.064 A 
ATOM     14  C   UNL     1       4.496  -0.438  36.991  1.00  0.00     0.130 A 
ATOM     15  C   UNL     1       4.297  -2.825  37.389  1.00  0.00     0.020 A 
ATOM     16  C   UNL     1       3.399  -0.218  37.837  1.00  0.00     0.093 A 
ATOM     17  C   UNL     1       3.201  -2.597  38.224  1.00  0.00     0.047 A 
ATOM     18  C   UNL     1       2.752  -1.295  38.454  1.00  0.00     0.119 A 
BRANCH  14  19
ATOM     19  O   UNL     1       5.097   0.645  36.347  1.00  0.00    -0.507 OA
ATOM     20  H   UNL     1       4.826   1.601  36.547  1.00  0.00     0.293 HD
ENDBRANCH  14  19
BRANCH  18  21
ATOM     21  O   UNL     1       1.661  -1.082  39.293  1.00  0.00    -0.508 OA
ATOM     22  H   UNL     1       1.597  -1.525  40.204  1.00  0.00     0.293 HD
ENDBRANCH  18  21
ENDBRANCH  11  13
ENDBRANCH   2  11
TORSDOF 6
ENDMDL
MODEL 7
REMARK VINA RESULT:    -6.790      1.542      7.597
REMARK INTER + INTRA:          -9.068
REMARK INTER:                  -8.432
REMARK INTRA:                  -0.636
REMARK UNBOUND:                -0.492
REMARK SMILES O=C(C=Cc1ccc(O)cc1)c1ccc(O)cc1O
REMARK SMILES IDX 4 1 3 2 5 3 6 4 7 5 8 6 11 7 10 8 9 9 2 11 1 12 12 13 18 14
REMARK SMILES IDX 13 15 17 16 14 17 15 18 19 19 16 21
REMARK H PARENT 9 10 19 20 16 22
REMARK Flexibility Score: inf
ROOT
ATOM      1  C   UNL     1       7.512  -0.675  35.208  1.00  0.00     0.012 C 
ATOM      2  C   UNL     1       7.258  -1.673  36.066  1.00  0.00     0.053 C 
ENDROOT
BRANCH   1   3
ATOM      3  C   UNL     1       8.751   0.142  35.242  1.00  0.00    -0.025 A 
ATOM      4  C   UNL     1       8.928   1.052  36.297  1.00  0.00     0.012 A 
ATOM      5  C   UNL     1      10.084   1.834  36.376  1.00  0.00     0.047 A 
ATOM      6  C   UNL     1      11.084   1.712  35.408  1.00  0.00     0.115 A 
ATOM      7  C   UNL     1       9.771   0.011  34.278  1.00  0.00     0.012 A 
ATOM      8  C   UNL     1      10.926   0.796  34.360  1.00  0.00     0.047 A 
BRANCH   6   9
ATOM      9  O   UNL     1      12.230   2.498  35.497  1.00  0.00    -0.508 OA
ATOM     10  H   UNL     1      13.153   2.107  35.353  1.00  0.00     0.293 HD
ENDBRANCH   6   9
ENDBRANCH   1   3
BRANCH   2  11
ATOM     11  C   UNL     1       6.018  -2.478  35.993  1.00  0.00     0.189 C 
ATOM     12  O   UNL     1       5.958  -3.472  35.217  1.00  0.00    -0.289 OA
BRANCH  11  13
ATOM     13  C   UNL     1       4.854  -2.168  36.855  1.00  0.00     0.064 A 
ATOM     14  C   UNL     1       4.134  -3.179  37.528  1.00  0.00     0.130 A 
ATOM     15  C   UNL     1       4.470  -0.827  37.027  1.00  0.00     0.020 A 
ATOM     16  C   UNL     1       3.028  -2.840  38.322  1.00  0.00     0.093 A 
ATOM     17  C   UNL     1       3.372  -0.498  37.826  1.00  0.00     0.047 A 
ATOM     18  C   UNL     1       2.646  -1.501  38.471  1.00  0.00     0.119 A 
BRANCH  14  19
ATOM     19  O   UNL     1       4.528  -4.514  37.432  1.00  0.00    -0.507 OA
ATOM     20  H   UNL     1       3.854  -5.262  37.308  1.00  0.00     0.293 HD
ENDBRANCH  14  19
BRANCH  18  21
ATOM     21  O   UNL     1       1.551  -1.158  39.260  1.00  0.00    -0.508 OA
ATOM     22  H   UNL     1       1.151  -1.812  39.925  1.00  0.00     0.293 HD
ENDBRANCH  18  21
ENDBRANCH  11  13
ENDBRANCH   2  11
TORSDOF 6
ENDMDL
MODEL 8
REMARK VINA RESULT:    -6.772      3.159      9.166
REMARK INTER + INTRA:          -9.046
REMARK INTER:                  -8.544
REMARK INTRA:                  -0.502
REMARK UNBOUND:                -0.492
REMARK SMILES O=C(C=Cc1ccc(O)cc1)c1ccc(O)cc1O
REMARK SMILES IDX 4 1 3 2 5 3 6 4 7 5 8 6 11 7 10 8 9 9 2 11 1 12 12 13 18 14
REMARK SMILES IDX 13 15 17 16 14 17 15 18 19 19 16 21
REMARK H PARENT 9 10 19 20 16 22
REMARK Flexibility Score: inf
ROOT
ATOM      1  C   UNL     1       4.157  -2.944  37.095  1.00  0.00     0.012 C 
ATOM      2  C   UNL     1       4.258  -3.563  38.280  1.00  0.00     0.053 C 
ENDROOT
BRANCH   1   3
ATOM      3  C   UNL     1       5.144  -1.954  36.598  1.00  0.00    -0.025 A 
ATOM      4  C   UNL     1       4.849  -0.586  36.728  1.00  0.00     0.012 A 
ATOM      5  C   UNL     1       5.754   0.382  36.285  1.00  0.00     0.047 A 
ATOM      6  C   UNL     1       6.971  -0.000  35.714  1.00  0.00     0.115 A 
ATOM      7  C   UNL     1       6.380  -2.332  36.036  1.00  0.00     0.012 A 
ATOM      8  C   UNL     1       7.283  -1.360  35.593  1.00  0.00     0.047 A 
BRANCH   6   9
ATOM      9  O   UNL     1       7.863   0.975  35.274  1.00  0.00    -0.508 OA
ATOM     10  H   UNL     1       7.874   1.903  35.679  1.00  0.00     0.293 HD
ENDBRANCH   6   9
ENDBRANCH   1   3
BRANCH   2  11
ATOM     11  C   UNL     1       3.262  -4.558  38.736  1.00  0.00     0.189 C 
ATOM     12  O   UNL     1       3.339  -5.753  38.338  1.00  0.00    -0.289 OA
BRANCH  11  13
ATOM     13  C   UNL     1       2.198  -4.188  39.698  1.00  0.00     0.064 A 
ATOM     14  C   UNL     1       1.097  -5.034  39.955  1.00  0.00     0.130 A 
ATOM     15  C   UNL     1       2.300  -2.970  40.394  1.00  0.00     0.020 A 
ATOM     16  C   UNL     1       0.105  -4.635  40.863  1.00  0.00     0.093 A 
ATOM     17  C   UNL     1       1.311  -2.585  41.302  1.00  0.00     0.047 A 
ATOM     18  C   UNL     1       0.210  -3.412  41.536  1.00  0.00     0.119 A 
BRANCH  14  19
ATOM     19  O   UNL     1       0.999  -6.279  39.332  1.00  0.00    -0.507 OA
ATOM     20  H   UNL     1       0.136  -6.811  39.338  1.00  0.00     0.293 HD
ENDBRANCH  14  19
BRANCH  18  21
ATOM     21  O   UNL     1      -0.770  -3.012  42.440  1.00  0.00    -0.508 OA
ATOM     22  H   UNL     1      -1.503  -2.362  42.176  1.00  0.00     0.293 HD
ENDBRANCH  18  21
ENDBRANCH  11  13
ENDBRANCH   2  11
TORSDOF 6
ENDMDL
MODEL 9
REMARK VINA RESULT:    -6.768      5.377      8.912
REMARK INTER + INTRA:          -9.040
REMARK INTER:                  -8.356
REMARK INTRA:                  -0.684
REMARK UNBOUND:                -0.492
REMARK SMILES O=C(C=Cc1ccc(O)cc1)c1ccc(O)cc1O
REMARK SMILES IDX 4 1 3 2 5 3 6 4 7 5 8 6 11 7 10 8 9 9 2 11 1 12 12 13 18 14
REMARK SMILES IDX 13 15 17 16 14 17 15 18 19 19 16 21
REMARK H PARENT 9 10 19 20 16 22
REMARK Flexibility Score: inf
ROOT
ATOM      1  C   UNL     1       3.664  -3.227  37.397  1.00  0.00     0.012 C 
ATOM      2  C   UNL     1       3.911  -1.912  37.494  1.00  0.00     0.053 C 
ENDROOT
BRANCH   1   3
ATOM      3  C   UNL     1       4.539  -4.175  36.665  1.00  0.00    -0.025 A 
ATOM      4  C   UNL     1       5.506  -3.658  35.786  1.00  0.00     0.012 A 
ATOM      5  C   UNL     1       6.359  -4.514  35.084  1.00  0.00     0.047 A 
ATOM      6  C   UNL     1       6.266  -5.897  35.255  1.00  0.00     0.115 A 
ATOM      7  C   UNL     1       4.461  -5.571  36.845  1.00  0.00     0.012 A 
ATOM      8  C   UNL     1       5.316  -6.424  36.140  1.00  0.00     0.047 A 
BRANCH   6   9
ATOM      9  O   UNL     1       7.121  -6.739  34.548  1.00  0.00    -0.508 OA
ATOM     10  H   UNL     1       7.682  -7.439  35.017  1.00  0.00     0.293 HD
ENDBRANCH   6   9
ENDBRANCH   1   3
BRANCH   2  11
ATOM     11  C   UNL     1       3.025  -0.997  38.247  1.00  0.00     0.189 C 
ATOM     12  O   UNL     1       3.008   0.234  37.967  1.00  0.00    -0.289 OA
BRANCH  11  13
ATOM     13  C   UNL     1       2.112  -1.508  39.296  1.00  0.00     0.064 A 
ATOM     14  C   UNL     1       0.714  -1.561  39.108  1.00  0.00     0.130 A 
ATOM     15  C   UNL     1       2.657  -1.976  40.505  1.00  0.00     0.020 A 
ATOM     16  C   UNL     1      -0.112  -2.039  40.136  1.00  0.00     0.093 A 
ATOM     17  C   UNL     1       1.827  -2.457  41.520  1.00  0.00     0.047 A 
ATOM     18  C   UNL     1       0.442  -2.486  41.342  1.00  0.00     0.119 A 
BRANCH  14  19
ATOM     19  O   UNL     1       0.146  -1.168  37.895  1.00  0.00    -0.507 OA
ATOM     20  H   UNL     1      -0.216  -1.844  37.232  1.00  0.00     0.293 HD
ENDBRANCH  14  19
BRANCH  18  21
ATOM     21  O   UNL     1      -0.373  -2.963  42.365  1.00  0.00    -0.508 OA
ATOM     22  H   UNL     1      -0.184  -3.847  42.826  1.00  0.00     0.293 HD
ENDBRANCH  18  21
ENDBRANCH  11  13
ENDBRANCH   2  11
TORSDOF 6
ENDMDL
