MODEL 1
REMARK VINA RESULT:    -2.521      0.000      0.000
REMARK INTER + INTRA:          -2.999
REMARK INTER:                  -2.963
REMARK INTRA:                  -0.035
REMARK UNBOUND:                -0.035
REMARK SMILES CCCCC(=O)[O-]
REMARK SMILES IDX 4 1 5 2 6 3 7 4 3 5 2 6 1 7
REMARK H PARENT
REMARK Flexibility Score: inf
ROOT
ATOM      1  C   UNL     1    -103.206 -26.688 -14.974  1.00  0.00     0.053 C 
ENDROOT
BRANCH   1   2
ATOM      2  C   UNL     1    -101.924 -27.391 -15.301  1.00  0.00     0.041 C 
ATOM      3  O   UNL     1    -101.737 -27.865 -16.453  1.00  0.00    -0.550 OA
ATOM      4  O   UNL     1    -100.951 -27.552 -14.324  1.00  0.00    -0.550 OA
ENDBRANCH   1   2
BRANCH   1   5
ATOM      5  C   UNL     1    -103.661 -25.765 -16.116  1.00  0.00     0.006 C 
BRANCH   5   6
ATOM      6  C   UNL     1    -104.414 -24.507 -15.646  1.00  0.00    -0.003 C 
ATOM      7  C   UNL     1    -104.613 -24.465 -14.131  1.00  0.00     0.004 C 
ENDBRANCH   5   6
ENDBRANCH   1   5
TORSDOF 3
ENDMDL
MODEL 2
REMARK VINA RESULT:    -2.467      2.267      4.076
REMARK INTER + INTRA:          -2.935
REMARK INTER:                  -2.888
REMARK INTRA:                  -0.047
REMARK UNBOUND:                -0.035
REMARK SMILES CCCCC(=O)[O-]
REMARK SMILES IDX 4 1 5 2 6 3 7 4 3 5 2 6 1 7
REMARK H PARENT
REMARK Flexibility Score: inf
ROOT
ATOM      1  C   UNL     1    -102.330 -27.178 -14.510  1.00  0.00     0.053 C 
ENDROOT
BRANCH   1   2
ATOM      2  C   UNL     1    -102.427 -27.167 -16.005  1.00  0.00     0.041 C 
ATOM      3  O   UNL     1    -101.799 -28.020 -16.687  1.00  0.00    -0.550 OA
ATOM      4  O   UNL     1    -103.184 -26.196 -16.646  1.00  0.00    -0.550 OA
ENDBRANCH   1   2
BRANCH   1   5
ATOM      5  C   UNL     1    -101.406 -28.296 -14.002  1.00  0.00     0.006 C 
BRANCH   5   6
ATOM      6  C   UNL     1    -100.081 -27.793 -13.403  1.00  0.00    -0.003 C 
ATOM      7  C   UNL     1     -99.081 -28.919 -13.143  1.00  0.00     0.004 C 
ENDBRANCH   5   6
ENDBRANCH   1   5
TORSDOF 3
ENDMDL
MODEL 3
REMARK VINA RESULT:    -2.454     11.467     12.225
REMARK INTER + INTRA:          -2.919
REMARK INTER:                  -2.903
REMARK INTRA:                  -0.016
REMARK UNBOUND:                -0.035
REMARK SMILES CCCCC(=O)[O-]
REMARK SMILES IDX 4 1 5 2 6 3 7 4 3 5 2 6 1 7
REMARK H PARENT
REMARK Flexibility Score: inf
ROOT
ATOM      1  C   UNL     1     -98.672 -28.565  -4.370  1.00  0.00     0.053 C 
ENDROOT
BRANCH   1   2
ATOM      2  C   UNL     1     -97.824 -28.664  -3.139  1.00  0.00     0.041 C 
ATOM      3  O   UNL     1     -98.188 -29.391  -2.176  1.00  0.00    -0.550 OA
ATOM      4  O   UNL     1     -96.651 -27.929  -3.042  1.00  0.00    -0.550 OA
ENDBRANCH   1   2
BRANCH   1   5
ATOM      5  C   UNL     1     -98.923 -27.105  -4.779  1.00  0.00     0.006 C 
BRANCH   5   6
ATOM      6  C   UNL     1    -100.364 -26.819  -5.238  1.00  0.00    -0.003 C 
ATOM      7  C   UNL     1    -100.717 -25.332  -5.197  1.00  0.00     0.004 C 
ENDBRANCH   5   6
ENDBRANCH   1   5
TORSDOF 3
ENDMDL
MODEL 4
REMARK VINA RESULT:    -2.448      2.873      4.022
REMARK INTER + INTRA:          -2.913
REMARK INTER:                  -2.884
REMARK INTRA:                  -0.029
REMARK UNBOUND:                -0.035
REMARK SMILES CCCCC(=O)[O-]
REMARK SMILES IDX 4 1 5 2 6 3 7 4 3 5 2 6 1 7
REMARK H PARENT
REMARK Flexibility Score: inf
ROOT
ATOM      1  C   UNL     1    -103.574 -25.813 -15.473  1.00  0.00     0.053 C 
ENDROOT
BRANCH   1   2
ATOM      2  C   UNL     1    -104.646 -24.839 -15.855  1.00  0.00     0.041 C 
ATOM      3  O   UNL     1    -104.585 -23.644 -15.465  1.00  0.00    -0.550 OA
ATOM      4  O   UNL     1    -105.729 -25.261 -16.615  1.00  0.00    -0.550 OA
ENDBRANCH   1   2
BRANCH   1   5
ATOM      5  C   UNL     1    -103.213 -26.754 -16.633  1.00  0.00     0.006 C 
BRANCH   5   6
ATOM      6  C   UNL     1    -102.104 -27.768 -16.299  1.00  0.00    -0.003 C 
ATOM      7  C   UNL     1    -101.539 -27.588 -14.890  1.00  0.00     0.004 C 
ENDBRANCH   5   6
ENDBRANCH   1   5
TORSDOF 3
ENDMDL
MODEL 5
REMARK VINA RESULT:    -2.443      2.892      4.069
REMARK INTER + INTRA:          -2.907
REMARK INTER:                  -2.803
REMARK INTRA:                  -0.104
REMARK UNBOUND:                -0.035
REMARK SMILES CCCCC(=O)[O-]
REMARK SMILES IDX 4 1 5 2 6 3 7 4 3 5 2 6 1 7
REMARK H PARENT
REMARK Flexibility Score: inf
ROOT
ATOM      1  C   UNL     1    -100.194 -27.794 -13.350  1.00  0.00     0.053 C 
ENDROOT
BRANCH   1   2
ATOM      2  C   UNL     1     -99.403 -29.066 -13.337  1.00  0.00     0.041 C 
ATOM      3  O   UNL     1     -98.621 -29.317 -12.382  1.00  0.00    -0.550 OA
ATOM      4  O   UNL     1     -99.505 -29.959 -14.395  1.00  0.00    -0.550 OA
ENDBRANCH   1   2
BRANCH   1   5
ATOM      5  C   UNL     1    -101.633 -28.017 -13.843  1.00  0.00     0.006 C 
BRANCH   5   6
ATOM      6  C   UNL     1    -101.987 -27.240 -15.123  1.00  0.00    -0.003 C 
ATOM      7  C   UNL     1    -101.885 -28.097 -16.386  1.00  0.00     0.004 C 
ENDBRANCH   5   6
ENDBRANCH   1   5
TORSDOF 3
ENDMDL
MODEL 6
REMARK VINA RESULT:    -2.442      1.446      2.178
REMARK INTER + INTRA:          -2.906
REMARK INTER:                  -2.877
REMARK INTRA:                  -0.028
REMARK UNBOUND:                -0.035
REMARK SMILES CCCCC(=O)[O-]
REMARK SMILES IDX 4 1 5 2 6 3 7 4 3 5 2 6 1 7
REMARK H PARENT
REMARK Flexibility Score: inf
ROOT
ATOM      1  C   UNL     1    -102.196 -27.210 -14.810  1.00  0.00     0.053 C 
ENDROOT
BRANCH   1   2
ATOM      2  C   UNL     1    -101.055 -28.040 -14.308  1.00  0.00     0.041 C 
ATOM      3  O   UNL     1    -100.220 -27.549 -13.504  1.00  0.00    -0.550 OA
ATOM      4  O   UNL     1    -100.895 -29.345 -14.754  1.00  0.00    -0.550 OA
ENDBRANCH   1   2
BRANCH   1   5
ATOM      5  C   UNL     1    -102.429 -27.404 -16.317  1.00  0.00     0.006 C 
BRANCH   5   6
ATOM      6  C   UNL     1    -103.506 -26.480 -16.912  1.00  0.00    -0.003 C 
ATOM      7  C   UNL     1    -103.899 -25.342 -15.969  1.00  0.00     0.004 C 
ENDBRANCH   5   6
ENDBRANCH   1   5
TORSDOF 3
ENDMDL
MODEL 7
REMARK VINA RESULT:    -2.428      2.525      4.541
REMARK INTER + INTRA:          -2.890
REMARK INTER:                  -2.851
REMARK INTRA:                  -0.039
REMARK UNBOUND:                -0.035
REMARK SMILES CCCCC(=O)[O-]
REMARK SMILES IDX 4 1 5 2 6 3 7 4 3 5 2 6 1 7
REMARK H PARENT
REMARK Flexibility Score: inf
ROOT
ATOM      1  C   UNL     1    -101.935 -27.717 -13.909  1.00  0.00     0.053 C 
ENDROOT
BRANCH   1   2
ATOM      2  C   UNL     1    -102.168 -27.316 -15.333  1.00  0.00     0.041 C 
ATOM      3  O   UNL     1    -102.946 -26.363 -15.605  1.00  0.00    -0.550 OA
ATOM      4  O   UNL     1    -101.552 -28.015 -16.362  1.00  0.00    -0.550 OA
ENDBRANCH   1   2
BRANCH   1   5
ATOM      5  C   UNL     1    -100.439 -27.758 -13.561  1.00  0.00     0.006 C 
BRANCH   5   6
ATOM      6  C   UNL     1     -99.962 -29.106 -12.993  1.00  0.00    -0.003 C 
ATOM      7  C   UNL     1     -98.448 -29.294 -13.101  1.00  0.00     0.004 C 
ENDBRANCH   5   6
ENDBRANCH   1   5
TORSDOF 3
ENDMDL
MODEL 8
REMARK VINA RESULT:    -2.425      2.221      3.865
REMARK INTER + INTRA:          -2.886
REMARK INTER:                  -2.839
REMARK INTRA:                  -0.046
REMARK UNBOUND:                -0.035
REMARK SMILES CCCCC(=O)[O-]
REMARK SMILES IDX 4 1 5 2 6 3 7 4 3 5 2 6 1 7
REMARK H PARENT
REMARK Flexibility Score: inf
ROOT
ATOM      1  C   UNL     1    -101.979 -27.631 -15.881  1.00  0.00     0.053 C 
ENDROOT
BRANCH   1   2
ATOM      2  C   UNL     1    -103.059 -26.595 -15.951  1.00  0.00     0.041 C 
ATOM      3  O   UNL     1    -103.511 -26.225 -17.067  1.00  0.00    -0.550 OA
ATOM      4  O   UNL     1    -103.544 -26.016 -14.786  1.00  0.00    -0.550 OA
ENDBRANCH   1   2
BRANCH   1   5
ATOM      5  C   UNL     1    -101.811 -28.190 -14.460  1.00  0.00     0.006 C 
BRANCH   5   6
ATOM      6  C   UNL     1    -100.577 -27.653 -13.714  1.00  0.00    -0.003 C 
ATOM      7  C   UNL     1     -99.766 -28.757 -13.034  1.00  0.00     0.004 C 
ENDBRANCH   5   6
ENDBRANCH   1   5
TORSDOF 3
ENDMDL
MODEL 9
REMARK VINA RESULT:    -2.420      1.464      2.182
REMARK INTER + INTRA:          -2.880
REMARK INTER:                  -2.858
REMARK INTRA:                  -0.022
REMARK UNBOUND:                -0.035
REMARK SMILES CCCCC(=O)[O-]
REMARK SMILES IDX 4 1 5 2 6 3 7 4 3 5 2 6 1 7
REMARK H PARENT
REMARK Flexibility Score: inf
ROOT
ATOM      1  C   UNL     1    -101.876 -27.984 -16.415  1.00  0.00     0.053 C 
ENDROOT
BRANCH   1   2
ATOM      2  C   UNL     1    -101.346 -29.045 -15.500  1.00  0.00     0.041 C 
ATOM      3  O   UNL     1    -101.618 -29.017 -14.271  1.00  0.00    -0.550 OA
ATOM      4  O   UNL     1    -100.525 -30.047 -16.000  1.00  0.00    -0.550 OA
ENDBRANCH   1   2
BRANCH   1   5
ATOM      5  C   UNL     1    -102.675 -26.916 -15.652  1.00  0.00     0.006 C 
BRANCH   5   6
ATOM      6  C   UNL     1    -103.498 -25.980 -16.556  1.00  0.00    -0.003 C 
ATOM      7  C   UNL     1    -104.258 -24.911 -15.771  1.00  0.00     0.004 C 
ENDBRANCH   5   6
ENDBRANCH   1   5
TORSDOF 3
ENDMDL
