MODEL 1
REMARK VINA RESULT:    -6.365      0.000      0.000
REMARK INTER + INTRA:         -10.168
REMARK INTER:                  -9.715
REMARK INTRA:                  -0.453
REMARK UNBOUND:                -0.453
REMARK SMILES O=C([O-])CCCCCCCCC(=O)[O-]
REMARK SMILES IDX 7 1 6 2 5 3 4 4 2 5 1 6 3 7 8 8 9 9 10 10 11 11 12 12 13 13
REMARK SMILES IDX 14 14
REMARK H PARENT
REMARK Flexibility Score: inf
ROOT
ATOM      1  C   UNL     1     -22.162 -21.228  30.619  1.00  0.00     0.000 C 
ENDROOT
BRANCH   1   2
ATOM      2  C   UNL     1     -22.019 -20.653  29.199  1.00  0.00     0.000 C 
BRANCH   2   3
ATOM      3  C   UNL     1     -21.158 -19.381  29.161  1.00  0.00     0.006 C 
BRANCH   3   4
ATOM      4  C   UNL     1     -20.683 -18.950  30.555  1.00  0.00     0.053 C 
BRANCH   4   5
ATOM      5  C   UNL     1     -19.298 -18.390  30.484  1.00  0.00     0.041 C 
ATOM      6  O   UNL     1     -18.678 -18.368  29.388  1.00  0.00    -0.550 OA
ATOM      7  O   UNL     1     -18.709 -17.846  31.619  1.00  0.00    -0.550 OA
ENDBRANCH   4   5
ENDBRANCH   3   4
ENDBRANCH   2   3
ENDBRANCH   1   2
BRANCH   1   8
ATOM      8  C   UNL     1     -22.077 -22.764  30.651  1.00  0.00     0.000 C 
BRANCH   8   9
ATOM      9  C   UNL     1     -22.194 -23.451  29.275  1.00  0.00     0.000 C 
BRANCH   9  10
ATOM     10  C   UNL     1     -23.188 -24.626  29.215  1.00  0.00     0.006 C 
BRANCH  10  11
ATOM     11  C   UNL     1     -23.663 -25.076  30.602  1.00  0.00     0.053 C 
BRANCH  11  12
ATOM     12  C   UNL     1     -24.993 -25.754  30.503  1.00  0.00     0.041 C 
ATOM     13  O   UNL     1     -25.617 -25.769  29.411  1.00  0.00    -0.550 OA
ATOM     14  O   UNL     1     -25.566 -26.325  31.633  1.00  0.00    -0.550 OA
ENDBRANCH  11  12
ENDBRANCH  10  11
ENDBRANCH   9  10
ENDBRANCH   8   9
ENDBRANCH   1   8
TORSDOF 9
ENDMDL
MODEL 2
REMARK VINA RESULT:    -6.310      0.555      7.544
REMARK INTER + INTRA:         -10.083
REMARK INTER:                  -9.642
REMARK INTRA:                  -0.440
REMARK UNBOUND:                -0.453
REMARK SMILES O=C([O-])CCCCCCCCC(=O)[O-]
REMARK SMILES IDX 7 1 6 2 5 3 4 4 2 5 1 6 3 7 8 8 9 9 10 10 11 11 12 12 13 13
REMARK SMILES IDX 14 14
REMARK H PARENT
REMARK Flexibility Score: inf
ROOT
ATOM      1  C   UNL     1     -22.010 -23.240  29.294  1.00  0.00     0.000 C 
ENDROOT
BRANCH   1   2
ATOM      2  C   UNL     1     -22.270 -23.155  30.807  1.00  0.00     0.000 C 
BRANCH   2   3
ATOM      3  C   UNL     1     -23.229 -24.249  31.304  1.00  0.00     0.006 C 
BRANCH   3   4
ATOM      4  C   UNL     1     -23.516 -25.310  30.234  1.00  0.00     0.053 C 
BRANCH   4   5
ATOM      5  C   UNL     1     -24.916 -25.819  30.368  1.00  0.00     0.041 C 
ATOM      6  O   UNL     1     -25.684 -25.833  29.370  1.00  0.00    -0.550 OA
ATOM      7  O   UNL     1     -25.358 -26.328  31.583  1.00  0.00    -0.550 OA
ENDBRANCH   4   5
ENDBRANCH   3   4
ENDBRANCH   2   3
ENDBRANCH   1   2
BRANCH   1   8
ATOM      8  C   UNL     1     -22.012 -21.861  28.611  1.00  0.00     0.000 C 
BRANCH   8   9
ATOM      9  C   UNL     1     -22.261 -20.667  29.555  1.00  0.00     0.000 C 
BRANCH   9  10
ATOM     10  C   UNL     1     -21.222 -19.536  29.464  1.00  0.00     0.006 C 
BRANCH  10  11
ATOM     11  C   UNL     1     -20.668 -19.123  30.832  1.00  0.00     0.053 C 
BRANCH  11  12
ATOM     12  C   UNL     1     -19.364 -18.406  30.674  1.00  0.00     0.041 C 
ATOM     13  O   UNL     1     -18.739 -18.461  29.583  1.00  0.00    -0.550 OA
ATOM     14  O   UNL     1     -18.815 -17.718  31.749  1.00  0.00    -0.550 OA
ENDBRANCH  11  12
ENDBRANCH  10  11
ENDBRANCH   9  10
ENDBRANCH   8   9
ENDBRANCH   1   8
TORSDOF 9
ENDMDL
MODEL 3
REMARK VINA RESULT:    -6.303      1.296      7.464
REMARK INTER + INTRA:         -10.072
REMARK INTER:                  -9.635
REMARK INTRA:                  -0.437
REMARK UNBOUND:                -0.453
REMARK SMILES O=C([O-])CCCCCCCCC(=O)[O-]
REMARK SMILES IDX 7 1 6 2 5 3 4 4 2 5 1 6 3 7 8 8 9 9 10 10 11 11 12 12 13 13
REMARK SMILES IDX 14 14
REMARK H PARENT
REMARK Flexibility Score: inf
ROOT
ATOM      1  C   UNL     1     -21.691 -21.162  31.357  1.00  0.00     0.000 C 
ENDROOT
BRANCH   1   2
ATOM      2  C   UNL     1     -22.451 -22.435  31.768  1.00  0.00     0.000 C 
BRANCH   2   3
ATOM      3  C   UNL     1     -22.329 -23.558  30.726  1.00  0.00     0.006 C 
BRANCH   3   4
ATOM      4  C   UNL     1     -23.305 -24.712  30.988  1.00  0.00     0.053 C 
BRANCH   4   5
ATOM      5  C   UNL     1     -23.904 -25.191  29.704  1.00  0.00     0.041 C 
ATOM      6  O   UNL     1     -23.216 -25.200  28.648  1.00  0.00    -0.550 OA
ATOM      7  O   UNL     1     -25.206 -25.675  29.681  1.00  0.00    -0.550 OA
ENDBRANCH   4   5
ENDBRANCH   3   4
ENDBRANCH   2   3
ENDBRANCH   1   2
BRANCH   1   8
ATOM      8  C   UNL     1     -22.378 -20.404  30.208  1.00  0.00     0.000 C 
BRANCH   8   9
ATOM      9  C   UNL     1     -21.444 -19.980  29.057  1.00  0.00     0.000 C 
BRANCH   9  10
ATOM     10  C   UNL     1     -21.025 -18.499  29.068  1.00  0.00     0.006 C 
BRANCH  10  11
ATOM     11  C   UNL     1     -19.537 -18.302  29.383  1.00  0.00     0.053 C 
BRANCH  11  12
ATOM     12  C   UNL     1     -19.368 -17.645  30.716  1.00  0.00     0.041 C 
ATOM     13  O   UNL     1     -19.734 -18.235  31.765  1.00  0.00    -0.550 OA
ATOM     14  O   UNL     1     -18.852 -16.357  30.794  1.00  0.00    -0.550 OA
ENDBRANCH  11  12
ENDBRANCH  10  11
ENDBRANCH   9  10
ENDBRANCH   8   9
ENDBRANCH   1   8
TORSDOF 9
ENDMDL
MODEL 4
REMARK VINA RESULT:    -6.274      1.157      1.828
REMARK INTER + INTRA:         -10.029
REMARK INTER:                  -9.712
REMARK INTRA:                  -0.317
REMARK UNBOUND:                -0.453
REMARK SMILES O=C([O-])CCCCCCCCC(=O)[O-]
REMARK SMILES IDX 7 1 6 2 5 3 4 4 2 5 1 6 3 7 8 8 9 9 10 10 11 11 12 12 13 13
REMARK SMILES IDX 14 14
REMARK H PARENT
REMARK Flexibility Score: inf
ROOT
ATOM      1  C   UNL     1     -22.082 -20.986  29.526  1.00  0.00     0.000 C 
ENDROOT
BRANCH   1   2
ATOM      2  C   UNL     1     -21.438 -19.703  28.971  1.00  0.00     0.000 C 
BRANCH   2   3
ATOM      3  C   UNL     1     -20.867 -18.803  30.078  1.00  0.00     0.006 C 
BRANCH   3   4
ATOM      4  C   UNL     1     -19.920 -17.727  29.531  1.00  0.00     0.053 C 
BRANCH   4   5
ATOM      5  C   UNL     1     -19.022 -17.222  30.615  1.00  0.00     0.041 C 
ATOM      6  O   UNL     1     -18.823 -17.916  31.647  1.00  0.00    -0.550 OA
ATOM      7  O   UNL     1     -18.363 -16.008  30.463  1.00  0.00    -0.550 OA
ENDBRANCH   4   5
ENDBRANCH   3   4
ENDBRANCH   2   3
ENDBRANCH   1   2
BRANCH   1   8
ATOM      8  C   UNL     1     -21.941 -21.109  31.053  1.00  0.00     0.000 C 
BRANCH   8   9
ATOM      9  C   UNL     1     -22.593 -22.364  31.669  1.00  0.00     0.000 C 
BRANCH   9  10
ATOM     10  C   UNL     1     -22.501 -23.636  30.807  1.00  0.00     0.006 C 
BRANCH  10  11
ATOM     11  C   UNL     1     -23.351 -24.789  31.354  1.00  0.00     0.053 C 
BRANCH  11  12
ATOM     12  C   UNL     1     -24.075 -25.478  30.241  1.00  0.00     0.041 C 
ATOM     13  O   UNL     1     -25.289 -25.786  30.370  1.00  0.00    -0.550 OA
ATOM     14  O   UNL     1     -23.396 -25.824  29.080  1.00  0.00    -0.550 OA
ENDBRANCH  11  12
ENDBRANCH  10  11
ENDBRANCH   9  10
ENDBRANCH   8   9
ENDBRANCH   1   8
TORSDOF 9
ENDMDL
MODEL 5
REMARK VINA RESULT:    -6.257      0.560      1.323
REMARK INTER + INTRA:         -10.002
REMARK INTER:                  -9.602
REMARK INTRA:                  -0.400
REMARK UNBOUND:                -0.453
REMARK SMILES O=C([O-])CCCCCCCCC(=O)[O-]
REMARK SMILES IDX 7 1 6 2 5 3 4 4 2 5 1 6 3 7 8 8 9 9 10 10 11 11 12 12 13 13
REMARK SMILES IDX 14 14
REMARK H PARENT
REMARK Flexibility Score: inf
ROOT
ATOM      1  C   UNL     1     -22.081 -21.708  28.614  1.00  0.00     0.000 C 
ENDROOT
BRANCH   1   2
ATOM      2  C   UNL     1     -22.224 -20.628  29.700  1.00  0.00     0.000 C 
BRANCH   2   3
ATOM      3  C   UNL     1     -21.187 -19.503  29.554  1.00  0.00     0.006 C 
BRANCH   3   4
ATOM      4  C   UNL     1     -20.587 -19.078  30.901  1.00  0.00     0.053 C 
BRANCH   4   5
ATOM      5  C   UNL     1     -19.335 -18.288  30.688  1.00  0.00     0.041 C 
ATOM      6  O   UNL     1     -18.849 -17.604  31.627  1.00  0.00    -0.550 OA
ATOM      7  O   UNL     1     -18.675 -18.346  29.466  1.00  0.00    -0.550 OA
ENDBRANCH   4   5
ENDBRANCH   3   4
ENDBRANCH   2   3
ENDBRANCH   1   2
BRANCH   1   8
ATOM      8  C   UNL     1     -22.160 -23.136  29.182  1.00  0.00     0.000 C 
BRANCH   8   9
ATOM      9  C   UNL     1     -22.285 -23.221  30.717  1.00  0.00     0.000 C 
BRANCH   9  10
ATOM     10  C   UNL     1     -23.165 -24.372  31.237  1.00  0.00     0.006 C 
BRANCH  10  11
ATOM     11  C   UNL     1     -23.491 -25.409  30.156  1.00  0.00     0.053 C 
BRANCH  11  12
ATOM     12  C   UNL     1     -24.903 -25.881  30.294  1.00  0.00     0.041 C 
ATOM     13  O   UNL     1     -25.701 -25.788  29.325  1.00  0.00    -0.550 OA
ATOM     14  O   UNL     1     -25.353 -26.378  31.511  1.00  0.00    -0.550 OA
ENDBRANCH  11  12
ENDBRANCH  10  11
ENDBRANCH   9  10
ENDBRANCH   8   9
ENDBRANCH   1   8
TORSDOF 9
ENDMDL
MODEL 6
REMARK VINA RESULT:    -6.257      0.894      7.658
REMARK INTER + INTRA:         -10.002
REMARK INTER:                  -9.638
REMARK INTRA:                  -0.364
REMARK UNBOUND:                -0.453
REMARK SMILES O=C([O-])CCCCCCCCC(=O)[O-]
REMARK SMILES IDX 7 1 6 2 5 3 4 4 2 5 1 6 3 7 8 8 9 9 10 10 11 11 12 12 13 13
REMARK SMILES IDX 14 14
REMARK H PARENT
REMARK Flexibility Score: inf
ROOT
ATOM      1  C   UNL     1     -22.385 -22.308  31.675  1.00  0.00     0.000 C 
ENDROOT
BRANCH   1   2
ATOM      2  C   UNL     1     -22.233 -23.391  30.594  1.00  0.00     0.000 C 
BRANCH   2   3
ATOM      3  C   UNL     1     -23.092 -24.634  30.878  1.00  0.00     0.006 C 
BRANCH   3   4
ATOM      4  C   UNL     1     -23.642 -25.275  29.597  1.00  0.00     0.053 C 
BRANCH   4   5
ATOM      5  C   UNL     1     -24.531 -26.429  29.932  1.00  0.00     0.041 C 
ATOM      6  O   UNL     1     -24.552 -26.896  31.102  1.00  0.00    -0.550 OA
ATOM      7  O   UNL     1     -25.376 -26.960  28.964  1.00  0.00    -0.550 OA
ENDBRANCH   4   5
ENDBRANCH   3   4
ENDBRANCH   2   3
ENDBRANCH   1   2
BRANCH   1   8
ATOM      8  C   UNL     1     -21.880 -20.930  31.212  1.00  0.00     0.000 C 
BRANCH   8   9
ATOM      9  C   UNL     1     -22.278 -20.540  29.773  1.00  0.00     0.000 C 
BRANCH   9  10
ATOM     10  C   UNL     1     -21.208 -19.758  28.990  1.00  0.00     0.006 C 
BRANCH  10  11
ATOM     11  C   UNL     1     -20.822 -18.437  29.665  1.00  0.00     0.053 C 
BRANCH  11  12
ATOM     12  C   UNL     1     -19.365 -18.430  30.004  1.00  0.00     0.041 C 
ATOM     13  O   UNL     1     -18.505 -18.271  29.099  1.00  0.00    -0.550 OA
ATOM     14  O   UNL     1     -18.956 -18.650  31.313  1.00  0.00    -0.550 OA
ENDBRANCH  11  12
ENDBRANCH  10  11
ENDBRANCH   9  10
ENDBRANCH   8   9
ENDBRANCH   1   8
TORSDOF 9
ENDMDL
MODEL 7
REMARK VINA RESULT:    -6.215      1.454      7.580
REMARK INTER + INTRA:          -9.938
REMARK INTER:                  -9.514
REMARK INTRA:                  -0.424
REMARK UNBOUND:                -0.453
REMARK SMILES O=C([O-])CCCCCCCCC(=O)[O-]
REMARK SMILES IDX 7 1 6 2 5 3 4 4 2 5 1 6 3 7 8 8 9 9 10 10 11 11 12 12 13 13
REMARK SMILES IDX 14 14
REMARK H PARENT
REMARK Flexibility Score: inf
ROOT
ATOM      1  C   UNL     1     -22.272 -23.733  29.498  1.00  0.00     0.000 C 
ENDROOT
BRANCH   1   2
ATOM      2  C   UNL     1     -23.130 -24.680  28.642  1.00  0.00     0.000 C 
BRANCH   2   3
ATOM      3  C   UNL     1     -23.486 -25.982  29.377  1.00  0.00     0.006 C 
BRANCH   3   4
ATOM      4  C   UNL     1     -24.999 -26.228  29.441  1.00  0.00     0.053 C 
BRANCH   4   5
ATOM      5  C   UNL     1     -25.359 -26.943  30.704  1.00  0.00     0.041 C 
ATOM      6  O   UNL     1     -25.028 -26.463  31.821  1.00  0.00    -0.550 OA
ATOM      7  O   UNL     1     -26.104 -28.115  30.652  1.00  0.00    -0.550 OA
ENDBRANCH   4   5
ENDBRANCH   3   4
ENDBRANCH   2   3
ENDBRANCH   1   2
BRANCH   1   8
ATOM      8  C   UNL     1     -22.557 -23.870  31.004  1.00  0.00     0.000 C 
BRANCH   8   9
ATOM      9  C   UNL     1     -22.791 -22.539  31.746  1.00  0.00     0.000 C 
BRANCH   9  10
ATOM     10  C   UNL     1     -21.660 -21.504  31.604  1.00  0.00     0.006 C 
BRANCH  10  11
ATOM     11  C   UNL     1     -22.069 -20.285  30.770  1.00  0.00     0.053 C 
BRANCH  11  12
ATOM     12  C   UNL     1     -20.899 -19.374  30.568  1.00  0.00     0.041 C 
ATOM     13  O   UNL     1     -20.233 -18.969  31.556  1.00  0.00    -0.550 OA
ATOM     14  O   UNL     1     -20.576 -18.932  29.291  1.00  0.00    -0.550 OA
ENDBRANCH  11  12
ENDBRANCH  10  11
ENDBRANCH   9  10
ENDBRANCH   8   9
ENDBRANCH   1   8
TORSDOF 9
ENDMDL
MODEL 8
REMARK VINA RESULT:    -6.151      1.237      1.608
REMARK INTER + INTRA:          -9.841
REMARK INTER:                  -9.532
REMARK INTRA:                  -0.309
REMARK UNBOUND:                -0.453
REMARK SMILES O=C([O-])CCCCCCCCC(=O)[O-]
REMARK SMILES IDX 7 1 6 2 5 3 4 4 2 5 1 6 3 7 8 8 9 9 10 10 11 11 12 12 13 13
REMARK SMILES IDX 14 14
REMARK H PARENT
REMARK Flexibility Score: inf
ROOT
ATOM      1  C   UNL     1     -22.368 -22.588  31.151  1.00  0.00     0.000 C 
ENDROOT
BRANCH   1   2
ATOM      2  C   UNL     1     -21.562 -21.389  31.678  1.00  0.00     0.000 C 
BRANCH   2   3
ATOM      3  C   UNL     1     -21.675 -20.156  30.767  1.00  0.00     0.006 C 
BRANCH   3   4
ATOM      4  C   UNL     1     -20.677 -19.052  31.144  1.00  0.00     0.053 C 
BRANCH   4   5
ATOM      5  C   UNL     1     -20.155 -18.379  29.915  1.00  0.00     0.041 C 
ATOM      6  O   UNL     1     -20.868 -17.545  29.297  1.00  0.00    -0.550 OA
ATOM      7  O   UNL     1     -18.860 -18.635  29.480  1.00  0.00    -0.550 OA
ENDBRANCH   4   5
ENDBRANCH   3   4
ENDBRANCH   2   3
ENDBRANCH   1   2
BRANCH   1   8
ATOM      8  C   UNL     1     -22.317 -22.712  29.617  1.00  0.00     0.000 C 
BRANCH   8   9
ATOM      9  C   UNL     1     -22.736 -24.087  29.060  1.00  0.00     0.000 C 
BRANCH   9  10
ATOM     10  C   UNL     1     -23.406 -25.027  30.079  1.00  0.00     0.006 C 
BRANCH  10  11
ATOM     11  C   UNL     1     -24.385 -26.011  29.428  1.00  0.00     0.053 C 
BRANCH  11  12
ATOM     12  C   UNL     1     -25.119 -26.787  30.475  1.00  0.00     0.041 C 
ATOM     13  O   UNL     1     -25.849 -27.759  30.148  1.00  0.00    -0.550 OA
ATOM     14  O   UNL     1     -25.037 -26.404  31.808  1.00  0.00    -0.550 OA
ENDBRANCH  11  12
ENDBRANCH  10  11
ENDBRANCH   9  10
ENDBRANCH   8   9
ENDBRANCH   1   8
TORSDOF 9
ENDMDL
MODEL 9
REMARK VINA RESULT:    -6.138      1.433      7.321
REMARK INTER + INTRA:          -9.820
REMARK INTER:                  -9.293
REMARK INTRA:                  -0.528
REMARK UNBOUND:                -0.453
REMARK SMILES O=C([O-])CCCCCCCCC(=O)[O-]
REMARK SMILES IDX 7 1 6 2 5 3 4 4 2 5 1 6 3 7 8 8 9 9 10 10 11 11 12 12 13 13
REMARK SMILES IDX 14 14
REMARK H PARENT
REMARK Flexibility Score: inf
ROOT
ATOM      1  C   UNL     1     -22.215 -20.847  29.613  1.00  0.00     0.000 C 
ENDROOT
BRANCH   1   2
ATOM      2  C   UNL     1     -22.205 -22.001  28.596  1.00  0.00     0.000 C 
BRANCH   2   3
ATOM      3  C   UNL     1     -21.937 -23.365  29.252  1.00  0.00     0.006 C 
BRANCH   3   4
ATOM      4  C   UNL     1     -23.047 -24.384  28.964  1.00  0.00     0.053 C 
BRANCH   4   5
ATOM      5  C   UNL     1     -23.431 -25.106  30.217  1.00  0.00     0.041 C 
ATOM      6  O   UNL     1     -22.980 -24.727  31.330  1.00  0.00    -0.550 OA
ATOM      7  O   UNL     1     -24.327 -26.166  30.162  1.00  0.00    -0.550 OA
ENDBRANCH   4   5
ENDBRANCH   3   4
ENDBRANCH   2   3
ENDBRANCH   1   2
BRANCH   1   8
ATOM      8  C   UNL     1     -22.026 -21.330  31.062  1.00  0.00     0.000 C 
BRANCH   8   9
ATOM      9  C   UNL     1     -20.956 -20.567  31.869  1.00  0.00     0.000 C 
BRANCH   9  10
ATOM     10  C   UNL     1     -20.857 -19.062  31.560  1.00  0.00     0.006 C 
BRANCH  10  11
ATOM     11  C   UNL     1     -19.467 -18.646  31.064  1.00  0.00     0.053 C 
BRANCH  11  12
ATOM     12  C   UNL     1     -19.562 -17.421  30.211  1.00  0.00     0.041 C 
ATOM     13  O   UNL     1     -20.449 -17.334  29.322  1.00  0.00    -0.550 OA
ATOM     14  O   UNL     1     -18.638 -16.394  30.365  1.00  0.00    -0.550 OA
ENDBRANCH  11  12
ENDBRANCH  10  11
ENDBRANCH   9  10
ENDBRANCH   8   9
ENDBRANCH   1   8
TORSDOF 9
ENDMDL
