MODEL 1
REMARK VINA RESULT:    -5.508      0.000      0.000
REMARK INTER + INTRA:          -6.051
REMARK INTER:                  -5.991
REMARK INTRA:                  -0.060
REMARK UNBOUND:                -0.060
REMARK SMILES CCc1cccc(O)c1
REMARK SMILES IDX 3 1 9 2 7 3 6 4 5 5 4 6 2 7 1 8 8 9
REMARK H PARENT 8 10
REMARK Flexibility Score: inf
ROOT
ATOM      1  C   UNL     1      28.763  37.070  26.193  1.00  0.00    -0.045 A 
ATOM      2  C   UNL     1      27.869  37.920  25.519  1.00  0.00     0.049 A 
ATOM      3  C   UNL     1      28.352  38.912  24.653  1.00  0.00     0.115 A 
ATOM      4  C   UNL     1      29.731  39.061  24.468  1.00  0.00     0.046 A 
ATOM      5  C   UNL     1      30.625  38.228  25.146  1.00  0.00     0.004 A 
ATOM      6  C   UNL     1      30.145  37.240  26.009  1.00  0.00     0.004 A 
ENDROOT
BRANCH   1   7
ATOM      7  C   UNL     1      28.246  36.027  27.147  1.00  0.00     0.032 C 
ATOM      8  C   UNL     1      28.642  34.628  26.685  1.00  0.00     0.009 C 
ENDBRANCH   1   7
BRANCH   3   9
ATOM      9  O   UNL     1      27.473  39.754  23.977  1.00  0.00    -0.508 OA
ATOM     10  H   UNL     1      26.469  39.629  24.037  1.00  0.00     0.293 HD
ENDBRANCH   3   9
TORSDOF 2
ENDMDL
MODEL 2
REMARK VINA RESULT:    -5.450      3.038      3.876
REMARK INTER + INTRA:          -5.988
REMARK INTER:                  -5.920
REMARK INTRA:                  -0.068
REMARK UNBOUND:                -0.060
REMARK SMILES CCc1cccc(O)c1
REMARK SMILES IDX 3 1 9 2 7 3 6 4 5 5 4 6 2 7 1 8 8 9
REMARK H PARENT 8 10
REMARK Flexibility Score: inf
ROOT
ATOM      1  C   UNL     1      28.884  37.473  27.919  1.00  0.00    -0.045 A 
ATOM      2  C   UNL     1      27.922  36.517  27.550  1.00  0.00     0.049 A 
ATOM      3  C   UNL     1      28.316  35.313  26.947  1.00  0.00     0.115 A 
ATOM      4  C   UNL     1      29.672  35.068  26.704  1.00  0.00     0.046 A 
ATOM      5  C   UNL     1      30.632  36.021  27.057  1.00  0.00     0.004 A 
ATOM      6  C   UNL     1      30.241  37.221  27.657  1.00  0.00     0.004 A 
ENDROOT
BRANCH   1   7
ATOM      7  C   UNL     1      28.459  38.779  28.536  1.00  0.00     0.032 C 
ATOM      8  C   UNL     1      29.370  39.146  29.703  1.00  0.00     0.009 C 
ENDBRANCH   1   7
BRANCH   3   9
ATOM      9  O   UNL     1      27.369  34.358  26.584  1.00  0.00    -0.508 OA
ATOM     10  H   UNL     1      26.456  34.624  26.237  1.00  0.00     0.293 HD
ENDBRANCH   3   9
TORSDOF 2
ENDMDL
MODEL 3
REMARK VINA RESULT:    -5.440      2.185      3.736
REMARK INTER + INTRA:          -5.976
REMARK INTER:                  -5.905
REMARK INTRA:                  -0.071
REMARK UNBOUND:                -0.060
REMARK SMILES CCc1cccc(O)c1
REMARK SMILES IDX 3 1 9 2 7 3 6 4 5 5 4 6 2 7 1 8 8 9
REMARK H PARENT 8 10
REMARK Flexibility Score: inf
ROOT
ATOM      1  C   UNL     1      28.724  37.627  25.713  1.00  0.00    -0.045 A 
ATOM      2  C   UNL     1      27.834  36.548  25.855  1.00  0.00     0.049 A 
ATOM      3  C   UNL     1      28.244  35.374  26.504  1.00  0.00     0.115 A 
ATOM      4  C   UNL     1      29.548  35.274  27.002  1.00  0.00     0.046 A 
ATOM      5  C   UNL     1      30.441  36.337  26.850  1.00  0.00     0.004 A 
ATOM      6  C   UNL     1      30.034  37.508  26.204  1.00  0.00     0.004 A 
ENDROOT
BRANCH   1   7
ATOM      7  C   UNL     1      28.295  38.874  24.988  1.00  0.00     0.032 C 
ATOM      8  C   UNL     1      29.423  39.402  24.107  1.00  0.00     0.009 C 
ENDBRANCH   1   7
BRANCH   3   9
ATOM      9  O   UNL     1      27.366  34.303  26.655  1.00  0.00    -0.508 OA
ATOM     10  H   UNL     1      26.930  34.099  27.546  1.00  0.00     0.293 HD
ENDBRANCH   3   9
TORSDOF 2
ENDMDL
MODEL 4
REMARK VINA RESULT:    -5.406      2.980      3.849
REMARK INTER + INTRA:          -5.939
REMARK INTER:                  -5.887
REMARK INTRA:                  -0.052
REMARK UNBOUND:                -0.060
REMARK SMILES CCc1cccc(O)c1
REMARK SMILES IDX 3 1 9 2 7 3 6 4 5 5 4 6 2 7 1 8 8 9
REMARK H PARENT 8 10
REMARK Flexibility Score: inf
ROOT
ATOM      1  C   UNL     1      28.879  38.463  26.622  1.00  0.00    -0.045 A 
ATOM      2  C   UNL     1      27.989  38.639  27.695  1.00  0.00     0.049 A 
ATOM      3  C   UNL     1      28.476  38.929  28.979  1.00  0.00     0.115 A 
ATOM      4  C   UNL     1      29.856  39.033  29.191  1.00  0.00     0.046 A 
ATOM      5  C   UNL     1      30.746  38.844  28.130  1.00  0.00     0.004 A 
ATOM      6  C   UNL     1      30.262  38.556  26.852  1.00  0.00     0.004 A 
ENDROOT
BRANCH   1   7
ATOM      7  C   UNL     1      28.358  38.119  25.252  1.00  0.00     0.032 C 
ATOM      8  C   UNL     1      28.311  39.360  24.366  1.00  0.00     0.009 C 
ENDBRANCH   1   7
BRANCH   3   9
ATOM      9  O   UNL     1      27.601  39.112  30.046  1.00  0.00    -0.508 OA
ATOM     10  H   UNL     1      27.886  38.931  31.001  1.00  0.00     0.293 HD
ENDBRANCH   3   9
TORSDOF 2
ENDMDL
MODEL 5
REMARK VINA RESULT:    -5.362      1.964      2.297
REMARK INTER + INTRA:          -5.891
REMARK INTER:                  -5.819
REMARK INTRA:                  -0.073
REMARK UNBOUND:                -0.060
REMARK SMILES CCc1cccc(O)c1
REMARK SMILES IDX 3 1 9 2 7 3 6 4 5 5 4 6 2 7 1 8 8 9
REMARK H PARENT 8 10
REMARK Flexibility Score: inf
ROOT
ATOM      1  C   UNL     1      28.775  38.675  27.333  1.00  0.00    -0.045 A 
ATOM      2  C   UNL     1      27.901  39.112  26.324  1.00  0.00     0.049 A 
ATOM      3  C   UNL     1      28.317  39.125  24.984  1.00  0.00     0.115 A 
ATOM      4  C   UNL     1      29.612  38.709  24.654  1.00  0.00     0.046 A 
ATOM      5  C   UNL     1      30.490  38.287  25.656  1.00  0.00     0.004 A 
ATOM      6  C   UNL     1      30.077  38.274  26.991  1.00  0.00     0.004 A 
ENDROOT
BRANCH   1   7
ATOM      7  C   UNL     1      28.340  38.693  28.774  1.00  0.00     0.032 C 
ATOM      8  C   UNL     1      29.517  39.019  29.689  1.00  0.00     0.009 C 
ENDBRANCH   1   7
BRANCH   3   9
ATOM      9  O   UNL     1      27.454  39.550  23.977  1.00  0.00    -0.508 OA
ATOM     10  H   UNL     1      27.403  40.523  23.699  1.00  0.00     0.293 HD
ENDBRANCH   3   9
TORSDOF 2
ENDMDL
MODEL 6
REMARK VINA RESULT:    -5.302      1.566      3.104
REMARK INTER + INTRA:          -5.827
REMARK INTER:                  -5.776
REMARK INTRA:                  -0.051
REMARK UNBOUND:                -0.060
REMARK SMILES CCc1cccc(O)c1
REMARK SMILES IDX 3 1 9 2 7 3 6 4 5 5 4 6 2 7 1 8 8 9
REMARK H PARENT 8 10
REMARK Flexibility Score: inf
ROOT
ATOM      1  C   UNL     1      29.953  36.603  27.017  1.00  0.00    -0.045 A 
ATOM      2  C   UNL     1      29.188  37.577  26.352  1.00  0.00     0.049 A 
ATOM      3  C   UNL     1      27.945  37.242  25.795  1.00  0.00     0.115 A 
ATOM      4  C   UNL     1      27.470  35.929  25.894  1.00  0.00     0.046 A 
ATOM      5  C   UNL     1      28.233  34.953  26.542  1.00  0.00     0.004 A 
ATOM      6  C   UNL     1      29.471  35.286  27.097  1.00  0.00     0.004 A 
ENDROOT
BRANCH   1   7
ATOM      7  C   UNL     1      31.301  36.955  27.586  1.00  0.00     0.032 C 
ATOM      8  C   UNL     1      32.013  37.973  26.699  1.00  0.00     0.009 C 
ENDBRANCH   1   7
BRANCH   3   9
ATOM      9  O   UNL     1      27.178  38.202  25.140  1.00  0.00    -0.508 OA
ATOM     10  H   UNL     1      26.751  38.971  25.643  1.00  0.00     0.293 HD
ENDBRANCH   3   9
TORSDOF 2
ENDMDL
MODEL 7
REMARK VINA RESULT:    -5.288      2.803      3.215
REMARK INTER + INTRA:          -5.812
REMARK INTER:                  -5.743
REMARK INTRA:                  -0.068
REMARK UNBOUND:                -0.060
REMARK SMILES CCc1cccc(O)c1
REMARK SMILES IDX 3 1 9 2 7 3 6 4 5 5 4 6 2 7 1 8 8 9
REMARK H PARENT 8 10
REMARK Flexibility Score: inf
ROOT
ATOM      1  C   UNL     1      28.707  36.786  27.350  1.00  0.00    -0.045 A 
ATOM      2  C   UNL     1      27.901  37.343  28.357  1.00  0.00     0.049 A 
ATOM      3  C   UNL     1      28.307  38.507  29.027  1.00  0.00     0.115 A 
ATOM      4  C   UNL     1      29.526  39.109  28.696  1.00  0.00     0.046 A 
ATOM      5  C   UNL     1      30.339  38.552  27.705  1.00  0.00     0.004 A 
ATOM      6  C   UNL     1      29.935  37.392  27.038  1.00  0.00     0.004 A 
ENDROOT
BRANCH   1   7
ATOM      7  C   UNL     1      28.287  35.519  26.655  1.00  0.00     0.032 C 
ATOM      8  C   UNL     1      29.411  34.488  26.685  1.00  0.00     0.009 C 
ENDBRANCH   1   7
BRANCH   3   9
ATOM      9  O   UNL     1      27.511  39.069  30.022  1.00  0.00    -0.508 OA
ATOM     10  H   UNL     1      26.645  38.632  30.316  1.00  0.00     0.293 HD
ENDBRANCH   3   9
TORSDOF 2
ENDMDL
MODEL 8
REMARK VINA RESULT:    -5.286      2.907      4.161
REMARK INTER + INTRA:          -5.809
REMARK INTER:                  -5.757
REMARK INTRA:                  -0.052
REMARK UNBOUND:                -0.060
REMARK SMILES CCc1cccc(O)c1
REMARK SMILES IDX 3 1 9 2 7 3 6 4 5 5 4 6 2 7 1 8 8 9
REMARK H PARENT 8 10
REMARK Flexibility Score: inf
ROOT
ATOM      1  C   UNL     1      29.986  38.427  27.888  1.00  0.00    -0.045 A 
ATOM      2  C   UNL     1      29.278  37.337  27.353  1.00  0.00     0.049 A 
ATOM      3  C   UNL     1      28.046  36.954  27.903  1.00  0.00     0.115 A 
ATOM      4  C   UNL     1      27.525  37.655  28.996  1.00  0.00     0.046 A 
ATOM      5  C   UNL     1      28.231  38.731  29.541  1.00  0.00     0.004 A 
ATOM      6  C   UNL     1      29.459  39.113  28.994  1.00  0.00     0.004 A 
ENDROOT
BRANCH   1   7
ATOM      7  C   UNL     1      31.324  38.816  27.319  1.00  0.00     0.032 C 
ATOM      8  C   UNL     1      31.937  37.658  26.539  1.00  0.00     0.009 C 
ENDBRANCH   1   7
BRANCH   3   9
ATOM      9  O   UNL     1      27.335  35.879  27.374  1.00  0.00    -0.508 OA
ATOM     10  H   UNL     1      27.430  35.609  26.402  1.00  0.00     0.293 HD
ENDBRANCH   3   9
TORSDOF 2
ENDMDL
MODEL 9
REMARK VINA RESULT:    -5.261      2.157      2.824
REMARK INTER + INTRA:          -5.782
REMARK INTER:                  -5.732
REMARK INTRA:                  -0.050
REMARK UNBOUND:                -0.060
REMARK SMILES CCc1cccc(O)c1
REMARK SMILES IDX 3 1 9 2 7 3 6 4 5 5 4 6 2 7 1 8 8 9
REMARK H PARENT 8 10
REMARK Flexibility Score: inf
ROOT
ATOM      1  C   UNL     1      30.243  38.145  26.050  1.00  0.00    -0.045 A 
ATOM      2  C   UNL     1      29.291  38.294  27.073  1.00  0.00     0.049 A 
ATOM      3  C   UNL     1      28.013  38.794  26.784  1.00  0.00     0.115 A 
ATOM      4  C   UNL     1      27.689  39.156  25.471  1.00  0.00     0.046 A 
ATOM      5  C   UNL     1      28.636  39.024  24.452  1.00  0.00     0.004 A 
ATOM      6  C   UNL     1      29.910  38.525  24.740  1.00  0.00     0.004 A 
ENDROOT
BRANCH   1   7
ATOM      7  C   UNL     1      31.625  37.639  26.367  1.00  0.00     0.032 C 
ATOM      8  C   UNL     1      31.651  36.961  27.733  1.00  0.00     0.009 C 
ENDBRANCH   1   7
BRANCH   3   9
ATOM      9  O   UNL     1      27.061  38.939  27.790  1.00  0.00    -0.508 OA
ATOM     10  H   UNL     1      27.322  38.938  28.769  1.00  0.00     0.293 HD
ENDBRANCH   3   9
TORSDOF 2
ENDMDL
