MODEL 1
REMARK VINA RESULT:    -3.098      0.000      0.000
REMARK INTER + INTRA:          -3.924
REMARK INTER:                  -3.823
REMARK INTRA:                  -0.102
REMARK UNBOUND:                -0.102
REMARK SMILES CCCCCC(=O)[O-]
REMARK SMILES IDX 4 1 5 2 6 3 7 4 8 5 3 6 2 7 1 8
REMARK H PARENT
REMARK Flexibility Score: inf
ROOT
ATOM      1  C   UNL     1     -44.452 -48.840  36.580  1.00  0.00     0.006 C 
ENDROOT
BRANCH   1   2
ATOM      2  C   UNL     1     -45.357 -49.217  37.761  1.00  0.00     0.053 C 
BRANCH   2   3
ATOM      3  C   UNL     1     -46.763 -49.482  37.320  1.00  0.00     0.041 C 
ATOM      4  O   UNL     1     -47.573 -48.528  37.179  1.00  0.00    -0.550 OA
ATOM      5  O   UNL     1     -47.191 -50.785  37.101  1.00  0.00    -0.550 OA
ENDBRANCH   2   3
ENDBRANCH   1   2
BRANCH   1   6
ATOM      6  C   UNL     1     -44.133 -50.049  35.684  1.00  0.00     0.000 C 
BRANCH   6   7
ATOM      7  C   UNL     1     -43.461 -49.642  34.364  1.00  0.00    -0.003 C 
ATOM      8  C   UNL     1     -42.682 -48.332  34.476  1.00  0.00     0.004 C 
ENDBRANCH   6   7
ENDBRANCH   1   6
TORSDOF 4
ENDMDL
MODEL 2
REMARK VINA RESULT:    -3.055      1.415      2.077
REMARK INTER + INTRA:          -3.871
REMARK INTER:                  -3.794
REMARK INTRA:                  -0.077
REMARK UNBOUND:                -0.102
REMARK SMILES CCCCCC(=O)[O-]
REMARK SMILES IDX 4 1 5 2 6 3 7 4 8 5 3 6 2 7 1 8
REMARK H PARENT
REMARK Flexibility Score: inf
ROOT
ATOM      1  C   UNL     1     -44.303 -49.748  35.835  1.00  0.00     0.006 C 
ENDROOT
BRANCH   1   2
ATOM      2  C   UNL     1     -43.943 -48.717  36.914  1.00  0.00     0.053 C 
BRANCH   2   3
ATOM      3  C   UNL     1     -45.124 -48.366  37.764  1.00  0.00     0.041 C 
ATOM      4  O   UNL     1     -46.292 -48.589  37.350  1.00  0.00    -0.550 OA
ATOM      5  O   UNL     1     -44.938 -47.758  38.999  1.00  0.00    -0.550 OA
ENDBRANCH   2   3
ENDBRANCH   1   2
BRANCH   1   6
ATOM      6  C   UNL     1     -43.400 -49.629  34.596  1.00  0.00     0.000 C 
BRANCH   6   7
ATOM      7  C   UNL     1     -42.754 -48.241  34.469  1.00  0.00    -0.003 C 
ATOM      8  C   UNL     1     -41.235 -48.278  34.641  1.00  0.00     0.004 C 
ENDBRANCH   6   7
ENDBRANCH   1   6
TORSDOF 4
ENDMDL
MODEL 3
REMARK VINA RESULT:    -2.935      2.274      3.118
REMARK INTER + INTRA:          -3.723
REMARK INTER:                  -3.578
REMARK INTRA:                  -0.145
REMARK UNBOUND:                -0.102
REMARK SMILES CCCCCC(=O)[O-]
REMARK SMILES IDX 4 1 5 2 6 3 7 4 8 5 3 6 2 7 1 8
REMARK H PARENT
REMARK Flexibility Score: inf
ROOT
ATOM      1  C   UNL     1     -45.297 -50.411  36.625  1.00  0.00     0.006 C 
ENDROOT
BRANCH   1   2
ATOM      2  C   UNL     1     -46.770 -50.466  37.051  1.00  0.00     0.053 C 
BRANCH   2   3
ATOM      3  C   UNL     1     -47.091 -51.732  37.783  1.00  0.00     0.041 C 
ATOM      4  O   UNL     1     -46.831 -51.837  39.010  1.00  0.00    -0.550 OA
ATOM      5  O   UNL     1     -47.643 -52.809  37.102  1.00  0.00    -0.550 OA
ENDBRANCH   2   3
ENDBRANCH   1   2
BRANCH   1   6
ATOM      6  C   UNL     1     -44.701 -49.001  36.776  1.00  0.00     0.000 C 
BRANCH   6   7
ATOM      7  C   UNL     1     -45.416 -48.173  37.856  1.00  0.00    -0.003 C 
ATOM      8  C   UNL     1     -44.571 -47.990  39.116  1.00  0.00     0.004 C 
ENDBRANCH   6   7
ENDBRANCH   1   6
TORSDOF 4
ENDMDL
MODEL 4
REMARK VINA RESULT:    -2.929      4.727      6.305
REMARK INTER + INTRA:          -3.716
REMARK INTER:                  -3.632
REMARK INTRA:                  -0.084
REMARK UNBOUND:                -0.102
REMARK SMILES CCCCCC(=O)[O-]
REMARK SMILES IDX 4 1 5 2 6 3 7 4 8 5 3 6 2 7 1 8
REMARK H PARENT
REMARK Flexibility Score: inf
ROOT
ATOM      1  C   UNL     1     -47.968 -53.644  38.247  1.00  0.00     0.006 C 
ENDROOT
BRANCH   1   2
ATOM      2  C   UNL     1     -47.408 -52.710  37.165  1.00  0.00     0.053 C 
BRANCH   2   3
ATOM      3  C   UNL     1     -46.947 -51.407  37.740  1.00  0.00     0.041 C 
ATOM      4  O   UNL     1     -46.898 -51.247  38.988  1.00  0.00    -0.550 OA
ATOM      5  O   UNL     1     -46.605 -50.356  36.898  1.00  0.00    -0.550 OA
ENDBRANCH   2   3
ENDBRANCH   1   2
BRANCH   1   6
ATOM      6  C   UNL     1     -47.063 -54.866  38.482  1.00  0.00     0.000 C 
BRANCH   6   7
ATOM      7  C   UNL     1     -47.726 -55.926  39.376  1.00  0.00    -0.003 C 
ATOM      8  C   UNL     1     -48.123 -57.184  38.605  1.00  0.00     0.004 C 
ENDBRANCH   6   7
ENDBRANCH   1   6
TORSDOF 4
ENDMDL
MODEL 5
REMARK VINA RESULT:    -2.922      3.715      4.888
REMARK INTER + INTRA:          -3.707
REMARK INTER:                  -3.620
REMARK INTRA:                  -0.087
REMARK UNBOUND:                -0.102
REMARK SMILES CCCCCC(=O)[O-]
REMARK SMILES IDX 4 1 5 2 6 3 7 4 8 5 3 6 2 7 1 8
REMARK H PARENT
REMARK Flexibility Score: inf
ROOT
ATOM      1  C   UNL     1     -43.559 -47.575  39.551  1.00  0.00     0.006 C 
ENDROOT
BRANCH   1   2
ATOM      2  C   UNL     1     -44.701 -48.536  39.194  1.00  0.00     0.053 C 
BRANCH   2   3
ATOM      3  C   UNL     1     -45.114 -48.399  37.761  1.00  0.00     0.041 C 
ATOM      4  O   UNL     1     -46.327 -48.238  37.464  1.00  0.00    -0.550 OA
ATOM      5  O   UNL     1     -44.165 -48.487  36.751  1.00  0.00    -0.550 OA
ENDBRANCH   2   3
ENDBRANCH   1   2
BRANCH   1   6
ATOM      6  C   UNL     1     -44.075 -46.271  40.184  1.00  0.00     0.000 C 
BRANCH   6   7
ATOM      7  C   UNL     1     -42.936 -45.372  40.690  1.00  0.00    -0.003 C 
ATOM      8  C   UNL     1     -42.377 -45.828  42.038  1.00  0.00     0.004 C 
ENDBRANCH   6   7
ENDBRANCH   1   6
TORSDOF 4
ENDMDL
MODEL 6
REMARK VINA RESULT:    -2.919      4.546      6.609
REMARK INTER + INTRA:          -3.704
REMARK INTER:                  -3.459
REMARK INTRA:                  -0.245
REMARK UNBOUND:                -0.102
REMARK SMILES CCCCCC(=O)[O-]
REMARK SMILES IDX 4 1 5 2 6 3 7 4 8 5 3 6 2 7 1 8
REMARK H PARENT
REMARK Flexibility Score: inf
ROOT
ATOM      1  C   UNL     1     -48.087 -53.918  40.095  1.00  0.00     0.006 C 
ENDROOT
BRANCH   1   2
ATOM      2  C   UNL     1     -48.051 -53.517  38.614  1.00  0.00     0.053 C 
BRANCH   2   3
ATOM      3  C   UNL     1     -47.061 -52.423  38.358  1.00  0.00     0.041 C 
ATOM      4  O   UNL     1     -46.102 -52.238  39.152  1.00  0.00    -0.550 OA
ATOM      5  O   UNL     1     -47.218 -51.585  37.262  1.00  0.00    -0.550 OA
ENDBRANCH   2   3
ENDBRANCH   1   2
BRANCH   1   6
ATOM      6  C   UNL     1     -49.136 -53.119  40.887  1.00  0.00     0.000 C 
BRANCH   6   7
ATOM      7  C   UNL     1     -48.515 -52.309  42.035  1.00  0.00    -0.003 C 
ATOM      8  C   UNL     1     -48.209 -50.864  41.641  1.00  0.00     0.004 C 
ENDBRANCH   6   7
ENDBRANCH   1   6
TORSDOF 4
ENDMDL
MODEL 7
REMARK VINA RESULT:    -2.894      6.836      7.782
REMARK INTER + INTRA:          -3.673
REMARK INTER:                  -3.618
REMARK INTRA:                  -0.055
REMARK UNBOUND:                -0.102
REMARK SMILES CCCCCC(=O)[O-]
REMARK SMILES IDX 4 1 5 2 6 3 7 4 8 5 3 6 2 7 1 8
REMARK H PARENT
REMARK Flexibility Score: inf
ROOT
ATOM      1  C   UNL     1     -42.884 -44.879  40.446  1.00  0.00     0.006 C 
ENDROOT
BRANCH   1   2
ATOM      2  C   UNL     1     -41.881 -45.013  41.601  1.00  0.00     0.053 C 
BRANCH   2   3
ATOM      3  C   UNL     1     -41.044 -43.782  41.756  1.00  0.00     0.041 C 
ATOM      4  O   UNL     1     -40.752 -43.083  40.750  1.00  0.00    -0.550 OA
ATOM      5  O   UNL     1     -40.555 -43.425  43.006  1.00  0.00    -0.550 OA
ENDBRANCH   2   3
ENDBRANCH   1   2
BRANCH   1   6
ATOM      6  C   UNL     1     -43.931 -46.005  40.455  1.00  0.00     0.000 C 
BRANCH   6   7
ATOM      7  C   UNL     1     -43.430 -47.281  39.761  1.00  0.00    -0.003 C 
ATOM      8  C   UNL     1     -44.569 -48.147  39.222  1.00  0.00     0.004 C 
ENDBRANCH   6   7
ENDBRANCH   1   6
TORSDOF 4
ENDMDL
MODEL 8
REMARK VINA RESULT:    -2.885      4.181      5.107
REMARK INTER + INTRA:          -3.662
REMARK INTER:                  -3.547
REMARK INTRA:                  -0.115
REMARK UNBOUND:                -0.102
REMARK SMILES CCCCCC(=O)[O-]
REMARK SMILES IDX 4 1 5 2 6 3 7 4 8 5 3 6 2 7 1 8
REMARK H PARENT
REMARK Flexibility Score: inf
ROOT
ATOM      1  C   UNL     1     -43.077 -47.813  39.271  1.00  0.00     0.006 C 
ENDROOT
BRANCH   1   2
ATOM      2  C   UNL     1     -42.826 -47.056  40.582  1.00  0.00     0.053 C 
BRANCH   2   3
ATOM      3  C   UNL     1     -43.264 -45.627  40.492  1.00  0.00     0.041 C 
ATOM      4  O   UNL     1     -42.408 -44.704  40.445  1.00  0.00    -0.550 OA
ATOM      5  O   UNL     1     -44.616 -45.311  40.495  1.00  0.00    -0.550 OA
ENDBRANCH   2   3
ENDBRANCH   1   2
BRANCH   1   6
ATOM      6  C   UNL     1     -44.416 -48.571  39.288  1.00  0.00     0.000 C 
BRANCH   6   7
ATOM      7  C   UNL     1     -45.242 -48.333  38.014  1.00  0.00    -0.003 C 
ATOM      8  C   UNL     1     -44.520 -48.794  36.747  1.00  0.00     0.004 C 
ENDBRANCH   6   7
ENDBRANCH   1   6
TORSDOF 4
ENDMDL
MODEL 9
REMARK VINA RESULT:    -2.867      4.256      5.469
REMARK INTER + INTRA:          -3.640
REMARK INTER:                  -3.526
REMARK INTRA:                  -0.114
REMARK UNBOUND:                -0.102
REMARK SMILES CCCCCC(=O)[O-]
REMARK SMILES IDX 4 1 5 2 6 3 7 4 8 5 3 6 2 7 1 8
REMARK H PARENT
REMARK Flexibility Score: inf
ROOT
ATOM      1  C   UNL     1     -47.827 -53.501  38.877  1.00  0.00     0.006 C 
ENDROOT
BRANCH   1   2
ATOM      2  C   UNL     1     -47.629 -52.522  40.042  1.00  0.00     0.053 C 
BRANCH   2   3
ATOM      3  C   UNL     1     -48.563 -52.810  41.176  1.00  0.00     0.041 C 
ATOM      4  O   UNL     1     -49.769 -53.088  40.948  1.00  0.00    -0.550 OA
ATOM      5  O   UNL     1     -48.110 -52.738  42.487  1.00  0.00    -0.550 OA
ENDBRANCH   2   3
ENDBRANCH   1   2
BRANCH   1   6
ATOM      6  C   UNL     1     -47.654 -52.817  37.510  1.00  0.00     0.000 C 
BRANCH   6   7
ATOM      7  C   UNL     1     -46.530 -51.769  37.514  1.00  0.00    -0.003 C 
ATOM      8  C   UNL     1     -47.009 -50.387  37.069  1.00  0.00     0.004 C 
ENDBRANCH   6   7
ENDBRANCH   1   6
TORSDOF 4
ENDMDL
