MODEL 1
REMARK VINA RESULT:     0.000      0.000      0.000
REMARK INTER + INTRA:          -1.026
REMARK INTER:                   0.000
REMARK INTRA:                  -1.026
REMARK UNBOUND:                -1.026
REMARK SMILES O=C([O-])CCCCCCCC(=O)[O-]
REMARK SMILES IDX 7 1 6 2 5 3 4 4 2 5 1 6 3 7 8 8 9 9 10 10 11 11 12 12 13 13
REMARK H PARENT
REMARK Flexibility Score: inf
ROOT
ATOM      1  C   UNL     1     174.678 181.935 179.191  1.00  0.00     0.000 C 
ENDROOT
BRANCH   1   2
ATOM      2  C   UNL     1     175.356 182.483 177.927  1.00  0.00     0.000 C 
BRANCH   2   3
ATOM      3  C   UNL     1     176.522 181.585 177.496  1.00  0.00     0.006 C 
BRANCH   3   4
ATOM      4  C   UNL     1     176.425 181.234 176.008  1.00  0.00     0.053 C 
BRANCH   4   5
ATOM      5  C   UNL     1     176.555 179.757 175.808  1.00  0.00     0.041 C 
ATOM      6  O   UNL     1     176.815 179.007 176.786  1.00  0.00    -0.550 OA
ATOM      7  O   UNL     1     176.339 179.203 174.553  1.00  0.00    -0.550 OA
ENDBRANCH   4   5
ENDBRANCH   3   4
ENDBRANCH   2   3
ENDBRANCH   1   2
BRANCH   1   8
ATOM      8  C   UNL     1     174.550 180.401 179.187  1.00  0.00     0.000 C 
BRANCH   8   9
ATOM      9  C   UNL     1     173.185 179.863 178.718  1.00  0.00     0.006 C 
BRANCH   9  10
ATOM     10  C   UNL     1     173.240 179.225 177.325  1.00  0.00     0.053 C 
BRANCH  10  11
ATOM     11  C   UNL     1     172.819 180.209 176.281  1.00  0.00     0.041 C 
ATOM     12  O   UNL     1     173.075 179.995 175.066  1.00  0.00    -0.550 OA
ATOM     13  O   UNL     1     172.188 181.390 176.653  1.00  0.00    -0.550 OA
ENDBRANCH  10  11
ENDBRANCH   9  10
ENDBRANCH   8   9
ENDBRANCH   1   8
TORSDOF 8
ENDMDL
MODEL 2
REMARK VINA RESULT:     0.000     11.699     13.417
REMARK INTER + INTRA:          -1.025
REMARK INTER:                   0.000
REMARK INTRA:                  -1.025
REMARK UNBOUND:                -1.026
REMARK SMILES O=C([O-])CCCCCCCC(=O)[O-]
REMARK SMILES IDX 7 1 6 2 5 3 4 4 2 5 1 6 3 7 8 8 9 9 10 10 11 11 12 12 13 13
REMARK H PARENT
REMARK Flexibility Score: inf
ROOT
ATOM      1  C   UNL     1     186.217 181.185 185.977  1.00  0.00     0.000 C 
ENDROOT
BRANCH   1   2
ATOM      2  C   UNL     1     186.278 179.850 186.733  1.00  0.00     0.000 C 
BRANCH   2   3
ATOM      3  C   UNL     1     184.980 179.599 187.511  1.00  0.00     0.006 C 
BRANCH   3   4
ATOM      4  C   UNL     1     184.427 178.200 187.221  1.00  0.00     0.053 C 
BRANCH   4   5
ATOM      5  C   UNL     1     182.978 178.275 186.857  1.00  0.00     0.041 C 
ATOM      6  O   UNL     1     182.370 179.376 186.901  1.00  0.00    -0.550 OA
ATOM      7  O   UNL     1     182.312 177.137 186.418  1.00  0.00    -0.550 OA
ENDBRANCH   4   5
ENDBRANCH   3   4
ENDBRANCH   2   3
ENDBRANCH   1   2
BRANCH   1   8
ATOM      8  C   UNL     1     184.833 181.465 185.364  1.00  0.00     0.000 C 
BRANCH   8   9
ATOM      9  C   UNL     1     184.697 181.102 183.874  1.00  0.00     0.006 C 
BRANCH   9  10
ATOM     10  C   UNL     1     183.844 179.849 183.639  1.00  0.00     0.053 C 
BRANCH  10  11
ATOM     11  C   UNL     1     184.715 178.641 183.504  1.00  0.00     0.041 C 
ATOM     12  O   UNL     1     184.221 177.488 183.609  1.00  0.00    -0.550 OA
ATOM     13  O   UNL     1     186.083 178.789 183.312  1.00  0.00    -0.550 OA
ENDBRANCH  10  11
ENDBRANCH   9  10
ENDBRANCH   8   9
ENDBRANCH   1   8
TORSDOF 8
ENDMDL
MODEL 3
REMARK VINA RESULT:     0.002     11.680     13.189
REMARK INTER + INTRA:          -1.023
REMARK INTER:                   0.000
REMARK INTRA:                  -1.023
REMARK UNBOUND:                -1.026
REMARK SMILES O=C([O-])CCCCCCCC(=O)[O-]
REMARK SMILES IDX 7 1 6 2 5 3 4 4 2 5 1 6 3 7 8 8 9 9 10 10 11 11 12 12 13 13
REMARK H PARENT
REMARK Flexibility Score: inf
ROOT
ATOM      1  C   UNL     1     181.596 182.703 187.078  1.00  0.00     0.000 C 
ENDROOT
BRANCH   1   2
ATOM      2  C   UNL     1     181.754 184.170 187.503  1.00  0.00     0.000 C 
BRANCH   2   3
ATOM      3  C   UNL     1     183.191 184.460 187.951  1.00  0.00     0.006 C 
BRANCH   3   4
ATOM      4  C   UNL     1     183.736 185.718 187.267  1.00  0.00     0.053 C 
BRANCH   4   5
ATOM      5  C   UNL     1     185.078 185.446 186.662  1.00  0.00     0.041 C 
ATOM      6  O   UNL     1     185.619 184.318 186.804  1.00  0.00    -0.550 OA
ATOM      7  O   UNL     1     185.706 186.421 185.898  1.00  0.00    -0.550 OA
ENDBRANCH   4   5
ENDBRANCH   3   4
ENDBRANCH   2   3
ENDBRANCH   1   2
BRANCH   1   8
ATOM      8  C   UNL     1     182.798 182.177 186.274  1.00  0.00     0.000 C 
BRANCH   8   9
ATOM      9  C   UNL     1     182.631 182.228 184.745  1.00  0.00     0.006 C 
BRANCH   9  10
ATOM     10  C   UNL     1     183.503 183.302 184.083  1.00  0.00     0.053 C 
BRANCH  10  11
ATOM     11  C   UNL     1     182.715 184.555 183.866  1.00  0.00     0.041 C 
ATOM     12  O   UNL     1     181.458 184.535 183.940  1.00  0.00    -0.550 OA
ATOM     13  O   UNL     1     183.365 185.736 183.530  1.00  0.00    -0.550 OA
ENDBRANCH  10  11
ENDBRANCH   9  10
ENDBRANCH   8   9
ENDBRANCH   1   8
TORSDOF 8
ENDMDL
MODEL 4
REMARK VINA RESULT:     0.002      6.874      8.692
REMARK INTER + INTRA:          -1.023
REMARK INTER:                   0.000
REMARK INTRA:                  -1.023
REMARK UNBOUND:                -1.026
REMARK SMILES O=C([O-])CCCCCCCC(=O)[O-]
REMARK SMILES IDX 7 1 6 2 5 3 4 4 2 5 1 6 3 7 8 8 9 9 10 10 11 11 12 12 13 13
REMARK H PARENT
REMARK Flexibility Score: inf
ROOT
ATOM      1  C   UNL     1     179.805 183.129 181.154  1.00  0.00     0.000 C 
ENDROOT
BRANCH   1   2
ATOM      2  C   UNL     1     178.327 183.044 181.559  1.00  0.00     0.000 C 
BRANCH   2   3
ATOM      3  C   UNL     1     177.826 181.595 181.513  1.00  0.00     0.006 C 
BRANCH   3   4
ATOM      4  C   UNL     1     177.092 181.225 182.805  1.00  0.00     0.053 C 
BRANCH   4   5
ATOM      5  C   UNL     1     177.617 179.936 183.355  1.00  0.00     0.041 C 
ATOM      6  O   UNL     1     178.505 179.297 182.732  1.00  0.00    -0.550 OA
ATOM      7  O   UNL     1     177.162 179.467 184.581  1.00  0.00    -0.550 OA
ENDBRANCH   4   5
ENDBRANCH   3   4
ENDBRANCH   2   3
ENDBRANCH   1   2
BRANCH   1   8
ATOM      8  C   UNL     1     180.653 181.979 181.729  1.00  0.00     0.000 C 
BRANCH   8   9
ATOM      9  C   UNL     1     181.397 182.310 183.035  1.00  0.00     0.006 C 
BRANCH   9  10
ATOM     10  C   UNL     1     180.805 181.598 184.258  1.00  0.00     0.053 C 
BRANCH  10  11
ATOM     11  C   UNL     1     179.852 182.498 184.977  1.00  0.00     0.041 C 
ATOM     12  O   UNL     1     179.847 183.735 184.741  1.00  0.00    -0.550 OA
ATOM     13  O   UNL     1     179.003 181.979 185.947  1.00  0.00    -0.550 OA
ENDBRANCH  10  11
ENDBRANCH   9  10
ENDBRANCH   8   9
ENDBRANCH   1   8
TORSDOF 8
ENDMDL
MODEL 5
REMARK VINA RESULT:     0.002      4.568      6.720
REMARK INTER + INTRA:          -1.023
REMARK INTER:                   0.000
REMARK INTRA:                  -1.023
REMARK UNBOUND:                -1.026
REMARK SMILES O=C([O-])CCCCCCCC(=O)[O-]
REMARK SMILES IDX 7 1 6 2 5 3 4 4 2 5 1 6 3 7 8 8 9 9 10 10 11 11 12 12 13 13
REMARK H PARENT
REMARK Flexibility Score: inf
ROOT
ATOM      1  C   UNL     1     179.586 183.771 175.594  1.00  0.00     0.000 C 
ENDROOT
BRANCH   1   2
ATOM      2  C   UNL     1     180.051 182.414 176.142  1.00  0.00     0.000 C 
BRANCH   2   3
ATOM      3  C   UNL     1     178.911 181.388 176.105  1.00  0.00     0.006 C 
BRANCH   3   4
ATOM      4  C   UNL     1     179.373 180.077 175.461  1.00  0.00     0.053 C 
BRANCH   4   5
ATOM      5  C   UNL     1     178.415 179.651 174.394  1.00  0.00     0.041 C 
ATOM      6  O   UNL     1     177.373 180.324 174.173  1.00  0.00    -0.550 OA
ATOM      7  O   UNL     1     178.697 178.541 173.609  1.00  0.00    -0.550 OA
ENDBRANCH   4   5
ENDBRANCH   3   4
ENDBRANCH   2   3
ENDBRANCH   1   2
BRANCH   1   8
ATOM      8  C   UNL     1     178.700 183.643 174.343  1.00  0.00     0.000 C 
BRANCH   8   9
ATOM      9  C   UNL     1     179.446 183.771 173.002  1.00  0.00     0.006 C 
BRANCH   9  10
ATOM     10  C   UNL     1     179.540 182.443 172.240  1.00  0.00     0.053 C 
BRANCH  10  11
ATOM     11  C   UNL     1     180.858 181.786 172.495  1.00  0.00     0.041 C 
ATOM     12  O   UNL     1     181.803 182.439 173.012  1.00  0.00    -0.550 OA
ATOM     13  O   UNL     1     181.063 180.466 172.115  1.00  0.00    -0.550 OA
ENDBRANCH  10  11
ENDBRANCH   9  10
ENDBRANCH   8   9
ENDBRANCH   1   8
TORSDOF 8
ENDMDL
MODEL 6
REMARK VINA RESULT:     0.002      4.808      5.891
REMARK INTER + INTRA:          -1.023
REMARK INTER:                   0.000
REMARK INTRA:                  -1.023
REMARK UNBOUND:                -1.026
REMARK SMILES O=C([O-])CCCCCCCC(=O)[O-]
REMARK SMILES IDX 7 1 6 2 5 3 4 4 2 5 1 6 3 7 8 8 9 9 10 10 11 11 12 12 13 13
REMARK H PARENT
REMARK Flexibility Score: inf
ROOT
ATOM      1  C   UNL     1     178.758 179.752 180.029  1.00  0.00     0.000 C 
ENDROOT
BRANCH   1   2
ATOM      2  C   UNL     1     180.291 179.698 179.948  1.00  0.00     0.000 C 
BRANCH   2   3
ATOM      3  C   UNL     1     180.824 180.720 178.936  1.00  0.00     0.006 C 
BRANCH   3   4
ATOM      4  C   UNL     1     181.817 180.068 177.969  1.00  0.00     0.053 C 
BRANCH   4   5
ATOM      5  C   UNL     1     181.457 180.389 176.553  1.00  0.00     0.041 C 
ATOM      6  O   UNL     1     182.056 179.820 175.602  1.00  0.00    -0.550 OA
ATOM      7  O   UNL     1     180.426 181.280 176.283  1.00  0.00    -0.550 OA
ENDBRANCH   4   5
ENDBRANCH   3   4
ENDBRANCH   2   3
ENDBRANCH   1   2
BRANCH   1   8
ATOM      8  C   UNL     1     178.092 179.967 178.658  1.00  0.00     0.000 C 
BRANCH   8   9
ATOM      9  C   UNL     1     177.586 178.685 177.973  1.00  0.00     0.006 C 
BRANCH   9  10
ATOM     10  C   UNL     1     178.449 178.265 176.776  1.00  0.00     0.053 C 
BRANCH  10  11
ATOM     11  C   UNL     1     179.467 177.253 177.195  1.00  0.00     0.041 C 
ATOM     12  O   UNL     1     180.423 176.960 176.430  1.00  0.00    -0.550 OA
ATOM     13  O   UNL     1     179.331 176.592 178.410  1.00  0.00    -0.550 OA
ENDBRANCH  10  11
ENDBRANCH   9  10
ENDBRANCH   8   9
ENDBRANCH   1   8
TORSDOF 8
ENDMDL
MODEL 7
REMARK VINA RESULT:     0.002     10.077     11.870
REMARK INTER + INTRA:          -1.022
REMARK INTER:                   0.000
REMARK INTRA:                  -1.022
REMARK UNBOUND:                -1.026
REMARK SMILES O=C([O-])CCCCCCCC(=O)[O-]
REMARK SMILES IDX 7 1 6 2 5 3 4 4 2 5 1 6 3 7 8 8 9 9 10 10 11 11 12 12 13 13
REMARK H PARENT
REMARK Flexibility Score: inf
ROOT
ATOM      1  C   UNL     1     186.002 184.835 184.060  1.00  0.00     0.000 C 
ENDROOT
BRANCH   1   2
ATOM      2  C   UNL     1     185.052 185.989 183.710  1.00  0.00     0.000 C 
BRANCH   2   3
ATOM      3  C   UNL     1     183.669 185.772 184.338  1.00  0.00     0.006 C 
BRANCH   3   4
ATOM      4  C   UNL     1     182.558 185.967 183.301  1.00  0.00     0.053 C 
BRANCH   4   5
ATOM      5  C   UNL     1     181.589 184.829 183.352  1.00  0.00     0.041 C 
ATOM      6  O   UNL     1     180.651 184.758 182.514  1.00  0.00    -0.550 OA
ATOM      7  O   UNL     1     181.751 183.819 184.291  1.00  0.00    -0.550 OA
ENDBRANCH   4   5
ENDBRANCH   3   4
ENDBRANCH   2   3
ENDBRANCH   1   2
BRANCH   1   8
ATOM      8  C   UNL     1     185.310 183.460 184.044  1.00  0.00     0.000 C 
BRANCH   8   9
ATOM      9  C   UNL     1     185.463 182.670 182.731  1.00  0.00     0.006 C 
BRANCH   9  10
ATOM     10  C   UNL     1     184.165 182.606 181.916  1.00  0.00     0.053 C 
BRANCH  10  11
ATOM     11  C   UNL     1     184.169 183.649 180.844  1.00  0.00     0.041 C 
ATOM     12  O   UNL     1     185.227 184.275 180.571  1.00  0.00    -0.550 OA
ATOM     13  O   UNL     1     182.991 183.967 180.180  1.00  0.00    -0.550 OA
ENDBRANCH  10  11
ENDBRANCH   9  10
ENDBRANCH   8   9
ENDBRANCH   1   8
TORSDOF 8
ENDMDL
MODEL 8
REMARK VINA RESULT:     0.003     13.071     14.902
REMARK INTER + INTRA:          -1.022
REMARK INTER:                   0.000
REMARK INTRA:                  -1.022
REMARK UNBOUND:                -1.026
REMARK SMILES O=C([O-])CCCCCCCC(=O)[O-]
REMARK SMILES IDX 7 1 6 2 5 3 4 4 2 5 1 6 3 7 8 8 9 9 10 10 11 11 12 12 13 13
REMARK H PARENT
REMARK Flexibility Score: inf
ROOT
ATOM      1  C   UNL     1     183.080 184.254 184.989  1.00  0.00     0.000 C 
ENDROOT
BRANCH   1   2
ATOM      2  C   UNL     1     183.380 184.045 186.480  1.00  0.00     0.000 C 
BRANCH   2   3
ATOM      3  C   UNL     1     184.270 185.169 187.024  1.00  0.00     0.006 C 
BRANCH   3   4
ATOM      4  C   UNL     1     185.461 184.600 187.802  1.00  0.00     0.053 C 
BRANCH   4   5
ATOM      5  C   UNL     1     186.736 185.238 187.349  1.00  0.00     0.041 C 
ATOM      6  O   UNL     1     187.840 184.847 187.812  1.00  0.00    -0.550 OA
ATOM      7  O   UNL     1     186.710 186.229 186.376  1.00  0.00    -0.550 OA
ENDBRANCH   4   5
ENDBRANCH   3   4
ENDBRANCH   2   3
ENDBRANCH   1   2
BRANCH   1   8
ATOM      8  C   UNL     1     184.303 184.745 184.193  1.00  0.00     0.000 C 
BRANCH   8   9
ATOM      9  C   UNL     1     185.119 183.637 183.504  1.00  0.00     0.006 C 
BRANCH   9  10
ATOM     10  C   UNL     1     186.485 183.403 184.161  1.00  0.00     0.053 C 
BRANCH  10  11
ATOM     11  C   UNL     1     186.428 182.229 185.084  1.00  0.00     0.041 C 
ATOM     12  O   UNL     1     185.427 181.465 185.078  1.00  0.00    -0.550 OA
ATOM     13  O   UNL     1     187.458 182.005 185.990  1.00  0.00    -0.550 OA
ENDBRANCH  10  11
ENDBRANCH   9  10
ENDBRANCH   8   9
ENDBRANCH   1   8
TORSDOF 8
ENDMDL
MODEL 9
REMARK VINA RESULT:     0.003      7.074      8.764
REMARK INTER + INTRA:          -1.021
REMARK INTER:                   0.000
REMARK INTRA:                  -1.021
REMARK UNBOUND:                -1.026
REMARK SMILES O=C([O-])CCCCCCCC(=O)[O-]
REMARK SMILES IDX 7 1 6 2 5 3 4 4 2 5 1 6 3 7 8 8 9 9 10 10 11 11 12 12 13 13
REMARK H PARENT
REMARK Flexibility Score: inf
ROOT
ATOM      1  C   UNL     1     182.974 181.421 180.186  1.00  0.00     0.000 C 
ENDROOT
BRANCH   1   2
ATOM      2  C   UNL     1     184.081 180.360 180.107  1.00  0.00     0.000 C 
BRANCH   2   3
ATOM      3  C   UNL     1     184.983 180.597 178.890  1.00  0.00     0.006 C 
BRANCH   3   4
ATOM      4  C   UNL     1     185.167 179.308 178.083  1.00  0.00     0.053 C 
BRANCH   4   5
ATOM      5  C   UNL     1     184.939 179.565 176.626  1.00  0.00     0.041 C 
ATOM      6  O   UNL     1     184.968 178.613 175.803  1.00  0.00    -0.550 OA
ATOM      7  O   UNL     1     184.644 180.848 176.185  1.00  0.00    -0.550 OA
ENDBRANCH   4   5
ENDBRANCH   3   4
ENDBRANCH   2   3
ENDBRANCH   1   2
BRANCH   1   8
ATOM      8  C   UNL     1     182.384 181.778 178.810  1.00  0.00     0.000 C 
BRANCH   8   9
ATOM      9  C   UNL     1     181.105 181.008 178.432  1.00  0.00     0.006 C 
BRANCH   9  10
ATOM     10  C   UNL     1     181.333 179.981 177.316  1.00  0.00     0.053 C 
BRANCH  10  11
ATOM     11  C   UNL     1     181.509 178.612 177.893  1.00  0.00     0.041 C 
ATOM     12  O   UNL     1     181.260 178.400 179.109  1.00  0.00    -0.550 OA
ATOM     13  O   UNL     1     181.998 177.581 177.100  1.00  0.00    -0.550 OA
ENDBRANCH  10  11
ENDBRANCH   9  10
ENDBRANCH   8   9
ENDBRANCH   1   8
TORSDOF 8
ENDMDL
