MODEL 1
REMARK VINA RESULT:    -6.948      0.000      0.000
REMARK INTER + INTRA:         -11.944
REMARK INTER:                  -9.994
REMARK INTRA:                  -1.950
REMARK UNBOUND:                -1.950
REMARK SMILES O=c1c(O[C@H]2O[C@H](CO)[C@H](O)[C@H](O)[C@H]2O)c(-c2ccc(O)cc2)oc2cc(O)cc(O)c12
REMARK SMILES IDX 4 1 3 2 16 3 24 4 2 5 25 6 1 7 32 8 26 9 30 10 27 11 29 12
REMARK SMILES IDX 17 13 18 14 19 15 20 16 23 17 22 18 21 19 31 21 28 23 5 25
REMARK SMILES IDX 14 26 6 27 12 28 7 29 10 30 15 31 13 33 8 35 9 36 11 38
REMARK H PARENT 21 20 31 22 28 24 15 32 13 34 9 37 11 39
REMARK Flexibility Score: inf
ROOT
ATOM      1  O   UNL     1     180.891 176.472 172.351  1.00  0.00    -0.454 OA
ENDROOT
BRANCH   1   2
ATOM      2  C   UNL     1     180.559 177.334 173.416  1.00  0.00     0.214 A 
ATOM      3  C   UNL     1     179.199 177.635 173.621  1.00  0.00     0.180 A 
ATOM      4  O   UNL     1     178.836 178.470 174.584  1.00  0.00    -0.452 OA
ATOM      5  C   UNL     1     181.512 177.933 174.275  1.00  0.00     0.239 A 
ATOM      6  C   UNL     1     179.695 179.067 175.397  1.00  0.00     0.146 A 
ATOM      7  O   UNL     1     182.723 177.613 174.178  1.00  0.00    -0.285 OA
ATOM      8  C   UNL     1     181.090 178.858 175.261  1.00  0.00     0.111 A 
ATOM      9  C   UNL     1     179.195 179.901 176.400  1.00  0.00     0.094 A 
ATOM     10  C   UNL     1     181.970 179.562 176.139  1.00  0.00     0.134 A 
ATOM     11  C   UNL     1     180.058 180.534 177.290  1.00  0.00     0.123 A 
ATOM     12  C   UNL     1     181.436 180.358 177.160  1.00  0.00     0.093 A 
BRANCH   3  13
ATOM     13  C   UNL     1     178.135 177.049 172.775  1.00  0.00     0.021 A 
ATOM     14  C   UNL     1     177.422 175.931 173.235  1.00  0.00     0.016 A 
ATOM     15  C   UNL     1     176.420 175.357 172.446  1.00  0.00     0.047 A 
ATOM     16  C   UNL     1     176.131 175.883 171.183  1.00  0.00     0.115 A 
ATOM     17  C   UNL     1     177.856 177.560 171.494  1.00  0.00     0.016 A 
ATOM     18  C   UNL     1     176.854 176.985 170.707  1.00  0.00     0.047 A 
BRANCH  16  19
ATOM     19  O   UNL     1     175.130 175.303 170.409  1.00  0.00    -0.508 OA
ATOM     20  H   UNL     1     174.670 174.446 170.693  1.00  0.00     0.293 HD
ENDBRANCH  16  19
ENDBRANCH   3  13
BRANCH  10  21
ATOM     21  O   UNL     1     183.364 179.538 176.032  1.00  0.00    -0.507 OA
ATOM     22  H   UNL     1     183.988 180.189 176.487  1.00  0.00     0.293 HD
ENDBRANCH  10  21
BRANCH  11  23
ATOM     23  O   UNL     1     179.536 181.343 178.296  1.00  0.00    -0.508 OA
ATOM     24  H   UNL     1     179.992 181.431 179.197  1.00  0.00     0.293 HD
ENDBRANCH  11  23
ENDBRANCH   1   2
BRANCH   1  25
ATOM     25  C   UNL     1     181.149 175.065 172.412  1.00  0.00     0.339 C 
ATOM     26  C   UNL     1     182.554 174.757 171.854  1.00  0.00     0.214 C 
ATOM     27  O   UNL     1     180.152 174.319 171.727  1.00  0.00    -0.332 OA
ATOM     28  C   UNL     1     182.594 175.006 170.339  1.00  0.00     0.180 C 
ATOM     29  C   UNL     1     180.106 174.651 170.348  1.00  0.00     0.179 C 
ATOM     30  C   UNL     1     181.431 174.267 169.651  1.00  0.00     0.177 C 
BRANCH  26  31
ATOM     31  O   UNL     1     183.514 175.565 172.484  1.00  0.00    -0.384 OA
ATOM     32  H   UNL     1     183.520 175.308 173.443  1.00  0.00     0.211 HD
ENDBRANCH  26  31
BRANCH  28  33
ATOM     33  O   UNL     1     183.827 174.572 169.825  1.00  0.00    -0.387 OA
ATOM     34  H   UNL     1     183.622 173.891 169.131  1.00  0.00     0.211 HD
ENDBRANCH  28  33
BRANCH  29  35
ATOM     35  C   UNL     1     178.906 173.936 169.715  1.00  0.00     0.191 C 
BRANCH  35  36
ATOM     36  O   UNL     1     178.599 172.773 170.434  1.00  0.00    -0.394 OA
ATOM     37  H   UNL     1     179.461 172.434 170.791  1.00  0.00     0.210 HD
ENDBRANCH  35  36
ENDBRANCH  29  35
BRANCH  30  38
ATOM     38  O   UNL     1     181.626 172.876 169.729  1.00  0.00    -0.387 OA
ATOM     39  H   UNL     1     182.201 172.708 170.520  1.00  0.00     0.211 HD
ENDBRANCH  30  38
ENDBRANCH   1  25
TORSDOF 11
ENDMDL
MODEL 2
REMARK VINA RESULT:    -6.942      6.498      9.625
REMARK INTER + INTRA:         -11.935
REMARK INTER:                  -9.974
REMARK INTRA:                  -1.961
REMARK UNBOUND:                -1.950
REMARK SMILES O=c1c(O[C@H]2O[C@H](CO)[C@H](O)[C@H](O)[C@H]2O)c(-c2ccc(O)cc2)oc2cc(O)cc(O)c12
REMARK SMILES IDX 4 1 3 2 16 3 24 4 2 5 25 6 1 7 32 8 26 9 30 10 27 11 29 12
REMARK SMILES IDX 17 13 18 14 19 15 20 16 23 17 22 18 21 19 31 21 28 23 5 25
REMARK SMILES IDX 14 26 6 27 12 28 7 29 10 30 15 31 13 33 8 35 9 36 11 38
REMARK H PARENT 21 20 31 22 28 24 15 32 13 34 9 37 11 39
REMARK Flexibility Score: inf
ROOT
ATOM      1  O   UNL     1     179.843 184.238 172.331  1.00  0.00    -0.454 OA
ENDROOT
BRANCH   1   2
ATOM      2  C   UNL     1     180.166 183.388 173.410  1.00  0.00     0.214 A 
ATOM      3  C   UNL     1     181.526 183.108 173.642  1.00  0.00     0.180 A 
ATOM      4  O   UNL     1     181.883 182.285 174.618  1.00  0.00    -0.452 OA
ATOM      5  C   UNL     1     179.206 182.784 174.256  1.00  0.00     0.239 A 
ATOM      6  C   UNL     1     181.016 181.683 175.421  1.00  0.00     0.146 A 
ATOM      7  O   UNL     1     177.992 183.086 174.134  1.00  0.00    -0.285 OA
ATOM      8  C   UNL     1     179.621 181.873 175.257  1.00  0.00     0.111 A 
ATOM      9  C   UNL     1     181.509 180.865 176.440  1.00  0.00     0.094 A 
ATOM     10  C   UNL     1     178.735 181.164 176.126  1.00  0.00     0.134 A 
ATOM     11  C   UNL     1     180.638 180.228 177.319  1.00  0.00     0.123 A 
ATOM     12  C   UNL     1     179.260 180.384 177.163  1.00  0.00     0.093 A 
BRANCH   3  13
ATOM     13  C   UNL     1     182.598 183.700 172.810  1.00  0.00     0.021 A 
ATOM     14  C   UNL     1     183.288 184.831 173.275  1.00  0.00     0.016 A 
ATOM     15  C   UNL     1     184.296 185.412 172.499  1.00  0.00     0.047 A 
ATOM     16  C   UNL     1     184.615 184.880 171.246  1.00  0.00     0.115 A 
ATOM     17  C   UNL     1     182.906 183.184 171.539  1.00  0.00     0.016 A 
ATOM     18  C   UNL     1     183.915 183.765 170.766  1.00  0.00     0.047 A 
BRANCH  16  19
ATOM     19  O   UNL     1     185.622 185.468 170.485  1.00  0.00    -0.508 OA
ATOM     20  H   UNL     1     186.343 184.912 170.041  1.00  0.00     0.293 HD
ENDBRANCH  16  19
ENDBRANCH   3  13
BRANCH  10  21
ATOM     21  O   UNL     1     177.343 181.169 175.993  1.00  0.00    -0.507 OA
ATOM     22  H   UNL     1     176.730 181.874 176.375  1.00  0.00     0.293 HD
ENDBRANCH  10  21
BRANCH  11  23
ATOM     23  O   UNL     1     181.152 179.435 178.342  1.00  0.00    -0.508 OA
ATOM     24  H   UNL     1     180.904 179.592 179.312  1.00  0.00     0.293 HD
ENDBRANCH  11  23
ENDBRANCH   1   2
BRANCH   1  25
ATOM     25  C   UNL     1     179.569 185.642 172.375  1.00  0.00     0.339 C 
ATOM     26  C   UNL     1     178.184 185.933 171.761  1.00  0.00     0.214 C 
ATOM     27  O   UNL     1     180.585 186.394 171.724  1.00  0.00    -0.332 OA
ATOM     28  C   UNL     1     178.204 185.676 170.248  1.00  0.00     0.180 C 
ATOM     29  C   UNL     1     180.687 186.055 170.350  1.00  0.00     0.179 C 
ATOM     30  C   UNL     1     179.387 186.424 169.601  1.00  0.00     0.177 C 
BRANCH  26  31
ATOM     31  O   UNL     1     177.208 185.119 172.359  1.00  0.00    -0.384 OA
ATOM     32  H   UNL     1     176.607 185.722 172.871  1.00  0.00     0.211 HD
ENDBRANCH  26  31
BRANCH  28  33
ATOM     33  O   UNL     1     176.988 186.096 169.684  1.00  0.00    -0.387 OA
ATOM     34  H   UNL     1     176.265 185.703 170.240  1.00  0.00     0.211 HD
ENDBRANCH  28  33
BRANCH  29  35
ATOM     35  C   UNL     1     181.903 186.779 169.760  1.00  0.00     0.191 C 
BRANCH  35  36
ATOM     36  O   UNL     1     182.184 187.938 170.496  1.00  0.00    -0.394 OA
ATOM     37  H   UNL     1     181.982 188.702 169.895  1.00  0.00     0.210 HD
ENDBRANCH  35  36
ENDBRANCH  29  35
BRANCH  30  38
ATOM     38  O   UNL     1     179.176 187.813 169.663  1.00  0.00    -0.387 OA
ATOM     39  H   UNL     1     179.397 188.098 170.588  1.00  0.00     0.211 HD
ENDBRANCH  30  38
ENDBRANCH   1  25
TORSDOF 11
ENDMDL
MODEL 3
REMARK VINA RESULT:    -6.858      5.358      7.993
REMARK INTER + INTRA:         -11.814
REMARK INTER:                 -10.275
REMARK INTRA:                  -1.540
REMARK UNBOUND:                -1.950
REMARK SMILES O=c1c(O[C@H]2O[C@H](CO)[C@H](O)[C@H](O)[C@H]2O)c(-c2ccc(O)cc2)oc2cc(O)cc(O)c12
REMARK SMILES IDX 4 1 3 2 16 3 24 4 2 5 25 6 1 7 32 8 26 9 30 10 27 11 29 12
REMARK SMILES IDX 17 13 18 14 19 15 20 16 23 17 22 18 21 19 31 21 28 23 5 25
REMARK SMILES IDX 14 26 6 27 12 28 7 29 10 30 15 31 13 33 8 35 9 36 11 38
REMARK H PARENT 21 20 31 22 28 24 15 32 13 34 9 37 11 39
REMARK Flexibility Score: inf
ROOT
ATOM      1  O   UNL     1     179.245 181.511 173.770  1.00  0.00    -0.454 OA
ENDROOT
BRANCH   1   2
ATOM      2  C   UNL     1     180.447 182.238 173.633  1.00  0.00     0.214 A 
ATOM      3  C   UNL     1     181.361 182.206 174.703  1.00  0.00     0.180 A 
ATOM      4  O   UNL     1     182.487 182.902 174.642  1.00  0.00    -0.452 OA
ATOM      5  C   UNL     1     180.776 183.014 172.497  1.00  0.00     0.239 A 
ATOM      6  C   UNL     1     182.825 183.657 173.607  1.00  0.00     0.146 A 
ATOM      7  O   UNL     1     180.026 182.990 171.489  1.00  0.00    -0.285 OA
ATOM      8  C   UNL     1     181.965 183.784 172.488  1.00  0.00     0.111 A 
ATOM      9  C   UNL     1     184.056 184.318 173.637  1.00  0.00     0.094 A 
ATOM     10  C   UNL     1     182.364 184.645 171.420  1.00  0.00     0.134 A 
ATOM     11  C   UNL     1     184.463 185.105 172.564  1.00  0.00     0.123 A 
ATOM     12  C   UNL     1     183.621 185.260 171.462  1.00  0.00     0.093 A 
BRANCH   3  13
ATOM     13  C   UNL     1     181.101 181.416 175.928  1.00  0.00     0.021 A 
ATOM     14  C   UNL     1     180.451 182.020 177.015  1.00  0.00     0.016 A 
ATOM     15  C   UNL     1     180.206 181.294 178.185  1.00  0.00     0.047 A 
ATOM     16  C   UNL     1     180.622 179.962 178.287  1.00  0.00     0.115 A 
ATOM     17  C   UNL     1     181.538 180.084 176.045  1.00  0.00     0.016 A 
ATOM     18  C   UNL     1     181.292 179.360 177.215  1.00  0.00     0.047 A 
BRANCH  16  19
ATOM     19  O   UNL     1     180.370 179.251 179.457  1.00  0.00    -0.508 OA
ATOM     20  H   UNL     1     181.008 179.283 180.244  1.00  0.00     0.293 HD
ENDBRANCH  16  19
ENDBRANCH   3  13
BRANCH  10  21
ATOM     21  O   UNL     1     181.557 184.950 170.320  1.00  0.00    -0.507 OA
ATOM     22  H   UNL     1     180.619 185.317 170.379  1.00  0.00     0.293 HD
ENDBRANCH  10  21
BRANCH  11  23
ATOM     23  O   UNL     1     185.703 185.737 172.606  1.00  0.00    -0.508 OA
ATOM     24  H   UNL     1     186.440 185.504 171.951  1.00  0.00     0.293 HD
ENDBRANCH  11  23
ENDBRANCH   1   2
BRANCH   1  25
ATOM     25  C   UNL     1     178.004 181.969 174.316  1.00  0.00     0.339 C 
ATOM     26  C   UNL     1     177.191 180.777 174.863  1.00  0.00     0.214 C 
ATOM     27  O   UNL     1     177.252 182.706 173.361  1.00  0.00    -0.332 OA
ATOM     28  C   UNL     1     176.705 179.887 173.711  1.00  0.00     0.180 C 
ATOM     29  C   UNL     1     176.916 181.910 172.234  1.00  0.00     0.179 C 
ATOM     30  C   UNL     1     175.991 180.744 172.647  1.00  0.00     0.177 C 
BRANCH  26  31
ATOM     31  O   UNL     1     177.980 180.014 175.740  1.00  0.00    -0.384 OA
ATOM     32  H   UNL     1     178.106 180.560 176.561  1.00  0.00     0.211 HD
ENDBRANCH  26  31
BRANCH  28  33
ATOM     33  O   UNL     1     175.839 178.902 174.212  1.00  0.00    -0.387 OA
ATOM     34  H   UNL     1     175.088 179.380 174.653  1.00  0.00     0.211 HD
ENDBRANCH  28  33
BRANCH  29  35
ATOM     35  C   UNL     1     176.257 182.810 171.182  1.00  0.00     0.191 C 
BRANCH  35  36
ATOM     36  O   UNL     1     175.254 182.108 170.501  1.00  0.00    -0.394 OA
ATOM     37  H   UNL     1     174.989 181.359 171.097  1.00  0.00     0.210 HD
ENDBRANCH  35  36
ENDBRANCH  29  35
BRANCH  30  38
ATOM     38  O   UNL     1     174.783 181.250 173.161  1.00  0.00    -0.387 OA
ATOM     39  H   UNL     1     175.011 181.766 173.978  1.00  0.00     0.211 HD
ENDBRANCH  30  38
ENDBRANCH   1  25
TORSDOF 11
ENDMDL
MODEL 4
REMARK VINA RESULT:    -6.850      2.246      6.652
REMARK INTER + INTRA:         -11.803
REMARK INTER:                 -10.267
REMARK INTRA:                  -1.536
REMARK UNBOUND:                -1.950
REMARK SMILES O=c1c(O[C@H]2O[C@H](CO)[C@H](O)[C@H](O)[C@H]2O)c(-c2ccc(O)cc2)oc2cc(O)cc(O)c12
REMARK SMILES IDX 4 1 3 2 16 3 24 4 2 5 25 6 1 7 32 8 26 9 30 10 27 11 29 12
REMARK SMILES IDX 17 13 18 14 19 15 20 16 23 17 22 18 21 19 31 21 28 23 5 25
REMARK SMILES IDX 14 26 6 27 12 28 7 29 10 30 15 31 13 33 8 35 9 36 11 38
REMARK H PARENT 21 20 31 22 28 24 15 32 13 34 9 37 11 39
REMARK Flexibility Score: inf
ROOT
ATOM      1  O   UNL     1     181.474 179.239 173.804  1.00  0.00    -0.454 OA
ENDROOT
BRANCH   1   2
ATOM      2  C   UNL     1     180.272 178.514 173.662  1.00  0.00     0.214 A 
ATOM      3  C   UNL     1     179.358 178.541 174.732  1.00  0.00     0.180 A 
ATOM      4  O   UNL     1     178.231 177.846 174.667  1.00  0.00    -0.452 OA
ATOM      5  C   UNL     1     179.944 177.743 172.522  1.00  0.00     0.239 A 
ATOM      6  C   UNL     1     177.893 177.096 173.628  1.00  0.00     0.146 A 
ATOM      7  O   UNL     1     180.694 177.772 171.515  1.00  0.00    -0.285 OA
ATOM      8  C   UNL     1     178.754 176.974 172.509  1.00  0.00     0.111 A 
ATOM      9  C   UNL     1     176.662 176.435 173.655  1.00  0.00     0.094 A 
ATOM     10  C   UNL     1     178.355 176.118 171.436  1.00  0.00     0.134 A 
ATOM     11  C   UNL     1     176.256 175.653 172.578  1.00  0.00     0.123 A 
ATOM     12  C   UNL     1     177.098 175.503 171.475  1.00  0.00     0.093 A 
BRANCH   3  13
ATOM     13  C   UNL     1     179.617 179.325 175.961  1.00  0.00     0.021 A 
ATOM     14  C   UNL     1     180.273 178.718 177.043  1.00  0.00     0.016 A 
ATOM     15  C   UNL     1     180.518 179.438 178.216  1.00  0.00     0.047 A 
ATOM     16  C   UNL     1     180.096 180.767 178.327  1.00  0.00     0.115 A 
ATOM     17  C   UNL     1     179.173 180.654 176.087  1.00  0.00     0.016 A 
ATOM     18  C   UNL     1     179.419 181.373 177.260  1.00  0.00     0.047 A 
BRANCH  16  19
ATOM     19  O   UNL     1     180.347 181.473 179.501  1.00  0.00    -0.508 OA
ATOM     20  H   UNL     1     179.743 181.388 180.310  1.00  0.00     0.293 HD
ENDBRANCH  16  19
ENDBRANCH   3  13
BRANCH  10  21
ATOM     21  O   UNL     1     179.163 175.818 170.336  1.00  0.00    -0.507 OA
ATOM     22  H   UNL     1     178.820 175.518 169.435  1.00  0.00     0.293 HD
ENDBRANCH  10  21
BRANCH  11  23
ATOM     23  O   UNL     1     175.015 175.021 172.616  1.00  0.00    -0.508 OA
ATOM     24  H   UNL     1     174.188 175.497 172.956  1.00  0.00     0.293 HD
ENDBRANCH  11  23
ENDBRANCH   1   2
BRANCH   1  25
ATOM     25  C   UNL     1     182.713 178.780 174.354  1.00  0.00     0.339 C 
ATOM     26  C   UNL     1     183.524 179.971 174.906  1.00  0.00     0.214 C 
ATOM     27  O   UNL     1     183.469 178.044 173.401  1.00  0.00    -0.332 OA
ATOM     28  C   UNL     1     184.016 180.862 173.756  1.00  0.00     0.180 C 
ATOM     29  C   UNL     1     183.809 178.840 172.276  1.00  0.00     0.179 C 
ATOM     30  C   UNL     1     184.733 180.006 172.694  1.00  0.00     0.177 C 
BRANCH  26  31
ATOM     31  O   UNL     1     182.733 180.733 175.780  1.00  0.00    -0.384 OA
ATOM     32  H   UNL     1     183.286 181.507 176.067  1.00  0.00     0.211 HD
ENDBRANCH  26  31
BRANCH  28  33
ATOM     33  O   UNL     1     184.880 181.846 174.261  1.00  0.00    -0.387 OA
ATOM     34  H   UNL     1     185.549 181.376 174.826  1.00  0.00     0.211 HD
ENDBRANCH  28  33
BRANCH  29  35
ATOM     35  C   UNL     1     184.472 177.941 171.226  1.00  0.00     0.191 C 
BRANCH  35  36
ATOM     36  O   UNL     1     185.445 178.658 170.517  1.00  0.00    -0.394 OA
ATOM     37  H   UNL     1     185.193 178.591 169.559  1.00  0.00     0.210 HD
ENDBRANCH  35  36
ENDBRANCH  29  35
BRANCH  30  38
ATOM     38  O   UNL     1     185.938 179.498 173.213  1.00  0.00    -0.387 OA
ATOM     39  H   UNL     1     186.145 180.023 174.029  1.00  0.00     0.211 HD
ENDBRANCH  30  38
ENDBRANCH   1  25
TORSDOF 11
ENDMDL
MODEL 5
REMARK VINA RESULT:    -6.772      4.236      7.552
REMARK INTER + INTRA:         -11.691
REMARK INTER:                 -10.353
REMARK INTRA:                  -1.338
REMARK UNBOUND:                -1.950
REMARK SMILES O=c1c(O[C@H]2O[C@H](CO)[C@H](O)[C@H](O)[C@H]2O)c(-c2ccc(O)cc2)oc2cc(O)cc(O)c12
REMARK SMILES IDX 4 1 3 2 16 3 24 4 2 5 25 6 1 7 32 8 26 9 30 10 27 11 29 12
REMARK SMILES IDX 17 13 18 14 19 15 20 16 23 17 22 18 21 19 31 21 28 23 5 25
REMARK SMILES IDX 14 26 6 27 12 28 7 29 10 30 15 31 13 33 8 35 9 36 11 38
REMARK H PARENT 21 20 31 22 28 24 15 32 13 34 9 37 11 39
REMARK Flexibility Score: inf
ROOT
ATOM      1  O   UNL     1     178.947 181.737 174.019  1.00  0.00    -0.454 OA
ENDROOT
BRANCH   1   2
ATOM      2  C   UNL     1     180.195 182.374 173.859  1.00  0.00     0.214 A 
ATOM      3  C   UNL     1     181.165 182.184 174.861  1.00  0.00     0.180 A 
ATOM      4  O   UNL     1     182.341 182.791 174.779  1.00  0.00    -0.452 OA
ATOM      5  C   UNL     1     180.521 183.211 172.764  1.00  0.00     0.239 A 
ATOM      6  C   UNL     1     182.679 183.597 173.783  1.00  0.00     0.146 A 
ATOM      7  O   UNL     1     179.713 183.326 171.809  1.00  0.00    -0.285 OA
ATOM      8  C   UNL     1     181.768 183.881 172.735  1.00  0.00     0.111 A 
ATOM      9  C   UNL     1     183.961 184.154 173.782  1.00  0.00     0.094 A 
ATOM     10  C   UNL     1     182.175 184.790 171.711  1.00  0.00     0.134 A 
ATOM     11  C   UNL     1     184.368 184.990 172.747  1.00  0.00     0.123 A 
ATOM     12  C   UNL     1     183.479 185.299 171.716  1.00  0.00     0.093 A 
BRANCH   3  13
ATOM     13  C   UNL     1     180.912 181.322 176.038  1.00  0.00     0.021 A 
ATOM     14  C   UNL     1     180.040 181.765 177.045  1.00  0.00     0.016 A 
ATOM     15  C   UNL     1     179.796 180.970 178.169  1.00  0.00     0.047 A 
ATOM     16  C   UNL     1     180.433 179.733 178.308  1.00  0.00     0.115 A 
ATOM     17  C   UNL     1     181.569 180.088 176.194  1.00  0.00     0.016 A 
ATOM     18  C   UNL     1     181.324 179.295 177.318  1.00  0.00     0.047 A 
BRANCH  16  19
ATOM     19  O   UNL     1     180.181 178.951 179.432  1.00  0.00    -0.508 OA
ATOM     20  H   UNL     1     180.722 179.055 180.282  1.00  0.00     0.293 HD
ENDBRANCH  16  19
ENDBRANCH   3  13
BRANCH  10  21
ATOM     21  O   UNL     1     181.333 185.246 170.692  1.00  0.00    -0.507 OA
ATOM     22  H   UNL     1     180.577 184.713 170.288  1.00  0.00     0.293 HD
ENDBRANCH  10  21
BRANCH  11  23
ATOM     23  O   UNL     1     185.658 185.516 172.755  1.00  0.00    -0.508 OA
ATOM     24  H   UNL     1     185.940 186.220 173.426  1.00  0.00     0.293 HD
ENDBRANCH  11  23
ENDBRANCH   1   2
BRANCH   1  25
ATOM     25  C   UNL     1     178.293 180.852 173.104  1.00  0.00     0.339 C 
ATOM     26  C   UNL     1     176.762 180.987 173.236  1.00  0.00     0.214 C 
ATOM     27  O   UNL     1     178.706 179.505 173.294  1.00  0.00    -0.332 OA
ATOM     28  C   UNL     1     176.289 180.429 174.586  1.00  0.00     0.180 C 
ATOM     29  C   UNL     1     178.382 179.037 174.594  1.00  0.00     0.179 C 
ATOM     30  C   UNL     1     176.850 179.009 174.797  1.00  0.00     0.177 C 
BRANCH  26  31
ATOM     31  O   UNL     1     176.383 182.335 173.131  1.00  0.00    -0.384 OA
ATOM     32  H   UNL     1     176.977 182.848 173.739  1.00  0.00     0.211 HD
ENDBRANCH  26  31
BRANCH  28  33
ATOM     33  O   UNL     1     174.885 180.415 174.623  1.00  0.00    -0.387 OA
ATOM     34  H   UNL     1     174.575 181.001 173.884  1.00  0.00     0.211 HD
ENDBRANCH  28  33
BRANCH  29  35
ATOM     35  C   UNL     1     179.002 177.646 174.779  1.00  0.00     0.191 C 
BRANCH  35  36
ATOM     36  O   UNL     1     178.902 176.908 173.592  1.00  0.00    -0.394 OA
ATOM     37  H   UNL     1     177.940 176.912 173.345  1.00  0.00     0.210 HD
ENDBRANCH  35  36
ENDBRANCH  29  35
BRANCH  30  38
ATOM     38  O   UNL     1     176.263 178.115 173.884  1.00  0.00    -0.387 OA
ATOM     39  H   UNL     1     176.227 177.229 174.330  1.00  0.00     0.211 HD
ENDBRANCH  30  38
ENDBRANCH   1  25
TORSDOF 11
ENDMDL
MODEL 6
REMARK VINA RESULT:    -6.764      2.294      7.182
REMARK INTER + INTRA:         -11.680
REMARK INTER:                 -10.329
REMARK INTRA:                  -1.351
REMARK UNBOUND:                -1.950
REMARK SMILES O=c1c(O[C@H]2O[C@H](CO)[C@H](O)[C@H](O)[C@H]2O)c(-c2ccc(O)cc2)oc2cc(O)cc(O)c12
REMARK SMILES IDX 4 1 3 2 16 3 24 4 2 5 25 6 1 7 32 8 26 9 30 10 27 11 29 12
REMARK SMILES IDX 17 13 18 14 19 15 20 16 23 17 22 18 21 19 31 21 28 23 5 25
REMARK SMILES IDX 14 26 6 27 12 28 7 29 10 30 15 31 13 33 8 35 9 36 11 38
REMARK H PARENT 21 20 31 22 28 24 15 32 13 34 9 37 11 39
REMARK Flexibility Score: inf
ROOT
ATOM      1  O   UNL     1     181.747 179.065 174.019  1.00  0.00    -0.454 OA
ENDROOT
BRANCH   1   2
ATOM      2  C   UNL     1     180.510 178.405 173.863  1.00  0.00     0.214 A 
ATOM      3  C   UNL     1     179.550 178.558 174.881  1.00  0.00     0.180 A 
ATOM      4  O   UNL     1     178.386 177.929 174.803  1.00  0.00    -0.452 OA
ATOM      5  C   UNL     1     180.187 177.582 172.758  1.00  0.00     0.239 A 
ATOM      6  C   UNL     1     178.050 177.134 173.797  1.00  0.00     0.146 A 
ATOM      7  O   UNL     1     180.985 177.499 171.791  1.00  0.00    -0.285 OA
ATOM      8  C   UNL     1     178.953 176.887 172.733  1.00  0.00     0.111 A 
ATOM      9  C   UNL     1     176.780 176.551 173.803  1.00  0.00     0.094 A 
ATOM     10  C   UNL     1     178.552 175.988 171.697  1.00  0.00     0.134 A 
ATOM     11  C   UNL     1     176.376 175.725 172.758  1.00  0.00     0.123 A 
ATOM     12  C   UNL     1     177.258 175.453 171.711  1.00  0.00     0.093 A 
BRANCH   3  13
ATOM     13  C   UNL     1     179.800 179.404 176.069  1.00  0.00     0.021 A 
ATOM     14  C   UNL     1     180.637 178.930 177.092  1.00  0.00     0.016 A 
ATOM     15  C   UNL     1     180.878 179.710 178.228  1.00  0.00     0.047 A 
ATOM     16  C   UNL     1     180.273 180.964 178.361  1.00  0.00     0.115 A 
ATOM     17  C   UNL     1     179.176 180.655 176.220  1.00  0.00     0.016 A 
ATOM     18  C   UNL     1     179.418 181.434 177.356  1.00  0.00     0.047 A 
BRANCH  16  19
ATOM     19  O   UNL     1     180.522 181.730 179.497  1.00  0.00    -0.508 OA
ATOM     20  H   UNL     1     180.826 181.306 180.365  1.00  0.00     0.293 HD
ENDBRANCH  16  19
ENDBRANCH   3  13
BRANCH  10  21
ATOM     21  O   UNL     1     179.389 175.567 170.660  1.00  0.00    -0.507 OA
ATOM     22  H   UNL     1     179.236 174.747 170.093  1.00  0.00     0.293 HD
ENDBRANCH  10  21
BRANCH  11  23
ATOM     23  O   UNL     1     175.098 175.173 172.772  1.00  0.00    -0.508 OA
ATOM     24  H   UNL     1     174.286 175.721 173.033  1.00  0.00     0.293 HD
ENDBRANCH  11  23
ENDBRANCH   1   2
BRANCH   1  25
ATOM     25  C   UNL     1     182.379 179.966 173.104  1.00  0.00     0.339 C 
ATOM     26  C   UNL     1     183.914 179.846 173.214  1.00  0.00     0.214 C 
ATOM     27  O   UNL     1     181.955 181.307 173.312  1.00  0.00    -0.332 OA
ATOM     28  C   UNL     1     184.398 180.396 174.563  1.00  0.00     0.180 C 
ATOM     29  C   UNL     1     182.291 181.766 174.612  1.00  0.00     0.179 C 
ATOM     30  C   UNL     1     183.825 181.808 174.795  1.00  0.00     0.177 C 
BRANCH  26  31
ATOM     31  O   UNL     1     184.306 178.503 173.091  1.00  0.00    -0.384 OA
ATOM     32  H   UNL     1     184.777 178.421 172.220  1.00  0.00     0.211 HD
ENDBRANCH  26  31
BRANCH  28  33
ATOM     33  O   UNL     1     185.802 180.426 174.581  1.00  0.00    -0.387 OA
ATOM     34  H   UNL     1     186.064 181.154 175.204  1.00  0.00     0.211 HD
ENDBRANCH  28  33
BRANCH  29  35
ATOM     35  C   UNL     1     181.659 183.148 174.818  1.00  0.00     0.191 C 
BRANCH  35  36
ATOM     36  O   UNL     1     181.698 183.882 173.626  1.00  0.00    -0.394 OA
ATOM     37  H   UNL     1     181.433 183.253 172.905  1.00  0.00     0.210 HD
ENDBRANCH  35  36
ENDBRANCH  29  35
BRANCH  30  38
ATOM     38  O   UNL     1     184.390 182.717 173.883  1.00  0.00    -0.387 OA
ATOM     39  H   UNL     1     183.653 183.294 173.555  1.00  0.00     0.211 HD
ENDBRANCH  30  38
ENDBRANCH   1  25
TORSDOF 11
ENDMDL
MODEL 7
REMARK VINA RESULT:    -6.480      1.783      3.247
REMARK INTER + INTRA:         -11.271
REMARK INTER:                  -9.827
REMARK INTRA:                  -1.444
REMARK UNBOUND:                -1.950
REMARK SMILES O=c1c(O[C@H]2O[C@H](CO)[C@H](O)[C@H](O)[C@H]2O)c(-c2ccc(O)cc2)oc2cc(O)cc(O)c12
REMARK SMILES IDX 4 1 3 2 16 3 24 4 2 5 25 6 1 7 32 8 26 9 30 10 27 11 29 12
REMARK SMILES IDX 17 13 18 14 19 15 20 16 23 17 22 18 21 19 31 21 28 23 5 25
REMARK SMILES IDX 14 26 6 27 12 28 7 29 10 30 15 31 13 33 8 35 9 36 11 38
REMARK H PARENT 21 20 31 22 28 24 15 32 13 34 9 37 11 39
REMARK Flexibility Score: inf
ROOT
ATOM      1  O   UNL     1     179.538 175.462 172.190  1.00  0.00    -0.454 OA
ENDROOT
BRANCH   1   2
ATOM      2  C   UNL     1     178.854 176.526 172.815  1.00  0.00     0.214 A 
ATOM      3  C   UNL     1     177.530 176.783 172.413  1.00  0.00     0.180 A 
ATOM      4  O   UNL     1     176.855 177.795 172.941  1.00  0.00    -0.452 OA
ATOM      5  C   UNL     1     179.427 177.362 173.803  1.00  0.00     0.239 A 
ATOM      6  C   UNL     1     177.360 178.614 173.853  1.00  0.00     0.146 A 
ATOM      7  O   UNL     1     180.573 177.102 174.249  1.00  0.00    -0.285 OA
ATOM      8  C   UNL     1     178.693 178.463 174.308  1.00  0.00     0.111 A 
ATOM      9  C   UNL     1     176.542 179.625 174.365  1.00  0.00     0.094 A 
ATOM     10  C   UNL     1     179.195 179.402 175.261  1.00  0.00     0.134 A 
ATOM     11  C   UNL     1     177.022 180.496 175.339  1.00  0.00     0.123 A 
ATOM     12  C   UNL     1     178.339 180.378 175.785  1.00  0.00     0.093 A 
BRANCH   3  13
ATOM     13  C   UNL     1     176.850 175.956 171.391  1.00  0.00     0.021 A 
ATOM     14  C   UNL     1     176.824 176.389 170.056  1.00  0.00     0.016 A 
ATOM     15  C   UNL     1     176.177 175.627 169.078  1.00  0.00     0.047 A 
ATOM     16  C   UNL     1     175.537 174.434 169.425  1.00  0.00     0.115 A 
ATOM     17  C   UNL     1     176.183 174.768 171.739  1.00  0.00     0.016 A 
ATOM     18  C   UNL     1     175.538 174.007 170.760  1.00  0.00     0.047 A 
BRANCH  16  19
ATOM     19  O   UNL     1     174.897 173.685 168.441  1.00  0.00    -0.508 OA
ATOM     20  H   UNL     1     175.176 172.733 168.235  1.00  0.00     0.293 HD
ENDBRANCH  16  19
ENDBRANCH   3  13
BRANCH  10  21
ATOM     21  O   UNL     1     180.522 179.438 175.698  1.00  0.00    -0.507 OA
ATOM     22  H   UNL     1     180.955 180.223 176.160  1.00  0.00     0.293 HD
ENDBRANCH  10  21
BRANCH  11  23
ATOM     23  O   UNL     1     176.183 181.483 175.852  1.00  0.00    -0.508 OA
ATOM     24  H   UNL     1     176.442 182.462 175.834  1.00  0.00     0.293 HD
ENDBRANCH  11  23
ENDBRANCH   1   2
BRANCH   1  25
ATOM     25  C   UNL     1     180.203 175.475 170.922  1.00  0.00     0.339 C 
ATOM     26  C   UNL     1     180.450 174.032 170.436  1.00  0.00     0.214 C 
ATOM     27  O   UNL     1     181.418 176.212 170.976  1.00  0.00    -0.332 OA
ATOM     28  C   UNL     1     181.498 173.341 171.320  1.00  0.00     0.180 C 
ATOM     29  C   UNL     1     182.335 175.640 171.896  1.00  0.00     0.179 C 
ATOM     30  C   UNL     1     182.755 174.225 171.439  1.00  0.00     0.177 C 
BRANCH  26  31
ATOM     31  O   UNL     1     179.254 173.297 170.471  1.00  0.00    -0.384 OA
ATOM     32  H   UNL     1     179.337 172.650 171.220  1.00  0.00     0.211 HD
ENDBRANCH  26  31
BRANCH  28  33
ATOM     33  O   UNL     1     181.825 172.091 170.771  1.00  0.00    -0.387 OA
ATOM     34  H   UNL     1     182.080 171.504 171.530  1.00  0.00     0.211 HD
ENDBRANCH  28  33
BRANCH  29  35
ATOM     35  C   UNL     1     183.544 176.575 172.022  1.00  0.00     0.191 C 
BRANCH  35  36
ATOM     36  O   UNL     1     183.437 177.355 173.181  1.00  0.00    -0.394 OA
ATOM     37  H   UNL     1     184.130 177.017 173.806  1.00  0.00     0.210 HD
ENDBRANCH  35  36
ENDBRANCH  29  35
BRANCH  30  38
ATOM     38  O   UNL     1     183.415 174.299 170.199  1.00  0.00    -0.387 OA
ATOM     39  H   UNL     1     182.766 174.673 169.548  1.00  0.00     0.211 HD
ENDBRANCH  30  38
ENDBRANCH   1  25
TORSDOF 11
ENDMDL
MODEL 8
REMARK VINA RESULT:    -6.445      1.569      2.049
REMARK INTER + INTRA:         -11.221
REMARK INTER:                  -9.304
REMARK INTRA:                  -1.917
REMARK UNBOUND:                -1.950
REMARK SMILES O=c1c(O[C@H]2O[C@H](CO)[C@H](O)[C@H](O)[C@H]2O)c(-c2ccc(O)cc2)oc2cc(O)cc(O)c12
REMARK SMILES IDX 4 1 3 2 16 3 24 4 2 5 25 6 1 7 32 8 26 9 30 10 27 11 29 12
REMARK SMILES IDX 17 13 18 14 19 15 20 16 23 17 22 18 21 19 31 21 28 23 5 25
REMARK SMILES IDX 14 26 6 27 12 28 7 29 10 30 15 31 13 33 8 35 9 36 11 38
REMARK H PARENT 21 20 31 22 28 24 15 32 13 34 9 37 11 39
REMARK Flexibility Score: inf
ROOT
ATOM      1  O   UNL     1     179.880 177.013 172.298  1.00  0.00    -0.454 OA
ENDROOT
BRANCH   1   2
ATOM      2  C   UNL     1     179.159 177.920 173.103  1.00  0.00     0.214 A 
ATOM      3  C   UNL     1     177.753 177.867 173.055  1.00  0.00     0.180 A 
ATOM      4  O   UNL     1     177.026 178.722 173.762  1.00  0.00    -0.452 OA
ATOM      5  C   UNL     1     179.763 178.892 173.935  1.00  0.00     0.239 A 
ATOM      6  C   UNL     1     177.551 179.660 174.538  1.00  0.00     0.146 A 
ATOM      7  O   UNL     1     181.012 178.904 174.071  1.00  0.00    -0.285 OA
ATOM      8  C   UNL     1     178.955 179.820 174.637  1.00  0.00     0.111 A 
ATOM      9  C   UNL     1     176.687 180.482 175.266  1.00  0.00     0.094 A 
ATOM     10  C   UNL     1     179.461 180.876 175.457  1.00  0.00     0.134 A 
ATOM     11  C   UNL     1     177.191 181.467 176.109  1.00  0.00     0.123 A 
ATOM     12  C   UNL     1     178.571 181.656 176.205  1.00  0.00     0.093 A 
BRANCH   3  13
ATOM     13  C   UNL     1     177.037 176.879 172.217  1.00  0.00     0.021 A 
ATOM     14  C   UNL     1     176.816 177.155 170.859  1.00  0.00     0.016 A 
ATOM     15  C   UNL     1     176.133 176.239 170.053  1.00  0.00     0.047 A 
ATOM     16  C   UNL     1     175.648 175.046 170.598  1.00  0.00     0.115 A 
ATOM     17  C   UNL     1     176.526 175.689 172.766  1.00  0.00     0.016 A 
ATOM     18  C   UNL     1     175.844 174.774 171.959  1.00  0.00     0.047 A 
BRANCH  16  19
ATOM     19  O   UNL     1     174.970 174.142 169.784  1.00  0.00    -0.508 OA
ATOM     20  H   UNL     1     174.658 173.244 170.134  1.00  0.00     0.293 HD
ENDBRANCH  16  19
ENDBRANCH   3  13
BRANCH  10  21
ATOM     21  O   UNL     1     180.814 181.216 175.545  1.00  0.00    -0.507 OA
ATOM     22  H   UNL     1     181.241 182.003 175.079  1.00  0.00     0.293 HD
ENDBRANCH  10  21
BRANCH  11  23
ATOM     23  O   UNL     1     176.313 182.261 176.843  1.00  0.00    -0.508 OA
ATOM     24  H   UNL     1     176.584 183.174 177.187  1.00  0.00     0.293 HD
ENDBRANCH  11  23
ENDBRANCH   1   2
BRANCH   1  25
ATOM     25  C   UNL     1     180.306 175.690 172.638  1.00  0.00     0.339 C 
ATOM     26  C   UNL     1     181.838 175.573 172.502  1.00  0.00     0.214 C 
ATOM     27  O   UNL     1     179.646 174.709 171.848  1.00  0.00    -0.332 OA
ATOM     28  C   UNL     1     182.253 175.654 171.025  1.00  0.00     0.180 C 
ATOM     29  C   UNL     1     179.930 174.871 170.467  1.00  0.00     0.179 C 
ATOM     30  C   UNL     1     181.434 174.650 170.191  1.00  0.00     0.177 C 
BRANCH  26  31
ATOM     31  O   UNL     1     182.469 176.602 173.220  1.00  0.00    -0.384 OA
ATOM     32  H   UNL     1     182.165 177.458 172.819  1.00  0.00     0.211 HD
ENDBRANCH  26  31
BRANCH  28  33
ATOM     33  O   UNL     1     183.626 175.388 170.908  1.00  0.00    -0.387 OA
ATOM     34  H   UNL     1     183.751 174.905 170.049  1.00  0.00     0.211 HD
ENDBRANCH  28  33
BRANCH  29  35
ATOM     35  C   UNL     1     179.059 173.891 169.673  1.00  0.00     0.191 C 
BRANCH  35  36
ATOM     36  O   UNL     1     178.672 172.816 170.485  1.00  0.00    -0.394 OA
ATOM     37  H   UNL     1     179.485 172.543 170.986  1.00  0.00     0.210 HD
ENDBRANCH  35  36
ENDBRANCH  29  35
BRANCH  30  38
ATOM     38  O   UNL     1     181.793 173.332 170.528  1.00  0.00    -0.387 OA
ATOM     39  H   UNL     1     180.957 172.798 170.536  1.00  0.00     0.211 HD
ENDBRANCH  30  38
ENDBRANCH   1  25
TORSDOF 11
ENDMDL
MODEL 9
REMARK VINA RESULT:    -6.443      7.044      9.971
REMARK INTER + INTRA:         -11.218
REMARK INTER:                  -9.825
REMARK INTRA:                  -1.393
REMARK UNBOUND:                -1.950
REMARK SMILES O=c1c(O[C@H]2O[C@H](CO)[C@H](O)[C@H](O)[C@H]2O)c(-c2ccc(O)cc2)oc2cc(O)cc(O)c12
REMARK SMILES IDX 4 1 3 2 16 3 24 4 2 5 25 6 1 7 32 8 26 9 30 10 27 11 29 12
REMARK SMILES IDX 17 13 18 14 19 15 20 16 23 17 22 18 21 19 31 21 28 23 5 25
REMARK SMILES IDX 14 26 6 27 12 28 7 29 10 30 15 31 13 33 8 35 9 36 11 38
REMARK H PARENT 21 20 31 22 28 24 15 32 13 34 9 37 11 39
REMARK Flexibility Score: inf
ROOT
ATOM      1  O   UNL     1     181.204 185.281 172.117  1.00  0.00    -0.454 OA
ENDROOT
BRANCH   1   2
ATOM      2  C   UNL     1     181.876 184.212 172.747  1.00  0.00     0.214 A 
ATOM      3  C   UNL     1     183.193 183.931 172.338  1.00  0.00     0.180 A 
ATOM      4  O   UNL     1     183.856 182.913 172.869  1.00  0.00    -0.452 OA
ATOM      5  C   UNL     1     181.298 183.394 173.746  1.00  0.00     0.239 A 
ATOM      6  C   UNL     1     183.346 182.110 173.792  1.00  0.00     0.146 A 
ATOM      7  O   UNL     1     180.160 183.676 174.198  1.00  0.00    -0.285 OA
ATOM      8  C   UNL     1     182.018 182.286 174.256  1.00  0.00     0.111 A 
ATOM      9  C   UNL     1     184.151 181.091 174.308  1.00  0.00     0.094 A 
ATOM     10  C   UNL     1     181.510 181.364 175.221  1.00  0.00     0.134 A 
ATOM     11  C   UNL     1     183.666 180.237 175.293  1.00  0.00     0.123 A 
ATOM     12  C   UNL     1     182.354 180.379 175.748  1.00  0.00     0.093 A 
BRANCH   3  13
ATOM     13  C   UNL     1     183.879 184.738 171.303  1.00  0.00     0.021 A 
ATOM     14  C   UNL     1     184.496 185.945 171.666  1.00  0.00     0.016 A 
ATOM     15  C   UNL     1     185.140 186.728 170.701  1.00  0.00     0.047 A 
ATOM     16  C   UNL     1     185.159 186.321 169.363  1.00  0.00     0.115 A 
ATOM     17  C   UNL     1     183.880 184.346 169.953  1.00  0.00     0.016 A 
ATOM     18  C   UNL     1     184.524 185.129 168.991  1.00  0.00     0.047 A 
BRANCH  16  19
ATOM     19  O   UNL     1     185.804 187.109 168.414  1.00  0.00    -0.508 OA
ATOM     20  H   UNL     1     186.327 186.697 167.651  1.00  0.00     0.293 HD
ENDBRANCH  16  19
ENDBRANCH   3  13
BRANCH  10  21
ATOM     21  O   UNL     1     180.185 181.353 175.668  1.00  0.00    -0.507 OA
ATOM     22  H   UNL     1     179.430 181.871 175.243  1.00  0.00     0.293 HD
ENDBRANCH  10  21
BRANCH  11  23
ATOM     23  O   UNL     1     184.493 179.242 175.809  1.00  0.00    -0.508 OA
ATOM     24  H   UNL     1     185.503 179.318 175.770  1.00  0.00     0.293 HD
ENDBRANCH  11  23
ENDBRANCH   1   2
BRANCH   1  25
ATOM     25  C   UNL     1     180.540 185.270 170.849  1.00  0.00     0.339 C 
ATOM     26  C   UNL     1     180.277 186.714 170.373  1.00  0.00     0.214 C 
ATOM     27  O   UNL     1     179.334 184.519 170.896  1.00  0.00    -0.332 OA
ATOM     28  C   UNL     1     179.221 187.386 171.262  1.00  0.00     0.180 C 
ATOM     29  C   UNL     1     178.409 185.073 171.820  1.00  0.00     0.179 C 
ATOM     30  C   UNL     1     177.974 186.487 171.373  1.00  0.00     0.177 C 
BRANCH  26  31
ATOM     31  O   UNL     1     181.465 187.462 170.415  1.00  0.00    -0.384 OA
ATOM     32  H   UNL     1     182.108 187.014 169.804  1.00  0.00     0.211 HD
ENDBRANCH  26  31
BRANCH  28  33
ATOM     33  O   UNL     1     178.880 188.637 170.722  1.00  0.00    -0.387 OA
ATOM     34  H   UNL     1     178.873 188.529 169.735  1.00  0.00     0.211 HD
ENDBRANCH  28  33
BRANCH  29  35
ATOM     35  C   UNL     1     177.211 184.124 171.937  1.00  0.00     0.191 C 
BRANCH  35  36
ATOM     36  O   UNL     1     177.295 183.379 173.121  1.00  0.00    -0.394 OA
ATOM     37  H   UNL     1     176.518 182.761 173.114  1.00  0.00     0.210 HD
ENDBRANCH  35  36
ENDBRANCH  29  35
BRANCH  30  38
ATOM     38  O   UNL     1     177.316 186.415 170.132  1.00  0.00    -0.387 OA
ATOM     39  H   UNL     1     177.974 186.685 169.440  1.00  0.00     0.211 HD
ENDBRANCH  30  38
ENDBRANCH   1  25
TORSDOF 11
ENDMDL
