MODEL 1
REMARK VINA RESULT:    -4.531      0.000      0.000
REMARK INTER + INTRA:          -7.221
REMARK INTER:                  -5.591
REMARK INTRA:                  -1.631
REMARK UNBOUND:                -1.631
REMARK SMILES CC(C)=CCC[C@H](C)[C@@H]1C=CC(C)=CC1
REMARK SMILES IDX 6 1 7 2 8 3 9 4 13 5 12 6 14 7 11 8 15 9 10 10 5 11 4 12
REMARK SMILES IDX 2 13 1 14 3 15
REMARK H PARENT
REMARK Flexibility Score: inf
ROOT
ATOM      1  C   UNL     1      -1.085  13.869  17.218  1.00  0.00     0.008 C 
ENDROOT
BRANCH   1   2
ATOM      2  C   UNL     1       0.068  12.835  17.350  1.00  0.00    -0.007 C 
ATOM      3  C   UNL     1       0.892  13.171  18.604  1.00  0.00     0.008 C 
BRANCH   2   4
ATOM      4  C   UNL     1       1.016  12.696  16.109  1.00  0.00     0.018 C 
ATOM      5  C   UNL     1       3.332  13.684  12.547  1.00  0.00     0.044 C 
ATOM      6  C   UNL     1       2.457  13.476  13.748  1.00  0.00    -0.055 C 
ATOM      7  C   UNL     1       1.221  12.975  13.603  1.00  0.00    -0.023 C 
ATOM      8  C   UNL     1       2.942  13.877  15.087  1.00  0.00    -0.001 C 
ATOM      9  C   UNL     1       0.269  12.902  14.767  1.00  0.00     0.035 C 
ATOM     10  C   UNL     1       2.261  13.554  16.191  1.00  0.00    -0.023 C 
ENDBRANCH   2   4
ENDBRANCH   1   2
BRANCH   1  11
ATOM     11  C   UNL     1      -0.711  15.290  17.659  1.00  0.00     0.027 C 
BRANCH  11  12
ATOM     12  C   UNL     1      -0.360  16.145  16.466  1.00  0.00    -0.028 C 
ATOM     13  C   UNL     1       0.785  16.855  16.347  1.00  0.00    -0.080 C 
ATOM     14  C   UNL     1       1.811  16.913  17.452  1.00  0.00     0.039 C 
ATOM     15  C   UNL     1       1.047  17.651  15.095  1.00  0.00     0.039 C 
ENDBRANCH  11  12
ENDBRANCH   1  11
TORSDOF 4
ENDMDL
MODEL 2
REMARK VINA RESULT:    -4.503      1.213      4.117
REMARK INTER + INTRA:          -7.186
REMARK INTER:                  -5.661
REMARK INTRA:                  -1.525
REMARK UNBOUND:                -1.631
REMARK SMILES CC(C)=CCC[C@H](C)[C@@H]1C=CC(C)=CC1
REMARK SMILES IDX 6 1 7 2 8 3 9 4 13 5 12 6 14 7 11 8 15 9 10 10 5 11 4 12
REMARK SMILES IDX 2 13 1 14 3 15
REMARK H PARENT
REMARK Flexibility Score: inf
ROOT
ATOM      1  C   UNL     1      -0.744  12.781  15.959  1.00  0.00     0.008 C 
ENDROOT
BRANCH   1   2
ATOM      2  C   UNL     1       0.055  12.966  17.280  1.00  0.00    -0.007 C 
ATOM      3  C   UNL     1      -0.750  12.347  18.435  1.00  0.00     0.008 C 
BRANCH   2   4
ATOM      4  C   UNL     1       0.462  14.436  17.640  1.00  0.00     0.018 C 
ATOM      5  C   UNL     1       2.281  18.394  17.410  1.00  0.00     0.044 C 
ATOM      6  C   UNL     1       1.758  16.988  17.381  1.00  0.00    -0.055 C 
ATOM      7  C   UNL     1       2.390  16.020  18.062  1.00  0.00    -0.023 C 
ATOM      8  C   UNL     1       0.575  16.663  16.554  1.00  0.00    -0.001 C 
ATOM      9  C   UNL     1       1.979  14.578  17.925  1.00  0.00     0.035 C 
ATOM     10  C   UNL     1      -0.014  15.466  16.637  1.00  0.00    -0.023 C 
ENDBRANCH   2   4
ENDBRANCH   1   2
BRANCH   1  11
ATOM     11  C   UNL     1       0.047  12.102  14.834  1.00  0.00     0.027 C 
BRANCH  11  12
ATOM     12  C   UNL     1       1.497  12.520  14.873  1.00  0.00    -0.028 C 
ATOM     13  C   UNL     1       2.000  13.588  14.213  1.00  0.00    -0.080 C 
ATOM     14  C   UNL     1       1.152  14.440  13.302  1.00  0.00     0.039 C 
ATOM     15  C   UNL     1       3.461  13.933  14.349  1.00  0.00     0.039 C 
ENDBRANCH  11  12
ENDBRANCH   1  11
TORSDOF 4
ENDMDL
MODEL 3
REMARK VINA RESULT:    -4.426      1.294      4.038
REMARK INTER + INTRA:          -7.092
REMARK INTER:                  -5.745
REMARK INTRA:                  -1.347
REMARK UNBOUND:                -1.631
REMARK SMILES CC(C)=CCC[C@H](C)[C@@H]1C=CC(C)=CC1
REMARK SMILES IDX 6 1 7 2 8 3 9 4 13 5 12 6 14 7 11 8 15 9 10 10 5 11 4 12
REMARK SMILES IDX 2 13 1 14 3 15
REMARK H PARENT
REMARK Flexibility Score: inf
ROOT
ATOM      1  C   UNL     1       1.345  14.707  13.275  1.00  0.00     0.008 C 
ENDROOT
BRANCH   1   2
ATOM      2  C   UNL     1       2.388  14.533  14.415  1.00  0.00    -0.007 C 
ATOM      3  C   UNL     1       3.671  13.928  13.822  1.00  0.00     0.008 C 
BRANCH   2   4
ATOM      4  C   UNL     1       1.924  13.693  15.654  1.00  0.00     0.018 C 
ATOM      5  C   UNL     1      -0.389  12.338  19.096  1.00  0.00     0.044 C 
ATOM      6  C   UNL     1       0.332  12.940  17.925  1.00  0.00    -0.055 C 
ATOM      7  C   UNL     1       1.383  13.750  18.125  1.00  0.00    -0.023 C 
ATOM      8  C   UNL     1      -0.154  12.681  16.552  1.00  0.00    -0.001 C 
ATOM      9  C   UNL     1       2.024  14.489  16.980  1.00  0.00     0.035 C 
ATOM     10  C   UNL     1       0.558  13.060  15.487  1.00  0.00    -0.023 C 
ENDBRANCH   2   4
ENDBRANCH   1   2
BRANCH   1  11
ATOM     11  C   UNL     1       0.707  16.100  13.210  1.00  0.00     0.027 C 
BRANCH  11  12
ATOM     12  C   UNL     1       1.319  17.015  14.242  1.00  0.00    -0.028 C 
ATOM     13  C   UNL     1       0.726  17.350  15.411  1.00  0.00    -0.080 C 
ATOM     14  C   UNL     1      -0.664  16.882  15.768  1.00  0.00     0.039 C 
ATOM     15  C   UNL     1       1.443  18.250  16.385  1.00  0.00     0.039 C 
ENDBRANCH  11  12
ENDBRANCH   1  11
TORSDOF 4
ENDMDL
MODEL 4
REMARK VINA RESULT:    -4.378      1.074      1.612
REMARK INTER + INTRA:          -7.033
REMARK INTER:                  -5.636
REMARK INTRA:                  -1.397
REMARK UNBOUND:                -1.631
REMARK SMILES CC(C)=CCC[C@H](C)[C@@H]1C=CC(C)=CC1
REMARK SMILES IDX 6 1 7 2 8 3 9 4 13 5 12 6 14 7 11 8 15 9 10 10 5 11 4 12
REMARK SMILES IDX 2 13 1 14 3 15
REMARK H PARENT
REMARK Flexibility Score: inf
ROOT
ATOM      1  C   UNL     1       0.910  15.122  17.499  1.00  0.00     0.008 C 
ENDROOT
BRANCH   1   2
ATOM      2  C   UNL     1       0.663  13.648  17.073  1.00  0.00    -0.007 C 
ATOM      3  C   UNL     1       0.776  12.749  18.316  1.00  0.00     0.008 C 
BRANCH   2   4
ATOM      4  C   UNL     1       1.583  13.096  15.931  1.00  0.00     0.018 C 
ATOM      5  C   UNL     1       3.601  12.689  12.085  1.00  0.00     0.044 C 
ATOM      6  C   UNL     1       2.808  12.926  13.336  1.00  0.00    -0.055 C 
ATOM      7  C   UNL     1       1.664  12.255  13.546  1.00  0.00    -0.023 C 
ATOM      8  C   UNL     1       3.262  13.940  14.313  1.00  0.00    -0.001 C 
ATOM      9  C   UNL     1       0.772  12.585  14.712  1.00  0.00     0.035 C 
ATOM     10  C   UNL     1       2.676  14.055  15.508  1.00  0.00    -0.023 C 
ENDBRANCH   2   4
ENDBRANCH   1   2
BRANCH   1  11
ATOM     11  C   UNL     1      -0.033  16.136  16.839  1.00  0.00     0.027 C 
BRANCH  11  12
ATOM     12  C   UNL     1       0.737  17.076  15.943  1.00  0.00    -0.028 C 
ATOM     13  C   UNL     1       0.687  17.054  14.592  1.00  0.00    -0.080 C 
ATOM     14  C   UNL     1      -0.109  16.018  13.836  1.00  0.00     0.039 C 
ATOM     15  C   UNL     1       1.475  18.062  13.796  1.00  0.00     0.039 C 
ENDBRANCH  11  12
ENDBRANCH   1  11
TORSDOF 4
ENDMDL
MODEL 5
REMARK VINA RESULT:    -4.324      1.232      4.809
REMARK INTER + INTRA:          -6.966
REMARK INTER:                  -5.822
REMARK INTRA:                  -1.144
REMARK UNBOUND:                -1.631
REMARK SMILES CC(C)=CCC[C@H](C)[C@@H]1C=CC(C)=CC1
REMARK SMILES IDX 6 1 7 2 8 3 9 4 13 5 12 6 14 7 11 8 15 9 10 10 5 11 4 12
REMARK SMILES IDX 2 13 1 14 3 15
REMARK H PARENT
REMARK Flexibility Score: inf
ROOT
ATOM      1  C   UNL     1       1.083  17.367  14.649  1.00  0.00     0.008 C 
ENDROOT
BRANCH   1   2
ATOM      2  C   UNL     1       0.746  17.195  16.157  1.00  0.00    -0.007 C 
ATOM      3  C   UNL     1       1.893  17.792  16.990  1.00  0.00     0.008 C 
BRANCH   2   4
ATOM      4  C   UNL     1       0.444  15.733  16.635  1.00  0.00     0.018 C 
ATOM      5  C   UNL     1      -0.396  12.321  19.219  1.00  0.00     0.044 C 
ATOM      6  C   UNL     1      -0.060  13.570  18.458  1.00  0.00    -0.055 C 
ATOM      7  C   UNL     1       1.210  13.822  18.105  1.00  0.00    -0.023 C 
ATOM      8  C   UNL     1      -1.125  14.548  18.146  1.00  0.00    -0.001 C 
ATOM      9  C   UNL     1       1.597  15.135  17.480  1.00  0.00     0.035 C 
ATOM     10  C   UNL     1      -0.893  15.581  17.330  1.00  0.00    -0.023 C 
ENDBRANCH   2   4
ENDBRANCH   1   2
BRANCH   1  11
ATOM     11  C   UNL     1       0.996  16.072  13.832  1.00  0.00     0.027 C 
BRANCH  11  12
ATOM     12  C   UNL     1       2.375  15.580  13.463  1.00  0.00    -0.028 C 
ATOM     13  C   UNL     1       2.823  14.325  13.694  1.00  0.00    -0.080 C 
ATOM     14  C   UNL     1       1.990  13.297  14.420  1.00  0.00     0.039 C 
ATOM     15  C   UNL     1       4.210  13.932  13.255  1.00  0.00     0.039 C 
ENDBRANCH  11  12
ENDBRANCH   1  11
TORSDOF 4
ENDMDL
MODEL 6
REMARK VINA RESULT:    -4.282      1.217      4.268
REMARK INTER + INTRA:          -6.914
REMARK INTER:                  -5.582
REMARK INTRA:                  -1.332
REMARK UNBOUND:                -1.631
REMARK SMILES CC(C)=CCC[C@H](C)[C@@H]1C=CC(C)=CC1
REMARK SMILES IDX 6 1 7 2 8 3 9 4 13 5 12 6 14 7 11 8 15 9 10 10 5 11 4 12
REMARK SMILES IDX 2 13 1 14 3 15
REMARK H PARENT
REMARK Flexibility Score: inf
ROOT
ATOM      1  C   UNL     1       1.910  14.242  17.442  1.00  0.00     0.008 C 
ENDROOT
BRANCH   1   2
ATOM      2  C   UNL     1       0.598  14.954  17.877  1.00  0.00    -0.007 C 
ATOM      3  C   UNL     1      -0.505  13.896  18.049  1.00  0.00     0.008 C 
BRANCH   2   4
ATOM      4  C   UNL     1       0.093  16.104  16.940  1.00  0.00     0.018 C 
ATOM      5  C   UNL     1      -0.705  18.469  13.362  1.00  0.00     0.044 C 
ATOM      6  C   UNL     1      -0.324  17.579  14.509  1.00  0.00    -0.055 C 
ATOM      7  C   UNL     1       0.767  17.853  15.240  1.00  0.00    -0.023 C 
ATOM      8  C   UNL     1      -1.125  16.368  14.796  1.00  0.00    -0.001 C 
ATOM      9  C   UNL     1       1.258  16.896  16.293  1.00  0.00     0.035 C 
ATOM     10  C   UNL     1      -0.915  15.651  15.904  1.00  0.00    -0.023 C 
ENDBRANCH   2   4
ENDBRANCH   1   2
BRANCH   1  11
ATOM     11  C   UNL     1       1.785  13.425  16.150  1.00  0.00     0.027 C 
BRANCH  11  12
ATOM     12  C   UNL     1       2.869  13.805  15.171  1.00  0.00    -0.028 C 
ATOM     13  C   UNL     1       2.650  14.115  13.873  1.00  0.00    -0.080 C 
ATOM     14  C   UNL     1       1.277  14.041  13.252  1.00  0.00     0.039 C 
ATOM     15  C   UNL     1       3.806  14.512  12.991  1.00  0.00     0.039 C 
ENDBRANCH  11  12
ENDBRANCH   1  11
TORSDOF 4
ENDMDL
MODEL 7
REMARK VINA RESULT:    -4.174      1.285      4.473
REMARK INTER + INTRA:          -6.781
REMARK INTER:                  -5.166
REMARK INTRA:                  -1.615
REMARK UNBOUND:                -1.631
REMARK SMILES CC(C)=CCC[C@H](C)[C@@H]1C=CC(C)=CC1
REMARK SMILES IDX 6 1 7 2 8 3 9 4 13 5 12 6 14 7 11 8 15 9 10 10 5 11 4 12
REMARK SMILES IDX 2 13 1 14 3 15
REMARK H PARENT
REMARK Flexibility Score: inf
ROOT
ATOM      1  C   UNL     1      -0.092  16.703  14.484  1.00  0.00     0.008 C 
ENDROOT
BRANCH   1   2
ATOM      2  C   UNL     1       0.088  17.117  15.972  1.00  0.00    -0.007 C 
ATOM      3  C   UNL     1       1.466  17.779  16.137  1.00  0.00     0.008 C 
BRANCH   2   4
ATOM      4  C   UNL     1      -0.088  15.977  17.032  1.00  0.00     0.018 C 
ATOM      5  C   UNL     1       0.027  12.056  18.940  1.00  0.00     0.044 C 
ATOM      6  C   UNL     1       0.011  13.330  18.149  1.00  0.00    -0.055 C 
ATOM      7  C   UNL     1      -1.102  13.706  17.499  1.00  0.00    -0.023 C 
ATOM      8  C   UNL     1       1.242  14.144  18.042  1.00  0.00    -0.001 C 
ATOM      9  C   UNL     1      -1.100  14.894  16.575  1.00  0.00     0.035 C 
ATOM     10  C   UNL     1       1.217  15.360  17.490  1.00  0.00    -0.023 C 
ENDBRANCH   2   4
ENDBRANCH   1   2
BRANCH   1  11
ATOM     11  C   UNL     1       1.121  15.988  13.877  1.00  0.00     0.027 C 
BRANCH  11  12
ATOM     12  C   UNL     1       0.872  14.502  13.783  1.00  0.00    -0.028 C 
ATOM     13  C   UNL     1       1.726  13.556  14.236  1.00  0.00    -0.080 C 
ATOM     14  C   UNL     1       3.069  13.906  14.830  1.00  0.00     0.039 C 
ATOM     15  C   UNL     1       1.362  12.099  14.117  1.00  0.00     0.039 C 
ENDBRANCH  11  12
ENDBRANCH   1  11
TORSDOF 4
ENDMDL
MODEL 8
REMARK VINA RESULT:    -4.145      1.630      2.696
REMARK INTER + INTRA:          -6.745
REMARK INTER:                  -5.657
REMARK INTRA:                  -1.088
REMARK UNBOUND:                -1.631
REMARK SMILES CC(C)=CCC[C@H](C)[C@@H]1C=CC(C)=CC1
REMARK SMILES IDX 6 1 7 2 8 3 9 4 13 5 12 6 14 7 11 8 15 9 10 10 5 11 4 12
REMARK SMILES IDX 2 13 1 14 3 15
REMARK H PARENT
REMARK Flexibility Score: inf
ROOT
ATOM      1  C   UNL     1       1.125  16.244  17.031  1.00  0.00     0.008 C 
ENDROOT
BRANCH   1   2
ATOM      2  C   UNL     1      -0.235  15.547  16.746  1.00  0.00    -0.007 C 
ATOM      3  C   UNL     1      -1.037  15.473  18.056  1.00  0.00     0.008 C 
BRANCH   2   4
ATOM      4  C   UNL     1      -0.159  14.129  16.085  1.00  0.00     0.018 C 
ATOM      5  C   UNL     1       1.111  10.814  13.549  1.00  0.00     0.044 C 
ATOM      6  C   UNL     1       0.753  12.047  14.325  1.00  0.00    -0.055 C 
ATOM      7  C   UNL     1      -0.252  12.836  13.912  1.00  0.00    -0.023 C 
ATOM      8  C   UNL     1       1.547  12.421  15.516  1.00  0.00    -0.001 C 
ATOM      9  C   UNL     1      -0.530  14.156  14.580  1.00  0.00     0.035 C 
ATOM     10  C   UNL     1       1.154  13.413  16.322  1.00  0.00    -0.023 C 
ENDBRANCH   2   4
ENDBRANCH   1   2
BRANCH   1  11
ATOM     11  C   UNL     1       1.332  17.560  16.272  1.00  0.00     0.027 C 
BRANCH  11  12
ATOM     12  C   UNL     1       0.181  17.820  15.331  1.00  0.00    -0.028 C 
ATOM     13  C   UNL     1       0.289  17.843  13.983  1.00  0.00    -0.080 C 
ATOM     14  C   UNL     1       1.615  17.675  13.282  1.00  0.00     0.039 C 
ATOM     15  C   UNL     1      -0.935  18.082  13.137  1.00  0.00     0.039 C 
ENDBRANCH  11  12
ENDBRANCH   1  11
TORSDOF 4
ENDMDL
MODEL 9
REMARK VINA RESULT:    -4.141      1.202      2.139
REMARK INTER + INTRA:          -6.740
REMARK INTER:                  -5.658
REMARK INTRA:                  -1.081
REMARK UNBOUND:                -1.631
REMARK SMILES CC(C)=CCC[C@H](C)[C@@H]1C=CC(C)=CC1
REMARK SMILES IDX 6 1 7 2 8 3 9 4 13 5 12 6 14 7 11 8 15 9 10 10 5 11 4 12
REMARK SMILES IDX 2 13 1 14 3 15
REMARK H PARENT
REMARK Flexibility Score: inf
ROOT
ATOM      1  C   UNL     1       1.696  15.025  17.706  1.00  0.00     0.008 C 
ENDROOT
BRANCH   1   2
ATOM      2  C   UNL     1       0.659  14.024  17.123  1.00  0.00    -0.007 C 
ATOM      3  C   UNL     1       0.640  12.764  18.004  1.00  0.00     0.008 C 
BRANCH   2   4
ATOM      4  C   UNL     1       0.855  13.623  15.621  1.00  0.00     0.018 C 
ATOM      5  C   UNL     1       2.153  11.473  12.054  1.00  0.00     0.044 C 
ATOM      6  C   UNL     1       1.819  12.136  13.358  1.00  0.00    -0.055 C 
ATOM      7  C   UNL     1       2.541  13.183  13.786  1.00  0.00    -0.023 C 
ATOM      8  C   UNL     1       0.724  11.598  14.195  1.00  0.00    -0.001 C 
ATOM      9  C   UNL     1       2.328  13.766  15.157  1.00  0.00     0.035 C 
ATOM     10  C   UNL     1       0.293  12.260  15.273  1.00  0.00    -0.023 C 
ENDBRANCH   2   4
ENDBRANCH   1   2
BRANCH   1  11
ATOM     11  C   UNL     1       1.239  16.489  17.687  1.00  0.00     0.027 C 
BRANCH  11  12
ATOM     12  C   UNL     1       1.534  17.124  16.351  1.00  0.00    -0.028 C 
ATOM     13  C   UNL     1       0.598  17.399  15.414  1.00  0.00    -0.080 C 
ATOM     14  C   UNL     1      -0.853  17.026  15.596  1.00  0.00     0.039 C 
ATOM     15  C   UNL     1       1.002  18.065  14.123  1.00  0.00     0.039 C 
ENDBRANCH  11  12
ENDBRANCH   1  11
TORSDOF 4
ENDMDL
