MODEL 1
REMARK VINA RESULT:    -3.830      0.000      0.000
REMARK INTER + INTRA:          -5.604
REMARK INTER:                  -5.509
REMARK INTRA:                  -0.095
REMARK UNBOUND:                -0.095
REMARK SMILES O=C(CO)[C@@H](O)[C@H](O)[C@@H](O)CO
REMARK SMILES IDX 7 1 9 2 11 3 12 4 10 6 5 8 2 9 1 10 3 11 4 12 6 14 8 16
REMARK H PARENT 12 5 10 7 4 13 6 15 8 17
REMARK Flexibility Score: inf
ROOT
ATOM      1  C   UNL     1      38.377 -23.631   7.443  1.00  0.00     0.181 C 
ENDROOT
BRANCH   1   2
ATOM      2  C   UNL     1      37.385 -22.584   8.017  1.00  0.00     0.171 C 
BRANCH   2   3
ATOM      3  C   UNL     1      35.923 -23.003   7.791  1.00  0.00     0.190 C 
BRANCH   3   4
ATOM      4  O   UNL     1      35.727 -23.382   6.457  1.00  0.00    -0.394 OA
ATOM      5  H   UNL     1      35.090 -24.143   6.477  1.00  0.00     0.210 HD
ENDBRANCH   3   4
ENDBRANCH   2   3
BRANCH   2   6
ATOM      6  O   UNL     1      37.605 -21.337   7.407  1.00  0.00    -0.388 OA
ATOM      7  H   UNL     1      37.768 -20.683   8.137  1.00  0.00     0.211 HD
ENDBRANCH   2   6
ENDBRANCH   1   2
BRANCH   1   8
ATOM      8  C   UNL     1      38.897 -23.272   6.028  1.00  0.00     0.214 C 
BRANCH   8   9
ATOM      9  C   UNL     1      38.739 -24.411   5.046  1.00  0.00     0.189 C 
ATOM     10  O   UNL     1      39.123 -25.532   5.347  1.00  0.00    -0.294 OA
BRANCH   9  11
ATOM     11  C   UNL     1      38.130 -24.186   3.688  1.00  0.00     0.234 C 
BRANCH  11  12
ATOM     12  O   UNL     1      36.822 -23.701   3.820  1.00  0.00    -0.388 OA
ATOM     13  H   UNL     1      36.670 -23.547   4.789  1.00  0.00     0.211 HD
ENDBRANCH  11  12
ENDBRANCH   9  11
ENDBRANCH   8   9
BRANCH   8  14
ATOM     14  O   UNL     1      38.242 -22.131   5.533  1.00  0.00    -0.382 OA
ATOM     15  H   UNL     1      38.724 -21.854   4.711  1.00  0.00     0.211 HD
ENDBRANCH   8  14
ENDBRANCH   1   8
BRANCH   1  16
ATOM     16  O   UNL     1      37.779 -24.903   7.409  1.00  0.00    -0.387 OA
ATOM     17  H   UNL     1      37.319 -24.990   6.534  1.00  0.00     0.211 HD
ENDBRANCH   1  16
TORSDOF 10
ENDMDL
MODEL 2
REMARK VINA RESULT:    -3.369     19.449     21.097
REMARK INTER + INTRA:          -4.940
REMARK INTER:                  -3.723
REMARK INTRA:                  -1.218
REMARK UNBOUND:                -0.095
REMARK SMILES O=C(CO)[C@@H](O)[C@H](O)[C@@H](O)CO
REMARK SMILES IDX 7 1 9 2 11 3 12 4 10 6 5 8 2 9 1 10 3 11 4 12 6 14 8 16
REMARK H PARENT 12 5 10 7 4 13 6 15 8 17
REMARK Flexibility Score: inf
ROOT
ATOM      1  C   UNL     1      35.341 -34.586 -11.485  1.00  0.00     0.181 C 
ENDROOT
BRANCH   1   2
ATOM      2  C   UNL     1      34.562 -35.880 -11.848  1.00  0.00     0.171 C 
BRANCH   2   3
ATOM      3  C   UNL     1      33.042 -35.654 -11.824  1.00  0.00     0.190 C 
BRANCH   3   4
ATOM      4  O   UNL     1      32.387 -36.805 -11.369  1.00  0.00    -0.394 OA
ATOM      5  H   UNL     1      32.668 -36.928 -10.426  1.00  0.00     0.210 HD
ENDBRANCH   3   4
ENDBRANCH   2   3
BRANCH   2   6
ATOM      6  O   UNL     1      34.890 -36.901 -10.940  1.00  0.00    -0.388 OA
ATOM      7  H   UNL     1      34.201 -36.883 -10.224  1.00  0.00     0.211 HD
ENDBRANCH   2   6
ENDBRANCH   1   2
BRANCH   1   8
ATOM      8  C   UNL     1      36.878 -34.741 -11.606  1.00  0.00     0.214 C 
BRANCH   8   9
ATOM      9  C   UNL     1      37.587 -34.535 -10.287  1.00  0.00     0.189 C 
ATOM     10  O   UNL     1      37.803 -33.402  -9.883  1.00  0.00    -0.294 OA
BRANCH   9  11
ATOM     11  C   UNL     1      38.051 -35.706  -9.463  1.00  0.00     0.234 C 
BRANCH  11  12
ATOM     12  O   UNL     1      36.958 -36.501  -9.094  1.00  0.00    -0.388 OA
ATOM     13  H   UNL     1      37.316 -37.243  -8.543  1.00  0.00     0.211 HD
ENDBRANCH  11  12
ENDBRANCH   9  11
ENDBRANCH   8   9
BRANCH   8  14
ATOM     14  O   UNL     1      37.211 -36.004 -12.125  1.00  0.00    -0.382 OA
ATOM     15  H   UNL     1      37.862 -36.413 -11.498  1.00  0.00     0.211 HD
ENDBRANCH   8  14
ENDBRANCH   1   8
BRANCH   1  16
ATOM     16  O   UNL     1      35.017 -34.171 -10.182  1.00  0.00    -0.387 OA
ATOM     17  H   UNL     1      34.038 -34.017 -10.155  1.00  0.00     0.211 HD
ENDBRANCH   1  16
TORSDOF 10
ENDMDL
MODEL 3
REMARK VINA RESULT:    -3.274      1.211      3.975
REMARK INTER + INTRA:          -4.805
REMARK INTER:                  -4.621
REMARK INTRA:                  -0.184
REMARK UNBOUND:                -0.095
REMARK SMILES O=C(CO)[C@@H](O)[C@H](O)[C@@H](O)CO
REMARK SMILES IDX 7 1 9 2 11 3 12 4 10 6 5 8 2 9 1 10 3 11 4 12 6 14 8 16
REMARK H PARENT 12 5 10 7 4 13 6 15 8 17
REMARK Flexibility Score: inf
ROOT
ATOM      1  C   UNL     1      39.120 -22.971   5.885  1.00  0.00     0.181 C 
ENDROOT
BRANCH   1   2
ATOM      2  C   UNL     1      39.093 -24.449   5.409  1.00  0.00     0.171 C 
BRANCH   2   3
ATOM      3  C   UNL     1      39.028 -24.550   3.876  1.00  0.00     0.190 C 
BRANCH   3   4
ATOM      4  O   UNL     1      37.702 -24.440   3.438  1.00  0.00    -0.394 OA
ATOM      5  H   UNL     1      37.292 -25.334   3.573  1.00  0.00     0.210 HD
ENDBRANCH   3   4
ENDBRANCH   2   3
BRANCH   2   6
ATOM      6  O   UNL     1      37.979 -25.105   5.961  1.00  0.00    -0.388 OA
ATOM      7  H   UNL     1      38.144 -25.182   6.938  1.00  0.00     0.211 HD
ENDBRANCH   2   6
ENDBRANCH   1   2
BRANCH   1   8
ATOM      8  C   UNL     1      39.125 -22.824   7.428  1.00  0.00     0.214 C 
BRANCH   8   9
ATOM      9  C   UNL     1      38.411 -21.576   7.894  1.00  0.00     0.189 C 
ATOM     10  O   UNL     1      39.047 -20.553   8.103  1.00  0.00    -0.294 OA
BRANCH   9  11
ATOM     11  C   UNL     1      36.923 -21.572   8.125  1.00  0.00     0.234 C 
BRANCH  11  12
ATOM     12  O   UNL     1      36.349 -22.733   7.590  1.00  0.00    -0.388 OA
ATOM     13  H   UNL     1      36.876 -22.967   6.782  1.00  0.00     0.211 HD
ENDBRANCH  11  12
ENDBRANCH   9  11
ENDBRANCH   8   9
BRANCH   8  14
ATOM     14  O   UNL     1      38.545 -23.951   8.036  1.00  0.00    -0.382 OA
ATOM     15  H   UNL     1      38.489 -24.659   7.343  1.00  0.00     0.211 HD
ENDBRANCH   8  14
ENDBRANCH   1   8
BRANCH   1  16
ATOM     16  O   UNL     1      38.024 -22.266   5.356  1.00  0.00    -0.387 OA
ATOM     17  H   UNL     1      38.078 -22.336   4.368  1.00  0.00     0.211 HD
ENDBRANCH   1  16
TORSDOF 10
ENDMDL
MODEL 4
REMARK VINA RESULT:    -2.886     19.303     21.073
REMARK INTER + INTRA:          -4.247
REMARK INTER:                  -3.795
REMARK INTRA:                  -0.451
REMARK UNBOUND:                -0.095
REMARK SMILES O=C(CO)[C@@H](O)[C@H](O)[C@@H](O)CO
REMARK SMILES IDX 7 1 9 2 11 3 12 4 10 6 5 8 2 9 1 10 3 11 4 12 6 14 8 16
REMARK H PARENT 12 5 10 7 4 13 6 15 8 17
REMARK Flexibility Score: inf
ROOT
ATOM      1  C   UNL     1      35.406 -34.699 -10.349  1.00  0.00     0.181 C 
ENDROOT
BRANCH   1   2
ATOM      2  C   UNL     1      36.894 -35.144 -10.361  1.00  0.00     0.171 C 
BRANCH   2   3
ATOM      3  C   UNL     1      37.833 -33.977 -10.708  1.00  0.00     0.190 C 
BRANCH   3   4
ATOM      4  O   UNL     1      38.043 -33.171  -9.582  1.00  0.00    -0.394 OA
ATOM      5  H   UNL     1      39.011 -33.236  -9.374  1.00  0.00     0.210 HD
ENDBRANCH   3   4
ENDBRANCH   2   3
BRANCH   2   6
ATOM      6  O   UNL     1      37.073 -36.174 -11.300  1.00  0.00    -0.388 OA
ATOM      7  H   UNL     1      37.214 -37.013 -10.786  1.00  0.00     0.211 HD
ENDBRANCH   2   6
ENDBRANCH   1   2
BRANCH   1   8
ATOM      8  C   UNL     1      34.831 -34.443 -11.765  1.00  0.00     0.214 C 
BRANCH   8   9
ATOM      9  C   UNL     1      33.522 -35.162 -11.999  1.00  0.00     0.189 C 
ATOM     10  O   UNL     1      32.489 -34.519 -12.125  1.00  0.00    -0.294 OA
BRANCH   9  11
ATOM     11  C   UNL     1      33.461 -36.664 -12.063  1.00  0.00     0.234 C 
BRANCH  11  12
ATOM     12  O   UNL     1      32.276 -37.124 -11.472  1.00  0.00    -0.388 OA
ATOM     13  H   UNL     1      32.475 -37.277 -10.512  1.00  0.00     0.211 HD
ENDBRANCH  11  12
ENDBRANCH   9  11
ENDBRANCH   8   9
BRANCH   8  14
ATOM     14  O   UNL     1      34.658 -33.067 -11.990  1.00  0.00    -0.382 OA
ATOM     15  H   UNL     1      33.713 -32.934 -12.262  1.00  0.00     0.211 HD
ENDBRANCH   8  14
ENDBRANCH   1   8
BRANCH   1  16
ATOM     16  O   UNL     1      35.249 -33.540  -9.569  1.00  0.00    -0.387 OA
ATOM     17  H   UNL     1      36.132 -33.333  -9.167  1.00  0.00     0.211 HD
ENDBRANCH   1  16
TORSDOF 10
ENDMDL
MODEL 5
REMARK VINA RESULT:    -2.737     19.329     20.824
REMARK INTER + INTRA:          -4.031
REMARK INTER:                  -3.652
REMARK INTRA:                  -0.379
REMARK UNBOUND:                -0.095
REMARK SMILES O=C(CO)[C@@H](O)[C@H](O)[C@@H](O)CO
REMARK SMILES IDX 7 1 9 2 11 3 12 4 10 6 5 8 2 9 1 10 3 11 4 12 6 14 8 16
REMARK H PARENT 12 5 10 7 4 13 6 15 8 17
REMARK Flexibility Score: inf
ROOT
ATOM      1  C   UNL     1      35.694 -34.247 -10.807  1.00  0.00     0.181 C 
ENDROOT
BRANCH   1   2
ATOM      2  C   UNL     1      35.074 -35.397 -11.645  1.00  0.00     0.171 C 
BRANCH   2   3
ATOM      3  C   UNL     1      33.648 -35.057 -12.109  1.00  0.00     0.190 C 
BRANCH   3   4
ATOM      4  O   UNL     1      32.710 -35.514 -11.174  1.00  0.00    -0.394 OA
ATOM      5  H   UNL     1      32.014 -34.810 -11.114  1.00  0.00     0.210 HD
ENDBRANCH   3   4
ENDBRANCH   2   3
BRANCH   2   6
ATOM      6  O   UNL     1      35.039 -36.576 -10.880  1.00  0.00    -0.388 OA
ATOM      7  H   UNL     1      34.086 -36.752 -10.663  1.00  0.00     0.211 HD
ENDBRANCH   2   6
ENDBRANCH   1   2
BRANCH   1   8
ATOM      8  C   UNL     1      37.054 -34.620 -10.164  1.00  0.00     0.214 C 
BRANCH   8   9
ATOM      9  C   UNL     1      38.017 -35.230 -11.157  1.00  0.00     0.189 C 
ATOM     10  O   UNL     1      38.193 -36.440 -11.170  1.00  0.00    -0.294 OA
BRANCH   9  11
ATOM     11  C   UNL     1      38.784 -34.368 -12.124  1.00  0.00     0.234 C 
BRANCH  11  12
ATOM     12  O   UNL     1      38.267 -33.066 -12.125  1.00  0.00    -0.388 OA
ATOM     13  H   UNL     1      38.912 -32.502 -11.625  1.00  0.00     0.211 HD
ENDBRANCH  11  12
ENDBRANCH   9  11
ENDBRANCH   8   9
BRANCH   8  14
ATOM     14  O   UNL     1      37.646 -33.495  -9.565  1.00  0.00    -0.382 OA
ATOM     15  H   UNL     1      37.594 -33.628  -8.583  1.00  0.00     0.211 HD
ENDBRANCH   8  14
ENDBRANCH   1   8
BRANCH   1  16
ATOM     16  O   UNL     1      34.802 -33.839  -9.800  1.00  0.00    -0.387 OA
ATOM     17  H   UNL     1      34.359 -34.654  -9.449  1.00  0.00     0.211 HD
ENDBRANCH   1  16
TORSDOF 10
ENDMDL
MODEL 6
REMARK VINA RESULT:    -2.621      1.354      3.600
REMARK INTER + INTRA:          -3.865
REMARK INTER:                  -4.394
REMARK INTRA:                   0.530
REMARK UNBOUND:                -0.095
REMARK SMILES O=C(CO)[C@@H](O)[C@H](O)[C@@H](O)CO
REMARK SMILES IDX 7 1 9 2 11 3 12 4 10 6 5 8 2 9 1 10 3 11 4 12 6 14 8 16
REMARK H PARENT 12 5 10 7 4 13 6 15 8 17
REMARK Flexibility Score: inf
ROOT
ATOM      1  C   UNL     1      37.943 -24.960   6.028  1.00  0.00     0.181 C 
ENDROOT
BRANCH   1   2
ATOM      2  C   UNL     1      38.675 -24.167   4.911  1.00  0.00     0.171 C 
BRANCH   2   3
ATOM      3  C   UNL     1      37.799 -23.034   4.352  1.00  0.00     0.190 C 
BRANCH   3   4
ATOM      4  O   UNL     1      36.598 -23.551   3.849  1.00  0.00    -0.394 OA
ATOM      5  H   UNL     1      36.842 -24.366   3.337  1.00  0.00     0.210 HD
ENDBRANCH   3   4
ENDBRANCH   2   3
BRANCH   2   6
ATOM      6  O   UNL     1      39.025 -25.037   3.865  1.00  0.00    -0.388 OA
ATOM      7  H   UNL     1      39.074 -25.951   4.252  1.00  0.00     0.211 HD
ENDBRANCH   2   6
ENDBRANCH   1   2
BRANCH   1   8
ATOM      8  C   UNL     1      37.180 -24.051   7.025  1.00  0.00     0.214 C 
BRANCH   8   9
ATOM      9  C   UNL     1      38.056 -22.965   7.608  1.00  0.00     0.189 C 
ATOM     10  O   UNL     1      39.125 -23.258   8.125  1.00  0.00    -0.294 OA
BRANCH   9  11
ATOM     11  C   UNL     1      37.627 -21.523   7.581  1.00  0.00     0.234 C 
BRANCH  11  12
ATOM     12  O   UNL     1      38.744 -20.685   7.699  1.00  0.00    -0.388 OA
ATOM     13  H   UNL     1      39.486 -21.244   8.047  1.00  0.00     0.211 HD
ENDBRANCH  11  12
ENDBRANCH   9  11
ENDBRANCH   8   9
BRANCH   8  14
ATOM     14  O   UNL     1      36.059 -23.469   6.409  1.00  0.00    -0.382 OA
ATOM     15  H   UNL     1      36.144 -22.486   6.521  1.00  0.00     0.211 HD
ENDBRANCH   8  14
ENDBRANCH   1   8
BRANCH   1  16
ATOM     16  O   UNL     1      38.855 -25.761   6.737  1.00  0.00    -0.387 OA
ATOM     17  H   UNL     1      38.381 -26.595   6.989  1.00  0.00     0.211 HD
ENDBRANCH   1  16
TORSDOF 10
ENDMDL
