MODEL 1
REMARK VINA RESULT:    12.124      0.000      0.000
REMARK INTER + INTRA:          32.642
REMARK INTER:                  31.971
REMARK INTRA:                   0.672
REMARK UNBOUND:                 0.672
REMARK SMILES CCCCCCCCCCCCCCCCCCCCCCCCCCCCCC(=O)[O-]
REMARK SMILES IDX 16 1 17 2 18 3 19 4 20 5 21 6 22 7 23 8 24 9 25 10 26 11
REMARK SMILES IDX 27 12 28 13 29 14 30 15 31 16 32 17 15 18 14 19 13 20 12 21
REMARK SMILES IDX 11 22 10 23 9 24 8 25 7 26 6 27 5 28 4 29 3 30 2 31 1 32
REMARK H PARENT
REMARK Flexibility Score: inf
ROOT
ATOM      1  C   UNL     1     -16.109  17.340  -8.458  1.00  0.00     0.000 C 
ENDROOT
BRANCH   1   2
ATOM      2  C   UNL     1     -16.126  18.782  -9.000  1.00  0.00     0.000 C 
BRANCH   2   3
ATOM      3  C   UNL     1     -15.780  18.884 -10.497  1.00  0.00     0.000 C 
BRANCH   3   4
ATOM      4  C   UNL     1     -16.754  19.744 -11.329  1.00  0.00     0.000 C 
BRANCH   4   5
ATOM      5  C   UNL     1     -16.734  21.260 -11.046  1.00  0.00     0.000 C 
BRANCH   5   6
ATOM      6  C   UNL     1     -15.393  21.976 -11.299  1.00  0.00     0.000 C 
BRANCH   6   7
ATOM      7  C   UNL     1     -14.490  21.228 -12.294  1.00  0.00     0.000 C 
BRANCH   7   8
ATOM      8  C   UNL     1     -13.041  21.746 -12.284  1.00  0.00     0.000 C 
BRANCH   8   9
ATOM      9  C   UNL     1     -12.472  21.966 -10.867  1.00  0.00     0.000 C 
BRANCH   9  10
ATOM     10  C   UNL     1     -11.299  21.016 -10.558  1.00  0.00     0.000 C 
BRANCH  10  11
ATOM     11  C   UNL     1     -11.131  20.761  -9.044  1.00  0.00     0.000 C 
BRANCH  11  12
ATOM     12  C   UNL     1      -9.960  19.824  -8.696  1.00  0.00     0.000 C 
BRANCH  12  13
ATOM     13  C   UNL     1      -9.549  18.855  -9.819  1.00  0.00     0.006 C 
BRANCH  13  14
ATOM     14  C   UNL     1      -8.938  17.552  -9.287  1.00  0.00     0.053 C 
BRANCH  14  15
ATOM     15  C   UNL     1      -7.460  17.513  -9.529  1.00  0.00     0.041 C 
ATOM     16  O   UNL     1      -6.674  18.093  -8.736  1.00  0.00    -0.550 OA
ATOM     17  O   UNL     1      -6.952  16.876 -10.656  1.00  0.00    -0.550 OA
ENDBRANCH  14  15
ENDBRANCH  13  14
ENDBRANCH  12  13
ENDBRANCH  11  12
ENDBRANCH  10  11
ENDBRANCH   9  10
ENDBRANCH   8   9
ENDBRANCH   7   8
ENDBRANCH   6   7
ENDBRANCH   5   6
ENDBRANCH   4   5
ENDBRANCH   3   4
ENDBRANCH   2   3
ENDBRANCH   1   2
BRANCH   1  18
ATOM     18  C   UNL     1     -14.938  17.088  -7.494  1.00  0.00     0.000 C 
BRANCH  18  19
ATOM     19  C   UNL     1     -15.337  16.205  -6.300  1.00  0.00     0.000 C 
BRANCH  19  20
ATOM     20  C   UNL     1     -16.394  15.146  -6.665  1.00  0.00     0.000 C 
BRANCH  20  21
ATOM     21  C   UNL     1     -17.122  15.387  -8.002  1.00  0.00     0.000 C 
BRANCH  21  22
ATOM     22  C   UNL     1     -17.098  14.161  -8.926  1.00  0.00     0.000 C 
BRANCH  22  23
ATOM     23  C   UNL     1     -17.125  14.587 -10.401  1.00  0.00     0.000 C 
BRANCH  23  24
ATOM     24  C   UNL     1     -15.718  14.816 -10.981  1.00  0.00    -0.000 C 
BRANCH  24  25
ATOM     25  C   UNL     1     -15.626  14.710 -12.516  1.00  0.00    -0.000 C 
BRANCH  25  26
ATOM     26  C   UNL     1     -16.217  13.420 -13.120  1.00  0.00    -0.000 C 
BRANCH  26  27
ATOM     27  C   UNL     1     -15.708  12.111 -12.488  1.00  0.00    -0.000 C 
BRANCH  27  28
ATOM     28  C   UNL     1     -14.180  12.092 -12.309  1.00  0.00    -0.000 C 
BRANCH  28  29
ATOM     29  C   UNL     1     -13.728  12.677 -10.960  1.00  0.00    -0.000 C 
BRANCH  29  30
ATOM     30  C   UNL     1     -14.451  12.103  -9.727  1.00  0.00    -0.000 C 
BRANCH  30  31
ATOM     31  C   UNL     1     -13.601  12.140  -8.439  1.00  0.00    -0.003 C 
ATOM     32  C   UNL     1     -14.439  12.444  -7.198  1.00  0.00     0.004 C 
ENDBRANCH  30  31
ENDBRANCH  29  30
ENDBRANCH  28  29
ENDBRANCH  27  28
ENDBRANCH  26  27
ENDBRANCH  25  26
ENDBRANCH  24  25
ENDBRANCH  23  24
ENDBRANCH  22  23
ENDBRANCH  21  22
ENDBRANCH  20  21
ENDBRANCH  19  20
ENDBRANCH  18  19
ENDBRANCH   1  18
TORSDOF 28
ENDMDL
MODEL 2
REMARK VINA RESULT:    13.112      3.777      7.999
REMARK INTER + INTRA:          35.247
REMARK INTER:                  26.523
REMARK INTRA:                   8.723
REMARK UNBOUND:                 0.672
REMARK SMILES CCCCCCCCCCCCCCCCCCCCCCCCCCCCCC(=O)[O-]
REMARK SMILES IDX 16 1 17 2 18 3 19 4 20 5 21 6 22 7 23 8 24 9 25 10 26 11
REMARK SMILES IDX 27 12 28 13 29 14 30 15 31 16 32 17 15 18 14 19 13 20 12 21
REMARK SMILES IDX 11 22 10 23 9 24 8 25 7 26 6 27 5 28 4 29 3 30 2 31 1 32
REMARK H PARENT
REMARK Flexibility Score: inf
ROOT
ATOM      1  C   UNL     1     -13.363  14.870  -6.702  1.00  0.00     0.000 C 
ENDROOT
BRANCH   1   2
ATOM      2  C   UNL     1     -13.246  13.354  -6.460  1.00  0.00     0.000 C 
BRANCH   2   3
ATOM      3  C   UNL     1     -14.458  12.750  -5.726  1.00  0.00     0.000 C 
BRANCH   3   4
ATOM      4  C   UNL     1     -15.507  12.088  -6.645  1.00  0.00     0.000 C 
BRANCH   4   5
ATOM      5  C   UNL     1     -16.801  12.892  -6.888  1.00  0.00     0.000 C 
BRANCH   5   6
ATOM      6  C   UNL     1     -16.929  13.560  -8.270  1.00  0.00     0.000 C 
BRANCH   6   7
ATOM      7  C   UNL     1     -15.666  13.406  -9.134  1.00  0.00     0.000 C 
BRANCH   7   8
ATOM      8  C   UNL     1     -14.885  12.120  -8.818  1.00  0.00     0.000 C 
BRANCH   8   9
ATOM      9  C   UNL     1     -14.599  11.248 -10.059  1.00  0.00     0.000 C 
BRANCH   9  10
ATOM     10  C   UNL     1     -13.647  11.943 -11.050  1.00  0.00     0.000 C 
BRANCH  10  11
ATOM     11  C   UNL     1     -14.110  13.372 -11.409  1.00  0.00     0.000 C 
BRANCH  11  12
ATOM     12  C   UNL     1     -14.625  13.517 -12.854  1.00  0.00     0.000 C 
BRANCH  12  13
ATOM     13  C   UNL     1     -16.115  13.881 -12.977  1.00  0.00     0.006 C 
BRANCH  13  14
ATOM     14  C   UNL     1     -17.022  12.647 -13.078  1.00  0.00     0.053 C 
BRANCH  14  15
ATOM     15  C   UNL     1     -16.421  11.477 -12.363  1.00  0.00     0.041 C 
ATOM     16  O   UNL     1     -15.570  10.751 -12.942  1.00  0.00    -0.550 OA
ATOM     17  O   UNL     1     -16.832  11.158 -11.074  1.00  0.00    -0.550 OA
ENDBRANCH  14  15
ENDBRANCH  13  14
ENDBRANCH  12  13
ENDBRANCH  11  12
ENDBRANCH  10  11
ENDBRANCH   9  10
ENDBRANCH   8   9
ENDBRANCH   7   8
ENDBRANCH   6   7
ENDBRANCH   5   6
ENDBRANCH   4   5
ENDBRANCH   3   4
ENDBRANCH   2   3
ENDBRANCH   1   2
BRANCH   1  18
ATOM     18  C   UNL     1     -14.729  15.269  -7.286  1.00  0.00     0.000 C 
BRANCH  18  19
ATOM     19  C   UNL     1     -15.735  15.686  -6.200  1.00  0.00     0.000 C 
BRANCH  19  20
ATOM     20  C   UNL     1     -15.302  16.952  -5.437  1.00  0.00     0.000 C 
BRANCH  20  21
ATOM     21  C   UNL     1     -16.220  18.174  -5.631  1.00  0.00     0.000 C 
BRANCH  21  22
ATOM     22  C   UNL     1     -17.125  18.054  -6.866  1.00  0.00     0.000 C 
BRANCH  22  23
ATOM     23  C   UNL     1     -16.422  17.272  -7.985  1.00  0.00     0.000 C 
BRANCH  23  24
ATOM     24  C   UNL     1     -16.685  17.863  -9.381  1.00  0.00    -0.000 C 
BRANCH  24  25
ATOM     25  C   UNL     1     -15.661  17.455 -10.460  1.00  0.00    -0.000 C 
BRANCH  25  26
ATOM     26  C   UNL     1     -16.191  17.480 -11.907  1.00  0.00    -0.000 C 
BRANCH  26  27
ATOM     27  C   UNL     1     -15.530  18.524 -12.826  1.00  0.00    -0.000 C 
BRANCH  27  28
ATOM     28  C   UNL     1     -16.347  19.824 -12.933  1.00  0.00    -0.000 C 
BRANCH  28  29
ATOM     29  C   UNL     1     -15.984  20.850 -11.846  1.00  0.00    -0.000 C 
BRANCH  29  30
ATOM     30  C   UNL     1     -14.697  20.538 -11.060  1.00  0.00    -0.000 C 
BRANCH  30  31
ATOM     31  C   UNL     1     -13.429  21.166 -11.677  1.00  0.00    -0.003 C 
ATOM     32  C   UNL     1     -13.201  20.717 -13.120  1.00  0.00     0.004 C 
ENDBRANCH  30  31
ENDBRANCH  29  30
ENDBRANCH  28  29
ENDBRANCH  27  28
ENDBRANCH  26  27
ENDBRANCH  25  26
ENDBRANCH  24  25
ENDBRANCH  23  24
ENDBRANCH  22  23
ENDBRANCH  21  22
ENDBRANCH  20  21
ENDBRANCH  19  20
ENDBRANCH  18  19
ENDBRANCH   1  18
TORSDOF 28
ENDMDL
MODEL 3
REMARK VINA RESULT:    14.347      5.721     11.731
REMARK INTER + INTRA:          38.503
REMARK INTER:                  40.053
REMARK INTRA:                  -1.550
REMARK UNBOUND:                 0.672
REMARK SMILES CCCCCCCCCCCCCCCCCCCCCCCCCCCCCC(=O)[O-]
REMARK SMILES IDX 16 1 17 2 18 3 19 4 20 5 21 6 22 7 23 8 24 9 25 10 26 11
REMARK SMILES IDX 27 12 28 13 29 14 30 15 31 16 32 17 15 18 14 19 13 20 12 21
REMARK SMILES IDX 11 22 10 23 9 24 8 25 7 26 6 27 5 28 4 29 3 30 2 31 1 32
REMARK H PARENT
REMARK Flexibility Score: inf
ROOT
ATOM      1  C   UNL     1      -7.798  17.907  -9.327  1.00  0.00     0.000 C 
ENDROOT
BRANCH   1   2
ATOM      2  C   UNL     1      -9.250  17.644  -9.770  1.00  0.00     0.000 C 
BRANCH   2   3
ATOM      3  C   UNL     1     -10.130  18.908  -9.786  1.00  0.00     0.000 C 
BRANCH   3   4
ATOM      4  C   UNL     1     -11.402  18.800 -10.653  1.00  0.00     0.000 C 
BRANCH   4   5
ATOM      5  C   UNL     1     -12.149  20.121 -10.930  1.00  0.00     0.000 C 
BRANCH   5   6
ATOM      6  C   UNL     1     -12.862  20.220 -12.293  1.00  0.00     0.000 C 
BRANCH   6   7
ATOM      7  C   UNL     1     -13.571  21.567 -12.506  1.00  0.00     0.000 C 
BRANCH   7   8
ATOM      8  C   UNL     1     -15.101  21.457 -12.398  1.00  0.00     0.000 C 
BRANCH   8   9
ATOM      9  C   UNL     1     -15.592  20.063 -11.953  1.00  0.00     0.000 C 
BRANCH   9  10
ATOM     10  C   UNL     1     -16.557  20.141 -10.756  1.00  0.00     0.000 C 
BRANCH  10  11
ATOM     11  C   UNL     1     -16.990  18.745 -10.257  1.00  0.00     0.000 C 
BRANCH  11  12
ATOM     12  C   UNL     1     -15.826  17.748 -10.105  1.00  0.00     0.000 C 
BRANCH  12  13
ATOM     13  C   UNL     1     -15.643  17.177  -8.687  1.00  0.00     0.006 C 
BRANCH  13  14
ATOM     14  C   UNL     1     -16.776  16.225  -8.278  1.00  0.00     0.053 C 
BRANCH  14  15
ATOM     15  C   UNL     1     -16.273  14.822  -8.136  1.00  0.00     0.041 C 
ATOM     16  O   UNL     1     -15.940  14.163  -9.156  1.00  0.00    -0.550 OA
ATOM     17  O   UNL     1     -16.215  14.222  -6.883  1.00  0.00    -0.550 OA
ENDBRANCH  14  15
ENDBRANCH  13  14
ENDBRANCH  12  13
ENDBRANCH  11  12
ENDBRANCH  10  11
ENDBRANCH   9  10
ENDBRANCH   8   9
ENDBRANCH   7   8
ENDBRANCH   6   7
ENDBRANCH   5   6
ENDBRANCH   4   5
ENDBRANCH   3   4
ENDBRANCH   2   3
ENDBRANCH   1   2
BRANCH   1  18
ATOM     18  C   UNL     1      -6.885  16.692  -9.555  1.00  0.00     0.000 C 
BRANCH  18  19
ATOM     19  C   UNL     1      -5.905  16.901 -10.722  1.00  0.00     0.000 C 
BRANCH  19  20
ATOM     20  C   UNL     1      -4.644  17.686 -10.311  1.00  0.00     0.000 C 
BRANCH  20  21
ATOM     21  C   UNL     1      -4.753  18.434  -8.969  1.00  0.00     0.000 C 
BRANCH  21  22
ATOM     22  C   UNL     1      -3.750  17.931  -7.919  1.00  0.00     0.000 C 
BRANCH  22  23
ATOM     23  C   UNL     1      -2.695  17.021  -8.564  1.00  0.00     0.000 C 
BRANCH  23  24
ATOM     24  C   UNL     1      -1.263  17.351  -8.106  1.00  0.00    -0.000 C 
BRANCH  24  25
ATOM     25  C   UNL     1      -1.028  18.827  -7.729  1.00  0.00    -0.000 C 
BRANCH  25  26
ATOM     26  C   UNL     1       0.432  19.191  -7.392  1.00  0.00    -0.000 C 
BRANCH  26  27
ATOM     27  C   UNL     1       1.416  18.008  -7.390  1.00  0.00    -0.000 C 
BRANCH  27  28
ATOM     28  C   UNL     1       2.354  18.013  -8.610  1.00  0.00    -0.000 C 
BRANCH  28  29
ATOM     29  C   UNL     1       2.886  16.613  -8.962  1.00  0.00    -0.000 C 
BRANCH  29  30
ATOM     30  C   UNL     1       2.664  16.181 -10.423  1.00  0.00    -0.000 C 
BRANCH  30  31
ATOM     31  C   UNL     1       2.265  17.343 -11.358  1.00  0.00    -0.003 C 
ATOM     32  C   UNL     1       3.077  17.352 -12.653  1.00  0.00     0.004 C 
ENDBRANCH  30  31
ENDBRANCH  29  30
ENDBRANCH  28  29
ENDBRANCH  27  28
ENDBRANCH  26  27
ENDBRANCH  25  26
ENDBRANCH  24  25
ENDBRANCH  23  24
ENDBRANCH  22  23
ENDBRANCH  21  22
ENDBRANCH  20  21
ENDBRANCH  19  20
ENDBRANCH  18  19
ENDBRANCH   1  18
TORSDOF 28
ENDMDL
MODEL 4
REMARK VINA RESULT:    15.018      5.531      9.671
REMARK INTER + INTRA:          40.272
REMARK INTER:                  40.195
REMARK INTRA:                   0.076
REMARK UNBOUND:                 0.672
REMARK SMILES CCCCCCCCCCCCCCCCCCCCCCCCCCCCCC(=O)[O-]
REMARK SMILES IDX 16 1 17 2 18 3 19 4 20 5 21 6 22 7 23 8 24 9 25 10 26 11
REMARK SMILES IDX 27 12 28 13 29 14 30 15 31 16 32 17 15 18 14 19 13 20 12 21
REMARK SMILES IDX 11 22 10 23 9 24 8 25 7 26 6 27 5 28 4 29 3 30 2 31 1 32
REMARK H PARENT
REMARK Flexibility Score: inf
ROOT
ATOM      1  C   UNL     1      -9.278  17.902  -9.444  1.00  0.00     0.000 C 
ENDROOT
BRANCH   1   2
ATOM      2  C   UNL     1      -8.021  17.109  -9.853  1.00  0.00     0.000 C 
BRANCH   2   3
ATOM      3  C   UNL     1      -6.767  17.478  -9.039  1.00  0.00     0.000 C 
BRANCH   3   4
ATOM      4  C   UNL     1      -5.681  18.236  -9.832  1.00  0.00     0.000 C 
BRANCH   4   5
ATOM      5  C   UNL     1      -4.226  17.777  -9.602  1.00  0.00     0.000 C 
BRANCH   5   6
ATOM      6  C   UNL     1      -3.593  18.191  -8.260  1.00  0.00     0.000 C 
BRANCH   6   7
ATOM      7  C   UNL     1      -2.340  17.372  -7.907  1.00  0.00     0.000 C 
BRANCH   7   8
ATOM      8  C   UNL     1      -1.139  18.256  -7.529  1.00  0.00     0.000 C 
BRANCH   8   9
ATOM      9  C   UNL     1       0.184  17.820  -8.192  1.00  0.00     0.000 C 
BRANCH   9  10
ATOM     10  C   UNL     1       1.224  18.956  -8.216  1.00  0.00     0.000 C 
BRANCH  10  11
ATOM     11  C   UNL     1       2.382  18.715  -7.224  1.00  0.00     0.000 C 
BRANCH  11  12
ATOM     12  C   UNL     1       2.888  17.261  -7.196  1.00  0.00     0.000 C 
BRANCH  12  13
ATOM     13  C   UNL     1       2.219  16.323  -8.216  1.00  0.00     0.006 C 
BRANCH  13  14
ATOM     14  C   UNL     1       3.123  16.003  -9.414  1.00  0.00     0.053 C 
BRANCH  14  15
ATOM     15  C   UNL     1       2.696  16.766 -10.630  1.00  0.00     0.041 C 
ATOM     16  O   UNL     1       2.822  18.018 -10.668  1.00  0.00    -0.550 OA
ATOM     17  O   UNL     1       2.115  16.102 -11.705  1.00  0.00    -0.550 OA
ENDBRANCH  14  15
ENDBRANCH  13  14
ENDBRANCH  12  13
ENDBRANCH  11  12
ENDBRANCH  10  11
ENDBRANCH   9  10
ENDBRANCH   8   9
ENDBRANCH   7   8
ENDBRANCH   6   7
ENDBRANCH   5   6
ENDBRANCH   4   5
ENDBRANCH   3   4
ENDBRANCH   2   3
ENDBRANCH   1   2
BRANCH   1  18
ATOM     18  C   UNL     1      -8.950  19.340  -9.011  1.00  0.00     0.000 C 
BRANCH  18  19
ATOM     19  C   UNL     1     -10.212  20.172  -8.728  1.00  0.00     0.000 C 
BRANCH  19  20
ATOM     20  C   UNL     1     -11.131  20.303  -9.958  1.00  0.00     0.000 C 
BRANCH  20  21
ATOM     21  C   UNL     1     -11.338  21.743 -10.466  1.00  0.00     0.000 C 
BRANCH  21  22
ATOM     22  C   UNL     1     -12.772  22.005 -10.951  1.00  0.00     0.000 C 
BRANCH  22  23
ATOM     23  C   UNL     1     -13.016  21.350 -12.317  1.00  0.00     0.000 C 
BRANCH  23  24
ATOM     24  C   UNL     1     -14.424  21.631 -12.871  1.00  0.00    -0.000 C 
BRANCH  24  25
ATOM     25  C   UNL     1     -15.550  20.797 -12.230  1.00  0.00    -0.000 C 
BRANCH  25  26
ATOM     26  C   UNL     1     -15.942  19.523 -13.004  1.00  0.00    -0.000 C 
BRANCH  26  27
ATOM     27  C   UNL     1     -17.036  18.666 -12.340  1.00  0.00    -0.000 C 
BRANCH  27  28
ATOM     28  C   UNL     1     -16.490  17.353 -11.755  1.00  0.00    -0.000 C 
BRANCH  28  29
ATOM     29  C   UNL     1     -17.057  17.038 -10.360  1.00  0.00    -0.000 C 
BRANCH  29  30
ATOM     30  C   UNL     1     -16.007  16.928  -9.239  1.00  0.00    -0.000 C 
BRANCH  30  31
ATOM     31  C   UNL     1     -15.835  15.496  -8.691  1.00  0.00    -0.003 C 
ATOM     32  C   UNL     1     -17.125  14.681  -8.779  1.00  0.00     0.004 C 
ENDBRANCH  30  31
ENDBRANCH  29  30
ENDBRANCH  28  29
ENDBRANCH  27  28
ENDBRANCH  26  27
ENDBRANCH  25  26
ENDBRANCH  24  25
ENDBRANCH  23  24
ENDBRANCH  22  23
ENDBRANCH  21  22
ENDBRANCH  20  21
ENDBRANCH  19  20
ENDBRANCH  18  19
ENDBRANCH   1  18
TORSDOF 28
ENDMDL
