MODEL 1
REMARK VINA RESULT:    -2.985      0.000      0.000
REMARK INTER + INTRA:          -3.602
REMARK INTER:                  -3.509
REMARK INTRA:                  -0.093
REMARK UNBOUND:                -0.093
REMARK SMILES O=C([O-])CCC(=O)[O-]
REMARK SMILES IDX 4 1 2 2 1 3 3 4 5 5 6 6 7 7 8 8
REMARK H PARENT
REMARK Flexibility Score: inf
ROOT
ATOM      1  C   UNL     1      10.929  14.397   1.473  1.00  0.00     0.059 C 
ENDROOT
BRANCH   1   2
ATOM      2  C   UNL     1      11.216  13.829   0.120  1.00  0.00     0.042 C 
ATOM      3  O   UNL     1      12.289  13.204  -0.092  1.00  0.00    -0.550 OA
ATOM      4  O   UNL     1      10.276  13.946  -0.897  1.00  0.00    -0.550 OA
ENDBRANCH   1   2
BRANCH   1   5
ATOM      5  C   UNL     1       9.607  15.166   1.462  1.00  0.00     0.059 C 
BRANCH   5   6
ATOM      6  C   UNL     1       9.853  16.635   1.593  1.00  0.00     0.042 C 
ATOM      7  O   UNL     1       8.908  17.412   1.891  1.00  0.00    -0.550 OA
ATOM      8  O   UNL     1      11.117  17.153   1.338  1.00  0.00    -0.550 OA
ENDBRANCH   5   6
ENDBRANCH   1   5
TORSDOF 3
ENDMDL
MODEL 2
REMARK VINA RESULT:    -2.983      0.165      1.149
REMARK INTER + INTRA:          -3.600
REMARK INTER:                  -3.504
REMARK INTRA:                  -0.095
REMARK UNBOUND:                -0.093
REMARK SMILES O=C([O-])CCC(=O)[O-]
REMARK SMILES IDX 4 1 2 2 1 3 3 4 5 5 6 6 7 7 8 8
REMARK H PARENT
REMARK Flexibility Score: inf
ROOT
ATOM      1  C   UNL     1      10.953  14.443   1.354  1.00  0.00     0.059 C 
ENDROOT
BRANCH   1   2
ATOM      2  C   UNL     1      11.116  13.913  -0.035  1.00  0.00     0.042 C 
ATOM      3  O   UNL     1      10.173  14.007  -0.865  1.00  0.00    -0.550 OA
ATOM      4  O   UNL     1      12.328  13.357  -0.429  1.00  0.00    -0.550 OA
ENDBRANCH   1   2
BRANCH   1   5
ATOM      5  C   UNL     1       9.622  15.184   1.492  1.00  0.00     0.059 C 
BRANCH   5   6
ATOM      6  C   UNL     1       9.851  16.658   1.590  1.00  0.00     0.042 C 
ATOM      7  O   UNL     1       8.890  17.434   1.837  1.00  0.00    -0.550 OA
ATOM      8  O   UNL     1      11.117  17.182   1.360  1.00  0.00    -0.550 OA
ENDBRANCH   5   6
ENDBRANCH   1   5
TORSDOF 3
ENDMDL
MODEL 3
REMARK VINA RESULT:    -2.979      0.072      3.981
REMARK INTER + INTRA:          -3.594
REMARK INTER:                  -3.500
REMARK INTRA:                  -0.095
REMARK UNBOUND:                -0.093
REMARK SMILES O=C([O-])CCC(=O)[O-]
REMARK SMILES IDX 4 1 2 2 1 3 3 4 5 5 6 6 7 7 8 8
REMARK H PARENT
REMARK Flexibility Score: inf
ROOT
ATOM      1  C   UNL     1       9.630  15.158   1.498  1.00  0.00     0.059 C 
ENDROOT
BRANCH   1   2
ATOM      2  C   UNL     1       9.835  16.638   1.547  1.00  0.00     0.042 C 
ATOM      3  O   UNL     1       8.899  17.397   1.914  1.00  0.00    -0.550 OA
ATOM      4  O   UNL     1      11.077  17.178   1.235  1.00  0.00    -0.550 OA
ENDBRANCH   1   2
BRANCH   1   5
ATOM      5  C   UNL     1      10.975  14.431   1.459  1.00  0.00     0.059 C 
BRANCH   5   6
ATOM      6  C   UNL     1      11.185  13.790   0.124  1.00  0.00     0.042 C 
ATOM      7  O   UNL     1      12.275  13.215  -0.139  1.00  0.00    -0.550 OA
ATOM      8  O   UNL     1      10.196  13.868  -0.849  1.00  0.00    -0.550 OA
ENDBRANCH   5   6
ENDBRANCH   1   5
TORSDOF 3
ENDMDL
MODEL 4
REMARK VINA RESULT:    -2.969      0.332      3.912
REMARK INTER + INTRA:          -3.582
REMARK INTER:                  -3.491
REMARK INTRA:                  -0.091
REMARK UNBOUND:                -0.093
REMARK SMILES O=C([O-])CCC(=O)[O-]
REMARK SMILES IDX 4 1 2 2 1 3 3 4 5 5 6 6 7 7 8 8
REMARK H PARENT
REMARK Flexibility Score: inf
ROOT
ATOM      1  C   UNL     1       9.774  15.186   1.064  1.00  0.00     0.059 C 
ENDROOT
BRANCH   1   2
ATOM      2  C   UNL     1      10.008  16.608   1.462  1.00  0.00     0.042 C 
ATOM      3  O   UNL     1      11.140  17.135   1.295  1.00  0.00    -0.550 OA
ATOM      4  O   UNL     1       8.963  17.369   1.972  1.00  0.00    -0.550 OA
ENDBRANCH   1   2
BRANCH   1   5
ATOM      5  C   UNL     1      11.023  14.344   1.326  1.00  0.00     0.059 C 
BRANCH   5   6
ATOM      6  C   UNL     1      11.494  13.698   0.062  1.00  0.00     0.042 C 
ATOM      7  O   UNL     1      12.512  12.957   0.069  1.00  0.00    -0.550 OA
ATOM      8  O   UNL     1      10.837  13.955  -1.136  1.00  0.00    -0.550 OA
ENDBRANCH   5   6
ENDBRANCH   1   5
TORSDOF 3
ENDMDL
MODEL 5
REMARK VINA RESULT:    -2.237      1.393      3.768
REMARK INTER + INTRA:          -2.722
REMARK INTER:                  -2.605
REMARK INTRA:                  -0.117
REMARK UNBOUND:                -0.093
REMARK SMILES O=C([O-])CCC(=O)[O-]
REMARK SMILES IDX 4 1 2 2 1 3 3 4 5 5 6 6 7 7 8 8
REMARK H PARENT
REMARK Flexibility Score: inf
ROOT
ATOM      1  C   UNL     1      11.146  15.369   1.905  1.00  0.00     0.059 C 
ENDROOT
BRANCH   1   2
ATOM      2  C   UNL     1       9.944  15.777   1.116  1.00  0.00     0.042 C 
ATOM      3  O   UNL     1       9.481  16.944   1.222  1.00  0.00    -0.550 OA
ATOM      4  O   UNL     1       9.361  14.885   0.224  1.00  0.00    -0.550 OA
ENDBRANCH   1   2
BRANCH   1   5
ATOM      5  C   UNL     1      11.155  13.855   2.124  1.00  0.00     0.059 C 
BRANCH   5   6
ATOM      6  C   UNL     1      12.271  13.222   1.357  1.00  0.00     0.042 C 
ATOM      7  O   UNL     1      12.103  12.880   0.156  1.00  0.00    -0.550 OA
ATOM      8  O   UNL     1      13.485  12.963   1.983  1.00  0.00    -0.550 OA
ENDBRANCH   5   6
ENDBRANCH   1   5
TORSDOF 3
ENDMDL
MODEL 6
REMARK VINA RESULT:    -1.887      2.155      3.503
REMARK INTER + INTRA:          -2.310
REMARK INTER:                  -2.401
REMARK INTRA:                   0.091
REMARK UNBOUND:                -0.093
REMARK SMILES O=C([O-])CCC(=O)[O-]
REMARK SMILES IDX 4 1 2 2 1 3 3 4 5 5 6 6 7 7 8 8
REMARK H PARENT
REMARK Flexibility Score: inf
ROOT
ATOM      1  C   UNL     1      11.219  14.091  -0.256  1.00  0.00     0.059 C 
ENDROOT
BRANCH   1   2
ATOM      2  C   UNL     1       9.827  14.475   0.133  1.00  0.00     0.042 C 
ATOM      3  O   UNL     1       8.904  14.465  -0.723  1.00  0.00    -0.550 OA
ATOM      4  O   UNL     1       9.538  14.796   1.454  1.00  0.00    -0.550 OA
ENDBRANCH   1   2
BRANCH   1   5
ATOM      5  C   UNL     1      11.772  13.034   0.701  1.00  0.00     0.059 C 
BRANCH   5   6
ATOM      6  C   UNL     1      12.721  13.655   1.676  1.00  0.00     0.042 C 
ATOM      7  O   UNL     1      12.530  14.830   2.087  1.00  0.00    -0.550 OA
ATOM      8  O   UNL     1      13.845  12.953   2.095  1.00  0.00    -0.550 OA
ENDBRANCH   5   6
ENDBRANCH   1   5
TORSDOF 3
ENDMDL
MODEL 7
REMARK VINA RESULT:    -1.326      1.976      2.482
REMARK INTER + INTRA:          -1.651
REMARK INTER:                  -2.174
REMARK INTRA:                   0.523
REMARK UNBOUND:                -0.093
REMARK SMILES O=C([O-])CCC(=O)[O-]
REMARK SMILES IDX 4 1 2 2 1 3 3 4 5 5 6 6 7 7 8 8
REMARK H PARENT
REMARK Flexibility Score: inf
ROOT
ATOM      1  C   UNL     1      12.065  13.523  -0.128  1.00  0.00     0.059 C 
ENDROOT
BRANCH   1   2
ATOM      2  C   UNL     1      12.217  13.109   1.301  1.00  0.00     0.042 C 
ATOM      3  O   UNL     1      13.362  12.885   1.778  1.00  0.00    -0.550 OA
ATOM      4  O   UNL     1      11.099  13.016   2.121  1.00  0.00    -0.550 OA
ENDBRANCH   1   2
BRANCH   1   5
ATOM      5  C   UNL     1      10.586  13.570  -0.517  1.00  0.00     0.059 C 
BRANCH   5   6
ATOM      6  C   UNL     1       9.882  14.656   0.231  1.00  0.00     0.042 C 
ATOM      7  O   UNL     1       8.748  14.445   0.737  1.00  0.00    -0.550 OA
ATOM      8  O   UNL     1      10.456  15.918   0.329  1.00  0.00    -0.550 OA
ENDBRANCH   5   6
ENDBRANCH   1   5
TORSDOF 3
ENDMDL
MODEL 8
REMARK VINA RESULT:    -1.260      1.782      2.046
REMARK INTER + INTRA:          -1.573
REMARK INTER:                  -1.645
REMARK INTRA:                   0.071
REMARK UNBOUND:                -0.093
REMARK SMILES O=C([O-])CCC(=O)[O-]
REMARK SMILES IDX 4 1 2 2 1 3 3 4 5 5 6 6 7 7 8 8
REMARK H PARENT
REMARK Flexibility Score: inf
ROOT
ATOM      1  C   UNL     1      11.662  15.266   1.526  1.00  0.00     0.059 C 
ENDROOT
BRANCH   1   2
ATOM      2  C   UNL     1      11.800  13.954   0.822  1.00  0.00     0.042 C 
ATOM      3  O   UNL     1      11.692  12.875   1.463  1.00  0.00    -0.550 OA
ATOM      4  O   UNL     1      12.001  13.921  -0.553  1.00  0.00    -0.550 OA
ENDBRANCH   1   2
BRANCH   1   5
ATOM      5  C   UNL     1      10.427  16.015   1.026  1.00  0.00     0.059 C 
BRANCH   5   6
ATOM      6  C   UNL     1       9.227  15.124   1.051  1.00  0.00     0.042 C 
ATOM      7  O   UNL     1       8.594  14.942   2.125  1.00  0.00    -0.550 OA
ATOM      8  O   UNL     1       8.834  14.454  -0.101  1.00  0.00    -0.550 OA
ENDBRANCH   5   6
ENDBRANCH   1   5
TORSDOF 3
ENDMDL
