MODEL 1
REMARK VINA RESULT:    25.068      0.000      0.000
REMARK INTER + INTRA:          26.978
REMARK INTER:                  27.266
REMARK INTRA:                  -0.287
REMARK UNBOUND:                -0.287
REMARK SMILES C[C@H]1[C@@H](C)CC[C@@]2(C(=O)[O-])CC[C@@]3(C)C(=CC[C@@H]4[C@@]5(C)CC[C@H](O)C(C)(C)[C@H]5CC[C@@]43C)[C@@H]12
REMARK SMILES IDX 7 1 6 2 11 3 33 4 5 5 12 6 15 7 2 8 3 9 13 10 16 11 1 12
REMARK SMILES IDX 4 13 14 14 31 15 17 16 18 17 30 18 32 19 19 20 29 21 28 22
REMARK SMILES IDX 21 23 20 24 25 25 22 26 23 27 26 28 27 29 8 30 9 31 10 32
REMARK SMILES IDX 24 33
REMARK H PARENT 24 34
REMARK Flexibility Score: inf
ROOT
ATOM      1  C   UNL     1      44.187  28.743   2.800  1.00  0.00     0.017 C 
ATOM      2  C   UNL     1      44.289  28.757   4.356  1.00  0.00     0.014 C 
ATOM      3  C   UNL     1      44.911  30.004   2.280  1.00  0.00     0.014 C 
ATOM      4  C   UNL     1      44.838  27.433   2.182  1.00  0.00     0.030 C 
ATOM      5  C   UNL     1      43.953  27.406   4.977  1.00  0.00     0.004 C 
ATOM      6  C   UNL     1      44.843  30.090   0.764  1.00  0.00     0.013 C 
ATOM      7  C   UNL     1      45.519  27.602   0.808  1.00  0.00    -0.063 C 
ATOM      8  C   UNL     1      45.731  26.650   3.206  1.00  0.00    -0.003 C 
ATOM      9  C   UNL     1      44.873  26.271   4.457  1.00  0.00    -0.011 C 
ATOM     10  C   UNL     1      45.622  28.938   0.036  1.00  0.00    -0.006 C 
ATOM     11  C   UNL     1      45.952  26.485   0.194  1.00  0.00    -0.027 C 
ATOM     12  C   UNL     1      47.096  27.337   3.500  1.00  0.00     0.008 C 
ATOM     13  C   UNL     1      45.690  25.613   5.594  1.00  0.00     0.008 C 
ATOM     14  C   UNL     1      47.125  29.360   0.064  1.00  0.00     0.017 C 
ATOM     15  C   UNL     1      45.048  28.695  -1.471  1.00  0.00    -0.020 C 
ATOM     16  C   UNL     1      46.520  26.512  -1.189  1.00  0.00     0.032 C 
ATOM     17  C   UNL     1      45.601  27.330  -2.135  1.00  0.00     0.006 C 
ATOM     18  C   UNL     1      45.301  29.937  -2.373  1.00  0.00     0.008 C 
ATOM     19  C   UNL     1      43.477  28.550  -1.387  1.00  0.00     0.012 C 
ATOM     20  C   UNL     1      46.009  27.336  -3.702  1.00  0.00    -0.025 C 
ATOM     21  C   UNL     1      46.555  29.870  -3.235  1.00  0.00     0.005 C 
ATOM     22  C   UNL     1      46.540  28.732  -4.274  1.00  0.00     0.003 C 
ATOM     23  C   UNL     1      44.756  26.873  -4.504  1.00  0.00     0.010 C 
ATOM     24  C   UNL     1      47.125  26.257  -3.957  1.00  0.00     0.012 C 
ATOM     25  C   UNL     1      45.986  29.176  -5.715  1.00  0.00    -0.006 C 
ATOM     26  C   UNL     1      44.927  26.815  -6.021  1.00  0.00     0.033 C 
ATOM     27  C   UNL     1      45.785  27.944  -6.649  1.00  0.00     0.120 C 
ATOM     28  C   UNL     1      47.018  30.122  -6.406  1.00  0.00     0.014 C 
ATOM     29  C   UNL     1      44.651  29.969  -5.665  1.00  0.00     0.014 C 
ENDROOT
BRANCH   1  30
ATOM     30  C   UNL     1      42.693  28.865   2.467  1.00  0.00     0.048 C 
ATOM     31  O   UNL     1      42.027  27.874   2.065  1.00  0.00    -0.550 OA
ATOM     32  O   UNL     1      42.028  30.069   2.673  1.00  0.00    -0.550 OA
ENDBRANCH   1  30
BRANCH  27  33
ATOM     33  O   UNL     1      47.030  27.408  -7.062  1.00  0.00    -0.393 OA
ATOM     34  H   UNL     1      46.898  26.884  -7.897  1.00  0.00     0.210 HD
ENDBRANCH  27  33
TORSDOF 2
ENDMDL
MODEL 2
REMARK VINA RESULT:    25.222      1.789      2.836
REMARK INTER + INTRA:          27.147
REMARK INTER:                  26.422
REMARK INTRA:                   0.725
REMARK UNBOUND:                -0.287
REMARK SMILES C[C@H]1[C@@H](C)CC[C@@]2(C(=O)[O-])CC[C@@]3(C)C(=CC[C@@H]4[C@@]5(C)CC[C@H](O)C(C)(C)[C@H]5CC[C@@]43C)[C@@H]12
REMARK SMILES IDX 7 1 6 2 11 3 33 4 5 5 12 6 15 7 2 8 3 9 13 10 16 11 1 12
REMARK SMILES IDX 4 13 14 14 31 15 17 16 18 17 30 18 32 19 19 20 29 21 28 22
REMARK SMILES IDX 21 23 20 24 25 25 22 26 23 27 26 28 27 29 8 30 9 31 10 32
REMARK SMILES IDX 24 33
REMARK H PARENT 24 34
REMARK Flexibility Score: inf
ROOT
ATOM      1  C   UNL     1      44.537  26.995   3.304  1.00  0.00     0.017 C 
ATOM      2  C   UNL     1      44.367  27.133   4.848  1.00  0.00     0.014 C 
ATOM      3  C   UNL     1      43.229  27.492   2.651  1.00  0.00     0.014 C 
ATOM      4  C   UNL     1      45.777  27.832   2.774  1.00  0.00     0.030 C 
ATOM      5  C   UNL     1      45.692  27.035   5.594  1.00  0.00     0.004 C 
ATOM      6  C   UNL     1      43.292  27.371   1.136  1.00  0.00     0.013 C 
ATOM      7  C   UNL     1      45.627  28.440   1.364  1.00  0.00    -0.063 C 
ATOM      8  C   UNL     1      46.313  28.865   3.824  1.00  0.00    -0.003 C 
ATOM      9  C   UNL     1      46.710  28.112   5.136  1.00  0.00    -0.011 C 
ATOM     10  C   UNL     1      44.367  28.306   0.478  1.00  0.00    -0.006 C 
ATOM     11  C   UNL     1      46.712  29.032   0.830  1.00  0.00    -0.027 C 
ATOM     12  C   UNL     1      45.395  30.109   4.004  1.00  0.00     0.008 C 
ATOM     13  C   UNL     1      47.124  29.054   6.291  1.00  0.00     0.008 C 
ATOM     14  C   UNL     1      43.711  29.722   0.410  1.00  0.00     0.017 C 
ATOM     15  C   UNL     1      44.833  27.740  -0.979  1.00  0.00    -0.020 C 
ATOM     16  C   UNL     1      46.720  29.553  -0.571  1.00  0.00     0.032 C 
ATOM     17  C   UNL     1      46.147  28.489  -1.546  1.00  0.00     0.006 C 
ATOM     18  C   UNL     1      43.653  27.766  -1.992  1.00  0.00     0.008 C 
ATOM     19  C   UNL     1      45.217  26.216  -0.820  1.00  0.00     0.012 C 
ATOM     20  C   UNL     1      46.218  28.850  -3.122  1.00  0.00    -0.025 C 
ATOM     21  C   UNL     1      43.597  28.992  -2.895  1.00  0.00     0.005 C 
ATOM     22  C   UNL     1      44.813  29.134  -3.832  1.00  0.00     0.003 C 
ATOM     23  C   UNL     1      46.943  27.667  -3.831  1.00  0.00     0.010 C 
ATOM     24  C   UNL     1      47.124  30.118  -3.330  1.00  0.00     0.012 C 
ATOM     25  C   UNL     1      44.593  28.478  -5.282  1.00  0.00    -0.006 C 
ATOM     26  C   UNL     1      47.110  27.806  -5.345  1.00  0.00     0.033 C 
ATOM     27  C   UNL     1      45.921  28.454  -6.099  1.00  0.00     0.120 C 
ATOM     28  C   UNL     1      43.562  29.325  -6.092  1.00  0.00     0.014 C 
ATOM     29  C   UNL     1      44.021  27.035  -5.247  1.00  0.00     0.014 C 
ENDROOT
BRANCH   1  30
ATOM     30  C   UNL     1      44.683  25.492   3.022  1.00  0.00     0.048 C 
ATOM     31  O   UNL     1      44.002  24.922   2.128  1.00  0.00    -0.550 OA
ATOM     32  O   UNL     1      45.633  24.743   3.708  1.00  0.00    -0.550 OA
ENDBRANCH   1  30
BRANCH  27  33
ATOM     33  O   UNL     1      46.288  29.758  -6.515  1.00  0.00    -0.393 OA
ATOM     34  H   UNL     1      45.745  30.012  -7.309  1.00  0.00     0.210 HD
ENDBRANCH  27  33
TORSDOF 2
ENDMDL
MODEL 3
REMARK VINA RESULT:    26.126      3.147      9.549
REMARK INTER + INTRA:          28.130
REMARK INTER:                  27.852
REMARK INTRA:                   0.278
REMARK UNBOUND:                -0.287
REMARK SMILES C[C@H]1[C@@H](C)CC[C@@]2(C(=O)[O-])CC[C@@]3(C)C(=CC[C@@H]4[C@@]5(C)CC[C@H](O)C(C)(C)[C@H]5CC[C@@]43C)[C@@H]12
REMARK SMILES IDX 7 1 6 2 11 3 33 4 5 5 12 6 15 7 2 8 3 9 13 10 16 11 1 12
REMARK SMILES IDX 4 13 14 14 31 15 17 16 18 17 30 18 32 19 19 20 29 21 28 22
REMARK SMILES IDX 21 23 20 24 25 25 22 26 23 27 26 28 27 29 8 30 9 31 10 32
REMARK SMILES IDX 24 33
REMARK H PARENT 24 34
REMARK Flexibility Score: inf
ROOT
ATOM      1  C   UNL     1      44.183  26.933   1.142  1.00  0.00     0.017 C 
ATOM      2  C   UNL     1      44.293  26.747  -0.402  1.00  0.00     0.014 C 
ATOM      3  C   UNL     1      44.884  25.726   1.802  1.00  0.00     0.014 C 
ATOM      4  C   UNL     1      44.851  28.293   1.616  1.00  0.00     0.030 C 
ATOM      5  C   UNL     1      43.982  28.026  -1.170  1.00  0.00     0.004 C 
ATOM      6  C   UNL     1      44.806  25.809   3.319  1.00  0.00     0.013 C 
ATOM      7  C   UNL     1      45.521  28.266   3.006  1.00  0.00    -0.063 C 
ATOM      8  C   UNL     1      45.761  28.945   0.520  1.00  0.00    -0.003 C 
ATOM      9  C   UNL     1      44.917  29.198  -0.772  1.00  0.00    -0.011 C 
ATOM     10  C   UNL     1      45.599  27.022   3.921  1.00  0.00    -0.006 C 
ATOM     11  C   UNL     1      45.968  29.437   3.496  1.00  0.00    -0.027 C 
ATOM     12  C   UNL     1      47.117  28.209   0.313  1.00  0.00     0.008 C 
ATOM     13  C   UNL     1      45.750  29.713  -1.969  1.00  0.00     0.008 C 
ATOM     14  C   UNL     1      47.095  26.577   3.950  1.00  0.00     0.017 C 
ATOM     15  C   UNL     1      45.020  27.438   5.388  1.00  0.00    -0.020 C 
ATOM     16  C   UNL     1      46.529  29.554   4.878  1.00  0.00     0.032 C 
ATOM     17  C   UNL     1      45.592  28.859   5.902  1.00  0.00     0.006 C 
ATOM     18  C   UNL     1      45.248  26.299   6.422  1.00  0.00     0.008 C 
ATOM     19  C   UNL     1      43.453  27.597   5.277  1.00  0.00     0.012 C 
ATOM     20  C   UNL     1      45.991  29.020   7.462  1.00  0.00    -0.025 C 
ATOM     21  C   UNL     1      46.499  26.442   7.281  1.00  0.00     0.005 C 
ATOM     22  C   UNL     1      46.496  27.687   8.188  1.00  0.00     0.003 C 
ATOM     23  C   UNL     1      44.740  29.587   8.199  1.00  0.00     0.010 C 
ATOM     24  C   UNL     1      47.122  30.103   7.605  1.00  0.00     0.012 C 
ATOM     25  C   UNL     1      45.927  27.413   9.666  1.00  0.00    -0.006 C 
ATOM     26  C   UNL     1      44.904  29.809   9.703  1.00  0.00     0.033 C 
ATOM     27  C   UNL     1      45.741  28.744  10.457  1.00  0.00     0.120 C 
ATOM     28  C   UNL     1      46.940  26.533  10.464  1.00  0.00     0.014 C 
ATOM     29  C   UNL     1      44.580  26.640   9.694  1.00  0.00     0.014 C 
ENDROOT
BRANCH   1  30
ATOM     30  C   UNL     1      42.685  26.872   1.476  1.00  0.00     0.048 C 
ATOM     31  O   UNL     1      41.881  26.214   0.764  1.00  0.00    -0.550 OA
ATOM     32  O   UNL     1      42.200  27.490   2.623  1.00  0.00    -0.550 OA
ENDBRANCH   1  30
BRANCH  27  33
ATOM     33  O   UNL     1      46.991  29.303  10.818  1.00  0.00    -0.393 OA
ATOM     34  H   UNL     1      46.853  30.235  11.134  1.00  0.00     0.210 HD
ENDBRANCH  27  33
TORSDOF 2
ENDMDL
