MODEL 1
REMARK VINA RESULT:    -2.818      0.000      0.000
REMARK INTER + INTRA:          -2.818
REMARK INTER:                  -2.818
REMARK INTRA:                   0.000
REMARK UNBOUND:                 0.000
REMARK SMILES CC(=O)[O-]
REMARK SMILES IDX 1 1 2 2 3 3 4 4
REMARK H PARENT
REMARK Flexibility Score: inf
ROOT
ATOM      1  C   UNL     1       4.990   1.234   8.787  1.00  0.00     0.063 C 
ATOM      2  C   UNL     1       4.696   1.402   7.336  1.00  0.00     0.038 C 
ATOM      3  O   UNL     1       5.332   0.732   6.481  1.00  0.00    -0.550 OA
ATOM      4  O   UNL     1       3.681   2.257   6.925  1.00  0.00    -0.550 OA
ENDROOT
TORSDOF 0
ENDMDL
MODEL 2
REMARK VINA RESULT:    -2.805      0.111      1.622
REMARK INTER + INTRA:          -2.805
REMARK INTER:                  -2.805
REMARK INTRA:                   0.000
REMARK UNBOUND:                 0.000
REMARK SMILES CC(=O)[O-]
REMARK SMILES IDX 1 1 2 2 3 3 4 4
REMARK H PARENT
REMARK Flexibility Score: inf
ROOT
ATOM      1  C   UNL     1       4.846   1.201   8.797  1.00  0.00     0.063 C 
ATOM      2  C   UNL     1       4.586   1.386   7.342  1.00  0.00     0.038 C 
ATOM      3  O   UNL     1       3.685   2.176   6.956  1.00  0.00    -0.550 OA
ATOM      4  O   UNL     1       5.373   0.728   6.404  1.00  0.00    -0.550 OA
ENDROOT
TORSDOF 0
ENDMDL
MODEL 3
REMARK VINA RESULT:    -2.493     16.504     16.853
REMARK INTER + INTRA:          -2.493
REMARK INTER:                  -2.493
REMARK INTRA:                   0.000
REMARK UNBOUND:                 0.000
REMARK SMILES CC(=O)[O-]
REMARK SMILES IDX 1 1 2 2 3 3 4 4
REMARK H PARENT
REMARK Flexibility Score: inf
ROOT
ATOM      1  C   UNL     1      12.007   3.901  -5.979  1.00  0.00     0.063 C 
ATOM      2  C   UNL     1      12.351   4.133  -7.411  1.00  0.00     0.038 C 
ATOM      3  O   UNL     1      12.843   3.202  -8.101  1.00  0.00    -0.550 OA
ATOM      4  O   UNL     1      12.079   5.360  -8.002  1.00  0.00    -0.550 OA
ENDROOT
TORSDOF 0
ENDMDL
MODEL 4
REMARK VINA RESULT:    -2.302     13.145     13.629
REMARK INTER + INTRA:          -2.302
REMARK INTER:                  -2.302
REMARK INTRA:                   0.000
REMARK UNBOUND:                 0.000
REMARK SMILES CC(=O)[O-]
REMARK SMILES IDX 1 1 2 2 3 3 4 4
REMARK H PARENT
REMARK Flexibility Score: inf
ROOT
ATOM      1  C   UNL     1      12.419   5.545  -2.277  1.00  0.00     0.063 C 
ATOM      2  C   UNL     1      12.815   4.341  -3.061  1.00  0.00     0.038 C 
ATOM      3  O   UNL     1      13.125   3.275  -2.468  1.00  0.00    -0.550 OA
ATOM      4  O   UNL     1      12.791   4.376  -4.450  1.00  0.00    -0.550 OA
ENDROOT
TORSDOF 0
ENDMDL
MODEL 5
REMARK VINA RESULT:    -2.250     13.117     13.626
REMARK INTER + INTRA:          -2.250
REMARK INTER:                  -2.250
REMARK INTRA:                   0.000
REMARK UNBOUND:                 0.000
REMARK SMILES CC(=O)[O-]
REMARK SMILES IDX 1 1 2 2 3 3 4 4
REMARK H PARENT
REMARK Flexibility Score: inf
ROOT
ATOM      1  C   UNL     1      12.380   5.597  -2.320  1.00  0.00     0.063 C 
ATOM      2  C   UNL     1      12.792   4.370  -3.058  1.00  0.00     0.038 C 
ATOM      3  O   UNL     1      12.889   4.391  -4.313  1.00  0.00    -0.550 OA
ATOM      4  O   UNL     1      13.124   3.216  -2.360  1.00  0.00    -0.550 OA
ENDROOT
TORSDOF 0
ENDMDL
MODEL 6
REMARK VINA RESULT:    -2.167      6.119      6.637
REMARK INTER + INTRA:          -2.167
REMARK INTER:                  -2.167
REMARK INTRA:                   0.000
REMARK UNBOUND:                 0.000
REMARK SMILES CC(=O)[O-]
REMARK SMILES IDX 1 1 2 2 3 3 4 4
REMARK H PARENT
REMARK Flexibility Score: inf
ROOT
ATOM      1  C   UNL     1      -2.091   4.547   8.681  1.00  0.00     0.063 C 
ATOM      2  C   UNL     1      -1.114   3.449   8.927  1.00  0.00     0.038 C 
ATOM      3  O   UNL     1       0.122   3.681   8.885  1.00  0.00    -0.550 OA
ATOM      4  O   UNL     1      -1.566   2.176   9.256  1.00  0.00    -0.550 OA
ENDROOT
TORSDOF 0
ENDMDL
MODEL 7
REMARK VINA RESULT:    -2.143     13.172     13.506
REMARK INTER + INTRA:          -2.143
REMARK INTER:                  -2.143
REMARK INTRA:                   0.000
REMARK UNBOUND:                 0.000
REMARK SMILES CC(=O)[O-]
REMARK SMILES IDX 1 1 2 2 3 3 4 4
REMARK H PARENT
REMARK Flexibility Score: inf
ROOT
ATOM      1  C   UNL     1      12.657   4.105  -4.394  1.00  0.00     0.063 C 
ATOM      2  C   UNL     1      12.678   4.260  -2.912  1.00  0.00     0.038 C 
ATOM      3  O   UNL     1      13.125   3.333  -2.187  1.00  0.00    -0.550 OA
ATOM      4  O   UNL     1      12.256   5.448  -2.330  1.00  0.00    -0.550 OA
ENDROOT
TORSDOF 0
ENDMDL
MODEL 8
REMARK VINA RESULT:    -2.142      7.270      7.495
REMARK INTER + INTRA:          -2.142
REMARK INTER:                  -2.142
REMARK INTRA:                   0.000
REMARK UNBOUND:                 0.000
REMARK SMILES CC(=O)[O-]
REMARK SMILES IDX 1 1 2 2 3 3 4 4
REMARK H PARENT
REMARK Flexibility Score: inf
ROOT
ATOM      1  C   UNL     1      -0.770   5.024   9.884  1.00  0.00     0.063 C 
ATOM      2  C   UNL     1      -1.783   4.793   8.815  1.00  0.00     0.038 C 
ATOM      3  O   UNL     1      -2.323   3.663   8.690  1.00  0.00    -0.550 OA
ATOM      4  O   UNL     1      -2.174   5.839   7.989  1.00  0.00    -0.550 OA
ENDROOT
TORSDOF 0
ENDMDL
MODEL 9
REMARK VINA RESULT:    -2.087     15.423     15.852
REMARK INTER + INTRA:          -2.087
REMARK INTER:                  -2.087
REMARK INTRA:                   0.000
REMARK UNBOUND:                 0.000
REMARK SMILES CC(=O)[O-]
REMARK SMILES IDX 1 1 2 2 3 3 4 4
REMARK H PARENT
REMARK Flexibility Score: inf
ROOT
ATOM      1  C   UNL     1      -6.960  14.039   6.620  1.00  0.00     0.063 C 
ATOM      2  C   UNL     1      -6.001  12.912   6.442  1.00  0.00     0.038 C 
ATOM      3  O   UNL     1      -4.987  13.055   5.712  1.00  0.00    -0.550 OA
ATOM      4  O   UNL     1      -6.195  11.718   7.126  1.00  0.00    -0.550 OA
ENDROOT
TORSDOF 0
ENDMDL
