MODEL 1
REMARK VINA RESULT:    -3.958      0.000      0.000
REMARK INTER + INTRA:          -4.321
REMARK INTER:                  -4.305
REMARK INTRA:                  -0.017
REMARK UNBOUND:                -0.017
REMARK SMILES COc1ccccc1O
REMARK SMILES IDX 3 1 4 2 5 3 6 4 7 5 8 6 2 7 1 8 9 9
REMARK H PARENT 9 10
REMARK Flexibility Score: inf
ROOT
ATOM      1  C   UNL     1    -108.406 -13.740  54.084  1.00  0.00     0.160 A 
ATOM      2  C   UNL     1    -108.907 -14.820  53.329  1.00  0.00     0.050 A 
ATOM      3  C   UNL     1    -108.198 -15.298  52.223  1.00  0.00     0.004 A 
ATOM      4  C   UNL     1    -106.986 -14.707  51.860  1.00  0.00     0.004 A 
ATOM      5  C   UNL     1    -106.482 -13.636  52.601  1.00  0.00     0.050 A 
ATOM      6  C   UNL     1    -107.184 -13.150  53.709  1.00  0.00     0.157 A 
ENDROOT
BRANCH   1   7
ATOM      7  O   UNL     1    -109.091 -13.232  55.201  1.00  0.00    -0.493 OA
ATOM      8  C   UNL     1    -109.994 -12.133  55.161  1.00  0.00     0.278 C 
ENDBRANCH   1   7
BRANCH   6   9
ATOM      9  O   UNL     1    -106.650 -12.079  54.426  1.00  0.00    -0.504 OA
ATOM     10  H   UNL     1    -105.989 -11.430  54.016  1.00  0.00     0.293 HD
ENDBRANCH   6   9
TORSDOF 2
ENDMDL
MODEL 2
REMARK VINA RESULT:    -3.944      1.876      3.542
REMARK INTER + INTRA:          -4.307
REMARK INTER:                  -4.269
REMARK INTRA:                  -0.038
REMARK UNBOUND:                -0.017
REMARK SMILES COc1ccccc1O
REMARK SMILES IDX 3 1 4 2 5 3 6 4 7 5 8 6 2 7 1 8 9 9
REMARK H PARENT 9 10
REMARK Flexibility Score: inf
ROOT
ATOM      1  C   UNL     1    -108.078 -14.840  52.527  1.00  0.00     0.160 A 
ATOM      2  C   UNL     1    -106.907 -14.247  52.013  1.00  0.00     0.050 A 
ATOM      3  C   UNL     1    -106.198 -13.310  52.772  1.00  0.00     0.004 A 
ATOM      4  C   UNL     1    -106.647 -12.957  54.046  1.00  0.00     0.004 A 
ATOM      5  C   UNL     1    -107.807 -13.539  54.563  1.00  0.00     0.050 A 
ATOM      6  C   UNL     1    -108.523 -14.477  53.812  1.00  0.00     0.157 A 
ENDROOT
BRANCH   1   7
ATOM      7  O   UNL     1    -108.816 -15.783  51.793  1.00  0.00    -0.493 OA
ATOM      8  C   UNL     1    -108.293 -17.016  51.310  1.00  0.00     0.278 C 
ENDBRANCH   1   7
BRANCH   6   9
ATOM      9  O   UNL     1    -109.677 -15.037  54.360  1.00  0.00    -0.504 OA
ATOM     10  H   UNL     1    -110.588 -14.926  53.930  1.00  0.00     0.293 HD
ENDBRANCH   6   9
TORSDOF 2
ENDMDL
MODEL 3
REMARK VINA RESULT:    -3.889      1.826      2.589
REMARK INTER + INTRA:          -4.246
REMARK INTER:                  -4.207
REMARK INTRA:                  -0.039
REMARK UNBOUND:                -0.017
REMARK SMILES COc1ccccc1O
REMARK SMILES IDX 3 1 4 2 5 3 6 4 7 5 8 6 2 7 1 8 9 9
REMARK H PARENT 9 10
REMARK Flexibility Score: inf
ROOT
ATOM      1  C   UNL     1    -108.490 -14.429  53.896  1.00  0.00     0.160 A 
ATOM      2  C   UNL     1    -107.751 -13.461  54.607  1.00  0.00     0.050 A 
ATOM      3  C   UNL     1    -106.608 -12.889  54.040  1.00  0.00     0.004 A 
ATOM      4  C   UNL     1    -106.192 -13.273  52.764  1.00  0.00     0.004 A 
ATOM      5  C   UNL     1    -106.916 -14.231  52.052  1.00  0.00     0.050 A 
ATOM      6  C   UNL     1    -108.061 -14.811  52.610  1.00  0.00     0.157 A 
ENDROOT
BRANCH   1   7
ATOM      7  O   UNL     1    -109.642 -15.027  54.433  1.00  0.00    -0.493 OA
ATOM      8  C   UNL     1    -110.818 -14.317  54.808  1.00  0.00     0.278 C 
ENDBRANCH   1   7
BRANCH   6   9
ATOM      9  O   UNL     1    -108.761 -15.765  51.871  1.00  0.00    -0.504 OA
ATOM     10  H   UNL     1    -108.302 -16.370  51.200  1.00  0.00     0.293 HD
ENDBRANCH   6   9
TORSDOF 2
ENDMDL
MODEL 4
REMARK VINA RESULT:    -3.609     12.930     13.679
REMARK INTER + INTRA:          -3.943
REMARK INTER:                  -3.917
REMARK INTRA:                  -0.026
REMARK UNBOUND:                -0.017
REMARK SMILES COc1ccccc1O
REMARK SMILES IDX 3 1 4 2 5 3 6 4 7 5 8 6 2 7 1 8 9 9
REMARK H PARENT 9 10
REMARK Flexibility Score: inf
ROOT
ATOM      1  C   UNL     1    -102.860  -3.122  47.514  1.00  0.00     0.160 A 
ATOM      2  C   UNL     1    -102.017  -3.180  46.386  1.00  0.00     0.050 A 
ATOM      3  C   UNL     1    -100.661  -2.863  46.500  1.00  0.00     0.004 A 
ATOM      4  C   UNL     1    -100.132  -2.486  47.736  1.00  0.00     0.004 A 
ATOM      5  C   UNL     1    -100.958  -2.426  48.860  1.00  0.00     0.050 A 
ATOM      6  C   UNL     1    -102.318  -2.741  48.756  1.00  0.00     0.157 A 
ENDROOT
BRANCH   1   7
ATOM      7  O   UNL     1    -104.228  -3.433  47.437  1.00  0.00    -0.493 OA
ATOM      8  C   UNL     1    -104.989  -3.428  46.234  1.00  0.00     0.278 C 
ENDBRANCH   1   7
BRANCH   6   9
ATOM      9  O   UNL     1    -103.114  -2.669  49.899  1.00  0.00    -0.504 OA
ATOM     10  H   UNL     1    -104.016  -2.208  49.901  1.00  0.00     0.293 HD
ENDBRANCH   6   9
TORSDOF 2
ENDMDL
MODEL 5
REMARK VINA RESULT:    -3.585      1.605      3.298
REMARK INTER + INTRA:          -3.916
REMARK INTER:                  -3.889
REMARK INTRA:                  -0.027
REMARK UNBOUND:                -0.017
REMARK SMILES COc1ccccc1O
REMARK SMILES IDX 3 1 4 2 5 3 6 4 7 5 8 6 2 7 1 8 9 9
REMARK H PARENT 9 10
REMARK Flexibility Score: inf
ROOT
ATOM      1  C   UNL     1    -107.605 -14.513  52.651  1.00  0.00     0.160 A 
ATOM      2  C   UNL     1    -108.769 -15.306  52.705  1.00  0.00     0.050 A 
ATOM      3  C   UNL     1    -109.704 -15.118  53.728  1.00  0.00     0.004 A 
ATOM      4  C   UNL     1    -109.489 -14.142  54.702  1.00  0.00     0.004 A 
ATOM      5  C   UNL     1    -108.339 -13.351  54.657  1.00  0.00     0.050 A 
ATOM      6  C   UNL     1    -107.397 -13.531  53.638  1.00  0.00     0.157 A 
ENDROOT
BRANCH   1   7
ATOM      7  O   UNL     1    -106.643 -14.674  51.639  1.00  0.00    -0.493 OA
ATOM      8  C   UNL     1    -106.411 -15.888  50.933  1.00  0.00     0.278 C 
ENDBRANCH   1   7
BRANCH   6   9
ATOM      9  O   UNL     1    -106.259 -12.724  53.624  1.00  0.00    -0.504 OA
ATOM     10  H   UNL     1    -105.327 -13.107  53.522  1.00  0.00     0.293 HD
ENDBRANCH   6   9
TORSDOF 2
ENDMDL
MODEL 6
REMARK VINA RESULT:    -3.498      1.810      3.610
REMARK INTER + INTRA:          -3.821
REMARK INTER:                  -3.784
REMARK INTRA:                  -0.037
REMARK UNBOUND:                -0.017
REMARK SMILES COc1ccccc1O
REMARK SMILES IDX 3 1 4 2 5 3 6 4 7 5 8 6 2 7 1 8 9 9
REMARK H PARENT 9 10
REMARK Flexibility Score: inf
ROOT
ATOM      1  C   UNL     1    -109.247 -13.997  53.216  1.00  0.00     0.160 A 
ATOM      2  C   UNL     1    -110.356 -13.442  52.547  1.00  0.00     0.050 A 
ATOM      3  C   UNL     1    -111.132 -12.456  53.164  1.00  0.00     0.004 A 
ATOM      4  C   UNL     1    -110.811 -12.015  54.449  1.00  0.00     0.004 A 
ATOM      5  C   UNL     1    -109.714 -12.559  55.121  1.00  0.00     0.050 A 
ATOM      6  C   UNL     1    -108.931 -13.546  54.512  1.00  0.00     0.157 A 
ENDROOT
BRANCH   1   7
ATOM      7  O   UNL     1    -108.445 -14.989  52.629  1.00  0.00    -0.493 OA
ATOM      8  C   UNL     1    -108.928 -16.244  52.161  1.00  0.00     0.278 C 
ENDBRANCH   1   7
BRANCH   6   9
ATOM      9  O   UNL     1    -107.843 -14.068  55.212  1.00  0.00    -0.504 OA
ATOM     10  H   UNL     1    -107.606 -13.760  56.148  1.00  0.00     0.293 HD
ENDBRANCH   6   9
TORSDOF 2
ENDMDL
MODEL 7
REMARK VINA RESULT:    -3.485      7.639      9.422
REMARK INTER + INTRA:          -3.807
REMARK INTER:                  -3.782
REMARK INTRA:                  -0.025
REMARK UNBOUND:                -0.017
REMARK SMILES COc1ccccc1O
REMARK SMILES IDX 3 1 4 2 5 3 6 4 7 5 8 6 2 7 1 8 9 9
REMARK H PARENT 9 10
REMARK Flexibility Score: inf
ROOT
ATOM      1  C   UNL     1    -105.605  -7.924  60.591  1.00  0.00     0.160 A 
ATOM      2  C   UNL     1    -106.658  -7.245  61.236  1.00  0.00     0.050 A 
ATOM      3  C   UNL     1    -107.987  -7.519  60.899  1.00  0.00     0.004 A 
ATOM      4  C   UNL     1    -108.279  -8.469  59.919  1.00  0.00     0.004 A 
ATOM      5  C   UNL     1    -107.243  -9.148  59.274  1.00  0.00     0.050 A 
ATOM      6  C   UNL     1    -105.909  -8.881  59.603  1.00  0.00     0.157 A 
ENDROOT
BRANCH   1   7
ATOM      7  O   UNL     1    -104.258  -7.675  60.902  1.00  0.00    -0.493 OA
ATOM      8  C   UNL     1    -103.817  -6.739  61.881  1.00  0.00     0.278 C 
ENDBRANCH   1   7
BRANCH   6   9
ATOM      9  O   UNL     1    -104.900  -9.577  58.938  1.00  0.00    -0.504 OA
ATOM     10  H   UNL     1    -104.464 -10.402  59.331  1.00  0.00     0.293 HD
ENDBRANCH   6   9
TORSDOF 2
ENDMDL
MODEL 8
REMARK VINA RESULT:    -3.484     12.367     13.457
REMARK INTER + INTRA:          -3.807
REMARK INTER:                  -3.761
REMARK INTRA:                  -0.045
REMARK UNBOUND:                -0.017
REMARK SMILES COc1ccccc1O
REMARK SMILES IDX 3 1 4 2 5 3 6 4 7 5 8 6 2 7 1 8 9 9
REMARK H PARENT 9 10
REMARK Flexibility Score: inf
ROOT
ATOM      1  C   UNL     1    -102.589  -3.225  48.478  1.00  0.00     0.160 A 
ATOM      2  C   UNL     1    -101.297  -2.854  48.903  1.00  0.00     0.050 A 
ATOM      3  C   UNL     1    -100.288  -2.613  47.966  1.00  0.00     0.004 A 
ATOM      4  C   UNL     1    -100.554  -2.737  46.602  1.00  0.00     0.004 A 
ATOM      5  C   UNL     1    -101.831  -3.104  46.170  1.00  0.00     0.050 A 
ATOM      6  C   UNL     1    -102.848  -3.349  47.100  1.00  0.00     0.157 A 
ENDROOT
BRANCH   1   7
ATOM      7  O   UNL     1    -103.628  -3.476  49.389  1.00  0.00    -0.493 OA
ATOM      8  C   UNL     1    -104.337  -2.468  50.102  1.00  0.00     0.278 C 
ENDBRANCH   1   7
BRANCH   6   9
ATOM      9  O   UNL     1    -104.111  -3.714  46.633  1.00  0.00    -0.504 OA
ATOM     10  H   UNL     1    -104.237  -4.274  45.799  1.00  0.00     0.293 HD
ENDBRANCH   6   9
TORSDOF 2
ENDMDL
MODEL 9
REMARK VINA RESULT:    -3.441     13.607     14.716
REMARK INTER + INTRA:          -3.760
REMARK INTER:                  -3.721
REMARK INTRA:                  -0.039
REMARK UNBOUND:                -0.017
REMARK SMILES COc1ccccc1O
REMARK SMILES IDX 3 1 4 2 5 3 6 4 7 5 8 6 2 7 1 8 9 9
REMARK H PARENT 9 10
REMARK Flexibility Score: inf
ROOT
ATOM      1  C   UNL     1    -101.148  -2.761  46.394  1.00  0.00     0.160 A 
ATOM      2  C   UNL     1    -102.450  -3.295  46.481  1.00  0.00     0.050 A 
ATOM      3  C   UNL     1    -103.048  -3.498  47.729  1.00  0.00     0.004 A 
ATOM      4  C   UNL     1    -102.358  -3.171  48.898  1.00  0.00     0.004 A 
ATOM      5  C   UNL     1    -101.068  -2.642  48.822  1.00  0.00     0.050 A 
ATOM      6  C   UNL     1    -100.460  -2.436  47.578  1.00  0.00     0.157 A 
ENDROOT
BRANCH   1   7
ATOM      7  O   UNL     1    -100.516  -2.545  45.159  1.00  0.00    -0.493 OA
ATOM      8  C   UNL     1    -100.235  -3.566  44.207  1.00  0.00     0.278 C 
ENDBRANCH   1   7
BRANCH   6   9
ATOM      9  O   UNL     1     -99.170  -1.905  47.540  1.00  0.00    -0.504 OA
ATOM     10  H   UNL     1     -98.358  -2.477  47.340  1.00  0.00     0.293 HD
ENDBRANCH   6   9
TORSDOF 2
ENDMDL
