MODEL 1
REMARK VINA RESULT:    -3.708      0.000      0.000
REMARK INTER + INTRA:          -4.349
REMARK INTER:                  -4.250
REMARK INTRA:                  -0.099
REMARK UNBOUND:                -0.099
REMARK SMILES C=Cc1ccc(O)c(OC)c1
REMARK SMILES IDX 8 1 6 2 5 3 4 4 3 5 11 6 9 7 10 8 7 9 2 11 1 12
REMARK H PARENT 7 10
REMARK Flexibility Score: inf
ROOT
ATOM      1  C   UNL     1     117.156 115.704 121.972  1.00  0.00     0.161 A 
ATOM      2  C   UNL     1     115.781 115.499 121.800  1.00  0.00     0.157 A 
ATOM      3  C   UNL     1     115.308 114.803 120.682  1.00  0.00     0.051 A 
ATOM      4  C   UNL     1     116.202 114.304 119.733  1.00  0.00     0.012 A 
ATOM      5  C   UNL     1     117.585 114.483 119.891  1.00  0.00    -0.022 A 
ATOM      6  C   UNL     1     118.056 115.198 121.012  1.00  0.00     0.058 A 
ENDROOT
BRANCH   1   7
ATOM      7  O   UNL     1     117.589 116.415 123.103  1.00  0.00    -0.493 OA
ATOM      8  C   UNL     1     117.855 117.814 123.125  1.00  0.00     0.278 C 
ENDBRANCH   1   7
BRANCH   2   9
ATOM      9  O   UNL     1     114.887 115.995 122.749  1.00  0.00    -0.504 OA
ATOM     10  H   UNL     1     113.927 115.674 122.792  1.00  0.00     0.293 HD
ENDBRANCH   2   9
BRANCH   5  11
ATOM     11  C   UNL     1     118.491 113.938 118.850  1.00  0.00     0.000 C 
ATOM     12  C   UNL     1     118.493 112.666 118.450  1.00  0.00     0.009 C 
ENDBRANCH   5  11
TORSDOF 3
ENDMDL
MODEL 2
REMARK VINA RESULT:    -3.674      3.200      4.705
REMARK INTER + INTRA:          -4.310
REMARK INTER:                  -4.254
REMARK INTRA:                  -0.056
REMARK UNBOUND:                -0.099
REMARK SMILES C=Cc1ccc(O)c(OC)c1
REMARK SMILES IDX 8 1 6 2 5 3 4 4 3 5 11 6 9 7 10 8 7 9 2 11 1 12
REMARK H PARENT 7 10
REMARK Flexibility Score: inf
ROOT
ATOM      1  C   UNL     1     115.931 117.450 121.986  1.00  0.00     0.161 A 
ATOM      2  C   UNL     1     117.318 117.554 121.822  1.00  0.00     0.157 A 
ATOM      3  C   UNL     1     117.846 118.244 120.725  1.00  0.00     0.051 A 
ATOM      4  C   UNL     1     116.995 118.837 119.791  1.00  0.00     0.012 A 
ATOM      5  C   UNL     1     115.603 118.760 119.942  1.00  0.00    -0.022 A 
ATOM      6  C   UNL     1     115.075 118.051 121.041  1.00  0.00     0.058 A 
ENDROOT
BRANCH   1   7
ATOM      7  O   UNL     1     115.442 116.741 123.095  1.00  0.00    -0.493 OA
ATOM      8  C   UNL     1     115.229 115.333 123.125  1.00  0.00     0.278 C 
ENDBRANCH   1   7
BRANCH   2   9
ATOM      9  O   UNL     1     118.168 116.964 122.756  1.00  0.00    -0.504 OA
ATOM     10  H   UNL     1     117.836 116.259 123.404  1.00  0.00     0.293 HD
ENDBRANCH   2   9
BRANCH   5  11
ATOM     11  C   UNL     1     114.743 119.403 118.917  1.00  0.00     0.000 C 
ATOM     12  C   UNL     1     114.589 120.722 118.789  1.00  0.00     0.009 C 
ENDBRANCH   5  11
TORSDOF 3
ENDMDL
MODEL 3
REMARK VINA RESULT:    -3.673      2.519      3.292
REMARK INTER + INTRA:          -4.309
REMARK INTER:                  -4.219
REMARK INTRA:                  -0.090
REMARK UNBOUND:                -0.099
REMARK SMILES C=Cc1ccc(O)c(OC)c1
REMARK SMILES IDX 8 1 6 2 5 3 4 4 3 5 11 6 9 7 10 8 7 9 2 11 1 12
REMARK H PARENT 7 10
REMARK Flexibility Score: inf
ROOT
ATOM      1  C   UNL     1     117.546 117.106 121.925  1.00  0.00     0.161 A 
ATOM      2  C   UNL     1     117.711 115.731 121.712  1.00  0.00     0.157 A 
ATOM      3  C   UNL     1     118.385 115.271 120.576  1.00  0.00     0.051 A 
ATOM      4  C   UNL     1     118.903 116.178 119.649  1.00  0.00     0.012 A 
ATOM      5  C   UNL     1     118.765 117.559 119.848  1.00  0.00    -0.022 A 
ATOM      6  C   UNL     1     118.071 118.019 120.987  1.00  0.00     0.058 A 
ENDROOT
BRANCH   1   7
ATOM      7  O   UNL     1     116.856 117.526 123.073  1.00  0.00    -0.493 OA
ATOM      8  C   UNL     1     115.456 117.784 123.124  1.00  0.00     0.278 C 
ENDBRANCH   1   7
BRANCH   2   9
ATOM      9  O   UNL     1     117.196 114.825 122.638  1.00  0.00    -0.504 OA
ATOM     10  H   UNL     1     117.294 113.824 122.512  1.00  0.00     0.293 HD
ENDBRANCH   2   9
BRANCH   5  11
ATOM     11  C   UNL     1     119.329 118.480 118.829  1.00  0.00     0.000 C 
ATOM     12  C   UNL     1     120.608 118.488 118.453  1.00  0.00     0.009 C 
ENDBRANCH   5  11
TORSDOF 3
ENDMDL
MODEL 4
REMARK VINA RESULT:    -3.592      2.766      3.876
REMARK INTER + INTRA:          -4.216
REMARK INTER:                  -4.135
REMARK INTRA:                  -0.082
REMARK UNBOUND:                -0.099
REMARK SMILES C=Cc1ccc(O)c(OC)c1
REMARK SMILES IDX 8 1 6 2 5 3 4 4 3 5 11 6 9 7 10 8 7 9 2 11 1 12
REMARK H PARENT 7 10
REMARK Flexibility Score: inf
ROOT
ATOM      1  C   UNL     1     114.887 117.890 120.781  1.00  0.00     0.161 A 
ATOM      2  C   UNL     1     115.504 117.321 121.904  1.00  0.00     0.157 A 
ATOM      3  C   UNL     1     115.577 115.930 122.036  1.00  0.00     0.051 A 
ATOM      4  C   UNL     1     115.041 115.100 121.050  1.00  0.00     0.012 A 
ATOM      5  C   UNL     1     114.433 115.646 119.910  1.00  0.00    -0.022 A 
ATOM      6  C   UNL     1     114.347 117.048 119.787  1.00  0.00     0.058 A 
ENDROOT
BRANCH   1   7
ATOM      7  O   UNL     1     114.827 119.290 120.691  1.00  0.00    -0.493 OA
ATOM      8  C   UNL     1     115.175 120.041 119.533  1.00  0.00     0.278 C 
ENDBRANCH   1   7
BRANCH   2   9
ATOM      9  O   UNL     1     116.042 118.149 122.888  1.00  0.00    -0.504 OA
ATOM     10  H   UNL     1     115.783 119.126 122.958  1.00  0.00     0.293 HD
ENDBRANCH   2   9
BRANCH   5  11
ATOM     11  C   UNL     1     113.873 114.719 118.894  1.00  0.00     0.000 C 
ATOM     12  C   UNL     1     112.585 114.670 118.553  1.00  0.00     0.009 C 
ENDBRANCH   5  11
TORSDOF 3
ENDMDL
MODEL 5
REMARK VINA RESULT:    -3.581      2.422      3.169
REMARK INTER + INTRA:          -4.204
REMARK INTER:                  -4.092
REMARK INTRA:                  -0.112
REMARK UNBOUND:                -0.099
REMARK SMILES C=Cc1ccc(O)c(OC)c1
REMARK SMILES IDX 8 1 6 2 5 3 4 4 3 5 11 6 9 7 10 8 7 9 2 11 1 12
REMARK H PARENT 7 10
REMARK Flexibility Score: inf
ROOT
ATOM      1  C   UNL     1     115.873 115.932 122.041  1.00  0.00     0.161 A 
ATOM      2  C   UNL     1     115.549 117.295 122.000  1.00  0.00     0.157 A 
ATOM      3  C   UNL     1     114.805 117.808 120.933  1.00  0.00     0.051 A 
ATOM      4  C   UNL     1     114.375 116.967 119.905  1.00  0.00     0.012 A 
ATOM      5  C   UNL     1     114.673 115.597 119.932  1.00  0.00    -0.022 A 
ATOM      6  C   UNL     1     115.437 115.085 121.001  1.00  0.00     0.058 A 
ENDROOT
BRANCH   1   7
ATOM      7  O   UNL     1     116.630 115.458 123.125  1.00  0.00    -0.493 OA
ATOM      8  C   UNL     1     118.018 115.143 123.065  1.00  0.00     0.278 C 
ENDBRANCH   1   7
BRANCH   2   9
ATOM      9  O   UNL     1     115.976 118.135 123.028  1.00  0.00    -0.504 OA
ATOM     10  H   UNL     1     116.726 118.803 122.890  1.00  0.00     0.293 HD
ENDBRANCH   2   9
BRANCH   5  11
ATOM     11  C   UNL     1     114.197 114.748 118.811  1.00  0.00     0.000 C 
ATOM     12  C   UNL     1     112.973 114.817 118.285  1.00  0.00     0.009 C 
ENDBRANCH   5  11
TORSDOF 3
ENDMDL
MODEL 6
REMARK VINA RESULT:    -3.580      1.120      2.837
REMARK INTER + INTRA:          -4.202
REMARK INTER:                  -4.118
REMARK INTRA:                  -0.085
REMARK UNBOUND:                -0.099
REMARK SMILES C=Cc1ccc(O)c(OC)c1
REMARK SMILES IDX 8 1 6 2 5 3 4 4 3 5 11 6 9 7 10 8 7 9 2 11 1 12
REMARK H PARENT 7 10
REMARK Flexibility Score: inf
ROOT
ATOM      1  C   UNL     1     115.299 114.898 120.644  1.00  0.00     0.161 A 
ATOM      2  C   UNL     1     115.870 115.543 121.750  1.00  0.00     0.157 A 
ATOM      3  C   UNL     1     117.261 115.610 121.885  1.00  0.00     0.051 A 
ATOM      4  C   UNL     1     118.090 115.041 120.916  1.00  0.00     0.012 A 
ATOM      5  C   UNL     1     117.543 114.405 119.792  1.00  0.00    -0.022 A 
ATOM      6  C   UNL     1     116.140 114.325 119.668  1.00  0.00     0.058 A 
ENDROOT
BRANCH   1   7
ATOM      7  O   UNL     1     113.899 114.845 120.552  1.00  0.00    -0.493 OA
ATOM      8  C   UNL     1     113.147 115.272 119.421  1.00  0.00     0.278 C 
ENDBRANCH   1   7
BRANCH   2   9
ATOM      9  O   UNL     1     115.042 116.114 122.716  1.00  0.00    -0.504 OA
ATOM     10  H   UNL     1     114.652 115.563 123.472  1.00  0.00     0.293 HD
ENDBRANCH   2   9
BRANCH   5  11
ATOM     11  C   UNL     1     118.469 113.811 118.796  1.00  0.00     0.000 C 
ATOM     12  C   UNL     1     118.547 112.506 118.530  1.00  0.00     0.009 C 
ENDBRANCH   5  11
TORSDOF 3
ENDMDL
MODEL 7
REMARK VINA RESULT:    -3.565      1.703      2.602
REMARK INTER + INTRA:          -4.185
REMARK INTER:                  -4.100
REMARK INTRA:                  -0.086
REMARK UNBOUND:                -0.099
REMARK SMILES C=Cc1ccc(O)c(OC)c1
REMARK SMILES IDX 8 1 6 2 5 3 4 4 3 5 11 6 9 7 10 8 7 9 2 11 1 12
REMARK H PARENT 7 10
REMARK Flexibility Score: inf
ROOT
ATOM      1  C   UNL     1     117.617 116.521 121.731  1.00  0.00     0.161 A 
ATOM      2  C   UNL     1     118.222 117.675 121.215  1.00  0.00     0.157 A 
ATOM      3  C   UNL     1     118.896 117.627 119.990  1.00  0.00     0.051 A 
ATOM      4  C   UNL     1     118.966 116.431 119.272  1.00  0.00     0.012 A 
ATOM      5  C   UNL     1     118.355 115.268 119.759  1.00  0.00    -0.022 A 
ATOM      6  C   UNL     1     117.689 115.316 121.002  1.00  0.00     0.058 A 
ENDROOT
BRANCH   1   7
ATOM      7  O   UNL     1     116.958 116.609 122.968  1.00  0.00    -0.493 OA
ATOM      8  C   UNL     1     115.555 116.801 123.125  1.00  0.00     0.278 C 
ENDBRANCH   1   7
BRANCH   2   9
ATOM      9  O   UNL     1     118.150 118.868 121.931  1.00  0.00    -0.504 OA
ATOM     10  H   UNL     1     117.331 119.111 122.477  1.00  0.00     0.293 HD
ENDBRANCH   2   9
BRANCH   5  11
ATOM     11  C   UNL     1     118.464 114.022 118.959  1.00  0.00     0.000 C 
ATOM     12  C   UNL     1     118.156 112.808 119.416  1.00  0.00     0.009 C 
ENDBRANCH   5  11
TORSDOF 3
ENDMDL
MODEL 8
REMARK VINA RESULT:    -3.534      2.628      3.894
REMARK INTER + INTRA:          -4.150
REMARK INTER:                  -4.073
REMARK INTRA:                  -0.077
REMARK UNBOUND:                -0.099
REMARK SMILES C=Cc1ccc(O)c(OC)c1
REMARK SMILES IDX 8 1 6 2 5 3 4 4 3 5 11 6 9 7 10 8 7 9 2 11 1 12
REMARK H PARENT 7 10
REMARK Flexibility Score: inf
ROOT
ATOM      1  C   UNL     1     118.152 115.331 120.614  1.00  0.00     0.161 A 
ATOM      2  C   UNL     1     117.497 115.909 121.710  1.00  0.00     0.157 A 
ATOM      3  C   UNL     1     117.474 117.299 121.863  1.00  0.00     0.051 A 
ATOM      4  C   UNL     1     118.099 118.121 120.923  1.00  0.00     0.012 A 
ATOM      5  C   UNL     1     118.746 117.568 119.809  1.00  0.00    -0.022 A 
ATOM      6  C   UNL     1     118.781 116.165 119.667  1.00  0.00     0.058 A 
ENDROOT
BRANCH   1   7
ATOM      7  O   UNL     1     118.160 113.932 120.503  1.00  0.00    -0.493 OA
ATOM      8  C   UNL     1     118.116 113.219 119.270  1.00  0.00     0.278 C 
ENDBRANCH   1   7
BRANCH   2   9
ATOM      9  O   UNL     1     116.872 115.088 122.648  1.00  0.00    -0.504 OA
ATOM     10  H   UNL     1     115.868 115.110 122.787  1.00  0.00     0.293 HD
ENDBRANCH   2   9
BRANCH   5  11
ATOM     11  C   UNL     1     119.399 118.486 118.843  1.00  0.00     0.000 C 
ATOM     12  C   UNL     1     120.710 118.508 118.598  1.00  0.00     0.009 C 
ENDBRANCH   5  11
TORSDOF 3
ENDMDL
MODEL 9
REMARK VINA RESULT:    -3.519      2.226      4.262
REMARK INTER + INTRA:          -4.133
REMARK INTER:                  -4.040
REMARK INTRA:                  -0.093
REMARK UNBOUND:                -0.099
REMARK SMILES C=Cc1ccc(O)c(OC)c1
REMARK SMILES IDX 8 1 6 2 5 3 4 4 3 5 11 6 9 7 10 8 7 9 2 11 1 12
REMARK H PARENT 7 10
REMARK Flexibility Score: inf
ROOT
ATOM      1  C   UNL     1     117.667 115.335 120.863  1.00  0.00     0.161 A 
ATOM      2  C   UNL     1     117.872 115.241 122.246  1.00  0.00     0.157 A 
ATOM      3  C   UNL     1     117.096 116.005 123.125  1.00  0.00     0.051 A 
ATOM      4  C   UNL     1     116.110 116.861 122.631  1.00  0.00     0.012 A 
ATOM      5  C   UNL     1     115.875 116.960 121.252  1.00  0.00    -0.022 A 
ATOM      6  C   UNL     1     116.670 116.200 120.368  1.00  0.00     0.058 A 
ENDROOT
BRANCH   1   7
ATOM      7  O   UNL     1     118.473 114.559 120.015  1.00  0.00    -0.493 OA
ATOM      8  C   UNL     1     118.078 113.320 119.434  1.00  0.00     0.278 C 
ENDBRANCH   1   7
BRANCH   2   9
ATOM      9  O   UNL     1     118.855 114.385 122.739  1.00  0.00    -0.504 OA
ATOM     10  H   UNL     1     118.627 113.618 123.362  1.00  0.00     0.293 HD
ENDBRANCH   2   9
BRANCH   5  11
ATOM     11  C   UNL     1     114.818 117.889 120.780  1.00  0.00     0.000 C 
ATOM     12  C   UNL     1     115.058 119.019 120.113  1.00  0.00     0.009 C 
ENDBRANCH   5  11
TORSDOF 3
ENDMDL
