MODEL 1
REMARK VINA RESULT:    69.518      0.000      0.000
REMARK INTER + INTRA:          76.153
REMARK INTER:                  75.614
REMARK INTRA:                   0.539
REMARK UNBOUND:                 0.539
REMARK SMILES C[C@H]1[C@@H](C)CC[C@@]2(C(=O)[O-])CC[C@@]3(C)C(=CC[C@@H]4[C@@]5(C)CC[C@H](O)C(C)(C)[C@@H]5CC[C@@]43C)[C@@H]12
REMARK SMILES IDX 7 1 6 2 11 3 33 4 5 5 12 6 15 7 2 8 3 9 13 10 16 11 1 12
REMARK SMILES IDX 4 13 14 14 31 15 17 16 18 17 30 18 32 19 19 20 29 21 28 22
REMARK SMILES IDX 21 23 20 24 25 25 22 26 23 27 26 28 27 29 8 30 9 31 10 32
REMARK SMILES IDX 24 33
REMARK H PARENT 24 34
REMARK Flexibility Score: inf
ROOT
ATOM      1  C   UNL     1     -50.613 121.881  -9.295  1.00  0.00     0.017 C 
ATOM      2  C   UNL     1     -49.123 122.331  -9.272  1.00  0.00     0.014 C 
ATOM      3  C   UNL     1     -51.385 122.537  -8.126  1.00  0.00     0.014 C 
ATOM      4  C   UNL     1     -51.333 122.237 -10.652  1.00  0.00     0.030 C 
ATOM      5  C   UNL     1     -48.880 123.730  -9.828  1.00  0.00     0.004 C 
ATOM      6  C   UNL     1     -52.798 121.954  -7.989  1.00  0.00     0.013 C 
ATOM      7  C   UNL     1     -52.867 122.091 -10.585  1.00  0.00    -0.063 C 
ATOM      8  C   UNL     1     -50.898 123.586 -11.350  1.00  0.00    -0.003 C 
ATOM      9  C   UNL     1     -49.363 123.795 -11.277  1.00  0.00    -0.011 C 
ATOM     10  C   UNL     1     -53.696 122.099  -9.275  1.00  0.00    -0.006 C 
ATOM     11  C   UNL     1     -53.521 121.966 -11.761  1.00  0.00    -0.027 C 
ATOM     12  C   UNL     1     -51.697 124.838 -10.926  1.00  0.00     0.008 C 
ATOM     13  C   UNL     1     -48.879 125.085 -11.958  1.00  0.00     0.008 C 
ATOM     14  C   UNL     1     -54.336 123.517  -9.135  1.00  0.00     0.017 C 
ATOM     15  C   UNL     1     -54.797 120.910  -9.372  1.00  0.00    -0.020 C 
ATOM     16  C   UNL     1     -55.017 121.876 -11.844  1.00  0.00     0.032 C 
ATOM     17  C   UNL     1     -55.593 120.921 -10.767  1.00  0.00     0.006 C 
ATOM     18  C   UNL     1     -55.787 120.965  -8.167  1.00  0.00     0.008 C 
ATOM     19  C   UNL     1     -54.077 119.515  -9.284  1.00  0.00     0.012 C 
ATOM     20  C   UNL     1     -57.181 120.912 -10.665  1.00  0.00    -0.025 C 
ATOM     21  C   UNL     1     -56.942 119.951  -8.239  1.00  0.00     0.005 C 
ATOM     22  C   UNL     1     -57.567 119.765  -9.657  1.00  0.00     0.003 C 
ATOM     23  C   UNL     1     -57.757 120.554 -12.076  1.00  0.00     0.010 C 
ATOM     24  C   UNL     1     -57.746 122.299 -10.219  1.00  0.00     0.012 C 
ATOM     25  C   UNL     1     -59.087 119.318  -9.652  1.00  0.00    -0.006 C 
ATOM     26  C   UNL     1     -59.240 120.165 -12.074  1.00  0.00     0.033 C 
ATOM     27  C   UNL     1     -59.518 118.999 -11.120  1.00  0.00     0.120 C 
ATOM     28  C   UNL     1     -60.055 120.364  -9.027  1.00  0.00     0.014 C 
ATOM     29  C   UNL     1     -59.222 118.014  -8.823  1.00  0.00     0.014 C 
ENDROOT
BRANCH   1  30
ATOM     30  C   UNL     1     -50.562 120.364  -9.081  1.00  0.00     0.048 C 
ATOM     31  O   UNL     1     -51.297 119.604  -9.769  1.00  0.00    -0.550 OA
ATOM     32  O   UNL     1     -49.819 119.806  -8.047  1.00  0.00    -0.550 OA
ENDBRANCH   1  30
BRANCH  27  33
ATOM     33  O   UNL     1     -60.889 118.685 -11.187  1.00  0.00    -0.393 OA
ATOM     34  H   UNL     1     -61.200 118.502 -10.262  1.00  0.00     0.210 HD
ENDBRANCH  27  33
TORSDOF 2
ENDMDL
MODEL 2
REMARK VINA RESULT:    71.665      2.695      4.497
REMARK INTER + INTRA:          78.488
REMARK INTER:                  77.678
REMARK INTRA:                   0.810
REMARK UNBOUND:                 0.539
REMARK SMILES C[C@H]1[C@@H](C)CC[C@@]2(C(=O)[O-])CC[C@@]3(C)C(=CC[C@@H]4[C@@]5(C)CC[C@H](O)C(C)(C)[C@@H]5CC[C@@]43C)[C@@H]12
REMARK SMILES IDX 7 1 6 2 11 3 33 4 5 5 12 6 15 7 2 8 3 9 13 10 16 11 1 12
REMARK SMILES IDX 4 13 14 14 31 15 17 16 18 17 30 18 32 19 19 20 29 21 28 22
REMARK SMILES IDX 21 23 20 24 25 25 22 26 23 27 26 28 27 29 8 30 9 31 10 32
REMARK SMILES IDX 24 33
REMARK H PARENT 24 34
REMARK Flexibility Score: inf
ROOT
ATOM      1  C   UNL     1     -53.505 122.331 -11.257  1.00  0.00     0.017 C 
ATOM      2  C   UNL     1     -52.447 123.074 -12.125  1.00  0.00     0.014 C 
ATOM      3  C   UNL     1     -53.393 120.804 -11.473  1.00  0.00     0.014 C 
ATOM      4  C   UNL     1     -53.355 122.645  -9.718  1.00  0.00     0.030 C 
ATOM      5  C   UNL     1     -51.033 123.044 -11.556  1.00  0.00     0.004 C 
ATOM      6  C   UNL     1     -54.552 120.055 -10.803  1.00  0.00     0.013 C 
ATOM      7  C   UNL     1     -54.171 121.694  -8.821  1.00  0.00    -0.063 C 
ATOM      8  C   UNL     1     -51.884 122.851  -9.179  1.00  0.00    -0.003 C 
ATOM      9  C   UNL     1     -51.028 123.684 -10.167  1.00  0.00    -0.011 C 
ATOM     10  C   UNL     1     -54.677 120.293  -9.251  1.00  0.00    -0.006 C 
ATOM     11  C   UNL     1     -54.441 122.119  -7.566  1.00  0.00    -0.027 C 
ATOM     12  C   UNL     1     -51.171 121.568  -8.697  1.00  0.00     0.008 C 
ATOM     13  C   UNL     1     -49.589 123.933  -9.686  1.00  0.00     0.008 C 
ATOM     14  C   UNL     1     -53.714 119.235  -8.624  1.00  0.00     0.017 C 
ATOM     15  C   UNL     1     -56.211 120.138  -8.744  1.00  0.00    -0.020 C 
ATOM     16  C   UNL     1     -55.174 121.270  -6.568  1.00  0.00     0.032 C 
ATOM     17  C   UNL     1     -56.398 120.566  -7.208  1.00  0.00     0.006 C 
ATOM     18  C   UNL     1     -56.735 118.687  -8.984  1.00  0.00     0.008 C 
ATOM     19  C   UNL     1     -57.144 121.084  -9.584  1.00  0.00     0.012 C 
ATOM     20  C   UNL     1     -57.120 119.504  -6.269  1.00  0.00    -0.025 C 
ATOM     21  C   UNL     1     -58.141 118.412  -8.421  1.00  0.00     0.005 C 
ATOM     22  C   UNL     1     -58.424 119.041  -7.021  1.00  0.00     0.003 C 
ATOM     23  C   UNL     1     -57.536 120.227  -4.944  1.00  0.00     0.010 C 
ATOM     24  C   UNL     1     -56.185 118.300  -5.921  1.00  0.00     0.012 C 
ATOM     25  C   UNL     1     -59.495 118.259  -6.154  1.00  0.00    -0.006 C 
ATOM     26  C   UNL     1     -58.539 119.447  -4.085  1.00  0.00     0.033 C 
ATOM     27  C   UNL     1     -59.806 119.097  -4.872  1.00  0.00     0.120 C 
ATOM     28  C   UNL     1     -59.063 116.818  -5.758  1.00  0.00     0.014 C 
ATOM     29  C   UNL     1     -60.808 118.137  -6.971  1.00  0.00     0.014 C 
ENDROOT
BRANCH   1  30
ATOM     30  C   UNL     1     -54.856 122.822 -11.789  1.00  0.00     0.048 C 
ATOM     31  O   UNL     1     -55.743 121.990 -12.125  1.00  0.00    -0.550 OA
ATOM     32  O   UNL     1     -55.085 124.169 -12.042  1.00  0.00    -0.550 OA
ENDBRANCH   1  30
BRANCH  27  33
ATOM     33  O   UNL     1     -60.684 118.405  -4.016  1.00  0.00    -0.393 OA
ATOM     34  H   UNL     1     -61.610 118.594  -4.321  1.00  0.00     0.210 HD
ENDBRANCH  27  33
TORSDOF 2
ENDMDL
