MODEL 1
REMARK VINA RESULT:    -4.906      0.000      0.000
REMARK INTER + INTRA:          -5.050
REMARK INTER:                  -5.050
REMARK INTRA:                   0.000
REMARK UNBOUND:                 0.000
REMARK SMILES Cc1ccccc1O
REMARK SMILES IDX 1 1 2 2 3 3 4 4 5 5 6 6 7 7 8 8
REMARK H PARENT 8 9
REMARK Flexibility Score: inf
ROOT
ATOM      1  C   UNL     1       9.072  19.349  16.895  1.00  0.00     0.048 C 
ATOM      2  C   UNL     1       9.893  20.229  17.793  1.00  0.00    -0.009 A 
ATOM      3  C   UNL     1      11.269  19.994  17.951  1.00  0.00     0.007 A 
ATOM      4  C   UNL     1      12.034  20.812  18.787  1.00  0.00     0.001 A 
ATOM      5  C   UNL     1      11.432  21.870  19.472  1.00  0.00     0.004 A 
ATOM      6  C   UNL     1      10.064  22.113  19.323  1.00  0.00     0.046 A 
ATOM      7  C   UNL     1       9.290  21.296  18.486  1.00  0.00     0.118 A 
ENDROOT
BRANCH   7   8
ATOM      8  O   UNL     1       7.924  21.542  18.339  1.00  0.00    -0.508 OA
ATOM      9  H   UNL     1       7.228  20.939  18.762  1.00  0.00     0.293 HD
ENDBRANCH   7   8
TORSDOF 1
ENDMDL
MODEL 2
REMARK VINA RESULT:    -4.905      9.973     10.508
REMARK INTER + INTRA:          -5.048
REMARK INTER:                  -5.048
REMARK INTRA:                   0.000
REMARK UNBOUND:                 0.000
REMARK SMILES Cc1ccccc1O
REMARK SMILES IDX 1 1 2 2 3 3 4 4 5 5 6 6 7 7 8 8
REMARK H PARENT 8 9
REMARK Flexibility Score: inf
ROOT
ATOM      1  C   UNL     1       7.614  23.713   8.242  1.00  0.00     0.048 C 
ATOM      2  C   UNL     1       8.832  22.839   8.155  1.00  0.00    -0.009 A 
ATOM      3  C   UNL     1      10.050  23.364   7.689  1.00  0.00     0.007 A 
ATOM      4  C   UNL     1      11.184  22.550   7.608  1.00  0.00     0.001 A 
ATOM      5  C   UNL     1      11.112  21.209   7.989  1.00  0.00     0.004 A 
ATOM      6  C   UNL     1       9.906  20.677   8.452  1.00  0.00     0.046 A 
ATOM      7  C   UNL     1       8.763  21.485   8.537  1.00  0.00     0.118 A 
ENDROOT
BRANCH   7   8
ATOM      8  O   UNL     1       7.561  20.950   9.001  1.00  0.00    -0.508 OA
ATOM      9  H   UNL     1       6.830  21.540   9.382  1.00  0.00     0.293 HD
ENDBRANCH   7   8
TORSDOF 1
ENDMDL
MODEL 3
REMARK VINA RESULT:    -4.898     10.183     11.016
REMARK INTER + INTRA:          -5.041
REMARK INTER:                  -5.041
REMARK INTRA:                   0.000
REMARK UNBOUND:                 0.000
REMARK SMILES Cc1ccccc1O
REMARK SMILES IDX 1 1 2 2 3 3 4 4 5 5 6 6 7 7 8 8
REMARK H PARENT 8 9
REMARK Flexibility Score: inf
ROOT
ATOM      1  C   UNL     1      10.724  22.791   7.873  1.00  0.00     0.048 C 
ATOM      2  C   UNL     1       9.276  23.181   7.951  1.00  0.00    -0.009 A 
ATOM      3  C   UNL     1       8.844  24.412   7.427  1.00  0.00     0.007 A 
ATOM      4  C   UNL     1       7.496  24.776   7.499  1.00  0.00     0.001 A 
ATOM      5  C   UNL     1       6.570  23.916   8.095  1.00  0.00     0.004 A 
ATOM      6  C   UNL     1       6.989  22.691   8.619  1.00  0.00     0.046 A 
ATOM      7  C   UNL     1       8.339  22.318   8.551  1.00  0.00     0.118 A 
ENDROOT
BRANCH   7   8
ATOM      8  O   UNL     1       8.753  21.093   9.076  1.00  0.00    -0.508 OA
ATOM      9  H   UNL     1       9.472  21.037   9.789  1.00  0.00     0.293 HD
ENDBRANCH   7   8
TORSDOF 1
ENDMDL
MODEL 4
REMARK VINA RESULT:    -4.812      1.796      3.086
REMARK INTER + INTRA:          -4.952
REMARK INTER:                  -4.952
REMARK INTRA:                   0.000
REMARK UNBOUND:                 0.000
REMARK SMILES Cc1ccccc1O
REMARK SMILES IDX 1 1 2 2 3 3 4 4 5 5 6 6 7 7 8 8
REMARK H PARENT 8 9
REMARK Flexibility Score: inf
ROOT
ATOM      1  C   UNL     1      13.324  21.440  17.634  1.00  0.00     0.048 C 
ATOM      2  C   UNL     1      11.887  21.284  18.045  1.00  0.00    -0.009 A 
ATOM      3  C   UNL     1      11.414  21.901  19.216  1.00  0.00     0.007 A 
ATOM      4  C   UNL     1      10.077  21.756  19.599  1.00  0.00     0.001 A 
ATOM      5  C   UNL     1       9.204  20.994  18.819  1.00  0.00     0.004 A 
ATOM      6  C   UNL     1       9.665  20.376  17.654  1.00  0.00     0.046 A 
ATOM      7  C   UNL     1      11.004  20.516  17.262  1.00  0.00     0.118 A 
ENDROOT
BRANCH   7   8
ATOM      8  O   UNL     1      11.460  19.897  16.098  1.00  0.00    -0.508 OA
ATOM      9  H   UNL     1      10.822  19.618  15.361  1.00  0.00     0.293 HD
ENDBRANCH   7   8
TORSDOF 1
ENDMDL
MODEL 5
REMARK VINA RESULT:    -4.793      1.102      2.308
REMARK INTER + INTRA:          -4.933
REMARK INTER:                  -4.933
REMARK INTRA:                   0.000
REMARK UNBOUND:                 0.000
REMARK SMILES Cc1ccccc1O
REMARK SMILES IDX 1 1 2 2 3 3 4 4 5 5 6 6 7 7 8 8
REMARK H PARENT 8 9
REMARK Flexibility Score: inf
ROOT
ATOM      1  C   UNL     1       8.823  21.505  20.053  1.00  0.00     0.048 C 
ATOM      2  C   UNL     1       9.911  21.230  19.055  1.00  0.00    -0.009 A 
ATOM      3  C   UNL     1      11.222  21.678  19.293  1.00  0.00     0.007 A 
ATOM      4  C   UNL     1      12.235  21.422  18.364  1.00  0.00     0.001 A 
ATOM      5  C   UNL     1      11.948  20.719  17.192  1.00  0.00     0.004 A 
ATOM      6  C   UNL     1      10.649  20.270  16.945  1.00  0.00     0.046 A 
ATOM      7  C   UNL     1       9.626  20.522  17.872  1.00  0.00     0.118 A 
ENDROOT
BRANCH   7   8
ATOM      8  O   UNL     1       8.330  20.072  17.621  1.00  0.00    -0.508 OA
ATOM      9  H   UNL     1       7.545  20.373  18.188  1.00  0.00     0.293 HD
ENDBRANCH   7   8
TORSDOF 1
ENDMDL
MODEL 6
REMARK VINA RESULT:    -4.702      1.983      2.500
REMARK INTER + INTRA:          -4.840
REMARK INTER:                  -4.840
REMARK INTRA:                   0.000
REMARK UNBOUND:                 0.000
REMARK SMILES Cc1ccccc1O
REMARK SMILES IDX 1 1 2 2 3 3 4 4 5 5 6 6 7 7 8 8
REMARK H PARENT 8 9
REMARK Flexibility Score: inf
ROOT
ATOM      1  C   UNL     1       8.992  19.463  17.247  1.00  0.00     0.048 C 
ATOM      2  C   UNL     1      10.233  20.247  17.563  1.00  0.00    -0.009 A 
ATOM      3  C   UNL     1      10.367  20.893  18.804  1.00  0.00     0.007 A 
ATOM      4  C   UNL     1      11.522  21.623  19.098  1.00  0.00     0.001 A 
ATOM      5  C   UNL     1      12.551  21.715  18.158  1.00  0.00     0.004 A 
ATOM      6  C   UNL     1      12.428  21.077  16.921  1.00  0.00     0.046 A 
ATOM      7  C   UNL     1      11.272  20.342  16.617  1.00  0.00     0.118 A 
ENDROOT
BRANCH   7   8
ATOM      8  O   UNL     1      11.153  19.706  15.381  1.00  0.00    -0.508 OA
ATOM      9  H   UNL     1      10.648  20.132  14.612  1.00  0.00     0.293 HD
ENDBRANCH   7   8
TORSDOF 1
ENDMDL
MODEL 7
REMARK VINA RESULT:    -4.630      2.858      3.474
REMARK INTER + INTRA:          -4.765
REMARK INTER:                  -4.765
REMARK INTRA:                   0.000
REMARK UNBOUND:                 0.000
REMARK SMILES Cc1ccccc1O
REMARK SMILES IDX 1 1 2 2 3 3 4 4 5 5 6 6 7 7 8 8
REMARK H PARENT 8 9
REMARK Flexibility Score: inf
ROOT
ATOM      1  C   UNL     1      12.823  20.884  14.750  1.00  0.00     0.048 C 
ATOM      2  C   UNL     1      12.188  20.853  16.111  1.00  0.00    -0.009 A 
ATOM      3  C   UNL     1      11.017  20.107  16.330  1.00  0.00     0.007 A 
ATOM      4  C   UNL     1      10.425  20.077  17.596  1.00  0.00     0.001 A 
ATOM      5  C   UNL     1      10.996  20.792  18.652  1.00  0.00     0.004 A 
ATOM      6  C   UNL     1      12.159  21.537  18.445  1.00  0.00     0.046 A 
ATOM      7  C   UNL     1      12.760  21.572  17.178  1.00  0.00     0.118 A 
ENDROOT
BRANCH   7   8
ATOM      8  O   UNL     1      13.922  22.318  16.976  1.00  0.00    -0.508 OA
ATOM      9  H   UNL     1      14.442  22.710  17.752  1.00  0.00     0.293 HD
ENDBRANCH   7   8
TORSDOF 1
ENDMDL
MODEL 8
REMARK VINA RESULT:    -4.572      9.986     10.523
REMARK INTER + INTRA:          -4.705
REMARK INTER:                  -4.705
REMARK INTRA:                   0.000
REMARK UNBOUND:                 0.000
REMARK SMILES Cc1ccccc1O
REMARK SMILES IDX 1 1 2 2 3 3 4 4 5 5 6 6 7 7 8 8
REMARK H PARENT 8 9
REMARK Flexibility Score: inf
ROOT
ATOM      1  C   UNL     1       7.171  22.774   8.869  1.00  0.00     0.048 C 
ATOM      2  C   UNL     1       8.579  22.383   8.524  1.00  0.00    -0.009 A 
ATOM      3  C   UNL     1       9.056  21.099   8.836  1.00  0.00     0.007 A 
ATOM      4  C   UNL     1      10.367  20.734   8.516  1.00  0.00     0.001 A 
ATOM      5  C   UNL     1      11.212  21.649   7.883  1.00  0.00     0.004 A 
ATOM      6  C   UNL     1      10.749  22.929   7.569  1.00  0.00     0.046 A 
ATOM      7  C   UNL     1       9.435  23.302   7.887  1.00  0.00     0.118 A 
ENDROOT
BRANCH   7   8
ATOM      8  O   UNL     1       8.976  24.582   7.571  1.00  0.00    -0.508 OA
ATOM      9  H   UNL     1       9.512  25.410   7.804  1.00  0.00     0.293 HD
ENDBRANCH   7   8
TORSDOF 1
ENDMDL
MODEL 9
REMARK VINA RESULT:    -4.477      3.138      4.111
REMARK INTER + INTRA:          -4.608
REMARK INTER:                  -4.608
REMARK INTRA:                   0.000
REMARK UNBOUND:                 0.000
REMARK SMILES Cc1ccccc1O
REMARK SMILES IDX 1 1 2 2 3 3 4 4 5 5 6 6 7 7 8 8
REMARK H PARENT 8 9
REMARK Flexibility Score: inf
ROOT
ATOM      1  C   UNL     1      13.289  18.410  19.492  1.00  0.00     0.048 C 
ATOM      2  C   UNL     1      12.852  19.604  18.693  1.00  0.00    -0.009 A 
ATOM      3  C   UNL     1      11.501  19.989  18.673  1.00  0.00     0.007 A 
ATOM      4  C   UNL     1      11.094  21.100  17.929  1.00  0.00     0.001 A 
ATOM      5  C   UNL     1      12.031  21.834  17.198  1.00  0.00     0.004 A 
ATOM      6  C   UNL     1      13.377  21.459  17.210  1.00  0.00     0.046 A 
ATOM      7  C   UNL     1      13.794  20.346  17.954  1.00  0.00     0.118 A 
ENDROOT
BRANCH   7   8
ATOM      8  O   UNL     1      15.139  19.975  17.963  1.00  0.00    -0.508 OA
ATOM      9  H   UNL     1      15.549  19.486  18.750  1.00  0.00     0.293 HD
ENDBRANCH   7   8
TORSDOF 1
ENDMDL
