MODEL 1
REMARK VINA RESULT:    -3.578      0.000      0.000
REMARK INTER + INTRA:          -4.289
REMARK INTER:                  -4.205
REMARK INTRA:                  -0.084
REMARK UNBOUND:                -0.084
REMARK SMILES CCCCC(=O)[O-]
REMARK SMILES IDX 4 1 5 2 6 3 7 4 3 5 2 6 1 7
REMARK H PARENT
REMARK Flexibility Score: inf
ROOT
ATOM      1  C   UNL     1       1.142 -22.073  -7.828  1.00  0.00     0.053 C 
ENDROOT
BRANCH   1   2
ATOM      2  C   UNL     1       0.457 -22.596  -6.605  1.00  0.00     0.041 C 
ATOM      3  O   UNL     1       0.071 -23.793  -6.557  1.00  0.00    -0.550 OA
ATOM      4  O   UNL     1       0.199 -21.746  -5.536  1.00  0.00    -0.550 OA
ENDBRANCH   1   2
BRANCH   1   5
ATOM      5  C   UNL     1       1.564 -20.613  -7.624  1.00  0.00     0.006 C 
BRANCH   5   6
ATOM      6  C   UNL     1       3.068 -20.396  -7.849  1.00  0.00    -0.003 C 
ATOM      7  C   UNL     1       3.932 -21.153  -6.841  1.00  0.00     0.004 C 
ENDBRANCH   5   6
ENDBRANCH   1   5
TORSDOF 3
ENDMDL
MODEL 2
REMARK VINA RESULT:    -3.454      2.719      3.345
REMARK INTER + INTRA:          -4.144
REMARK INTER:                  -4.126
REMARK INTRA:                  -0.018
REMARK UNBOUND:                -0.084
REMARK SMILES CCCCC(=O)[O-]
REMARK SMILES IDX 4 1 5 2 6 3 7 4 3 5 2 6 1 7
REMARK H PARENT
REMARK Flexibility Score: inf
ROOT
ATOM      1  C   UNL     1       1.537 -20.991  -6.254  1.00  0.00     0.053 C 
ENDROOT
BRANCH   1   2
ATOM      2  C   UNL     1       1.150 -21.653  -7.538  1.00  0.00     0.041 C 
ATOM      3  O   UNL     1       0.737 -22.842  -7.538  1.00  0.00    -0.550 OA
ATOM      4  O   UNL     1       1.294 -20.975  -8.741  1.00  0.00    -0.550 OA
ENDBRANCH   1   2
BRANCH   1   5
ATOM      5  C   UNL     1       0.461 -21.221  -5.186  1.00  0.00     0.006 C 
BRANCH   5   6
ATOM      6  C   UNL     1       0.479 -20.146  -4.088  1.00  0.00    -0.003 C 
ATOM      7  C   UNL     1       0.473 -20.740  -2.680  1.00  0.00     0.004 C 
ENDBRANCH   5   6
ENDBRANCH   1   5
TORSDOF 3
ENDMDL
MODEL 3
REMARK VINA RESULT:    -3.444     10.041     11.109
REMARK INTER + INTRA:          -4.132
REMARK INTER:                  -4.004
REMARK INTRA:                  -0.128
REMARK UNBOUND:                -0.084
REMARK SMILES CCCCC(=O)[O-]
REMARK SMILES IDX 4 1 5 2 6 3 7 4 3 5 2 6 1 7
REMARK H PARENT
REMARK Flexibility Score: inf
ROOT
ATOM      1  C   UNL     1      -5.458 -27.002  -3.194  1.00  0.00     0.053 C 
ENDROOT
BRANCH   1   2
ATOM      2  C   UNL     1      -6.020 -26.980  -1.808  1.00  0.00     0.041 C 
ATOM      3  O   UNL     1      -7.018 -26.262  -1.539  1.00  0.00    -0.550 OA
ATOM      4  O   UNL     1      -5.409 -27.714  -0.799  1.00  0.00    -0.550 OA
ENDBRANCH   1   2
BRANCH   1   5
ATOM      5  C   UNL     1      -5.202 -28.445  -3.646  1.00  0.00     0.006 C 
BRANCH   5   6
ATOM      6  C   UNL     1      -6.492 -29.176  -4.047  1.00  0.00    -0.003 C 
ATOM      7  C   UNL     1      -6.770 -30.402  -3.178  1.00  0.00     0.004 C 
ENDBRANCH   5   6
ENDBRANCH   1   5
TORSDOF 3
ENDMDL
MODEL 4
REMARK VINA RESULT:    -3.401      2.212      3.114
REMARK INTER + INTRA:          -4.082
REMARK INTER:                  -4.046
REMARK INTRA:                  -0.036
REMARK UNBOUND:                -0.084
REMARK SMILES CCCCC(=O)[O-]
REMARK SMILES IDX 4 1 5 2 6 3 7 4 3 5 2 6 1 7
REMARK H PARENT
REMARK Flexibility Score: inf
ROOT
ATOM      1  C   UNL     1       1.292 -20.466  -5.645  1.00  0.00     0.053 C 
ENDROOT
BRANCH   1   2
ATOM      2  C   UNL     1       0.817 -20.099  -4.275  1.00  0.00     0.041 C 
ATOM      3  O   UNL     1       0.289 -20.969  -3.533  1.00  0.00    -0.550 OA
ATOM      4  O   UNL     1       0.910 -18.785  -3.835  1.00  0.00    -0.550 OA
ENDBRANCH   1   2
BRANCH   1   5
ATOM      5  C   UNL     1       0.665 -21.792  -6.093  1.00  0.00     0.006 C 
BRANCH   5   6
ATOM      6  C   UNL     1       0.931 -22.100  -7.574  1.00  0.00    -0.003 C 
ATOM      7  C   UNL     1       1.665 -20.968  -8.291  1.00  0.00     0.004 C 
ENDBRANCH   5   6
ENDBRANCH   1   5
TORSDOF 3
ENDMDL
MODEL 5
REMARK VINA RESULT:    -3.395     10.101     11.084
REMARK INTER + INTRA:          -4.075
REMARK INTER:                  -3.956
REMARK INTRA:                  -0.118
REMARK UNBOUND:                -0.084
REMARK SMILES CCCCC(=O)[O-]
REMARK SMILES IDX 4 1 5 2 6 3 7 4 3 5 2 6 1 7
REMARK H PARENT
REMARK Flexibility Score: inf
ROOT
ATOM      1  C   UNL     1      -5.498 -26.854  -2.996  1.00  0.00     0.053 C 
ENDROOT
BRANCH   1   2
ATOM      2  C   UNL     1      -6.108 -27.044  -1.644  1.00  0.00     0.041 C 
ATOM      3  O   UNL     1      -5.536 -27.769  -0.787  1.00  0.00    -0.550 OA
ATOM      4  O   UNL     1      -7.333 -26.462  -1.345  1.00  0.00    -0.550 OA
ENDBRANCH   1   2
BRANCH   1   5
ATOM      5  C   UNL     1      -5.273 -28.209  -3.678  1.00  0.00     0.006 C 
BRANCH   5   6
ATOM      6  C   UNL     1      -6.586 -28.870  -4.128  1.00  0.00    -0.003 C 
ATOM      7  C   UNL     1      -6.661 -30.349  -3.754  1.00  0.00     0.004 C 
ENDBRANCH   5   6
ENDBRANCH   1   5
TORSDOF 3
ENDMDL
MODEL 6
REMARK VINA RESULT:    -3.349     10.173     11.017
REMARK INTER + INTRA:          -4.020
REMARK INTER:                  -3.909
REMARK INTRA:                  -0.112
REMARK UNBOUND:                -0.084
REMARK SMILES CCCCC(=O)[O-]
REMARK SMILES IDX 4 1 5 2 6 3 7 4 3 5 2 6 1 7
REMARK H PARENT
REMARK Flexibility Score: inf
ROOT
ATOM      1  C   UNL     1      -5.106 -28.501  -3.536  1.00  0.00     0.053 C 
ENDROOT
BRANCH   1   2
ATOM      2  C   UNL     1      -6.349 -29.275  -3.841  1.00  0.00     0.041 C 
ATOM      3  O   UNL     1      -7.243 -28.776  -4.574  1.00  0.00    -0.550 OA
ATOM      4  O   UNL     1      -6.545 -30.528  -3.275  1.00  0.00    -0.550 OA
ENDBRANCH   1   2
BRANCH   1   5
ATOM      5  C   UNL     1      -5.444 -27.031  -3.262  1.00  0.00     0.006 C 
BRANCH   5   6
ATOM      6  C   UNL     1      -6.044 -26.812  -1.865  1.00  0.00    -0.003 C 
ATOM      7  C   UNL     1      -7.282 -25.917  -1.887  1.00  0.00     0.004 C 
ENDBRANCH   5   6
ENDBRANCH   1   5
TORSDOF 3
ENDMDL
MODEL 7
REMARK VINA RESULT:    -3.312      2.113      3.436
REMARK INTER + INTRA:          -3.977
REMARK INTER:                  -3.868
REMARK INTRA:                  -0.109
REMARK UNBOUND:                -0.084
REMARK SMILES CCCCC(=O)[O-]
REMARK SMILES IDX 4 1 5 2 6 3 7 4 3 5 2 6 1 7
REMARK H PARENT
REMARK Flexibility Score: inf
ROOT
ATOM      1  C   UNL     1       3.390 -21.015  -7.274  1.00  0.00     0.053 C 
ENDROOT
BRANCH   1   2
ATOM      2  C   UNL     1       3.610 -21.102  -5.797  1.00  0.00     0.041 C 
ATOM      3  O   UNL     1       2.838 -20.500  -5.005  1.00  0.00    -0.550 OA
ATOM      4  O   UNL     1       4.697 -21.806  -5.296  1.00  0.00    -0.550 OA
ENDBRANCH   1   2
BRANCH   1   5
ATOM      5  C   UNL     1       1.909 -20.764  -7.582  1.00  0.00     0.006 C 
BRANCH   5   6
ATOM      6  C   UNL     1       1.121 -22.065  -7.795  1.00  0.00    -0.003 C 
ATOM      7  C   UNL     1       0.223 -22.413  -6.608  1.00  0.00     0.004 C 
ENDBRANCH   5   6
ENDBRANCH   1   5
TORSDOF 3
ENDMDL
MODEL 8
REMARK VINA RESULT:    -3.180     10.677     11.971
REMARK INTER + INTRA:          -3.821
REMARK INTER:                  -3.702
REMARK INTRA:                  -0.119
REMARK UNBOUND:                -0.084
REMARK SMILES CCCCC(=O)[O-]
REMARK SMILES IDX 4 1 5 2 6 3 7 4 3 5 2 6 1 7
REMARK H PARENT
REMARK Flexibility Score: inf
ROOT
ATOM      1  C   UNL     1      -6.776 -30.395  -3.294  1.00  0.00     0.053 C 
ENDROOT
BRANCH   1   2
ATOM      2  C   UNL     1      -7.587 -30.002  -2.100  1.00  0.00     0.041 C 
ATOM      3  O   UNL     1      -8.517 -29.162  -2.214  1.00  0.00    -0.550 OA
ATOM      4  O   UNL     1      -7.282 -30.526  -0.850  1.00  0.00    -0.550 OA
ENDBRANCH   1   2
BRANCH   1   5
ATOM      5  C   UNL     1      -6.362 -29.153  -4.093  1.00  0.00     0.006 C 
BRANCH   5   6
ATOM      6  C   UNL     1      -5.157 -28.428  -3.475  1.00  0.00    -0.003 C 
ATOM      7  C   UNL     1      -5.437 -26.953  -3.192  1.00  0.00     0.004 C 
ENDBRANCH   5   6
ENDBRANCH   1   5
TORSDOF 3
ENDMDL
MODEL 9
REMARK VINA RESULT:    -3.152     10.054     10.861
REMARK INTER + INTRA:          -3.789
REMARK INTER:                  -3.686
REMARK INTRA:                  -0.103
REMARK UNBOUND:                -0.084
REMARK SMILES CCCCC(=O)[O-]
REMARK SMILES IDX 4 1 5 2 6 3 7 4 3 5 2 6 1 7
REMARK H PARENT
REMARK Flexibility Score: inf
ROOT
ATOM      1  C   UNL     1      -6.156 -26.728  -2.009  1.00  0.00     0.053 C 
ENDROOT
BRANCH   1   2
ATOM      2  C   UNL     1      -7.408 -25.956  -2.278  1.00  0.00     0.041 C 
ATOM      3  O   UNL     1      -7.774 -25.047  -1.487  1.00  0.00    -0.550 OA
ATOM      4  O   UNL     1      -8.198 -26.272  -3.375  1.00  0.00    -0.550 OA
ENDBRANCH   1   2
BRANCH   1   5
ATOM      5  C   UNL     1      -5.418 -27.026  -3.320  1.00  0.00     0.006 C 
BRANCH   5   6
ATOM      6  C   UNL     1      -5.060 -28.513  -3.471  1.00  0.00    -0.003 C 
ATOM      7  C   UNL     1      -6.271 -29.381  -3.810  1.00  0.00     0.004 C 
ENDBRANCH   5   6
ENDBRANCH   1   5
TORSDOF 3
ENDMDL
