MODEL 1
REMARK VINA RESULT:    -3.497      0.000      0.000
REMARK INTER + INTRA:          -5.221
REMARK INTER:                  -4.928
REMARK INTRA:                  -0.293
REMARK UNBOUND:                -0.293
REMARK SMILES CCCCCCCCC(=O)[O-]
REMARK SMILES IDX 6 1 7 2 8 3 9 4 10 5 11 6 5 7 4 8 3 9 2 10 1 11
REMARK H PARENT
REMARK Flexibility Score: inf
ROOT
ATOM      1  C   UNL     1      31.943   6.120  -7.649  1.00  0.00     0.000 C 
ENDROOT
BRANCH   1   2
ATOM      2  C   UNL     1      32.928   5.352  -6.742  1.00  0.00     0.006 C 
BRANCH   2   3
ATOM      3  C   UNL     1      34.214   6.131  -6.424  1.00  0.00     0.053 C 
BRANCH   3   4
ATOM      4  C   UNL     1      34.725   5.854  -5.045  1.00  0.00     0.041 C 
ATOM      5  O   UNL     1      35.510   6.663  -4.483  1.00  0.00    -0.550 OA
ATOM      6  O   UNL     1      34.338   4.698  -4.378  1.00  0.00    -0.550 OA
ENDBRANCH   3   4
ENDBRANCH   2   3
ENDBRANCH   1   2
BRANCH   1   7
ATOM      7  C   UNL     1      31.172   7.246  -6.934  1.00  0.00     0.000 C 
BRANCH   7   8
ATOM      8  C   UNL     1      29.636   7.079  -7.009  1.00  0.00    -0.000 C 
BRANCH   8   9
ATOM      9  C   UNL     1      28.928   8.408  -7.322  1.00  0.00    -0.000 C 
BRANCH   9  10
ATOM     10  C   UNL     1      28.600   8.566  -8.815  1.00  0.00    -0.003 C 
ATOM     11  C   UNL     1      28.599   7.233  -9.563  1.00  0.00     0.004 C 
ENDBRANCH   9  10
ENDBRANCH   8   9
ENDBRANCH   7   8
ENDBRANCH   1   7
TORSDOF 7
ENDMDL
MODEL 2
REMARK VINA RESULT:    -3.341      3.034      4.623
REMARK INTER + INTRA:          -5.001
REMARK INTER:                  -4.336
REMARK INTRA:                  -0.665
REMARK UNBOUND:                -0.293
REMARK SMILES CCCCCCCCC(=O)[O-]
REMARK SMILES IDX 6 1 7 2 8 3 9 4 10 5 11 6 5 7 4 8 3 9 2 10 1 11
REMARK H PARENT
REMARK Flexibility Score: inf
ROOT
ATOM      1  C   UNL     1      36.344   7.260  -6.024  1.00  0.00     0.000 C 
ENDROOT
BRANCH   1   2
ATOM      2  C   UNL     1      35.617   8.196  -5.036  1.00  0.00     0.006 C 
BRANCH   2   3
ATOM      3  C   UNL     1      34.917   7.457  -3.883  1.00  0.00     0.053 C 
BRANCH   3   4
ATOM      4  C   UNL     1      34.768   8.310  -2.662  1.00  0.00     0.041 C 
ATOM      5  O   UNL     1      33.631   8.717  -2.307  1.00  0.00    -0.550 OA
ATOM      6  O   UNL     1      35.887   8.659  -1.916  1.00  0.00    -0.550 OA
ENDBRANCH   3   4
ENDBRANCH   2   3
ENDBRANCH   1   2
BRANCH   1   7
ATOM      7  C   UNL     1      35.933   5.780  -5.915  1.00  0.00     0.000 C 
BRANCH   7   8
ATOM      8  C   UNL     1      34.905   5.348  -6.987  1.00  0.00    -0.000 C 
BRANCH   8   9
ATOM      9  C   UNL     1      33.524   5.057  -6.376  1.00  0.00    -0.000 C 
BRANCH   9  10
ATOM     10  C   UNL     1      32.386   5.777  -7.115  1.00  0.00    -0.003 C 
ATOM     11  C   UNL     1      32.446   7.296  -6.953  1.00  0.00     0.004 C 
ENDBRANCH   9  10
ENDBRANCH   8   9
ENDBRANCH   7   8
ENDBRANCH   1   7
TORSDOF 7
ENDMDL
MODEL 3
REMARK VINA RESULT:    -3.289      1.188      1.856
REMARK INTER + INTRA:          -4.928
REMARK INTER:                  -4.701
REMARK INTRA:                  -0.227
REMARK UNBOUND:                -0.293
REMARK SMILES CCCCCCCCC(=O)[O-]
REMARK SMILES IDX 6 1 7 2 8 3 9 4 10 5 11 6 5 7 4 8 3 9 2 10 1 11
REMARK H PARENT
REMARK Flexibility Score: inf
ROOT
ATOM      1  C   UNL     1      33.394   5.811  -7.413  1.00  0.00     0.000 C 
ENDROOT
BRANCH   1   2
ATOM      2  C   UNL     1      34.243   4.922  -6.479  1.00  0.00     0.006 C 
BRANCH   2   3
ATOM      3  C   UNL     1      35.725   5.326  -6.419  1.00  0.00     0.053 C 
BRANCH   3   4
ATOM      4  C   UNL     1      35.927   6.677  -5.808  1.00  0.00     0.041 C 
ATOM      5  O   UNL     1      35.679   6.867  -4.589  1.00  0.00    -0.550 OA
ATOM      6  O   UNL     1      36.388   7.730  -6.588  1.00  0.00    -0.550 OA
ENDBRANCH   3   4
ENDBRANCH   2   3
ENDBRANCH   1   2
BRANCH   1   7
ATOM      7  C   UNL     1      31.875   5.699  -7.184  1.00  0.00     0.000 C 
BRANCH   7   8
ATOM      8  C   UNL     1      31.163   7.071  -7.117  1.00  0.00    -0.000 C 
BRANCH   8   9
ATOM      9  C   UNL     1      29.635   6.922  -7.039  1.00  0.00    -0.000 C 
BRANCH   9  10
ATOM     10  C   UNL     1      28.893   8.006  -7.837  1.00  0.00    -0.003 C 
ATOM     11  C   UNL     1      28.563   7.565  -9.263  1.00  0.00     0.004 C 
ENDBRANCH   9  10
ENDBRANCH   8   9
ENDBRANCH   7   8
ENDBRANCH   1   7
TORSDOF 7
ENDMDL
MODEL 4
REMARK VINA RESULT:    -3.251      1.328      2.018
REMARK INTER + INTRA:          -4.874
REMARK INTER:                  -4.325
REMARK INTRA:                  -0.549
REMARK UNBOUND:                -0.293
REMARK SMILES CCCCCCCCC(=O)[O-]
REMARK SMILES IDX 6 1 7 2 8 3 9 4 10 5 11 6 5 7 4 8 3 9 2 10 1 11
REMARK H PARENT
REMARK Flexibility Score: inf
ROOT
ATOM      1  C   UNL     1      33.352   6.923  -7.253  1.00  0.00     0.000 C 
ENDROOT
BRANCH   1   2
ATOM      2  C   UNL     1      32.954   5.514  -6.764  1.00  0.00     0.006 C 
BRANCH   2   3
ATOM      3  C   UNL     1      34.149   4.642  -6.345  1.00  0.00     0.053 C 
BRANCH   3   4
ATOM      4  C   UNL     1      35.079   5.353  -5.414  1.00  0.00     0.041 C 
ATOM      5  O   UNL     1      34.725   5.605  -4.232  1.00  0.00    -0.550 OA
ATOM      6  O   UNL     1      36.340   5.741  -5.851  1.00  0.00    -0.550 OA
ENDBRANCH   3   4
ENDBRANCH   2   3
ENDBRANCH   1   2
BRANCH   1   7
ATOM      7  C   UNL     1      32.800   7.290  -8.643  1.00  0.00     0.000 C 
BRANCH   7   8
ATOM      8  C   UNL     1      31.453   6.602  -8.968  1.00  0.00    -0.000 C 
BRANCH   8   9
ATOM      9  C   UNL     1      30.306   7.618  -9.100  1.00  0.00    -0.000 C 
BRANCH   9  10
ATOM     10  C   UNL     1      29.144   7.327  -8.138  1.00  0.00    -0.003 C 
ATOM     11  C   UNL     1      29.608   7.139  -6.694  1.00  0.00     0.004 C 
ENDBRANCH   9  10
ENDBRANCH   8   9
ENDBRANCH   7   8
ENDBRANCH   1   7
TORSDOF 7
ENDMDL
MODEL 5
REMARK VINA RESULT:    -3.206      4.893      7.065
REMARK INTER + INTRA:          -4.810
REMARK INTER:                  -4.645
REMARK INTRA:                  -0.166
REMARK UNBOUND:                -0.293
REMARK SMILES CCCCCCCCC(=O)[O-]
REMARK SMILES IDX 6 1 7 2 8 3 9 4 10 5 11 6 5 7 4 8 3 9 2 10 1 11
REMARK H PARENT
REMARK Flexibility Score: inf
ROOT
ATOM      1  C   UNL     1      35.798   7.532  -5.027  1.00  0.00     0.000 C 
ENDROOT
BRANCH   1   2
ATOM      2  C   UNL     1      34.401   7.912  -4.493  1.00  0.00     0.006 C 
BRANCH   2   3
ATOM      3  C   UNL     1      34.420   9.054  -3.464  1.00  0.00     0.053 C 
BRANCH   3   4
ATOM      4  C   UNL     1      34.700   8.570  -2.076  1.00  0.00     0.041 C 
ATOM      5  O   UNL     1      33.821   7.935  -1.435  1.00  0.00    -0.550 OA
ATOM      6  O   UNL     1      35.932   8.822  -1.486  1.00  0.00    -0.550 OA
ENDBRANCH   3   4
ENDBRANCH   2   3
ENDBRANCH   1   2
BRANCH   1   7
ATOM      7  C   UNL     1      35.816   6.274  -5.916  1.00  0.00     0.000 C 
BRANCH   7   8
ATOM      8  C   UNL     1      37.049   6.198  -6.846  1.00  0.00    -0.000 C 
BRANCH   8   9
ATOM      9  C   UNL     1      37.496   4.747  -7.091  1.00  0.00    -0.000 C 
BRANCH   9  10
ATOM     10  C   UNL     1      38.949   4.651  -7.582  1.00  0.00    -0.003 C 
ATOM     11  C   UNL     1      39.832   3.823  -6.649  1.00  0.00     0.004 C 
ENDBRANCH   9  10
ENDBRANCH   8   9
ENDBRANCH   7   8
ENDBRANCH   1   7
TORSDOF 7
ENDMDL
MODEL 6
REMARK VINA RESULT:    -3.160      1.597      2.408
REMARK INTER + INTRA:          -4.747
REMARK INTER:                  -4.532
REMARK INTRA:                  -0.215
REMARK UNBOUND:                -0.293
REMARK SMILES CCCCCCCCC(=O)[O-]
REMARK SMILES IDX 6 1 7 2 8 3 9 4 10 5 11 6 5 7 4 8 3 9 2 10 1 11
REMARK H PARENT
REMARK Flexibility Score: inf
ROOT
ATOM      1  C   UNL     1      32.318   5.694  -7.361  1.00  0.00     0.000 C 
ENDROOT
BRANCH   1   2
ATOM      2  C   UNL     1      33.404   5.214  -6.374  1.00  0.00     0.006 C 
BRANCH   2   3
ATOM      3  C   UNL     1      34.805   5.107  -6.998  1.00  0.00     0.053 C 
BRANCH   3   4
ATOM      4  C   UNL     1      35.875   5.640  -6.098  1.00  0.00     0.041 C 
ATOM      5  O   UNL     1      35.605   5.964  -4.911  1.00  0.00    -0.550 OA
ATOM      6  O   UNL     1      37.174   5.784  -6.571  1.00  0.00    -0.550 OA
ENDBRANCH   3   4
ENDBRANCH   2   3
ENDBRANCH   1   2
BRANCH   1   7
ATOM      7  C   UNL     1      31.813   7.125  -7.101  1.00  0.00     0.000 C 
BRANCH   7   8
ATOM      8  C   UNL     1      30.374   7.368  -7.612  1.00  0.00    -0.000 C 
BRANCH   8   9
ATOM      9  C   UNL     1      29.364   7.476  -6.458  1.00  0.00    -0.000 C 
BRANCH   9  10
ATOM     10  C   UNL     1      29.610   8.707  -5.570  1.00  0.00    -0.003 C 
ATOM     11  C   UNL     1      28.656   8.774  -4.378  1.00  0.00     0.004 C 
ENDBRANCH   9  10
ENDBRANCH   8   9
ENDBRANCH   7   8
ENDBRANCH   1   7
TORSDOF 7
ENDMDL
MODEL 7
REMARK VINA RESULT:    -3.156     13.666     14.551
REMARK INTER + INTRA:          -4.741
REMARK INTER:                  -3.939
REMARK INTRA:                  -0.801
REMARK UNBOUND:                -0.293
REMARK SMILES CCCCCCCCC(=O)[O-]
REMARK SMILES IDX 6 1 7 2 8 3 9 4 10 5 11 6 5 7 4 8 3 9 2 10 1 11
REMARK H PARENT
REMARK Flexibility Score: inf
ROOT
ATOM      1  C   UNL     1      26.330  -3.856   1.930  1.00  0.00     0.000 C 
ENDROOT
BRANCH   1   2
ATOM      2  C   UNL     1      27.500  -3.006   1.390  1.00  0.00     0.006 C 
BRANCH   2   3
ATOM      3  C   UNL     1      28.385  -2.400   2.491  1.00  0.00     0.053 C 
BRANCH   3   4
ATOM      4  C   UNL     1      28.308  -0.906   2.531  1.00  0.00     0.041 C 
ATOM      5  O   UNL     1      27.254  -0.314   2.177  1.00  0.00    -0.550 OA
ATOM      6  O   UNL     1      29.402  -0.164   2.957  1.00  0.00    -0.550 OA
ENDBRANCH   3   4
ENDBRANCH   2   3
ENDBRANCH   1   2
BRANCH   1   7
ATOM      7  C   UNL     1      24.934  -3.283   1.620  1.00  0.00     0.000 C 
BRANCH   7   8
ATOM      8  C   UNL     1      24.175  -2.805   2.879  1.00  0.00    -0.000 C 
BRANCH   8   9
ATOM      9  C   UNL     1      25.005  -3.000   4.159  1.00  0.00    -0.000 C 
BRANCH   9  10
ATOM     10  C   UNL     1      25.139  -1.708   4.981  1.00  0.00    -0.003 C 
ATOM     11  C   UNL     1      26.501  -1.582   5.662  1.00  0.00     0.004 C 
ENDBRANCH   9  10
ENDBRANCH   8   9
ENDBRANCH   7   8
ENDBRANCH   1   7
TORSDOF 7
ENDMDL
MODEL 8
REMARK VINA RESULT:    -3.098      5.117      6.717
REMARK INTER + INTRA:          -4.659
REMARK INTER:                  -4.324
REMARK INTRA:                  -0.334
REMARK UNBOUND:                -0.293
REMARK SMILES CCCCCCCCC(=O)[O-]
REMARK SMILES IDX 6 1 7 2 8 3 9 4 10 5 11 6 5 7 4 8 3 9 2 10 1 11
REMARK H PARENT
REMARK Flexibility Score: inf
ROOT
ATOM      1  C   UNL     1      37.566   4.740  -7.357  1.00  0.00     0.000 C 
ENDROOT
BRANCH   1   2
ATOM      2  C   UNL     1      38.738   3.777  -7.640  1.00  0.00     0.006 C 
BRANCH   2   3
ATOM      3  C   UNL     1      39.813   3.768  -6.541  1.00  0.00     0.053 C 
BRANCH   3   4
ATOM      4  C   UNL     1      40.448   2.423  -6.371  1.00  0.00     0.041 C 
ATOM      5  O   UNL     1      41.324   2.028  -7.184  1.00  0.00    -0.550 OA
ATOM      6  O   UNL     1      40.069   1.603  -5.316  1.00  0.00    -0.550 OA
ENDBRANCH   3   4
ENDBRANCH   2   3
ENDBRANCH   1   2
BRANCH   1   7
ATOM      7  C   UNL     1      36.176   4.156  -7.671  1.00  0.00     0.000 C 
BRANCH   7   8
ATOM      8  C   UNL     1      35.022   5.156  -7.427  1.00  0.00    -0.000 C 
BRANCH   8   9
ATOM      9  C   UNL     1      34.159   4.754  -6.219  1.00  0.00    -0.000 C 
BRANCH   9  10
ATOM     10  C   UNL     1      34.656   5.375  -4.904  1.00  0.00    -0.003 C 
ATOM     11  C   UNL     1      35.259   6.766  -5.100  1.00  0.00     0.004 C 
ENDBRANCH   9  10
ENDBRANCH   8   9
ENDBRANCH   7   8
ENDBRANCH   1   7
TORSDOF 7
ENDMDL
MODEL 9
REMARK VINA RESULT:    -3.030      4.639      7.070
REMARK INTER + INTRA:          -4.563
REMARK INTER:                  -4.198
REMARK INTRA:                  -0.365
REMARK UNBOUND:                -0.293
REMARK SMILES CCCCCCCCC(=O)[O-]
REMARK SMILES IDX 6 1 7 2 8 3 9 4 10 5 11 6 5 7 4 8 3 9 2 10 1 11
REMARK H PARENT
REMARK Flexibility Score: inf
ROOT
ATOM      1  C   UNL     1      37.096   4.823  -8.125  1.00  0.00     0.000 C 
ENDROOT
BRANCH   1   2
ATOM      2  C   UNL     1      37.112   5.342  -6.672  1.00  0.00     0.006 C 
BRANCH   2   3
ATOM      3  C   UNL     1      35.873   6.170  -6.294  1.00  0.00     0.053 C 
BRANCH   3   4
ATOM      4  C   UNL     1      34.812   5.346  -5.634  1.00  0.00     0.041 C 
ATOM      5  O   UNL     1      34.802   5.207  -4.383  1.00  0.00    -0.550 OA
ATOM      6  O   UNL     1      33.833   4.727  -6.402  1.00  0.00    -0.550 OA
ENDBRANCH   3   4
ENDBRANCH   2   3
ENDBRANCH   1   2
BRANCH   1   7
ATOM      7  C   UNL     1      37.258   3.297  -8.255  1.00  0.00     0.000 C 
BRANCH   7   8
ATOM      8  C   UNL     1      35.916   2.531  -8.200  1.00  0.00    -0.000 C 
BRANCH   8   9
ATOM      9  C   UNL     1      36.060   1.082  -8.692  1.00  0.00    -0.000 C 
BRANCH   9  10
ATOM     10  C   UNL     1      37.041   0.262  -7.840  1.00  0.00    -0.003 C 
ATOM     11  C   UNL     1      36.333  -0.713  -6.900  1.00  0.00     0.004 C 
ENDBRANCH   9  10
ENDBRANCH   8   9
ENDBRANCH   7   8
ENDBRANCH   1   7
TORSDOF 7
ENDMDL
