MODEL 1
REMARK VINA RESULT:    -4.051      0.000      0.000
REMARK INTER + INTRA:          -6.452
REMARK INTER:                  -6.183
REMARK INTRA:                  -0.269
REMARK UNBOUND:                -0.269
REMARK SMILES CC1=CCC[C@@H](C)C(=O)C[C@@H](C(C)C)C(=O)C1
REMARK SMILES IDX 8 1 9 2 6 3 7 4 5 5 4 6 3 7 2 8 1 9 10 11 11 12 15 13 16 14
REMARK SMILES IDX 17 15 12 17 13 18 14 19
REMARK H PARENT
REMARK Flexibility Score: 70.00
ROOT
ATOM      1  C   UNL     1     -13.426  11.361 -29.916  1.00  0.00     0.136 C 
ATOM      2  O   UNL     1     -12.415  10.698 -30.102  1.00  0.00    -0.299 OA
ENDROOT
BRANCH   1   3
ATOM      3  C   UNL     1     -13.829  11.694 -28.491  1.00  0.00     0.053 C 
ATOM      4  C   UNL     1     -12.614  11.673 -27.556  1.00  0.00     0.016 C 
BRANCH   3   5
ATOM      5  C   UNL     1     -14.938  10.754 -27.985  1.00  0.00     0.015 C 
BRANCH   5   6
ATOM      6  C   UNL     1     -16.237  11.516 -27.666  1.00  0.00     0.028 C 
BRANCH   6   7
ATOM      7  C   UNL     1     -17.322  11.176 -28.653  1.00  0.00    -0.028 C 
ATOM      8  C   UNL     1     -17.698  11.967 -29.685  1.00  0.00    -0.070 CG0
ATOM      9  C   UNL     1     -18.774  11.461 -30.611  1.00  0.00     0.039 C 
ATOM     10  G   UNL     1     -17.088  13.337 -29.943  1.00  0.00     0.000 G0
ENDBRANCH   6   7
ENDBRANCH   5   6
ENDBRANCH   3   5
ENDBRANCH   1   3
BRANCH   1  11
ATOM     11  C   UNL     1     -14.244  11.787 -31.116  1.00  0.00     0.087 C 
BRANCH  11  12
ATOM     12  C   UNL     1     -14.681  13.277 -31.032  1.00  0.00     0.066 C 
BRANCH  12  13
ATOM     13  C   UNL     1     -16.194  13.363 -31.168  1.00  0.00     0.140 C 
ATOM     14  O   UNL     1     -16.688  13.541 -32.272  1.00  0.00    -0.299 OA
BRANCH  13  15
ATOM     15  C   UNL     1     -17.085  13.348 -29.950  1.00  0.00     0.106 CG0
ATOM     16  G   UNL     1     -17.689  11.975 -29.696  1.00  0.00     0.000 G0
ENDBRANCH  13  15
ENDBRANCH  12  13
BRANCH  12  17
ATOM     17  C   UNL     1     -13.982  14.168 -32.111  1.00  0.00    -0.006 C 
ATOM     18  C   UNL     1     -12.597  13.622 -32.512  1.00  0.00     0.008 C 
ATOM     19  C   UNL     1     -13.809  15.619 -31.616  1.00  0.00     0.008 C 
ENDBRANCH  12  17
ENDBRANCH  11  12
ENDBRANCH   1  11
TORSDOF 1
ENDMDL
MODEL 2
REMARK VINA RESULT:    -3.938      1.865      4.005
REMARK INTER + INTRA:          -6.279
REMARK INTER:                  -5.897
REMARK INTRA:                  -0.382
REMARK UNBOUND:                -0.269
REMARK SMILES CC1=CCC[C@@H](C)C(=O)C[C@@H](C(C)C)C(=O)C1
REMARK SMILES IDX 8 1 9 2 6 3 7 4 5 5 4 6 3 7 2 8 1 9 10 11 11 12 15 13 16 14
REMARK SMILES IDX 17 15 12 17 13 18 14 19
REMARK H PARENT
REMARK Flexibility Score: 70.00
ROOT
ATOM      1  C   UNL     1     -16.138  13.224 -30.030  1.00  0.00     0.136 C 
ATOM      2  O   UNL     1     -16.615  14.208 -29.482  1.00  0.00    -0.299 OA
ENDROOT
BRANCH   1   3
ATOM      3  C   UNL     1     -17.051  12.056 -30.356  1.00  0.00     0.053 C 
ATOM      4  C   UNL     1     -18.273  12.518 -31.158  1.00  0.00     0.016 C 
BRANCH   3   5
ATOM      5  C   UNL     1     -17.473  11.299 -29.083  1.00  0.00     0.015 C 
BRANCH   5   6
ATOM      6  C   UNL     1     -16.620  10.039 -28.853  1.00  0.00     0.028 C 
BRANCH   6   7
ATOM      7  C   UNL     1     -15.416  10.345 -28.002  1.00  0.00    -0.028 C 
ATOM      8  C   UNL     1     -14.137  10.324 -28.443  1.00  0.00    -0.070 CG0
ATOM      9  C   UNL     1     -13.046  10.700 -27.474  1.00  0.00     0.039 C 
ATOM     10  G   UNL     1     -13.758   9.935 -29.865  1.00  0.00     0.000 G0
ENDBRANCH   6   7
ENDBRANCH   5   6
ENDBRANCH   3   5
ENDBRANCH   1   3
BRANCH   1  11
ATOM     11  C   UNL     1     -14.654  13.207 -30.326  1.00  0.00     0.087 C 
BRANCH  11  12
ATOM     12  C   UNL     1     -14.265  12.082 -31.326  1.00  0.00     0.066 C 
BRANCH  12  13
ATOM     13  C   UNL     1     -13.269  11.144 -30.662  1.00  0.00     0.140 C 
ATOM     14  O   UNL     1     -12.072  11.307 -30.852  1.00  0.00    -0.299 OA
BRANCH  13  15
ATOM     15  C   UNL     1     -13.738   9.949 -29.869  1.00  0.00     0.106 CG0
ATOM     16  G   UNL     1     -14.140  10.322 -28.450  1.00  0.00     0.000 G0
ENDBRANCH  13  15
ENDBRANCH  12  13
BRANCH  12  17
ATOM     17  C   UNL     1     -13.681  12.645 -32.664  1.00  0.00    -0.006 C 
ATOM     18  C   UNL     1     -13.230  14.114 -32.532  1.00  0.00     0.008 C 
ATOM     19  C   UNL     1     -14.708  12.552 -33.810  1.00  0.00     0.008 C 
ENDBRANCH  12  17
ENDBRANCH  11  12
ENDBRANCH   1  11
TORSDOF 1
ENDMDL
MODEL 3
REMARK VINA RESULT:    -3.743      1.587      3.809
REMARK INTER + INTRA:          -5.981
REMARK INTER:                  -5.875
REMARK INTRA:                  -0.106
REMARK UNBOUND:                -0.269
REMARK SMILES CC1=CCC[C@@H](C)C(=O)C[C@@H](C(C)C)C(=O)C1
REMARK SMILES IDX 8 1 9 2 6 3 7 4 5 5 4 6 3 7 2 8 1 9 10 11 11 12 15 13 16 14
REMARK SMILES IDX 17 15 12 17 13 18 14 19
REMARK H PARENT
REMARK Flexibility Score: 70.00
ROOT
ATOM      1  C   UNL     1     -14.082  12.114 -31.283  1.00  0.00     0.136 C 
ATOM      2  O   UNL     1     -13.666  11.023 -31.645  1.00  0.00    -0.299 OA
ENDROOT
BRANCH   1   3
ATOM      3  C   UNL     1     -14.497  13.124 -32.338  1.00  0.00     0.053 C 
ATOM      4  C   UNL     1     -14.231  14.557 -31.864  1.00  0.00     0.016 C 
BRANCH   3   5
ATOM      5  C   UNL     1     -15.970  12.937 -32.749  1.00  0.00     0.015 C 
BRANCH   5   6
ATOM      6  C   UNL     1     -16.937  13.521 -31.703  1.00  0.00     0.028 C 
BRANCH   6   7
ATOM      7  C   UNL     1     -17.838  12.453 -31.141  1.00  0.00    -0.028 C 
ATOM      8  C   UNL     1     -17.807  12.017 -29.860  1.00  0.00    -0.070 CG0
ATOM      9  C   UNL     1     -18.808  10.970 -29.442  1.00  0.00     0.039 C 
ATOM     10  G   UNL     1     -16.808  12.532 -28.834  1.00  0.00     0.000 G0
ENDBRANCH   6   7
ENDBRANCH   5   6
ENDBRANCH   3   5
ENDBRANCH   1   3
BRANCH   1  11
ATOM     11  C   UNL     1     -14.131  12.417 -29.800  1.00  0.00     0.087 C 
BRANCH  11  12
ATOM     12  C   UNL     1     -14.555  11.180 -28.960  1.00  0.00     0.066 C 
BRANCH  12  13
ATOM     13  C   UNL     1     -15.889  11.465 -28.287  1.00  0.00     0.140 C 
ATOM     14  O   UNL     1     -16.260  10.751 -27.366  1.00  0.00    -0.299 OA
BRANCH  13  15
ATOM     15  C   UNL     1     -16.809  12.538 -28.812  1.00  0.00     0.106 CG0
ATOM     16  G   UNL     1     -17.782  12.004 -29.853  1.00  0.00     0.000 G0
ENDBRANCH  13  15
ENDBRANCH  12  13
BRANCH  12  17
ATOM     17  C   UNL     1     -13.478  10.780 -27.897  1.00  0.00    -0.006 C 
ATOM     18  C   UNL     1     -12.967  11.995 -27.098  1.00  0.00     0.008 C 
ATOM     19  C   UNL     1     -12.268  10.086 -28.555  1.00  0.00     0.008 C 
ENDBRANCH  12  17
ENDBRANCH  11  12
ENDBRANCH   1  11
TORSDOF 1
ENDMDL
MODEL 4
REMARK VINA RESULT:    -3.656      1.787      4.773
REMARK INTER + INTRA:          -5.849
REMARK INTER:                  -5.868
REMARK INTRA:                   0.019
REMARK UNBOUND:                -0.269
REMARK SMILES CC1=CCC[C@@H](C)C(=O)C[C@@H](C(C)C)C(=O)C1
REMARK SMILES IDX 8 1 9 2 6 3 7 4 5 5 4 6 3 7 2 8 1 9 10 11 11 12 15 13 16 14
REMARK SMILES IDX 17 15 12 17 13 18 14 19
REMARK H PARENT
REMARK Flexibility Score: 70.00
ROOT
ATOM      1  C   UNL     1     -16.814  11.848 -28.705  1.00  0.00     0.136 C 
ATOM      2  O   UNL     1     -16.663  12.855 -28.029  1.00  0.00    -0.299 OA
ENDROOT
BRANCH   1   3
ATOM      3  C   UNL     1     -18.000  11.773 -29.649  1.00  0.00     0.053 C 
ATOM      4  C   UNL     1     -18.071  10.406 -30.338  1.00  0.00     0.016 C 
BRANCH   3   5
ATOM      5  C   UNL     1     -17.972  12.916 -30.681  1.00  0.00     0.015 C 
BRANCH   5   6
ATOM      6  C   UNL     1     -17.258  12.502 -31.980  1.00  0.00     0.028 C 
BRANCH   6   7
ATOM      7  C   UNL     1     -15.876  13.096 -32.053  1.00  0.00    -0.028 C 
ATOM      8  C   UNL     1     -14.735  12.423 -31.773  1.00  0.00    -0.070 CG0
ATOM      9  C   UNL     1     -13.425  13.151 -31.938  1.00  0.00     0.039 C 
ATOM     10  G   UNL     1     -14.720  10.978 -31.299  1.00  0.00     0.000 G0
ENDBRANCH   6   7
ENDBRANCH   5   6
ENDBRANCH   3   5
ENDBRANCH   1   3
BRANCH   1  11
ATOM     11  C   UNL     1     -15.829  10.710 -28.542  1.00  0.00     0.087 C 
BRANCH  11  12
ATOM     12  C   UNL     1     -14.354  11.184 -28.673  1.00  0.00     0.066 C 
BRANCH  12  13
ATOM     13  C   UNL     1     -13.834  10.824 -30.056  1.00  0.00     0.140 C 
ATOM     14  O   UNL     1     -12.665  10.490 -30.189  1.00  0.00    -0.299 OA
BRANCH  13  15
ATOM     15  C   UNL     1     -14.703  10.983 -31.279  1.00  0.00     0.106 CG0
ATOM     16  G   UNL     1     -14.732  12.419 -31.781  1.00  0.00     0.000 G0
ENDBRANCH  13  15
ENDBRANCH  12  13
BRANCH  12  17
ATOM     17  C   UNL     1     -13.430  10.581 -27.564  1.00  0.00    -0.006 C 
ATOM     18  C   UNL     1     -14.235   9.969 -26.401  1.00  0.00     0.008 C 
ATOM     19  C   UNL     1     -12.473  11.645 -26.988  1.00  0.00     0.008 C 
ENDBRANCH  12  17
ENDBRANCH  11  12
ENDBRANCH   1  11
TORSDOF 1
ENDMDL
MODEL 5
REMARK VINA RESULT:    -3.495      8.788     11.544
REMARK INTER + INTRA:          -5.603
REMARK INTER:                  -5.824
REMARK INTRA:                   0.221
REMARK UNBOUND:                -0.269
REMARK SMILES CC1=CCC[C@@H](C)C(=O)C[C@@H](C(C)C)C(=O)C1
REMARK SMILES IDX 8 1 9 2 6 3 7 4 5 5 4 6 3 7 2 8 1 9 10 11 11 12 15 13 16 14
REMARK SMILES IDX 17 15 12 17 13 18 14 19
REMARK H PARENT
REMARK Flexibility Score: 70.00
ROOT
ATOM      1  C   UNL     1     -27.637  13.896 -30.675  1.00  0.00     0.136 C 
ATOM      2  O   UNL     1     -27.781  14.802 -31.483  1.00  0.00    -0.299 OA
ENDROOT
BRANCH   1   3
ATOM      3  C   UNL     1     -28.760  12.889 -30.500  1.00  0.00     0.053 C 
ATOM      4  C   UNL     1     -30.125  13.534 -30.767  1.00  0.00     0.016 C 
BRANCH   3   5
ATOM      5  C   UNL     1     -28.717  12.232 -29.108  1.00  0.00     0.015 C 
BRANCH   5   6
ATOM      6  C   UNL     1     -28.400  10.728 -29.192  1.00  0.00     0.028 C 
BRANCH   6   7
ATOM      7  C   UNL     1     -27.238  10.368 -28.304  1.00  0.00    -0.028 C 
ATOM      8  C   UNL     1     -25.938  10.428 -28.678  1.00  0.00    -0.070 CG0
ATOM      9  C   UNL     1     -24.889  10.075 -27.655  1.00  0.00     0.039 C 
ATOM     10  G   UNL     1     -25.496  10.830 -30.078  1.00  0.00     0.000 G0
ENDBRANCH   6   7
ENDBRANCH   5   6
ENDBRANCH   3   5
ENDBRANCH   1   3
BRANCH   1  11
ATOM     11  C   UNL     1     -26.361  13.843 -29.863  1.00  0.00     0.087 C 
BRANCH  11  12
ATOM     12  C   UNL     1     -25.148  13.354 -30.703  1.00  0.00     0.066 C 
BRANCH  12  13
ATOM     13  C   UNL     1     -24.621  12.055 -30.113  1.00  0.00     0.140 C 
ATOM     14  O   UNL     1     -23.459  11.994 -29.739  1.00  0.00    -0.299 OA
BRANCH  13  15
ATOM     15  C   UNL     1     -25.474  10.811 -30.090  1.00  0.00     0.106 CG0
ATOM     16  G   UNL     1     -25.950  10.465 -28.687  1.00  0.00     0.000 G0
ENDBRANCH  13  15
ENDBRANCH  12  13
BRANCH  12  17
ATOM     17  C   UNL     1     -24.007  14.421 -30.786  1.00  0.00    -0.006 C 
ATOM     18  C   UNL     1     -24.557  15.853 -30.941  1.00  0.00     0.008 C 
ATOM     19  C   UNL     1     -23.053  14.135 -31.964  1.00  0.00     0.008 C 
ENDBRANCH  12  17
ENDBRANCH  11  12
ENDBRANCH   1  11
TORSDOF 1
ENDMDL
MODEL 6
REMARK VINA RESULT:    -3.434      1.470      3.797
REMARK INTER + INTRA:          -5.510
REMARK INTER:                  -5.616
REMARK INTRA:                   0.106
REMARK UNBOUND:                -0.269
REMARK SMILES CC1=CCC[C@@H](C)C(=O)C[C@@H](C(C)C)C(=O)C1
REMARK SMILES IDX 8 1 9 2 6 3 7 4 5 5 4 6 3 7 2 8 1 9 10 11 11 12 15 13 16 14
REMARK SMILES IDX 17 15 12 17 13 18 14 19
REMARK H PARENT
REMARK Flexibility Score: 70.00
ROOT
ATOM      1  C   UNL     1     -16.956  13.453 -31.465  1.00  0.00     0.136 C 
ATOM      2  O   UNL     1     -16.928  13.968 -32.574  1.00  0.00    -0.299 OA
ENDROOT
BRANCH   1   3
ATOM      3  C   UNL     1     -18.052  12.450 -31.154  1.00  0.00     0.053 C 
ATOM      4  C   UNL     1     -19.081  13.043 -30.184  1.00  0.00     0.016 C 
BRANCH   3   5
ATOM      5  C   UNL     1     -17.472  11.130 -30.613  1.00  0.00     0.015 C 
BRANCH   5   6
ATOM      6  C   UNL     1     -17.603  11.029 -29.083  1.00  0.00     0.028 C 
BRANCH   6   7
ATOM      7  C   UNL     1     -16.456  10.254 -28.490  1.00  0.00    -0.028 C 
ATOM      8  C   UNL     1     -15.259  10.789 -28.154  1.00  0.00    -0.070 CG0
ATOM      9  C   UNL     1     -14.228   9.884 -27.529  1.00  0.00     0.039 C 
ATOM     10  G   UNL     1     -14.912  12.253 -28.384  1.00  0.00     0.000 G0
ENDBRANCH   6   7
ENDBRANCH   5   6
ENDBRANCH   3   5
ENDBRANCH   1   3
BRANCH   1  11
ATOM     11  C   UNL     1     -15.915  13.866 -30.447  1.00  0.00     0.087 C 
BRANCH  11  12
ATOM     12  C   UNL     1     -14.510  13.283 -30.771  1.00  0.00     0.066 C 
BRANCH  12  13
ATOM     13  C   UNL     1     -14.019  12.470 -29.583  1.00  0.00     0.140 C 
ATOM     14  O   UNL     1     -12.935  11.907 -29.648  1.00  0.00    -0.299 OA
BRANCH  13  15
ATOM     15  C   UNL     1     -14.897  12.253 -28.375  1.00  0.00     0.106 CG0
ATOM     16  G   UNL     1     -15.252  10.786 -28.178  1.00  0.00     0.000 G0
ENDBRANCH  13  15
ENDBRANCH  12  13
BRANCH  12  17
ATOM     17  C   UNL     1     -13.472  14.393 -31.143  1.00  0.00    -0.006 C 
ATOM     18  C   UNL     1     -14.125  15.784 -31.271  1.00  0.00     0.008 C 
ATOM     19  C   UNL     1     -12.751  14.068 -32.467  1.00  0.00     0.008 C 
ENDBRANCH  12  17
ENDBRANCH  11  12
ENDBRANCH   1  11
TORSDOF 1
ENDMDL
MODEL 7
REMARK VINA RESULT:    -3.370      8.519     11.147
REMARK INTER + INTRA:          -5.412
REMARK INTER:                  -5.859
REMARK INTRA:                   0.447
REMARK UNBOUND:                -0.269
REMARK SMILES CC1=CCC[C@@H](C)C(=O)C[C@@H](C(C)C)C(=O)C1
REMARK SMILES IDX 8 1 9 2 6 3 7 4 5 5 4 6 3 7 2 8 1 9 10 11 11 12 15 13 16 14
REMARK SMILES IDX 17 15 12 17 13 18 14 19
REMARK H PARENT
REMARK Flexibility Score: 70.00
ROOT
ATOM      1  C   UNL     1     -23.897  13.214 -30.231  1.00  0.00     0.136 C 
ATOM      2  O   UNL     1     -22.687  13.095 -30.365  1.00  0.00    -0.299 OA
ENDROOT
BRANCH   1   3
ATOM      3  C   UNL     1     -24.633  14.211 -31.109  1.00  0.00     0.053 C 
ATOM      4  C   UNL     1     -23.832  15.510 -31.258  1.00  0.00     0.016 C 
BRANCH   3   5
ATOM      5  C   UNL     1     -26.052  14.488 -30.578  1.00  0.00     0.015 C 
BRANCH   5   6
ATOM      6  C   UNL     1     -27.123  13.722 -31.374  1.00  0.00     0.028 C 
BRANCH   6   7
ATOM      7  C   UNL     1     -28.245  13.268 -30.477  1.00  0.00    -0.028 C 
ATOM      8  C   UNL     1     -28.390  12.007 -30.007  1.00  0.00    -0.070 CG0
ATOM      9  C   UNL     1     -29.545  11.724 -29.081  1.00  0.00     0.039 C 
ATOM     10  G   UNL     1     -27.446  10.871 -30.376  1.00  0.00     0.000 G0
ENDBRANCH   6   7
ENDBRANCH   5   6
ENDBRANCH   3   5
ENDBRANCH   1   3
BRANCH   1  11
ATOM     11  C   UNL     1     -24.595  12.387 -29.173  1.00  0.00     0.087 C 
BRANCH  11  12
ATOM     12  C   UNL     1     -24.913  10.948 -29.665  1.00  0.00     0.066 C 
BRANCH  12  13
ATOM     13  C   UNL     1     -26.367  10.623 -29.359  1.00  0.00     0.140 C 
ATOM     14  O   UNL     1     -26.650  10.074 -28.303  1.00  0.00    -0.299 OA
BRANCH  13  15
ATOM     15  C   UNL     1     -27.448  10.862 -30.384  1.00  0.00     0.106 CG0
ATOM     16  G   UNL     1     -28.365  12.012 -29.995  1.00  0.00     0.000 G0
ENDBRANCH  13  15
ENDBRANCH  12  13
BRANCH  12  17
ATOM     17  C   UNL     1     -23.966   9.875 -29.031  1.00  0.00    -0.006 C 
ATOM     18  C   UNL     1     -23.859  10.022 -27.501  1.00  0.00     0.008 C 
ATOM     19  C   UNL     1     -22.546   9.953 -29.629  1.00  0.00     0.008 C 
ENDBRANCH  12  17
ENDBRANCH  11  12
ENDBRANCH   1  11
TORSDOF 1
ENDMDL
MODEL 8
REMARK VINA RESULT:    -3.310      1.786      2.978
REMARK INTER + INTRA:          -5.321
REMARK INTER:                  -5.246
REMARK INTRA:                  -0.075
REMARK UNBOUND:                -0.269
REMARK SMILES CC1=CCC[C@@H](C)C(=O)C[C@@H](C(C)C)C(=O)C1
REMARK SMILES IDX 8 1 9 2 6 3 7 4 5 5 4 6 3 7 2 8 1 9 10 11 11 12 15 13 16 14
REMARK SMILES IDX 17 15 12 17 13 18 14 19
REMARK H PARENT
REMARK Flexibility Score: 70.00
ROOT
ATOM      1  C   UNL     1     -14.165  11.013 -29.620  1.00  0.00     0.136 C 
ATOM      2  O   UNL     1     -13.304  11.300 -28.801  1.00  0.00    -0.299 OA
ENDROOT
BRANCH   1   3
ATOM      3  C   UNL     1     -15.576  10.741 -29.131  1.00  0.00     0.053 C 
ATOM      4  C   UNL     1     -16.481  10.288 -30.282  1.00  0.00     0.016 C 
BRANCH   3   5
ATOM      5  C   UNL     1     -16.167  11.965 -28.406  1.00  0.00     0.015 C 
BRANCH   5   6
ATOM      6  C   UNL     1     -16.915  12.900 -29.373  1.00  0.00     0.028 C 
BRANCH   6   7
ATOM      7  C   UNL     1     -16.060  14.080 -29.757  1.00  0.00    -0.028 C 
ATOM      8  C   UNL     1     -15.557  14.293 -30.996  1.00  0.00    -0.070 CG0
ATOM      9  C   UNL     1     -14.755  15.548 -31.228  1.00  0.00     0.039 C 
ATOM     10  G   UNL     1     -15.761  13.324 -32.151  1.00  0.00     0.000 G0
ENDBRANCH   6   7
ENDBRANCH   5   6
ENDBRANCH   3   5
ENDBRANCH   1   3
BRANCH   1  11
ATOM     11  C   UNL     1     -13.774  10.909 -31.079  1.00  0.00     0.087 C 
BRANCH  11  12
ATOM     12  C   UNL     1     -13.369  12.284 -31.680  1.00  0.00     0.066 C 
BRANCH  12  13
ATOM     13  C   UNL     1     -14.439  12.736 -32.661  1.00  0.00     0.140 C 
ATOM     14  O   UNL     1     -14.201  12.716 -33.861  1.00  0.00    -0.299 OA
BRANCH  13  15
ATOM     15  C   UNL     1     -15.744  13.316 -32.174  1.00  0.00     0.106 CG0
ATOM     16  G   UNL     1     -15.545  14.292 -31.023  1.00  0.00     0.000 G0
ENDBRANCH  13  15
ENDBRANCH  12  13
BRANCH  12  17
ATOM     17  C   UNL     1     -11.968  12.245 -32.376  1.00  0.00    -0.006 C 
ATOM     18  C   UNL     1     -10.986  11.295 -31.660  1.00  0.00     0.008 C 
ATOM     19  C   UNL     1     -11.331  13.648 -32.439  1.00  0.00     0.008 C 
ENDBRANCH  12  17
ENDBRANCH  11  12
ENDBRANCH   1  11
TORSDOF 1
ENDMDL
MODEL 9
REMARK VINA RESULT:    -3.103      2.055      4.989
REMARK INTER + INTRA:          -5.004
REMARK INTER:                  -5.599
REMARK INTRA:                   0.595
REMARK UNBOUND:                -0.269
REMARK SMILES CC1=CCC[C@@H](C)C(=O)C[C@@H](C(C)C)C(=O)C1
REMARK SMILES IDX 8 1 9 2 6 3 7 4 5 5 4 6 3 7 2 8 1 9 10 11 11 12 15 13 16 14
REMARK SMILES IDX 17 15 12 17 13 18 14 19
REMARK H PARENT
REMARK Flexibility Score: 70.00
ROOT
ATOM      1  C   UNL     1     -15.839  13.282 -31.430  1.00  0.00     0.136 C 
ATOM      2  O   UNL     1     -15.998  14.240 -30.688  1.00  0.00    -0.299 OA
ENDROOT
BRANCH   1   3
ATOM      3  C   UNL     1     -14.820  13.387 -32.551  1.00  0.00     0.053 C 
ATOM      4  C   UNL     1     -15.136  12.399 -33.679  1.00  0.00     0.016 C 
BRANCH   3   5
ATOM      5  C   UNL     1     -13.385  13.195 -32.027  1.00  0.00     0.015 C 
BRANCH   5   6
ATOM      6  C   UNL     1     -13.074  11.716 -31.731  1.00  0.00     0.028 C 
BRANCH   6   7
ATOM      7  C   UNL     1     -12.861  11.490 -30.258  1.00  0.00    -0.028 C 
ATOM      8  C   UNL     1     -13.691  10.775 -29.462  1.00  0.00    -0.070 CG0
ATOM      9  C   UNL     1     -13.312  10.605 -28.013  1.00  0.00     0.039 C 
ATOM     10  G   UNL     1     -14.982  10.146 -29.965  1.00  0.00     0.000 G0
ENDBRANCH   6   7
ENDBRANCH   5   6
ENDBRANCH   3   5
ENDBRANCH   1   3
BRANCH   1  11
ATOM     11  C   UNL     1     -16.692  12.049 -31.217  1.00  0.00     0.087 C 
BRANCH  11  12
ATOM     12  C   UNL     1     -17.001  11.800 -29.715  1.00  0.00     0.066 C 
BRANCH  12  13
ATOM     13  C   UNL     1     -16.201  10.600 -29.231  1.00  0.00     0.140 C 
ATOM     14  O   UNL     1     -16.495  10.073 -28.167  1.00  0.00    -0.299 OA
BRANCH  13  15
ATOM     15  C   UNL     1     -14.983  10.125 -29.983  1.00  0.00     0.106 CG0
ATOM     16  G   UNL     1     -13.701  10.756 -29.459  1.00  0.00     0.000 G0
ENDBRANCH  13  15
ENDBRANCH  12  13
BRANCH  12  17
ATOM     17  C   UNL     1     -18.527  11.587 -29.444  1.00  0.00    -0.006 C 
ATOM     18  C   UNL     1     -18.921  10.096 -29.462  1.00  0.00     0.008 C 
ATOM     19  C   UNL     1     -19.393  12.332 -30.481  1.00  0.00     0.008 C 
ENDBRANCH  12  17
ENDBRANCH  11  12
ENDBRANCH   1  11
TORSDOF 1
ENDMDL
