MODEL 1
REMARK VINA RESULT:    -5.618      0.000      0.000
REMARK INTER + INTRA:          -6.436
REMARK INTER:                  -6.603
REMARK INTRA:                   0.168
REMARK UNBOUND:                 0.168
REMARK SMILES O=C([O-])C=Cc1ccc(O)c(O)c1
REMARK SMILES IDX 6 1 13 2 7 3 11 4 8 5 9 6 5 7 4 8 2 9 1 10 3 11 12 12 10 14
REMARK H PARENT 12 13 10 15
REMARK Flexibility Score: inf
ROOT
ATOM      1  C   UNL     1      11.414 -11.243 -26.569  1.00  0.00    -0.022 A 
ATOM      2  C   UNL     1      10.569 -12.085 -27.306  1.00  0.00     0.058 A 
ATOM      3  C   UNL     1      12.322 -10.414 -27.249  1.00  0.00     0.012 A 
ATOM      4  C   UNL     1      10.664 -12.140 -28.705  1.00  0.00     0.157 A 
ATOM      5  C   UNL     1      12.418 -10.468 -28.643  1.00  0.00     0.051 A 
ATOM      6  C   UNL     1      11.593 -11.332 -29.373  1.00  0.00     0.157 A 
ENDROOT
BRANCH   1   7
ATOM      7  C   UNL     1      11.258 -11.166 -25.102  1.00  0.00     0.010 C 
ATOM      8  C   UNL     1      11.350 -12.203 -24.255  1.00  0.00     0.025 C 
BRANCH   8   9
ATOM      9  C   UNL     1      11.430 -13.623 -24.648  1.00  0.00     0.064 C 
ATOM     10  O   UNL     1      10.472 -14.392 -24.375  1.00  0.00    -0.545 OA
ATOM     11  O   UNL     1      12.506 -14.116 -25.376  1.00  0.00    -0.545 OA
ENDBRANCH   8   9
ENDBRANCH   1   7
BRANCH   4  12
ATOM     12  O   UNL     1       9.837 -12.991 -29.435  1.00  0.00    -0.504 OA
ATOM     13  H   UNL     1       9.944 -13.103 -30.437  1.00  0.00     0.293 HD
ENDBRANCH   4  12
BRANCH   6  14
ATOM     14  O   UNL     1      11.686 -11.391 -30.763  1.00  0.00    -0.504 OA
ATOM     15  H   UNL     1      11.157 -10.763 -31.357  1.00  0.00     0.293 HD
ENDBRANCH   6  14
TORSDOF 4
ENDMDL
MODEL 2
REMARK VINA RESULT:    -5.316      2.005      3.232
REMARK INTER + INTRA:          -6.080
REMARK INTER:                  -6.185
REMARK INTRA:                   0.104
REMARK UNBOUND:                 0.168
REMARK SMILES O=C([O-])C=Cc1ccc(O)c(O)c1
REMARK SMILES IDX 6 1 13 2 7 3 11 4 8 5 9 6 5 7 4 8 2 9 1 10 3 11 12 12 10 14
REMARK H PARENT 12 13 10 15
REMARK Flexibility Score: inf
ROOT
ATOM      1  C   UNL     1      12.517 -11.364 -27.324  1.00  0.00    -0.022 A 
ATOM      2  C   UNL     1      12.501 -11.106 -28.702  1.00  0.00     0.058 A 
ATOM      3  C   UNL     1      11.530 -12.195 -26.767  1.00  0.00     0.012 A 
ATOM      4  C   UNL     1      11.480 -11.629 -29.511  1.00  0.00     0.157 A 
ATOM      5  C   UNL     1      10.513 -12.717 -27.572  1.00  0.00     0.051 A 
ATOM      6  C   UNL     1      10.484 -12.433 -28.944  1.00  0.00     0.157 A 
ENDROOT
BRANCH   1   7
ATOM      7  C   UNL     1      13.631 -10.844 -26.504  1.00  0.00     0.010 C 
ATOM      8  C   UNL     1      14.826 -11.436 -26.351  1.00  0.00     0.025 C 
BRANCH   8   9
ATOM      9  C   UNL     1      15.172 -12.794 -26.814  1.00  0.00     0.064 C 
ATOM     10  O   UNL     1      16.332 -13.018 -27.249  1.00  0.00    -0.545 OA
ATOM     11  O   UNL     1      14.272 -13.847 -26.715  1.00  0.00    -0.545 OA
ENDBRANCH   8   9
ENDBRANCH   1   7
BRANCH   4  12
ATOM     12  O   UNL     1      11.454 -11.358 -30.877  1.00  0.00    -0.504 OA
ATOM     13  H   UNL     1      11.824 -10.492 -31.253  1.00  0.00     0.293 HD
ENDBRANCH   4  12
BRANCH   6  14
ATOM     14  O   UNL     1       9.470 -12.949 -29.750  1.00  0.00    -0.504 OA
ATOM     15  H   UNL     1       9.559 -13.852 -30.200  1.00  0.00     0.293 HD
ENDBRANCH   6  14
TORSDOF 4
ENDMDL
MODEL 3
REMARK VINA RESULT:    -5.130      1.078      4.767
REMARK INTER + INTRA:          -5.861
REMARK INTER:                  -6.043
REMARK INTRA:                   0.181
REMARK UNBOUND:                 0.168
REMARK SMILES O=C([O-])C=Cc1ccc(O)c(O)c1
REMARK SMILES IDX 6 1 13 2 7 3 11 4 8 5 9 6 5 7 4 8 2 9 1 10 3 11 12 12 10 14
REMARK H PARENT 12 13 10 15
REMARK Flexibility Score: inf
ROOT
ATOM      1  C   UNL     1      12.290 -11.641 -26.547  1.00  0.00    -0.022 A 
ATOM      2  C   UNL     1      12.994 -12.848 -26.664  1.00  0.00     0.058 A 
ATOM      3  C   UNL     1      11.339 -11.496 -25.522  1.00  0.00     0.012 A 
ATOM      4  C   UNL     1      12.717 -13.920 -25.801  1.00  0.00     0.157 A 
ATOM      5  C   UNL     1      11.062 -12.563 -24.663  1.00  0.00     0.051 A 
ATOM      6  C   UNL     1      11.746 -13.777 -24.802  1.00  0.00     0.157 A 
ENDROOT
BRANCH   1   7
ATOM      7  C   UNL     1      12.638 -10.511 -27.434  1.00  0.00     0.010 C 
ATOM      8  C   UNL     1      12.186 -10.338 -28.685  1.00  0.00     0.025 C 
BRANCH   8   9
ATOM      9  C   UNL     1      11.421 -11.332 -29.463  1.00  0.00     0.064 C 
ATOM     10  O   UNL     1      11.644 -11.452 -30.696  1.00  0.00    -0.545 OA
ATOM     11  O   UNL     1      10.512 -12.188 -28.854  1.00  0.00    -0.545 OA
ENDBRANCH   8   9
ENDBRANCH   1   7
BRANCH   4  12
ATOM     12  O   UNL     1      13.404 -15.125 -25.930  1.00  0.00    -0.504 OA
ATOM     13  H   UNL     1      13.031 -15.892 -26.479  1.00  0.00     0.293 HD
ENDBRANCH   4  12
BRANCH   6  14
ATOM     14  O   UNL     1      11.471 -14.845 -23.949  1.00  0.00    -0.504 OA
ATOM     15  H   UNL     1      11.614 -14.774 -22.948  1.00  0.00     0.293 HD
ENDBRANCH   6  14
TORSDOF 4
ENDMDL
MODEL 4
REMARK VINA RESULT:    -5.073      2.192      4.802
REMARK INTER + INTRA:          -5.794
REMARK INTER:                  -5.767
REMARK INTRA:                  -0.027
REMARK UNBOUND:                 0.168
REMARK SMILES O=C([O-])C=Cc1ccc(O)c(O)c1
REMARK SMILES IDX 6 1 13 2 7 3 11 4 8 5 9 6 5 7 4 8 2 9 1 10 3 11 12 12 10 14
REMARK H PARENT 12 13 10 15
REMARK Flexibility Score: inf
ROOT
ATOM      1  C   UNL     1      11.636 -12.546 -27.706  1.00  0.00    -0.022 A 
ATOM      2  C   UNL     1      12.670 -13.462 -27.465  1.00  0.00     0.058 A 
ATOM      3  C   UNL     1      10.659 -12.336 -26.718  1.00  0.00     0.012 A 
ATOM      4  C   UNL     1      12.702 -14.201 -26.272  1.00  0.00     0.157 A 
ATOM      5  C   UNL     1      10.689 -13.071 -25.530  1.00  0.00     0.051 A 
ATOM      6  C   UNL     1      11.707 -14.007 -25.305  1.00  0.00     0.157 A 
ENDROOT
BRANCH   1   7
ATOM      7  C   UNL     1      11.654 -11.744 -28.947  1.00  0.00     0.010 C 
ATOM      8  C   UNL     1      12.272 -10.562 -29.099  1.00  0.00     0.025 C 
BRANCH   8   9
ATOM      9  C   UNL     1      12.876  -9.768 -28.012  1.00  0.00     0.064 C 
ATOM     10  O   UNL     1      12.506  -8.576 -27.843  1.00  0.00    -0.545 OA
ATOM     11  O   UNL     1      13.790 -10.324 -27.126  1.00  0.00    -0.545 OA
ENDBRANCH   8   9
ENDBRANCH   1   7
BRANCH   4  12
ATOM     12  O   UNL     1      13.719 -15.124 -26.042  1.00  0.00    -0.504 OA
ATOM     13  H   UNL     1      13.524 -16.114 -25.941  1.00  0.00     0.293 HD
ENDBRANCH   4  12
BRANCH   6  14
ATOM     14  O   UNL     1      11.740 -14.744 -24.123  1.00  0.00    -0.504 OA
ATOM     15  H   UNL     1      11.506 -15.730 -24.106  1.00  0.00     0.293 HD
ENDBRANCH   6  14
TORSDOF 4
ENDMDL
MODEL 5
REMARK VINA RESULT:    -5.066      2.580      4.486
REMARK INTER + INTRA:          -5.786
REMARK INTER:                  -6.333
REMARK INTRA:                   0.547
REMARK UNBOUND:                 0.168
REMARK SMILES O=C([O-])C=Cc1ccc(O)c(O)c1
REMARK SMILES IDX 6 1 13 2 7 3 11 4 8 5 9 6 5 7 4 8 2 9 1 10 3 11 12 12 10 14
REMARK H PARENT 12 13 10 15
REMARK Flexibility Score: inf
ROOT
ATOM      1  C   UNL     1      12.338 -12.913 -26.810  1.00  0.00    -0.022 A 
ATOM      2  C   UNL     1      13.544 -13.502 -27.215  1.00  0.00     0.058 A 
ATOM      3  C   UNL     1      12.359 -11.641 -26.214  1.00  0.00     0.012 A 
ATOM      4  C   UNL     1      14.766 -12.853 -26.980  1.00  0.00     0.157 A 
ATOM      5  C   UNL     1      13.575 -10.994 -25.979  1.00  0.00     0.051 A 
ATOM      6  C   UNL     1      14.781 -11.598 -26.358  1.00  0.00     0.157 A 
ENDROOT
BRANCH   1   7
ATOM      7  C   UNL     1      11.062 -13.594 -27.116  1.00  0.00     0.010 C 
ATOM      8  C   UNL     1      10.356 -13.449 -28.248  1.00  0.00     0.025 C 
BRANCH   8   9
ATOM      9  C   UNL     1      10.624 -12.450 -29.300  1.00  0.00     0.064 C 
ATOM     10  O   UNL     1       9.901 -12.434 -30.331  1.00  0.00    -0.545 OA
ATOM     11  O   UNL     1      11.607 -11.480 -29.149  1.00  0.00    -0.545 OA
ENDBRANCH   8   9
ENDBRANCH   1   7
BRANCH   4  12
ATOM     12  O   UNL     1      15.966 -13.447 -27.366  1.00  0.00    -0.504 OA
ATOM     13  H   UNL     1      16.560 -13.923 -26.697  1.00  0.00     0.293 HD
ENDBRANCH   4  12
BRANCH   6  14
ATOM     14  O   UNL     1      15.996 -10.957 -26.123  1.00  0.00    -0.504 OA
ATOM     15  H   UNL     1      16.163 -10.007 -26.434  1.00  0.00     0.293 HD
ENDBRANCH   6  14
TORSDOF 4
ENDMDL
MODEL 6
REMARK VINA RESULT:    -5.006      2.371      4.420
REMARK INTER + INTRA:          -5.716
REMARK INTER:                  -5.927
REMARK INTRA:                   0.212
REMARK UNBOUND:                 0.168
REMARK SMILES O=C([O-])C=Cc1ccc(O)c(O)c1
REMARK SMILES IDX 6 1 13 2 7 3 11 4 8 5 9 6 5 7 4 8 2 9 1 10 3 11 12 12 10 14
REMARK H PARENT 12 13 10 15
REMARK Flexibility Score: inf
ROOT
ATOM      1  C   UNL     1      13.189 -12.541 -26.825  1.00  0.00    -0.022 A 
ATOM      2  C   UNL     1      12.610 -13.005 -25.635  1.00  0.00     0.058 A 
ATOM      3  C   UNL     1      12.622 -12.911 -28.056  1.00  0.00     0.012 A 
ATOM      4  C   UNL     1      11.507 -13.873 -25.672  1.00  0.00     0.157 A 
ATOM      5  C   UNL     1      11.524 -13.775 -28.094  1.00  0.00     0.051 A 
ATOM      6  C   UNL     1      10.967 -14.261 -26.904  1.00  0.00     0.157 A 
ENDROOT
BRANCH   1   7
ATOM      7  C   UNL     1      14.316 -11.588 -26.757  1.00  0.00     0.010 C 
ATOM      8  C   UNL     1      14.223 -10.261 -26.936  1.00  0.00     0.025 C 
BRANCH   8   9
ATOM      9  C   UNL     1      13.026  -9.545 -27.416  1.00  0.00     0.064 C 
ATOM     10  O   UNL     1      13.158  -8.627 -28.268  1.00  0.00    -0.545 OA
ATOM     11  O   UNL     1      11.749  -9.907 -27.006  1.00  0.00    -0.545 OA
ENDBRANCH   8   9
ENDBRANCH   1   7
BRANCH   4  12
ATOM     12  O   UNL     1      10.944 -14.348 -24.490  1.00  0.00    -0.504 OA
ATOM     13  H   UNL     1      11.422 -15.029 -23.911  1.00  0.00     0.293 HD
ENDBRANCH   4  12
BRANCH   6  14
ATOM     14  O   UNL     1       9.873 -15.125 -26.938  1.00  0.00    -0.504 OA
ATOM     15  H   UNL     1       9.299 -15.285 -26.118  1.00  0.00     0.293 HD
ENDBRANCH   6  14
TORSDOF 4
ENDMDL
MODEL 7
REMARK VINA RESULT:    -4.859      2.278      3.186
REMARK INTER + INTRA:          -5.543
REMARK INTER:                  -6.180
REMARK INTRA:                   0.636
REMARK UNBOUND:                 0.168
REMARK SMILES O=C([O-])C=Cc1ccc(O)c(O)c1
REMARK SMILES IDX 6 1 13 2 7 3 11 4 8 5 9 6 5 7 4 8 2 9 1 10 3 11 12 12 10 14
REMARK H PARENT 12 13 10 15
REMARK Flexibility Score: inf
ROOT
ATOM      1  C   UNL     1      12.765 -11.510 -27.470  1.00  0.00    -0.022 A 
ATOM      2  C   UNL     1      12.072 -12.635 -27.001  1.00  0.00     0.058 A 
ATOM      3  C   UNL     1      12.346 -10.889 -28.659  1.00  0.00     0.012 A 
ATOM      4  C   UNL     1      11.003 -13.169 -27.736  1.00  0.00     0.157 A 
ATOM      5  C   UNL     1      11.280 -11.420 -29.392  1.00  0.00     0.051 A 
ATOM      6  C   UNL     1      10.610 -12.562 -28.935  1.00  0.00     0.157 A 
ENDROOT
BRANCH   1   7
ATOM      7  C   UNL     1      13.854 -10.937 -26.651  1.00  0.00     0.010 C 
ATOM      8  C   UNL     1      15.045 -11.514 -26.427  1.00  0.00     0.025 C 
BRANCH   8   9
ATOM      9  C   UNL     1      15.407 -12.895 -26.796  1.00  0.00     0.064 C 
ATOM     10  O   UNL     1      16.560 -13.129 -27.246  1.00  0.00    -0.545 OA
ATOM     11  O   UNL     1      14.534 -13.956 -26.591  1.00  0.00    -0.545 OA
ENDBRANCH   8   9
ENDBRANCH   1   7
BRANCH   4  12
ATOM     12  O   UNL     1      10.327 -14.298 -27.278  1.00  0.00    -0.504 OA
ATOM     13  H   UNL     1      10.232 -14.494 -26.288  1.00  0.00     0.293 HD
ENDBRANCH   4  12
BRANCH   6  14
ATOM     14  O   UNL     1       9.549 -13.097 -29.665  1.00  0.00    -0.504 OA
ATOM     15  H   UNL     1       9.366 -12.813 -30.620  1.00  0.00     0.293 HD
ENDBRANCH   6  14
TORSDOF 4
ENDMDL
MODEL 8
REMARK VINA RESULT:    -4.814      2.140      4.267
REMARK INTER + INTRA:          -5.490
REMARK INTER:                  -5.222
REMARK INTRA:                  -0.268
REMARK UNBOUND:                 0.168
REMARK SMILES O=C([O-])C=Cc1ccc(O)c(O)c1
REMARK SMILES IDX 6 1 13 2 7 3 11 4 8 5 9 6 5 7 4 8 2 9 1 10 3 11 12 12 10 14
REMARK H PARENT 12 13 10 15
REMARK Flexibility Score: inf
ROOT
ATOM      1  C   UNL     1      11.854 -11.470 -26.366  1.00  0.00    -0.022 A 
ATOM      2  C   UNL     1      11.368 -12.650 -26.946  1.00  0.00     0.058 A 
ATOM      3  C   UNL     1      11.762 -11.296 -24.975  1.00  0.00     0.012 A 
ATOM      4  C   UNL     1      10.748 -13.628 -26.153  1.00  0.00     0.157 A 
ATOM      5  C   UNL     1      11.143 -12.269 -24.184  1.00  0.00     0.051 A 
ATOM      6  C   UNL     1      10.632 -13.434 -24.771  1.00  0.00     0.157 A 
ENDROOT
BRANCH   1   7
ATOM      7  C   UNL     1      12.550 -10.480 -27.216  1.00  0.00     0.010 C 
ATOM      8  C   UNL     1      13.870 -10.452 -27.454  1.00  0.00     0.025 C 
BRANCH   8   9
ATOM      9  C   UNL     1      14.881 -11.278 -26.765  1.00  0.00     0.064 C 
ATOM     10  O   UNL     1      15.498 -10.798 -25.778  1.00  0.00    -0.545 OA
ATOM     11  O   UNL     1      15.115 -12.596 -27.134  1.00  0.00    -0.545 OA
ENDBRANCH   8   9
ENDBRANCH   1   7
BRANCH   4  12
ATOM     12  O   UNL     1      10.248 -14.793 -26.732  1.00  0.00    -0.504 OA
ATOM     13  H   UNL     1       9.666 -15.437 -26.209  1.00  0.00     0.293 HD
ENDBRANCH   4  12
BRANCH   6  14
ATOM     14  O   UNL     1      10.013 -14.406 -23.986  1.00  0.00    -0.504 OA
ATOM     15  H   UNL     1       9.938 -14.307 -22.980  1.00  0.00     0.293 HD
ENDBRANCH   6  14
TORSDOF 4
ENDMDL
MODEL 9
REMARK VINA RESULT:    -4.681      2.219      3.927
REMARK INTER + INTRA:          -5.334
REMARK INTER:                  -5.457
REMARK INTRA:                   0.123
REMARK UNBOUND:                 0.168
REMARK SMILES O=C([O-])C=Cc1ccc(O)c(O)c1
REMARK SMILES IDX 6 1 13 2 7 3 11 4 8 5 9 6 5 7 4 8 2 9 1 10 3 11 12 12 10 14
REMARK H PARENT 12 13 10 15
REMARK Flexibility Score: inf
ROOT
ATOM      1  C   UNL     1      12.074 -11.544 -27.423  1.00  0.00    -0.022 A 
ATOM      2  C   UNL     1      11.889 -12.159 -26.176  1.00  0.00     0.058 A 
ATOM      3  C   UNL     1      11.483 -12.112 -28.564  1.00  0.00     0.012 A 
ATOM      4  C   UNL     1      11.166 -13.357 -26.074  1.00  0.00     0.157 A 
ATOM      5  C   UNL     1      10.763 -13.306 -28.464  1.00  0.00     0.051 A 
ATOM      6  C   UNL     1      10.606 -13.933 -27.221  1.00  0.00     0.157 A 
ENDROOT
BRANCH   1   7
ATOM      7  C   UNL     1      12.794 -10.256 -27.494  1.00  0.00     0.010 C 
ATOM      8  C   UNL     1      14.090 -10.073 -27.197  1.00  0.00     0.025 C 
BRANCH   8   9
ATOM      9  C   UNL     1      14.973 -11.074 -26.569  1.00  0.00     0.064 C 
ATOM     10  O   UNL     1      15.511 -10.810 -25.462  1.00  0.00    -0.545 OA
ATOM     11  O   UNL     1      15.167 -12.329 -27.133  1.00  0.00    -0.545 OA
ENDBRANCH   8   9
ENDBRANCH   1   7
BRANCH   4  12
ATOM     12  O   UNL     1      10.998 -13.977 -24.838  1.00  0.00    -0.504 OA
ATOM     13  H   UNL     1      11.680 -14.635 -24.478  1.00  0.00     0.293 HD
ENDBRANCH   4  12
BRANCH   6  14
ATOM     14  O   UNL     1       9.890 -15.125 -27.118  1.00  0.00    -0.504 OA
ATOM     15  H   UNL     1      10.330 -15.981 -26.800  1.00  0.00     0.293 HD
ENDBRANCH   6  14
TORSDOF 4
ENDMDL
